MODEL 1
REMARK VINA RESULT:      -9.4      0.000      0.000
REMARK SMILES Cc1nc(Oc2ccc(F)cc2)c(C(=O)OCCOCCOCCOCCOC(=O)c2ccc(-c3c4nc(c(-c5c(F)c(F)c(F)c(F)c5F)c5ccc([nH]5)c(-c5c(F)c(F)c(F)c(F)c5F)c5nc(c(-c6c(F)c(F)c(F)c(F)c6F)c6ccc3[nH]6)C=C5)C=C4)cc2)c(C)c1Cl
REMARK SMILES IDX 22 1 21 2 20 3 19 4 18 5 17 6 16 7 14 8 15 9 13 10 1 11 2 12
REMARK SMILES IDX 3 13 96 14 4 15 94 16 97 17 95 18 5 19 6 20 7 21 12 22 8 23
REMARK SMILES IDX 11 24 9 25 10 26 23 27 24 28 25 29 26 30 27 31 28 32 29 33
REMARK SMILES IDX 30 34 31 35 32 36 93 37 33 38 92 39 34 40 35 41 36 42 86 43
REMARK SMILES IDX 37 44 91 45 85 46 87 47 38 48 90 49 84 50 83 51 39 53 71 54
REMARK SMILES IDX 51 55 70 56 52 57 55 58 69 59 88 60 53 61 54 62 68 64 89 65
REMARK SMILES IDX 56 66 40 67 41 68 49 69 42 70 43 71 47 72 50 73 44 74 45 75
REMARK SMILES IDX 48 76 46 77 72 78 73 79 81 80 74 81 75 82 79 83 82 84 76 85
REMARK SMILES IDX 77 86 80 87 78 88 57 89 58 90 66 91 59 92 60 93 64 94 67 95
REMARK SMILES IDX 61 96 62 97 65 98 63 99
REMARK H PARENT 87 52 55 63
REMARK Flexibility Score: inf
ROOT
ATOM      1  O   UNL A   1      32.518  36.954  31.135  1.00  0.00    -0.377 OA
ENDROOT
BRANCH   1   2
ATOM      2  C   UNL A   1      33.004  37.130  32.458  1.00  0.00     0.188 C 
BRANCH   2   3
ATOM      3  C   UNL A   1      34.120  36.233  33.034  1.00  0.00     0.188 C 
BRANCH   3   4
ATOM      4  O   UNL A   1      33.943  34.835  32.890  1.00  0.00    -0.376 OA
BRANCH   4   5
ATOM      5  C   UNL A   1      34.992  33.901  33.022  1.00  0.00     0.202 C 
BRANCH   5   6
ATOM      6  C   UNL A   1      36.289  34.402  33.634  1.00  0.00     0.261 C 
BRANCH   6   7
ATOM      7  O   UNL A   1      37.397  33.777  32.991  1.00  0.00    -0.459 OA
BRANCH   7   8
ATOM      8  C   UNL A   1      38.634  33.910  33.523  1.00  0.00     0.344 C 
ATOM      9  O   UNL A   1      39.627  34.312  32.972  1.00  0.00    -0.246 OA
BRANCH   8  10
ATOM     10  C   UNL A   1      38.511  33.479  34.938  1.00  0.00     0.127 A 
ATOM     11  C   UNL A   1      37.686  32.370  38.952  1.00  0.00     0.068 C 
ATOM     12  C   UNL A   1      38.085  32.784  37.563  1.00  0.00     0.060 A 
ATOM     13  N   UNL A   1      37.824  31.877  36.583  1.00  0.00    -0.216 NA
ATOM     14  C   UNL A   1      38.680  34.018  37.305  1.00  0.00     0.066 A 
ATOM     15  C   UNL A   1      38.053  32.198  35.282  1.00  0.00     0.234 A 
ATOM     16  C   UNL A   1      38.886  34.398  35.972  1.00  0.00    -0.011 A 
ATOM     17  Cl  UNL A   1      39.141  35.052  38.619  1.00  0.00    -0.082 Cl
ATOM     18  C   UNL A   1      39.555  35.721  35.649  1.00  0.00     0.047 C 
BRANCH  15  19
ATOM     19  O   UNL A   1      37.657  31.165  34.458  1.00  0.00    -0.438 OA
BRANCH  19  20
ATOM     20  C   UNL A   1      38.531  30.230  33.959  1.00  0.00     0.129 A 
ATOM     21  C   UNL A   1      39.890  30.459  34.184  1.00  0.00     0.050 A 
ATOM     22  C   UNL A   1      38.154  29.199  33.093  1.00  0.00     0.050 A 
ATOM     23  C   UNL A   1      40.856  29.578  33.696  1.00  0.00     0.043 A 
ATOM     24  C   UNL A   1      39.123  28.301  32.606  1.00  0.00     0.043 A 
ATOM     25  C   UNL A   1      40.462  28.490  32.929  1.00  0.00     0.123 A 
ATOM     26  F   UNL A   1      41.380  27.597  32.535  1.00  0.00    -0.207 F 
ENDBRANCH  19  20
ENDBRANCH  15  19
ENDBRANCH   8  10
ENDBRANCH   7   8
ENDBRANCH   6   7
ENDBRANCH   5   6
ENDBRANCH   4   5
ENDBRANCH   3   4
ENDBRANCH   2   3
ENDBRANCH   1   2
BRANCH   1  27
ATOM     27  C   UNL A   1      33.247  37.535  30.066  1.00  0.00     0.188 C 
BRANCH  27  28
ATOM     28  C   UNL A   1      33.368  36.763  28.721  1.00  0.00     0.188 C 
BRANCH  28  29
ATOM     29  O   UNL A   1      32.898  35.430  28.751  1.00  0.00    -0.376 OA
BRANCH  29  30
ATOM     30  C   UNL A   1      33.646  34.360  29.285  1.00  0.00     0.202 C 
BRANCH  30  31
ATOM     31  C   UNL A   1      34.303  33.275  28.421  1.00  0.00     0.261 C 
BRANCH  31  32
ATOM     32  O   UNL A   1      34.502  32.001  29.023  1.00  0.00    -0.460 OA
BRANCH  32  33
ATOM     33  C   UNL A   1      34.516  30.941  28.186  1.00  0.00     0.338 C 
ATOM     34  O   UNL A   1      33.702  30.657  27.328  1.00  0.00    -0.246 OA
BRANCH  33  35
ATOM     35  C   UNL A   1      35.830  30.294  28.349  1.00  0.00     0.060 A 
ATOM     36  C   UNL A   1      36.154  29.709  29.583  1.00  0.00     0.016 A 
ATOM     37  C   UNL A   1      36.706  30.225  27.267  1.00  0.00     0.016 A 
ATOM     38  C   UNL A   1      37.359  29.032  29.732  1.00  0.00     0.010 A 
ATOM     39  C   UNL A   1      37.945  29.619  27.440  1.00  0.00     0.010 A 
ATOM     40  C   UNL A   1      38.281  29.049  28.680  1.00  0.00    -0.014 A 
BRANCH  40  41
ATOM     41  C   UNL A   1      39.699  28.769  28.963  1.00  0.00     0.031 A 
ATOM     42  C   UNL A   1      40.483  29.860  29.632  1.00  0.00     0.074 A 
ATOM     43  C   UNL A   1      40.276  27.615  28.598  1.00  0.00     0.049 A 
ATOM     44  N   UNL A   1      41.765  29.943  29.861  1.00  0.00    -0.248 NA
ATOM     45  C   UNL A   1      39.709  31.024  30.103  1.00  0.00     0.031 C 
ATOM     46  C   UNL A   1      39.589  26.474  28.001  1.00  0.00     0.029 A 
ATOM     47  N   UNL A   1      41.590  27.232  28.659  1.00  0.00    -0.354 N 
ATOM     48  C   UNL A   1      41.948  31.161  30.500  1.00  0.00     0.074 A 
ATOM     49  C   UNL A   1      40.656  31.797  30.606  1.00  0.00     0.031 C 
ATOM     50  C   UNL A   1      40.496  25.522  27.722  1.00  0.00     0.029 A 
ATOM     51  C   UNL A   1      41.828  26.010  28.083  1.00  0.00     0.049 A 
ATOM     52  H   UNL A   1      42.294  27.778  29.076  1.00  0.00     0.167 HD
ATOM     53  C   UNL A   1      43.099  31.700  30.956  1.00  0.00     0.037 A 
ATOM     54  C   UNL A   1      42.998  25.385  27.848  1.00  0.00     0.037 A 
ATOM     55  C   UNL A   1      44.384  31.076  30.804  1.00  0.00     0.049 A 
ATOM     56  C   UNL A   1      44.282  26.055  28.268  1.00  0.00     0.074 A 
ATOM     57  C   UNL A   1      45.620  31.542  31.207  1.00  0.00     0.029 A 
ATOM     58  N   UNL A   1      44.593  29.851  30.185  1.00  0.00    -0.354 N 
ATOM     59  N   UNL A   1      44.459  27.207  28.871  1.00  0.00    -0.248 NA
ATOM     60  C   UNL A   1      45.529  25.337  27.974  1.00  0.00     0.031 C 
ATOM     61  C   UNL A   1      46.586  30.626  30.780  1.00  0.00     0.029 A 
ATOM     62  C   UNL A   1      45.944  29.554  30.178  1.00  0.00     0.049 A 
ATOM     63  H   UNL A   1      43.886  29.279  29.809  1.00  0.00     0.167 HD
ATOM     64  C   UNL A   1      45.830  27.336  29.062  1.00  0.00     0.074 A 
ATOM     65  C   UNL A   1      46.436  26.138  28.517  1.00  0.00     0.031 C 
ATOM     66  C   UNL A   1      46.525  28.349  29.637  1.00  0.00     0.037 A 
BRANCH  53  67
ATOM     67  C   UNL A   1      43.020  33.040  31.624  1.00  0.00     0.064 A 
ATOM     68  C   UNL A   1      42.895  33.160  33.018  1.00  0.00     0.173 A 
ATOM     69  C   UNL A   1      43.105  34.217  30.869  1.00  0.00     0.173 A 
ATOM     70  F   UNL A   1      42.780  32.064  33.783  1.00  0.00    -0.203 F 
ATOM     71  C   UNL A   1      42.850  34.411  33.626  1.00  0.00     0.198 A 
ATOM     72  C   UNL A   1      43.092  35.466  31.484  1.00  0.00     0.198 A 
ATOM     73  F   UNL A   1      43.212  34.158  29.532  1.00  0.00    -0.203 F 
ATOM     74  F   UNL A   1      42.690  34.502  34.954  1.00  0.00    -0.200 F 
ATOM     75  C   UNL A   1      42.962  35.561  32.861  1.00  0.00     0.200 A 
ATOM     76  F   UNL A   1      43.209  36.576  30.743  1.00  0.00    -0.200 F 
ATOM     77  F   UNL A   1      42.938  36.765  33.450  1.00  0.00    -0.200 F 
ENDBRANCH  53  67
BRANCH  54  78
ATOM     78  C   UNL A   1      43.004  24.055  27.187  1.00  0.00     0.064 A 
ATOM     79  C   UNL A   1      42.642  22.901  27.897  1.00  0.00     0.173 A 
ATOM     80  C   UNL A   1      43.354  23.906  25.837  1.00  0.00     0.173 A 
ATOM     81  F   UNL A   1      42.326  22.988  29.197  1.00  0.00    -0.203 F 
ATOM     82  C   UNL A   1      42.637  21.650  27.283  1.00  0.00     0.198 A 
ATOM     83  C   UNL A   1      43.320  22.659  25.217  1.00  0.00     0.198 A 
ATOM     84  F   UNL A   1      43.713  24.977  25.113  1.00  0.00    -0.203 F 
ATOM     85  F   UNL A   1      42.321  20.560  27.995  1.00  0.00    -0.200 F 
ATOM     86  C   UNL A   1      42.966  21.531  25.941  1.00  0.00     0.200 A 
ATOM     87  F   UNL A   1      43.626  22.549  23.917  1.00  0.00    -0.200 F 
ATOM     88  F   UNL A   1      42.945  20.329  25.349  1.00  0.00    -0.200 F 
ENDBRANCH  54  78
BRANCH  66  89
ATOM     89  C   UNL A   1      48.014  28.192  29.756  1.00  0.00     0.064 A 
ATOM     90  C   UNL A   1      48.894  28.734  28.809  1.00  0.00     0.173 A 
ATOM     91  C   UNL A   1      48.569  27.543  30.871  1.00  0.00     0.173 A 
ATOM     92  F   UNL A   1      48.416  29.359  27.722  1.00  0.00    -0.203 F 
ATOM     93  C   UNL A   1      50.273  28.603  28.956  1.00  0.00     0.198 A 
ATOM     94  C   UNL A   1      49.947  27.447  31.034  1.00  0.00     0.198 A 
ATOM     95  F   UNL A   1      47.772  27.019  31.815  1.00  0.00    -0.203 F 
ATOM     96  F   UNL A   1      51.094  29.082  28.011  1.00  0.00    -0.200 F 
ATOM     97  C   UNL A   1      50.798  27.969  30.073  1.00  0.00     0.200 A 
ATOM     98  F   UNL A   1      50.452  26.854  32.125  1.00  0.00    -0.200 F 
ATOM     99  F   UNL A   1      52.126  27.857  30.219  1.00  0.00    -0.200 F 
ENDBRANCH  66  89
ENDBRANCH  40  41
ENDBRANCH  33  35
ENDBRANCH  32  33
ENDBRANCH  31  32
ENDBRANCH  30  31
ENDBRANCH  29  30
ENDBRANCH  28  29
ENDBRANCH  27  28
ENDBRANCH   1  27
TORSDOF 22
ENDMDL
MODEL 2
REMARK VINA RESULT:      -9.2      1.037      7.054
REMARK SMILES Cc1nc(Oc2ccc(F)cc2)c(C(=O)OCCOCCOCCOCCOC(=O)c2ccc(-c3c4nc(c(-c5c(F)c(F)c(F)c(F)c5F)c5ccc([nH]5)c(-c5c(F)c(F)c(F)c(F)c5F)c5nc(c(-c6c(F)c(F)c(F)c(F)c6F)c6ccc3[nH]6)C=C5)C=C4)cc2)c(C)c1Cl
REMARK SMILES IDX 22 1 21 2 20 3 19 4 18 5 17 6 16 7 14 8 15 9 13 10 1 11 2 12
REMARK SMILES IDX 3 13 96 14 4 15 94 16 97 17 95 18 5 19 6 20 7 21 12 22 8 23
REMARK SMILES IDX 11 24 9 25 10 26 23 27 24 28 25 29 26 30 27 31 28 32 29 33
REMARK SMILES IDX 30 34 31 35 32 36 93 37 33 38 92 39 34 40 35 41 36 42 86 43
REMARK SMILES IDX 37 44 91 45 85 46 87 47 38 48 90 49 84 50 83 51 39 53 71 54
REMARK SMILES IDX 51 55 70 56 52 57 55 58 69 59 88 60 53 61 54 62 68 64 89 65
REMARK SMILES IDX 56 66 40 67 41 68 49 69 42 70 43 71 47 72 50 73 44 74 45 75
REMARK SMILES IDX 48 76 46 77 72 78 73 79 81 80 74 81 75 82 79 83 82 84 76 85
REMARK SMILES IDX 77 86 80 87 78 88 57 89 58 90 66 91 59 92 60 93 64 94 67 95
REMARK SMILES IDX 61 96 62 97 65 98 63 99
REMARK H PARENT 87 52 55 63
REMARK Flexibility Score: inf
ROOT
ATOM      1  O   UNL A   1      32.554  36.727  31.112  1.00  0.00    -0.377 OA
ENDROOT
BRANCH   1   2
ATOM      2  C   UNL A   1      32.991  37.094  32.413  1.00  0.00     0.188 C 
BRANCH   2   3
ATOM      3  C   UNL A   1      34.089  36.298  33.151  1.00  0.00     0.188 C 
BRANCH   3   4
ATOM      4  O   UNL A   1      33.999  34.887  33.082  1.00  0.00    -0.376 OA
BRANCH   4   5
ATOM      5  C   UNL A   1      35.018  34.020  33.533  1.00  0.00     0.202 C 
BRANCH   5   6
ATOM      6  C   UNL A   1      36.338  34.655  33.933  1.00  0.00     0.261 C 
BRANCH   6   7
ATOM      7  O   UNL A   1      37.400  34.067  33.187  1.00  0.00    -0.459 OA
BRANCH   7   8
ATOM      8  C   UNL A   1      38.643  34.030  33.720  1.00  0.00     0.344 C 
ATOM      9  O   UNL A   1      39.683  34.283  33.166  1.00  0.00    -0.246 OA
BRANCH   8  10
ATOM     10  C   UNL A   1      38.461  33.637  35.140  1.00  0.00     0.127 A 
ATOM     11  C   UNL A   1      37.477  32.671  39.154  1.00  0.00     0.068 C 
ATOM     12  C   UNL A   1      37.933  33.027  37.767  1.00  0.00     0.060 A 
ATOM     13  N   UNL A   1      37.624  32.123  36.798  1.00  0.00    -0.216 NA
ATOM     14  C   UNL A   1      38.624  34.208  37.500  1.00  0.00     0.066 A 
ATOM     15  C   UNL A   1      37.902  32.400  35.496  1.00  0.00     0.234 A 
ATOM     16  C   UNL A   1      38.884  34.546  36.164  1.00  0.00    -0.011 A 
ATOM     17  Cl  UNL A   1      39.135  35.229  38.804  1.00  0.00    -0.082 Cl
ATOM     18  C   UNL A   1      39.657  35.808  35.832  1.00  0.00     0.047 C 
BRANCH  15  19
ATOM     19  O   UNL A   1      37.446  31.385  34.683  1.00  0.00    -0.438 OA
BRANCH  19  20
ATOM     20  C   UNL A   1      38.283  30.488  34.066  1.00  0.00     0.129 A 
ATOM     21  C   UNL A   1      37.684  29.541  33.232  1.00  0.00     0.050 A 
ATOM     22  C   UNL A   1      39.641  30.354  34.375  1.00  0.00     0.050 A 
ATOM     23  C   UNL A   1      38.450  28.574  32.579  1.00  0.00     0.043 A 
ATOM     24  C   UNL A   1      40.420  29.386  33.712  1.00  0.00     0.043 A 
ATOM     25  C   UNL A   1      39.818  28.519  32.806  1.00  0.00     0.123 A 
ATOM     26  F   UNL A   1      40.565  27.649  32.112  1.00  0.00    -0.207 F 
ENDBRANCH  19  20
ENDBRANCH  15  19
ENDBRANCH   8  10
ENDBRANCH   7   8
ENDBRANCH   6   7
ENDBRANCH   5   6
ENDBRANCH   4   5
ENDBRANCH   3   4
ENDBRANCH   2   3
ENDBRANCH   1   2
BRANCH   1  27
ATOM     27  C   UNL A   1      33.196  37.318  29.995  1.00  0.00     0.188 C 
BRANCH  27  28
ATOM     28  C   UNL A   1      33.374  36.485  28.693  1.00  0.00     0.188 C 
BRANCH  28  29
ATOM     29  O   UNL A   1      32.875  35.164  28.754  1.00  0.00    -0.376 OA
BRANCH  29  30
ATOM     30  C   UNL A   1      33.656  34.062  29.161  1.00  0.00     0.202 C 
BRANCH  30  31
ATOM     31  C   UNL A   1      34.086  32.936  28.210  1.00  0.00     0.261 C 
BRANCH  31  32
ATOM     32  O   UNL A   1      34.326  31.658  28.789  1.00  0.00    -0.460 OA
BRANCH  32  33
ATOM     33  C   UNL A   1      34.550  30.644  27.924  1.00  0.00     0.338 C 
ATOM     34  O   UNL A   1      33.853  30.291  26.991  1.00  0.00    -0.246 OA
BRANCH  33  35
ATOM     35  C   UNL A   1      35.921  30.170  28.178  1.00  0.00     0.060 A 
ATOM     36  C   UNL A   1      36.227  29.605  29.426  1.00  0.00     0.016 A 
ATOM     37  C   UNL A   1      36.877  30.239  27.165  1.00  0.00     0.016 A 
ATOM     38  C   UNL A   1      37.496  29.086  29.658  1.00  0.00     0.010 A 
ATOM     39  C   UNL A   1      38.168  29.794  27.424  1.00  0.00     0.010 A 
ATOM     40  C   UNL A   1      38.483  29.246  28.680  1.00  0.00    -0.014 A 
BRANCH  40  41
ATOM     41  C   UNL A   1      39.901  29.146  29.066  1.00  0.00     0.031 A 
ATOM     42  C   UNL A   1      40.620  27.888  28.678  1.00  0.00     0.074 A 
ATOM     43  C   UNL A   1      40.508  30.110  29.774  1.00  0.00     0.049 A 
ATOM     44  N   UNL A   1      41.811  27.473  29.013  1.00  0.00    -0.248 NA
ATOM     45  C   UNL A   1      39.888  26.965  27.791  1.00  0.00     0.031 C 
ATOM     46  C   UNL A   1      39.915  31.392  30.145  1.00  0.00     0.029 A 
ATOM     47  N   UNL A   1      41.762  30.137  30.326  1.00  0.00    -0.354 N 
ATOM     48  C   UNL A   1      41.968  26.249  28.379  1.00  0.00     0.074 A 
ATOM     49  C   UNL A   1      40.749  25.971  27.657  1.00  0.00     0.031 C 
ATOM     50  C   UNL A   1      40.799  32.074  30.894  1.00  0.00     0.029 A 
ATOM     51  C   UNL A   1      41.997  31.256  31.085  1.00  0.00     0.049 A 
ATOM     52  H   UNL A   1      42.428  29.426  30.192  1.00  0.00     0.167 HD
ATOM     53  C   UNL A   1      43.041  25.428  28.402  1.00  0.00     0.037 A 
ATOM     54  C   UNL A   1      43.051  31.554  31.869  1.00  0.00     0.037 A 
ATOM     55  C   UNL A   1      44.230  25.695  29.161  1.00  0.00     0.049 A 
ATOM     56  C   UNL A   1      44.191  30.572  31.966  1.00  0.00     0.074 A 
ATOM     57  C   UNL A   1      45.369  24.923  29.277  1.00  0.00     0.029 A 
ATOM     58  N   UNL A   1      44.423  26.824  29.946  1.00  0.00    -0.354 N 
ATOM     59  N   UNL A   1      44.343  29.413  31.370  1.00  0.00    -0.248 NA
ATOM     60  C   UNL A   1      45.308  30.940  32.847  1.00  0.00     0.031 C 
ATOM     61  C   UNL A   1      46.230  25.556  30.179  1.00  0.00     0.029 A 
ATOM     62  C   UNL A   1      45.658  26.759  30.566  1.00  0.00     0.049 A 
ATOM     63  H   UNL A   1      43.779  27.561  30.045  1.00  0.00     0.167 HD
ATOM     64  C   UNL A   1      45.583  28.931  31.772  1.00  0.00     0.074 A 
ATOM     65  C   UNL A   1      46.146  29.931  32.657  1.00  0.00     0.031 C 
ATOM     66  C   UNL A   1      46.202  27.771  31.438  1.00  0.00     0.037 A 
BRANCH  53  67
ATOM     67  C   UNL A   1      42.955  24.154  27.616  1.00  0.00     0.064 A 
ATOM     68  C   UNL A   1      42.525  22.954  28.205  1.00  0.00     0.173 A 
ATOM     69  C   UNL A   1      43.272  24.140  26.251  1.00  0.00     0.173 A 
ATOM     70  F   UNL A   1      42.238  22.909  29.514  1.00  0.00    -0.203 F 
ATOM     71  C   UNL A   1      42.425  21.786  27.455  1.00  0.00     0.198 A 
ATOM     72  C   UNL A   1      43.139  22.976  25.497  1.00  0.00     0.198 A 
ATOM     73  F   UNL A   1      43.701  25.256  25.643  1.00  0.00    -0.203 F 
ATOM     74  F   UNL A   1      42.050  20.643  28.047  1.00  0.00    -0.200 F 
ATOM     75  C   UNL A   1      42.719  21.801  26.101  1.00  0.00     0.200 A 
ATOM     76  F   UNL A   1      43.417  22.996  24.186  1.00  0.00    -0.200 F 
ATOM     77  F   UNL A   1      42.603  20.680  25.375  1.00  0.00    -0.200 F 
ENDBRANCH  53  67
BRANCH  54  78
ATOM     78  C   UNL A   1      43.075  32.838  32.616  1.00  0.00     0.064 A 
ATOM     79  C   UNL A   1      42.809  32.871  33.992  1.00  0.00     0.173 A 
ATOM     80  C   UNL A   1      43.379  34.051  31.982  1.00  0.00     0.173 A 
ATOM     81  F   UNL A   1      42.488  31.741  34.638  1.00  0.00    -0.203 F 
ATOM     82  C   UNL A   1      42.839  34.069  34.703  1.00  0.00     0.198 A 
ATOM     83  C   UNL A   1      43.437  35.245  32.700  1.00  0.00     0.198 A 
ATOM     84  F   UNL A   1      43.637  34.077  30.666  1.00  0.00    -0.203 F 
ATOM     85  F   UNL A   1      42.545  34.075  36.010  1.00  0.00    -0.200 F 
ATOM     86  C   UNL A   1      43.163  35.253  34.059  1.00  0.00     0.200 A 
ATOM     87  F   UNL A   1      43.763  36.385  32.077  1.00  0.00    -0.200 F 
ATOM     88  F   UNL A   1      43.206  36.402  34.747  1.00  0.00    -0.200 F 
ENDBRANCH  54  78
BRANCH  66  89
ATOM     89  C   UNL A   1      47.580  27.534  31.988  1.00  0.00     0.064 A 
ATOM     90  C   UNL A   1      48.730  27.990  31.329  1.00  0.00     0.173 A 
ATOM     91  C   UNL A   1      47.744  26.895  33.228  1.00  0.00     0.173 A 
ATOM     92  F   UNL A   1      48.629  28.601  30.139  1.00  0.00    -0.203 F 
ATOM     93  C   UNL A   1      49.995  27.786  31.874  1.00  0.00     0.198 A 
ATOM     94  C   UNL A   1      49.006  26.727  33.788  1.00  0.00     0.198 A 
ATOM     95  F   UNL A   1      46.676  26.453  33.908  1.00  0.00    -0.203 F 
ATOM     96  F   UNL A   1      51.084  28.183  31.201  1.00  0.00    -0.200 F 
ATOM     97  C   UNL A   1      50.132  27.164  33.107  1.00  0.00     0.200 A 
ATOM     98  F   UNL A   1      49.134  26.147  34.989  1.00  0.00    -0.200 F 
ATOM     99  F   UNL A   1      51.350  26.982  33.635  1.00  0.00    -0.200 F 
ENDBRANCH  66  89
ENDBRANCH  40  41
ENDBRANCH  33  35
ENDBRANCH  32  33
ENDBRANCH  31  32
ENDBRANCH  30  31
ENDBRANCH  29  30
ENDBRANCH  28  29
ENDBRANCH  27  28
ENDBRANCH   1  27
TORSDOF 22
ENDMDL
MODEL 3
REMARK VINA RESULT:      -8.1      4.592      9.940
REMARK SMILES Cc1nc(Oc2ccc(F)cc2)c(C(=O)OCCOCCOCCOCCOC(=O)c2ccc(-c3c4nc(c(-c5c(F)c(F)c(F)c(F)c5F)c5ccc([nH]5)c(-c5c(F)c(F)c(F)c(F)c5F)c5nc(c(-c6c(F)c(F)c(F)c(F)c6F)c6ccc3[nH]6)C=C5)C=C4)cc2)c(C)c1Cl
REMARK SMILES IDX 22 1 21 2 20 3 19 4 18 5 17 6 16 7 14 8 15 9 13 10 1 11 2 12
REMARK SMILES IDX 3 13 96 14 4 15 94 16 97 17 95 18 5 19 6 20 7 21 12 22 8 23
REMARK SMILES IDX 11 24 9 25 10 26 23 27 24 28 25 29 26 30 27 31 28 32 29 33
REMARK SMILES IDX 30 34 31 35 32 36 93 37 33 38 92 39 34 40 35 41 36 42 86 43
REMARK SMILES IDX 37 44 91 45 85 46 87 47 38 48 90 49 84 50 83 51 39 53 71 54
REMARK SMILES IDX 51 55 70 56 52 57 55 58 69 59 88 60 53 61 54 62 68 64 89 65
REMARK SMILES IDX 56 66 40 67 41 68 49 69 42 70 43 71 47 72 50 73 44 74 45 75
REMARK SMILES IDX 48 76 46 77 72 78 73 79 81 80 74 81 75 82 79 83 82 84 76 85
REMARK SMILES IDX 77 86 80 87 78 88 57 89 58 90 66 91 59 92 60 93 64 94 67 95
REMARK SMILES IDX 61 96 62 97 65 98 63 99
REMARK H PARENT 87 52 55 63
REMARK Flexibility Score: inf
ROOT
ATOM      1  O   UNL A   1      33.049  33.972  28.788  1.00  0.00    -0.377 OA
ENDROOT
BRANCH   1   2
ATOM      2  C   UNL A   1      34.021  33.185  28.114  1.00  0.00     0.188 C 
BRANCH   2   3
ATOM      3  C   UNL A   1      33.849  31.661  27.945  1.00  0.00     0.188 C 
BRANCH   3   4
ATOM      4  O   UNL A   1      34.958  30.856  28.301  1.00  0.00    -0.376 OA
BRANCH   4   5
ATOM      5  C   UNL A   1      35.433  29.790  27.507  1.00  0.00     0.202 C 
BRANCH   5   6
ATOM      6  C   UNL A   1      34.391  28.897  26.858  1.00  0.00     0.261 C 
BRANCH   6   7
ATOM      7  O   UNL A   1      34.034  29.422  25.582  1.00  0.00    -0.459 OA
BRANCH   7   8
ATOM      8  C   UNL A   1      33.876  28.577  24.537  1.00  0.00     0.344 C 
ATOM      9  O   UNL A   1      34.550  28.514  23.541  1.00  0.00    -0.246 OA
BRANCH   8  10
ATOM     10  C   UNL A   1      32.712  27.724  24.883  1.00  0.00     0.127 A 
ATOM     11  C   UNL A   1      29.464  25.410  26.337  1.00  0.00     0.068 C 
ATOM     12  C   UNL A   1      30.622  26.156  25.736  1.00  0.00     0.060 A 
ATOM     13  N   UNL A   1      30.411  27.480  25.504  1.00  0.00    -0.216 NA
ATOM     14  C   UNL A   1      31.830  25.525  25.440  1.00  0.00     0.066 A 
ATOM     15  C   UNL A   1      31.429  28.263  25.058  1.00  0.00     0.234 A 
ATOM     16  C   UNL A   1      32.913  26.312  25.024  1.00  0.00    -0.011 A 
ATOM     17  Cl  UNL A   1      31.973  23.804  25.599  1.00  0.00    -0.082 Cl
ATOM     18  C   UNL A   1      34.237  25.662  24.666  1.00  0.00     0.047 C 
BRANCH  15  19
ATOM     19  O   UNL A   1      31.014  29.574  24.958  1.00  0.00    -0.438 OA
BRANCH  19  20
ATOM     20  C   UNL A   1      30.248  30.038  23.918  1.00  0.00     0.129 A 
ATOM     21  C   UNL A   1      29.396  31.110  24.195  1.00  0.00     0.050 A 
ATOM     22  C   UNL A   1      30.133  29.385  22.686  1.00  0.00     0.050 A 
ATOM     23  C   UNL A   1      28.561  31.635  23.208  1.00  0.00     0.043 A 
ATOM     24  C   UNL A   1      29.299  29.918  21.684  1.00  0.00     0.043 A 
ATOM     25  C   UNL A   1      28.536  31.049  21.951  1.00  0.00     0.123 A 
ATOM     26  F   UNL A   1      27.802  31.608  20.979  1.00  0.00    -0.207 F 
ENDBRANCH  19  20
ENDBRANCH  15  19
ENDBRANCH   8  10
ENDBRANCH   7   8
ENDBRANCH   6   7
ENDBRANCH   5   6
ENDBRANCH   4   5
ENDBRANCH   3   4
ENDBRANCH   2   3
ENDBRANCH   1   2
BRANCH   1  27
ATOM     27  C   UNL A   1      33.318  35.350  28.985  1.00  0.00     0.188 C 
BRANCH  27  28
ATOM     28  C   UNL A   1      33.191  35.951  30.415  1.00  0.00     0.188 C 
BRANCH  28  29
ATOM     29  O   UNL A   1      32.952  35.010  31.442  1.00  0.00    -0.376 OA
BRANCH  29  30
ATOM     30  C   UNL A   1      33.984  34.394  32.179  1.00  0.00     0.202 C 
BRANCH  30  31
ATOM     31  C   UNL A   1      34.521  32.990  31.870  1.00  0.00     0.261 C 
BRANCH  31  32
ATOM     32  O   UNL A   1      35.907  32.878  31.568  1.00  0.00    -0.460 OA
BRANCH  32  33
ATOM     33  C   UNL A   1      36.694  32.388  32.551  1.00  0.00     0.338 C 
ATOM     34  O   UNL A   1      36.462  32.348  33.744  1.00  0.00    -0.246 OA
BRANCH  33  35
ATOM     35  C   UNL A   1      37.812  31.695  31.887  1.00  0.00     0.060 A 
ATOM     36  C   UNL A   1      39.067  31.667  32.515  1.00  0.00     0.016 A 
ATOM     37  C   UNL A   1      37.597  31.034  30.678  1.00  0.00     0.016 A 
ATOM     38  C   UNL A   1      40.114  30.957  31.939  1.00  0.00     0.010 A 
ATOM     39  C   UNL A   1      38.665  30.392  30.061  1.00  0.00     0.010 A 
ATOM     40  C   UNL A   1      39.927  30.379  30.678  1.00  0.00    -0.014 A 
BRANCH  40  41
ATOM     41  C   UNL A   1      41.106  30.049  29.858  1.00  0.00     0.031 A 
ATOM     42  C   UNL A   1      41.149  28.673  29.260  1.00  0.00     0.074 A 
ATOM     43  C   UNL A   1      42.116  30.916  29.694  1.00  0.00     0.049 A 
ATOM     44  N   UNL A   1      42.119  28.071  28.629  1.00  0.00    -0.248 NA
ATOM     45  C   UNL A   1      39.925  27.863  29.400  1.00  0.00     0.031 C 
ATOM     46  C   UNL A   1      42.140  32.292  30.181  1.00  0.00     0.029 A 
ATOM     47  N   UNL A   1      43.330  30.745  29.084  1.00  0.00    -0.354 N 
ATOM     48  C   UNL A   1      41.622  26.818  28.298  1.00  0.00     0.074 A 
ATOM     49  C   UNL A   1      40.277  26.732  28.813  1.00  0.00     0.031 C 
ATOM     50  C   UNL A   1      43.331  32.836  29.876  1.00  0.00     0.029 A 
ATOM     51  C   UNL A   1      44.161  31.830  29.211  1.00  0.00     0.049 A 
ATOM     52  H   UNL A   1      43.583  29.925  28.602  1.00  0.00     0.167 HD
ATOM     53  C   UNL A   1      42.243  25.826  27.623  1.00  0.00     0.037 A 
ATOM     54  C   UNL A   1      45.452  31.967  28.858  1.00  0.00     0.037 A 
ATOM     55  C   UNL A   1      43.598  25.909  27.155  1.00  0.00     0.049 A 
ATOM     56  C   UNL A   1      46.159  30.807  28.202  1.00  0.00     0.074 A 
ATOM     57  C   UNL A   1      44.335  24.956  26.480  1.00  0.00     0.029 A 
ATOM     58  N   UNL A   1      44.422  27.012  27.329  1.00  0.00    -0.354 N 
ATOM     59  N   UNL A   1      45.693  29.621  27.889  1.00  0.00    -0.248 NA
ATOM     60  C   UNL A   1      47.571  31.006  27.851  1.00  0.00     0.031 C 
ATOM     61  C   UNL A   1      45.626  25.460  26.296  1.00  0.00     0.029 A 
ATOM     62  C   UNL A   1      45.670  26.755  26.790  1.00  0.00     0.049 A 
ATOM     63  H   UNL A   1      44.158  27.852  27.769  1.00  0.00     0.167 HD
ATOM     64  C   UNL A   1      46.740  28.945  27.273  1.00  0.00     0.074 A 
ATOM     65  C   UNL A   1      47.863  29.861  27.249  1.00  0.00     0.031 C 
ATOM     66  C   UNL A   1      46.772  27.686  26.770  1.00  0.00     0.037 A 
BRANCH  53  67
ATOM     67  C   UNL A   1      41.472  24.561  27.388  1.00  0.00     0.064 A 
ATOM     68  C   UNL A   1      41.772  23.378  28.083  1.00  0.00     0.173 A 
ATOM     69  C   UNL A   1      40.400  24.540  26.486  1.00  0.00     0.173 A 
ATOM     70  F   UNL A   1      42.807  23.339  28.935  1.00  0.00    -0.203 F 
ATOM     71  C   UNL A   1      41.030  22.220  27.874  1.00  0.00     0.198 A 
ATOM     72  C   UNL A   1      39.640  23.387  26.304  1.00  0.00     0.198 A 
ATOM     73  F   UNL A   1      40.081  25.640  25.787  1.00  0.00    -0.203 F 
ATOM     74  F   UNL A   1      41.359  21.091  28.519  1.00  0.00    -0.200 F 
ATOM     75  C   UNL A   1      39.957  22.228  26.996  1.00  0.00     0.200 A 
ATOM     76  F   UNL A   1      38.598  23.401  25.460  1.00  0.00    -0.200 F 
ATOM     77  F   UNL A   1      39.232  21.117  26.810  1.00  0.00    -0.200 F 
ENDBRANCH  53  67
BRANCH  54  78
ATOM     78  C   UNL A   1      46.155  33.251  29.113  1.00  0.00     0.064 A 
ATOM     79  C   UNL A   1      46.172  34.263  28.144  1.00  0.00     0.173 A 
ATOM     80  C   UNL A   1      46.808  33.502  30.328  1.00  0.00     0.173 A 
ATOM     81  F   UNL A   1      45.585  34.061  26.955  1.00  0.00    -0.203 F 
ATOM     82  C   UNL A   1      46.821  35.474  28.377  1.00  0.00     0.198 A 
ATOM     83  C   UNL A   1      47.431  34.725  30.573  1.00  0.00     0.198 A 
ATOM     84  F   UNL A   1      46.826  32.566  31.289  1.00  0.00    -0.203 F 
ATOM     85  F   UNL A   1      46.851  36.410  27.419  1.00  0.00    -0.200 F 
ATOM     86  C   UNL A   1      47.441  35.708  29.595  1.00  0.00     0.200 A 
ATOM     87  F   UNL A   1      48.019  34.952  31.755  1.00  0.00    -0.200 F 
ATOM     88  F   UNL A   1      48.051  36.879  29.825  1.00  0.00    -0.200 F 
ENDBRANCH  54  78
BRANCH  66  89
ATOM     89  C   UNL A   1      48.040  27.233  26.105  1.00  0.00     0.064 A 
ATOM     90  C   UNL A   1      48.254  27.392  24.729  1.00  0.00     0.173 A 
ATOM     91  C   UNL A   1      49.084  26.689  26.871  1.00  0.00     0.173 A 
ATOM     92  F   UNL A   1      47.287  27.901  23.949  1.00  0.00    -0.203 F 
ATOM     93  C   UNL A   1      49.451  26.993  24.139  1.00  0.00     0.198 A 
ATOM     94  C   UNL A   1      50.292  26.327  26.286  1.00  0.00     0.198 A 
ATOM     95  F   UNL A   1      48.938  26.529  28.196  1.00  0.00    -0.203 F 
ATOM     96  F   UNL A   1      49.612  27.106  22.813  1.00  0.00    -0.200 F 
ATOM     97  C   UNL A   1      50.472  26.471  24.919  1.00  0.00     0.200 A 
ATOM     98  F   UNL A   1      51.285  25.844  27.045  1.00  0.00    -0.200 F 
ATOM     99  F   UNL A   1      51.628  26.101  24.351  1.00  0.00    -0.200 F 
ENDBRANCH  66  89
ENDBRANCH  40  41
ENDBRANCH  33  35
ENDBRANCH  32  33
ENDBRANCH  31  32
ENDBRANCH  30  31
ENDBRANCH  29  30
ENDBRANCH  28  29
ENDBRANCH  27  28
ENDBRANCH   1  27
TORSDOF 22
ENDMDL
