MODEL 1
REMARK VINA RESULT:     -10.4      0.000      0.000
REMARK SMILES CN1C(=O)CC[C@H]([NH2+]Cc2ccc(C(=O)OCCOCCOCCOCCOC(=O)c3ccc(-c4c5nc(c(-c6c(F)c(F)c(F)c(F)c6F)c6ccc([nH]6)c(-c6c(F)c(F)c(F)c(F)c6F)c6nc(c(-c7c(F)c(F)c(F)c(F)c7F)c7ccc4[nH]7)C=C6)C=C5)cc3)cn2)C1=O
REMARK SMILES IDX 21 1 20 2 19 3 18 4 17 5 16 6 14 7 15 8 13 9 10 10 11 11
REMARK SMILES IDX 95 12 12 13 94 14 9 15 8 16 7 19 1 20 2 21 3 22 96 23 4 24
REMARK SMILES IDX 5 25 97 26 6 27 22 28 23 29 24 30 25 31 26 32 27 33 28 34
REMARK SMILES IDX 29 35 30 36 31 37 32 38 93 39 33 40 92 41 34 42 35 43 36 44
REMARK SMILES IDX 86 45 37 46 91 47 85 48 87 49 38 50 90 51 84 52 83 53 39 55
REMARK SMILES IDX 71 56 51 57 70 58 52 59 55 60 69 61 88 62 53 63 54 64 68 66
REMARK SMILES IDX 89 67 56 68 40 69 41 70 49 71 42 72 43 73 47 74 50 75 44 76
REMARK SMILES IDX 45 77 48 78 46 79 72 80 73 81 81 82 74 83 75 84 79 85 82 86
REMARK SMILES IDX 76 87 77 88 80 89 78 90 57 91 58 92 66 93 59 94 60 95 64 96
REMARK SMILES IDX 67 97 61 98 62 99 65 100 63 101
REMARK H PARENT 8 17 8 18 87 54 55 65
REMARK Flexibility Score: inf
ROOT
ATOM      1  C   UNL A   1      33.574  27.122  24.348  1.00  0.00     0.188 C 
ENDROOT
BRANCH   1   2
ATOM      2  C   UNL A   1      33.318  27.457  22.865  1.00  0.00     0.188 C 
BRANCH   2   3
ATOM      3  O   UNL A   1      32.745  28.739  22.673  1.00  0.00    -0.376 OA
BRANCH   3   4
ATOM      4  C   UNL A   1      31.368  28.859  22.373  1.00  0.00     0.202 C 
BRANCH   4   5
ATOM      5  C   UNL A   1      30.340  29.075  23.494  1.00  0.00     0.261 C 
BRANCH   5   6
ATOM      6  O   UNL A   1      30.184  28.013  24.439  1.00  0.00    -0.460 OA
BRANCH   6   7
ATOM      7  C   UNL A   1      29.412  26.966  24.077  1.00  0.00     0.339 C 
ATOM      8  O   UNL A   1      28.318  27.017  23.545  1.00  0.00    -0.246 OA
BRANCH   7   9
ATOM      9  C   UNL A   1      30.203  25.732  24.256  1.00  0.00     0.078 A 
ATOM     10  C   UNL A   1      31.639  23.442  24.769  1.00  0.00     0.094 A 
ATOM     11  C   UNL A   1      31.303  23.756  23.450  1.00  0.00     0.031 A 
ATOM     12  N   UNL A   1      31.241  24.201  25.826  1.00  0.00    -0.254 NA
ATOM     13  C   UNL A   1      30.571  24.912  23.191  1.00  0.00     0.019 A 
ATOM     14  C   UNL A   1      30.538  25.329  25.542  1.00  0.00     0.127 A 
BRANCH  10  15
ATOM     15  C   UNL A   1      32.627  22.317  25.037  1.00  0.00     0.318 C 
BRANCH  15  16
ATOM     16  N   UNL A   1      33.743  22.685  25.917  1.00  0.00    -0.331 N 
ATOM     17  H   UNL A   1      33.603  23.647  26.228  1.00  0.00     0.347 HD
ATOM     18  H   UNL A   1      33.741  22.018  26.690  1.00  0.00     0.347 HD
BRANCH  16  19
ATOM     19  C   UNL A   1      35.083  22.593  25.273  1.00  0.00     0.274 C 
ATOM     20  C   UNL A   1      37.704  19.805  24.937  1.00  0.00     0.156 C 
ATOM     21  N   UNL A   1      37.104  21.102  25.203  1.00  0.00    -0.281 N 
ATOM     22  C   UNL A   1      37.966  22.117  25.591  1.00  0.00     0.229 C 
ATOM     23  C   UNL A   1      35.712  21.172  25.233  1.00  0.00     0.287 C 
ATOM     24  O   UNL A   1      39.139  21.921  25.911  1.00  0.00    -0.274 OA
ATOM     25  C   UNL A   1      37.408  23.512  25.534  1.00  0.00     0.107 C 
ATOM     26  O   UNL A   1      35.036  20.145  25.138  1.00  0.00    -0.267 OA
ATOM     27  C   UNL A   1      35.979  23.573  26.026  1.00  0.00     0.085 C 
ENDBRANCH  16  19
ENDBRANCH  15  16
ENDBRANCH  10  15
ENDBRANCH   7   9
ENDBRANCH   6   7
ENDBRANCH   5   6
ENDBRANCH   4   5
ENDBRANCH   3   4
ENDBRANCH   2   3
ENDBRANCH   1   2
BRANCH   1  28
ATOM     28  O   UNL A   1      33.755  28.222  25.227  1.00  0.00    -0.377 OA
BRANCH  28  29
ATOM     29  C   UNL A   1      33.341  28.114  26.590  1.00  0.00     0.188 C 
BRANCH  29  30
ATOM     30  C   UNL A   1      32.048  28.769  27.139  1.00  0.00     0.188 C 
BRANCH  30  31
ATOM     31  O   UNL A   1      32.052  30.185  27.149  1.00  0.00    -0.376 OA
BRANCH  31  32
ATOM     32  C   UNL A   1      33.297  30.853  27.058  1.00  0.00     0.202 C 
BRANCH  32  33
ATOM     33  C   UNL A   1      33.507  32.044  28.004  1.00  0.00     0.261 C 
BRANCH  33  34
ATOM     34  O   UNL A   1      32.861  33.268  27.625  1.00  0.00    -0.460 OA
BRANCH  34  35
ATOM     35  C   UNL A   1      33.158  34.371  28.350  1.00  0.00     0.338 C 
ATOM     36  O   UNL A   1      32.529  35.404  28.415  1.00  0.00    -0.246 OA
BRANCH  35  37
ATOM     37  C   UNL A   1      34.313  34.031  29.212  1.00  0.00     0.060 A 
ATOM     38  C   UNL A   1      35.610  34.199  28.711  1.00  0.00     0.016 A 
ATOM     39  C   UNL A   1      34.108  33.561  30.510  1.00  0.00     0.016 A 
ATOM     40  C   UNL A   1      36.711  33.863  29.502  1.00  0.00     0.010 A 
ATOM     41  C   UNL A   1      35.209  33.204  31.292  1.00  0.00     0.010 A 
ATOM     42  C   UNL A   1      36.514  33.322  30.778  1.00  0.00    -0.014 A 
BRANCH  42  43
ATOM     43  C   UNL A   1      37.648  32.692  31.498  1.00  0.00     0.031 A 
ATOM     44  C   UNL A   1      38.310  31.497  30.870  1.00  0.00     0.074 A 
ATOM     45  C   UNL A   1      38.090  33.172  32.672  1.00  0.00     0.049 A 
ATOM     46  N   UNL A   1      39.272  30.738  31.331  1.00  0.00    -0.248 NA
ATOM     47  C   UNL A   1      37.816  31.103  29.541  1.00  0.00     0.031 C 
ATOM     48  C   UNL A   1      37.561  34.348  33.359  1.00  0.00     0.029 A 
ATOM     49  N   UNL A   1      39.085  32.715  33.501  1.00  0.00    -0.354 N 
ATOM     50  C   UNL A   1      39.489  29.775  30.353  1.00  0.00     0.074 A 
ATOM     51  C   UNL A   1      38.539  30.024  29.292  1.00  0.00     0.031 C 
ATOM     52  C   UNL A   1      38.229  34.513  34.515  1.00  0.00     0.029 A 
ATOM     53  C   UNL A   1      39.205  33.434  34.665  1.00  0.00     0.049 A 
ATOM     54  H   UNL A   1      39.659  31.947  33.281  1.00  0.00     0.167 HD
ATOM     55  C   UNL A   1      40.406  28.778  30.339  1.00  0.00     0.037 A 
ATOM     56  C   UNL A   1      39.994  33.223  35.737  1.00  0.00     0.037 A 
ATOM     57  C   UNL A   1      41.346  28.532  31.401  1.00  0.00     0.049 A 
ATOM     58  C   UNL A   1      40.947  32.054  35.736  1.00  0.00     0.074 A 
ATOM     59  C   UNL A   1      42.326  27.558  31.475  1.00  0.00     0.029 A 
ATOM     60  N   UNL A   1      41.413  29.260  32.580  1.00  0.00    -0.354 N 
ATOM     61  N   UNL A   1      41.169  31.163  34.799  1.00  0.00    -0.248 NA
ATOM     62  C   UNL A   1      41.764  31.862  36.944  1.00  0.00     0.031 C 
ATOM     63  C   UNL A   1      42.943  27.655  32.727  1.00  0.00     0.029 A 
ATOM     64  C   UNL A   1      42.397  28.735  33.403  1.00  0.00     0.049 A 
ATOM     65  H   UNL A   1      40.847  30.034  32.799  1.00  0.00     0.167 HD
ATOM     66  C   UNL A   1      42.169  30.330  35.288  1.00  0.00     0.074 A 
ATOM     67  C   UNL A   1      42.523  30.831  36.599  1.00  0.00     0.031 C 
ATOM     68  C   UNL A   1      42.744  29.249  34.704  1.00  0.00     0.037 A 
BRANCH  55  69
ATOM     69  C   UNL A   1      40.410  27.857  29.154  1.00  0.00     0.064 A 
ATOM     70  C   UNL A   1      41.178  28.124  28.009  1.00  0.00     0.173 A 
ATOM     71  C   UNL A   1      39.655  26.674  29.173  1.00  0.00     0.173 A 
ATOM     72  F   UNL A   1      41.906  29.248  27.932  1.00  0.00    -0.203 F 
ATOM     73  C   UNL A   1      41.165  27.258  26.919  1.00  0.00     0.198 A 
ATOM     74  C   UNL A   1      39.672  25.793  28.095  1.00  0.00     0.198 A 
ATOM     75  F   UNL A   1      38.904  26.368  30.243  1.00  0.00    -0.203 F 
ATOM     76  F   UNL A   1      41.863  27.561  25.816  1.00  0.00    -0.200 F 
ATOM     77  C   UNL A   1      40.419  26.090  26.966  1.00  0.00     0.200 A 
ATOM     78  F   UNL A   1      38.963  24.658  28.150  1.00  0.00    -0.200 F 
ATOM     79  F   UNL A   1      40.416  25.252  25.920  1.00  0.00    -0.200 F 
ENDBRANCH  55  69
BRANCH  56  80
ATOM     80  C   UNL A   1      39.908  34.127  36.917  1.00  0.00     0.064 A 
ATOM     81  C   UNL A   1      40.704  35.277  37.008  1.00  0.00     0.173 A 
ATOM     82  C   UNL A   1      39.053  33.841  37.993  1.00  0.00     0.173 A 
ATOM     83  F   UNL A   1      41.559  35.580  36.020  1.00  0.00    -0.203 F 
ATOM     84  C   UNL A   1      40.665  36.094  38.138  1.00  0.00     0.198 A 
ATOM     85  C   UNL A   1      38.991  34.676  39.106  1.00  0.00     0.198 A 
ATOM     86  F   UNL A   1      38.273  32.750  37.960  1.00  0.00    -0.203 F 
ATOM     87  F   UNL A   1      41.477  37.155  38.222  1.00  0.00    -0.200 F 
ATOM     88  C   UNL A   1      39.803  35.796  39.183  1.00  0.00     0.200 A 
ATOM     89  F   UNL A   1      38.147  34.391  40.108  1.00  0.00    -0.200 F 
ATOM     90  F   UNL A   1      39.765  36.582  40.267  1.00  0.00    -0.200 F 
ENDBRANCH  56  80
BRANCH  68  91
ATOM     91  C   UNL A   1      43.849  28.558  35.456  1.00  0.00     0.064 A 
ATOM     92  C   UNL A   1      45.197  28.898  35.272  1.00  0.00     0.173 A 
ATOM     93  C   UNL A   1      43.547  27.571  36.409  1.00  0.00     0.173 A 
ATOM     94  F   UNL A   1      45.542  29.827  34.367  1.00  0.00    -0.203 F 
ATOM     95  C   UNL A   1      46.203  28.256  35.990  1.00  0.00     0.198 A 
ATOM     96  C   UNL A   1      44.552  26.957  37.150  1.00  0.00     0.198 A 
ATOM     97  F   UNL A   1      42.273  27.213  36.632  1.00  0.00    -0.203 F 
ATOM     98  F   UNL A   1      47.488  28.559  35.758  1.00  0.00    -0.200 F 
ATOM     99  C   UNL A   1      45.880  27.292  36.934  1.00  0.00     0.200 A 
ATOM    100  F   UNL A   1      44.235  26.041  38.076  1.00  0.00    -0.200 F 
ATOM    101  F   UNL A   1      46.848  26.682  37.631  1.00  0.00    -0.200 F 
ENDBRANCH  68  91
ENDBRANCH  42  43
ENDBRANCH  35  37
ENDBRANCH  34  35
ENDBRANCH  33  34
ENDBRANCH  32  33
ENDBRANCH  31  32
ENDBRANCH  30  31
ENDBRANCH  29  30
ENDBRANCH  28  29
ENDBRANCH   1  28
TORSDOF 23
ENDMDL
MODEL 2
REMARK VINA RESULT:     -10.2      1.414      2.111
REMARK SMILES CN1C(=O)CC[C@H]([NH2+]Cc2ccc(C(=O)OCCOCCOCCOCCOC(=O)c3ccc(-c4c5nc(c(-c6c(F)c(F)c(F)c(F)c6F)c6ccc([nH]6)c(-c6c(F)c(F)c(F)c(F)c6F)c6nc(c(-c7c(F)c(F)c(F)c(F)c7F)c7ccc4[nH]7)C=C6)C=C5)cc3)cn2)C1=O
REMARK SMILES IDX 21 1 20 2 19 3 18 4 17 5 16 6 14 7 15 8 13 9 10 10 11 11
REMARK SMILES IDX 95 12 12 13 94 14 9 15 8 16 7 19 1 20 2 21 3 22 96 23 4 24
REMARK SMILES IDX 5 25 97 26 6 27 22 28 23 29 24 30 25 31 26 32 27 33 28 34
REMARK SMILES IDX 29 35 30 36 31 37 32 38 93 39 33 40 92 41 34 42 35 43 36 44
REMARK SMILES IDX 86 45 37 46 91 47 85 48 87 49 38 50 90 51 84 52 83 53 39 55
REMARK SMILES IDX 71 56 51 57 70 58 52 59 55 60 69 61 88 62 53 63 54 64 68 66
REMARK SMILES IDX 89 67 56 68 40 69 41 70 49 71 42 72 43 73 47 74 50 75 44 76
REMARK SMILES IDX 45 77 48 78 46 79 72 80 73 81 81 82 74 83 75 84 79 85 82 86
REMARK SMILES IDX 76 87 77 88 80 89 78 90 57 91 58 92 66 93 59 94 60 95 64 96
REMARK SMILES IDX 67 97 61 98 62 99 65 100 63 101
REMARK H PARENT 8 17 8 18 87 54 55 65
REMARK Flexibility Score: inf
ROOT
ATOM      1  C   UNL A   1      33.529  26.646  24.653  1.00  0.00     0.188 C 
ENDROOT
BRANCH   1   2
ATOM      2  C   UNL A   1      33.773  26.355  23.158  1.00  0.00     0.188 C 
BRANCH   2   3
ATOM      3  O   UNL A   1      33.235  27.348  22.302  1.00  0.00    -0.376 OA
BRANCH   3   4
ATOM      4  C   UNL A   1      31.941  27.184  21.753  1.00  0.00     0.202 C 
BRANCH   4   5
ATOM      5  C   UNL A   1      30.761  28.020  22.270  1.00  0.00     0.261 C 
BRANCH   5   6
ATOM      6  O   UNL A   1      30.389  27.834  23.638  1.00  0.00    -0.460 OA
BRANCH   6   7
ATOM      7  C   UNL A   1      29.385  26.970  23.899  1.00  0.00     0.339 C 
ATOM      8  O   UNL A   1      28.208  27.117  23.625  1.00  0.00    -0.246 OA
BRANCH   7   9
ATOM      9  C   UNL A   1      29.982  25.716  24.402  1.00  0.00     0.078 A 
ATOM     10  C   UNL A   1      31.022  23.419  25.503  1.00  0.00     0.094 A 
ATOM     11  C   UNL A   1      30.976  23.550  24.112  1.00  0.00     0.031 A 
ATOM     12  N   UNL A   1      30.526  24.368  26.343  1.00  0.00    -0.254 NA
ATOM     13  C   UNL A   1      30.443  24.710  23.555  1.00  0.00     0.019 A 
ATOM     14  C   UNL A   1      30.023  25.493  25.772  1.00  0.00     0.127 A 
BRANCH  10  15
ATOM     15  C   UNL A   1      31.807  22.270  26.116  1.00  0.00     0.318 C 
BRANCH  15  16
ATOM     16  N   UNL A   1      32.724  21.596  25.187  1.00  0.00    -0.331 N 
ATOM     17  H   UNL A   1      32.839  22.188  24.365  1.00  0.00     0.347 HD
ATOM     18  H   UNL A   1      33.599  21.449  25.692  1.00  0.00     0.347 HD
BRANCH  16  19
ATOM     19  C   UNL A   1      32.257  20.255  24.737  1.00  0.00     0.274 C 
ATOM     20  C   UNL A   1      33.331  16.649  25.511  1.00  0.00     0.156 C 
ATOM     21  N   UNL A   1      32.961  17.843  24.770  1.00  0.00    -0.281 N 
ATOM     22  C   UNL A   1      32.900  17.722  23.390  1.00  0.00     0.229 C 
ATOM     23  C   UNL A   1      32.885  19.042  25.478  1.00  0.00     0.287 C 
ATOM     24  O   UNL A   1      33.333  16.747  22.778  1.00  0.00    -0.274 OA
ATOM     25  C   UNL A   1      32.200  18.837  22.662  1.00  0.00     0.107 C 
ATOM     26  O   UNL A   1      33.223  19.085  26.664  1.00  0.00    -0.267 OA
ATOM     27  C   UNL A   1      32.540  20.193  23.238  1.00  0.00     0.085 C 
ENDBRANCH  16  19
ENDBRANCH  15  16
ENDBRANCH  10  15
ENDBRANCH   7   9
ENDBRANCH   6   7
ENDBRANCH   5   6
ENDBRANCH   4   5
ENDBRANCH   3   4
ENDBRANCH   2   3
ENDBRANCH   1   2
BRANCH   1  28
ATOM     28  O   UNL A   1      33.848  27.953  25.107  1.00  0.00    -0.377 OA
BRANCH  28  29
ATOM     29  C   UNL A   1      33.822  28.240  26.506  1.00  0.00     0.188 C 
BRANCH  29  30
ATOM     30  C   UNL A   1      32.547  28.706  27.254  1.00  0.00     0.188 C 
BRANCH  30  31
ATOM     31  O   UNL A   1      32.332  30.105  27.256  1.00  0.00    -0.376 OA
BRANCH  31  32
ATOM     32  C   UNL A   1      33.405  30.950  26.885  1.00  0.00     0.202 C 
BRANCH  32  33
ATOM     33  C   UNL A   1      33.695  32.139  27.811  1.00  0.00     0.261 C 
BRANCH  33  34
ATOM     34  O   UNL A   1      32.821  33.270  27.673  1.00  0.00    -0.460 OA
BRANCH  34  35
ATOM     35  C   UNL A   1      33.139  34.383  28.374  1.00  0.00     0.338 C 
ATOM     36  O   UNL A   1      32.535  35.432  28.407  1.00  0.00    -0.246 OA
BRANCH  35  37
ATOM     37  C   UNL A   1      34.276  34.036  29.255  1.00  0.00     0.060 A 
ATOM     38  C   UNL A   1      35.581  34.310  28.826  1.00  0.00     0.016 A 
ATOM     39  C   UNL A   1      34.048  33.453  30.503  1.00  0.00     0.016 A 
ATOM     40  C   UNL A   1      36.667  33.970  29.634  1.00  0.00     0.010 A 
ATOM     41  C   UNL A   1      35.136  33.093  31.301  1.00  0.00     0.010 A 
ATOM     42  C   UNL A   1      36.451  33.319  30.855  1.00  0.00    -0.014 A 
BRANCH  42  43
ATOM     43  C   UNL A   1      37.589  32.693  31.572  1.00  0.00     0.031 A 
ATOM     44  C   UNL A   1      38.267  31.512  30.933  1.00  0.00     0.074 A 
ATOM     45  C   UNL A   1      38.023  33.165  32.753  1.00  0.00     0.049 A 
ATOM     46  N   UNL A   1      39.235  30.758  31.389  1.00  0.00    -0.248 NA
ATOM     47  C   UNL A   1      37.781  31.127  29.599  1.00  0.00     0.031 C 
ATOM     48  C   UNL A   1      37.479  34.328  33.450  1.00  0.00     0.029 A 
ATOM     49  N   UNL A   1      39.020  32.710  33.579  1.00  0.00    -0.354 N 
ATOM     50  C   UNL A   1      39.466  29.808  30.401  1.00  0.00     0.074 A 
ATOM     51  C   UNL A   1      38.516  30.058  29.340  1.00  0.00     0.031 C 
ATOM     52  C   UNL A   1      38.142  34.487  34.610  1.00  0.00     0.029 A 
ATOM     53  C   UNL A   1      39.129  33.417  34.751  1.00  0.00     0.049 A 
ATOM     54  H   UNL A   1      39.603  31.950  33.353  1.00  0.00     0.167 HD
ATOM     55  C   UNL A   1      40.392  28.821  30.380  1.00  0.00     0.037 A 
ATOM     56  C   UNL A   1      39.916  33.202  35.824  1.00  0.00     0.037 A 
ATOM     57  C   UNL A   1      41.332  28.574  31.442  1.00  0.00     0.049 A 
ATOM     58  C   UNL A   1      40.882  32.044  35.813  1.00  0.00     0.074 A 
ATOM     59  C   UNL A   1      42.322  27.610  31.509  1.00  0.00     0.029 A 
ATOM     60  N   UNL A   1      41.388  29.289  32.629  1.00  0.00    -0.354 N 
ATOM     61  N   UNL A   1      41.117  31.166  34.867  1.00  0.00    -0.248 NA
ATOM     62  C   UNL A   1      41.697  31.848  37.022  1.00  0.00     0.031 C 
ATOM     63  C   UNL A   1      42.934  27.700  32.763  1.00  0.00     0.029 A 
ATOM     64  C   UNL A   1      42.375  28.766  33.449  1.00  0.00     0.049 A 
ATOM     65  H   UNL A   1      40.812  30.055  32.855  1.00  0.00     0.167 HD
ATOM     66  C   UNL A   1      42.123  30.338  35.351  1.00  0.00     0.074 A 
ATOM     67  C   UNL A   1      42.468  30.829  36.669  1.00  0.00     0.031 C 
ATOM     68  C   UNL A   1      42.712  29.270  34.757  1.00  0.00     0.037 A 
BRANCH  55  69
ATOM     69  C   UNL A   1      40.410  27.913  29.184  1.00  0.00     0.064 A 
ATOM     70  C   UNL A   1      39.605  26.765  29.113  1.00  0.00     0.173 A 
ATOM     71  C   UNL A   1      41.227  28.209  28.082  1.00  0.00     0.173 A 
ATOM     72  F   UNL A   1      38.817  26.428  30.145  1.00  0.00    -0.203 F 
ATOM     73  C   UNL A   1      39.639  25.935  27.996  1.00  0.00     0.198 A 
ATOM     74  C   UNL A   1      41.233  27.394  26.953  1.00  0.00     0.198 A 
ATOM     75  F   UNL A   1      42.016  29.295  28.097  1.00  0.00    -0.203 F 
ATOM     76  F   UNL A   1      38.902  24.815  27.972  1.00  0.00    -0.200 F 
ATOM     77  C   UNL A   1      40.446  26.253  26.914  1.00  0.00     0.200 A 
ATOM     78  F   UNL A   1      42.001  27.714  25.904  1.00  0.00    -0.200 F 
ATOM     79  F   UNL A   1      40.471  25.457  25.836  1.00  0.00    -0.200 F 
ENDBRANCH  55  69
BRANCH  56  80
ATOM     80  C   UNL A   1      39.817  34.093  37.014  1.00  0.00     0.064 A 
ATOM     81  C   UNL A   1      40.542  35.291  37.085  1.00  0.00     0.173 A 
ATOM     82  C   UNL A   1      39.021  33.747  38.117  1.00  0.00     0.173 A 
ATOM     83  F   UNL A   1      41.339  35.653  36.069  1.00  0.00    -0.203 F 
ATOM     84  C   UNL A   1      40.493  36.097  38.222  1.00  0.00     0.198 A 
ATOM     85  C   UNL A   1      38.948  34.571  39.239  1.00  0.00     0.198 A 
ATOM     86  F   UNL A   1      38.311  32.610  38.104  1.00  0.00    -0.203 F 
ATOM     87  F   UNL A   1      41.240  37.207  38.284  1.00  0.00    -0.200 F 
ATOM     88  C   UNL A   1      39.691  35.739  39.295  1.00  0.00     0.200 A 
ATOM     89  F   UNL A   1      38.161  34.227  40.268  1.00  0.00    -0.200 F 
ATOM     90  F   UNL A   1      39.643  36.515  40.386  1.00  0.00    -0.200 F 
ENDBRANCH  56  80
BRANCH  68  91
ATOM     91  C   UNL A   1      43.822  28.582  35.505  1.00  0.00     0.064 A 
ATOM     92  C   UNL A   1      45.157  28.995  35.394  1.00  0.00     0.173 A 
ATOM     93  C   UNL A   1      43.535  27.523  36.381  1.00  0.00     0.173 A 
ATOM     94  F   UNL A   1      45.489  29.995  34.564  1.00  0.00    -0.203 F 
ATOM     95  C   UNL A   1      46.167  28.354  36.108  1.00  0.00     0.198 A 
ATOM     96  C   UNL A   1      44.541  26.908  37.120  1.00  0.00     0.198 A 
ATOM     97  F   UNL A   1      42.272  27.093  36.533  1.00  0.00    -0.203 F 
ATOM     98  F   UNL A   1      47.443  28.730  35.945  1.00  0.00    -0.200 F 
ATOM     99  C   UNL A   1      45.858  27.317  36.976  1.00  0.00     0.200 A 
ATOM    100  F   UNL A   1      44.236  25.920  37.973  1.00  0.00    -0.200 F 
ATOM    101  F   UNL A   1      46.829  26.707  37.669  1.00  0.00    -0.200 F 
ENDBRANCH  68  91
ENDBRANCH  42  43
ENDBRANCH  35  37
ENDBRANCH  34  35
ENDBRANCH  33  34
ENDBRANCH  32  33
ENDBRANCH  31  32
ENDBRANCH  30  31
ENDBRANCH  29  30
ENDBRANCH  28  29
ENDBRANCH   1  28
TORSDOF 23
ENDMDL
MODEL 3
REMARK VINA RESULT:      -9.9      5.042      9.972
REMARK SMILES CN1C(=O)CC[C@H]([NH2+]Cc2ccc(C(=O)OCCOCCOCCOCCOC(=O)c3ccc(-c4c5nc(c(-c6c(F)c(F)c(F)c(F)c6F)c6ccc([nH]6)c(-c6c(F)c(F)c(F)c(F)c6F)c6nc(c(-c7c(F)c(F)c(F)c(F)c7F)c7ccc4[nH]7)C=C6)C=C5)cc3)cn2)C1=O
REMARK SMILES IDX 21 1 20 2 19 3 18 4 17 5 16 6 14 7 15 8 13 9 10 10 11 11
REMARK SMILES IDX 95 12 12 13 94 14 9 15 8 16 7 19 1 20 2 21 3 22 96 23 4 24
REMARK SMILES IDX 5 25 97 26 6 27 22 28 23 29 24 30 25 31 26 32 27 33 28 34
REMARK SMILES IDX 29 35 30 36 31 37 32 38 93 39 33 40 92 41 34 42 35 43 36 44
REMARK SMILES IDX 86 45 37 46 91 47 85 48 87 49 38 50 90 51 84 52 83 53 39 55
REMARK SMILES IDX 71 56 51 57 70 58 52 59 55 60 69 61 88 62 53 63 54 64 68 66
REMARK SMILES IDX 89 67 56 68 40 69 41 70 49 71 42 72 43 73 47 74 50 75 44 76
REMARK SMILES IDX 45 77 48 78 46 79 72 80 73 81 81 82 74 83 75 84 79 85 82 86
REMARK SMILES IDX 76 87 77 88 80 89 78 90 57 91 58 92 66 93 59 94 60 95 64 96
REMARK SMILES IDX 67 97 61 98 62 99 65 100 63 101
REMARK H PARENT 8 17 8 18 87 54 55 65
REMARK Flexibility Score: inf
ROOT
ATOM      1  C   UNL A   1      33.329  27.489  26.490  1.00  0.00     0.188 C 
ENDROOT
BRANCH   1   2
ATOM      2  C   UNL A   1      32.935  26.080  26.002  1.00  0.00     0.188 C 
BRANCH   2   3
ATOM      3  O   UNL A   1      34.028  25.178  25.963  1.00  0.00    -0.376 OA
BRANCH   3   4
ATOM      4  C   UNL A   1      33.795  23.784  26.021  1.00  0.00     0.202 C 
BRANCH   4   5
ATOM      5  C   UNL A   1      34.161  22.880  24.834  1.00  0.00     0.261 C 
BRANCH   5   6
ATOM      6  O   UNL A   1      33.192  22.766  23.788  1.00  0.00    -0.460 OA
BRANCH   6   7
ATOM      7  C   UNL A   1      33.417  23.459  22.652  1.00  0.00     0.339 C 
ATOM      8  O   UNL A   1      34.023  23.071  21.670  1.00  0.00    -0.246 OA
BRANCH   7   9
ATOM      9  C   UNL A   1      32.631  24.708  22.716  1.00  0.00     0.078 A 
ATOM     10  C   UNL A   1      31.296  27.114  22.731  1.00  0.00     0.094 A 
ATOM     11  C   UNL A   1      30.625  25.958  23.138  1.00  0.00     0.031 A 
ATOM     12  N   UNL A   1      32.579  27.093  22.278  1.00  0.00    -0.254 NA
ATOM     13  C   UNL A   1      31.299  24.739  23.124  1.00  0.00     0.019 A 
ATOM     14  C   UNL A   1      33.214  25.892  22.286  1.00  0.00     0.127 A 
BRANCH  10  15
ATOM     15  C   UNL A   1      30.648  28.470  22.963  1.00  0.00     0.318 C 
BRANCH  15  16
ATOM     16  N   UNL A   1      29.270  28.578  22.466  1.00  0.00    -0.331 N 
ATOM     17  H   UNL A   1      29.289  28.495  21.449  1.00  0.00     0.347 HD
ATOM     18  H   UNL A   1      28.737  27.832  22.913  1.00  0.00     0.347 HD
BRANCH  16  19
ATOM     19  C   UNL A   1      28.595  29.859  22.818  1.00  0.00     0.274 C 
ATOM     20  C   UNL A   1      27.661  33.022  20.850  1.00  0.00     0.156 C 
ATOM     21  N   UNL A   1      28.191  32.159  21.892  1.00  0.00    -0.281 N 
ATOM     22  C   UNL A   1      28.757  32.789  22.991  1.00  0.00     0.229 C 
ATOM     23  C   UNL A   1      28.261  30.793  21.622  1.00  0.00     0.287 C 
ATOM     24  O   UNL A   1      29.009  33.993  23.023  1.00  0.00    -0.274 OA
ATOM     25  C   UNL A   1      28.989  31.923  24.198  1.00  0.00     0.107 C 
ATOM     26  O   UNL A   1      27.976  30.367  20.500  1.00  0.00    -0.267 OA
ATOM     27  C   UNL A   1      29.510  30.554  23.823  1.00  0.00     0.085 C 
ENDBRANCH  16  19
ENDBRANCH  15  16
ENDBRANCH  10  15
ENDBRANCH   7   9
ENDBRANCH   6   7
ENDBRANCH   5   6
ENDBRANCH   4   5
ENDBRANCH   3   4
ENDBRANCH   2   3
ENDBRANCH   1   2
BRANCH   1  28
ATOM     28  O   UNL A   1      32.392  28.160  27.321  1.00  0.00    -0.377 OA
BRANCH  28  29
ATOM     29  C   UNL A   1      32.260  29.579  27.234  1.00  0.00     0.188 C 
BRANCH  29  30
ATOM     30  C   UNL A   1      33.444  30.524  26.904  1.00  0.00     0.188 C 
BRANCH  30  31
ATOM     31  O   UNL A   1      33.541  31.671  27.728  1.00  0.00    -0.376 OA
BRANCH  31  32
ATOM     32  C   UNL A   1      34.651  31.782  28.598  1.00  0.00     0.202 C 
BRANCH  32  33
ATOM     33  C   UNL A   1      34.425  32.556  29.904  1.00  0.00     0.261 C 
BRANCH  33  34
ATOM     34  O   UNL A   1      34.936  31.939  31.095  1.00  0.00    -0.460 OA
BRANCH  34  35
ATOM     35  C   UNL A   1      35.819  32.655  31.829  1.00  0.00     0.338 C 
ATOM     36  O   UNL A   1      35.584  33.368  32.780  1.00  0.00    -0.246 OA
BRANCH  35  37
ATOM     37  C   UNL A   1      37.176  32.271  31.379  1.00  0.00     0.060 A 
ATOM     38  C   UNL A   1      37.660  32.774  30.164  1.00  0.00     0.016 A 
ATOM     39  C   UNL A   1      37.966  31.427  32.162  1.00  0.00     0.016 A 
ATOM     40  C   UNL A   1      38.928  32.405  29.713  1.00  0.00     0.010 A 
ATOM     41  C   UNL A   1      39.225  31.041  31.699  1.00  0.00     0.010 A 
ATOM     42  C   UNL A   1      39.698  31.502  30.456  1.00  0.00    -0.014 A 
BRANCH  42  43
ATOM     43  C   UNL A   1      40.900  30.880  29.850  1.00  0.00     0.031 A 
ATOM     44  C   UNL A   1      42.127  31.730  29.673  1.00  0.00     0.074 A 
ATOM     45  C   UNL A   1      40.912  29.589  29.475  1.00  0.00     0.049 A 
ATOM     46  N   UNL A   1      43.273  31.437  29.113  1.00  0.00    -0.248 NA
ATOM     47  C   UNL A   1      42.048  33.103  30.198  1.00  0.00     0.031 C 
ATOM     48  C   UNL A   1      39.803  28.652  29.635  1.00  0.00     0.029 A 
ATOM     49  N   UNL A   1      41.897  28.848  28.870  1.00  0.00    -0.354 N 
ATOM     50  C   UNL A   1      44.044  32.589  29.211  1.00  0.00     0.074 A 
ATOM     51  C   UNL A   1      43.226  33.595  29.852  1.00  0.00     0.031 C 
ATOM     52  C   UNL A   1      40.164  27.460  29.126  1.00  0.00     0.029 A 
ATOM     53  C   UNL A   1      41.515  27.563  28.573  1.00  0.00     0.049 A 
ATOM     54  H   UNL A   1      42.792  29.203  28.669  1.00  0.00     0.167 HD
ATOM     55  C   UNL A   1      45.322  32.786  28.810  1.00  0.00     0.037 A 
ATOM     56  C   UNL A   1      42.172  26.595  27.904  1.00  0.00     0.037 A 
ATOM     57  C   UNL A   1      46.130  31.782  28.168  1.00  0.00     0.049 A 
ATOM     58  C   UNL A   1      43.565  26.866  27.391  1.00  0.00     0.074 A 
ATOM     59  C   UNL A   1      47.442  31.877  27.738  1.00  0.00     0.029 A 
ATOM     60  N   UNL A   1      45.696  30.503  27.852  1.00  0.00    -0.354 N 
ATOM     61  N   UNL A   1      44.300  27.946  27.510  1.00  0.00    -0.248 NA
ATOM     62  C   UNL A   1      44.221  25.779  26.649  1.00  0.00     0.031 C 
ATOM     63  C   UNL A   1      47.780  30.678  27.104  1.00  0.00     0.029 A 
ATOM     64  C   UNL A   1      46.705  29.810  27.202  1.00  0.00     0.049 A 
ATOM     65  H   UNL A   1      44.804  30.141  28.059  1.00  0.00     0.167 HD
ATOM     66  C   UNL A   1      45.511  27.658  26.892  1.00  0.00     0.074 A 
ATOM     67  C   UNL A   1      45.419  26.295  26.412  1.00  0.00     0.031 C 
ATOM     68  C   UNL A   1      46.602  28.450  26.736  1.00  0.00     0.037 A 
BRANCH  55  69
ATOM     69  C   UNL A   1      45.913  34.150  29.022  1.00  0.00     0.064 A 
ATOM     70  C   UNL A   1      46.566  34.498  30.214  1.00  0.00     0.173 A 
ATOM     71  C   UNL A   1      45.847  35.116  28.006  1.00  0.00     0.173 A 
ATOM     72  F   UNL A   1      46.644  33.618  31.224  1.00  0.00    -0.203 F 
ATOM     73  C   UNL A   1      47.104  35.770  30.391  1.00  0.00     0.198 A 
ATOM     74  C   UNL A   1      46.417  36.374  28.173  1.00  0.00     0.198 A 
ATOM     75  F   UNL A   1      45.236  34.835  26.844  1.00  0.00    -0.203 F 
ATOM     76  F   UNL A   1      47.676  36.098  31.558  1.00  0.00    -0.200 F 
ATOM     77  C   UNL A   1      47.037  36.704  29.368  1.00  0.00     0.200 A 
ATOM     78  F   UNL A   1      46.363  37.269  27.178  1.00  0.00    -0.200 F 
ATOM     79  F   UNL A   1      47.564  37.925  29.537  1.00  0.00    -0.200 F 
ENDBRANCH  55  69
BRANCH  56  80
ATOM     80  C   UNL A   1      41.520  25.278  27.663  1.00  0.00     0.064 A 
ATOM     81  C   UNL A   1      40.439  25.156  26.778  1.00  0.00     0.173 A 
ATOM     82  C   UNL A   1      41.942  24.123  28.339  1.00  0.00     0.173 A 
ATOM     83  F   UNL A   1      39.980  26.236  26.129  1.00  0.00    -0.203 F 
ATOM     84  C   UNL A   1      39.793  23.934  26.595  1.00  0.00     0.198 A 
ATOM     85  C   UNL A   1      41.315  22.896  28.129  1.00  0.00     0.198 A 
ATOM     86  F   UNL A   1      42.967  24.184  29.201  1.00  0.00    -0.203 F 
ATOM     87  F   UNL A   1      38.728  23.859  25.786  1.00  0.00    -0.200 F 
ATOM     88  C   UNL A   1      40.236  22.804  27.266  1.00  0.00     0.200 A 
ATOM     89  F   UNL A   1      41.755  21.805  28.770  1.00  0.00    -0.200 F 
ATOM     90  F   UNL A   1      39.615  21.630  27.088  1.00  0.00    -0.200 F 
ENDBRANCH  56  80
BRANCH  68  91
ATOM     91  C   UNL A   1      47.804  27.851  26.059  1.00  0.00     0.064 A 
ATOM     92  C   UNL A   1      48.871  27.306  26.787  1.00  0.00     0.173 A 
ATOM     93  C   UNL A   1      47.866  27.782  24.657  1.00  0.00     0.173 A 
ATOM     94  F   UNL A   1      48.869  27.354  28.128  1.00  0.00    -0.203 F 
ATOM     95  C   UNL A   1      49.968  26.743  26.139  1.00  0.00     0.198 A 
ATOM     96  C   UNL A   1      48.946  27.186  24.014  1.00  0.00     0.198 A 
ATOM     97  F   UNL A   1      46.868  28.280  23.910  1.00  0.00    -0.203 F 
ATOM     98  F   UNL A   1      51.001  26.277  26.855  1.00  0.00    -0.200 F 
ATOM     99  C   UNL A   1      50.002  26.675  24.754  1.00  0.00     0.200 A 
ATOM    100  F   UNL A   1      48.967  27.105  22.676  1.00  0.00    -0.200 F 
ATOM    101  F   UNL A   1      51.053  26.125  24.132  1.00  0.00    -0.200 F 
ENDBRANCH  68  91
ENDBRANCH  42  43
ENDBRANCH  35  37
ENDBRANCH  34  35
ENDBRANCH  33  34
ENDBRANCH  32  33
ENDBRANCH  31  32
ENDBRANCH  30  31
ENDBRANCH  29  30
ENDBRANCH  28  29
ENDBRANCH   1  28
TORSDOF 23
ENDMDL
