MODEL 1
REMARK VINA RESULT:     -10.1      0.000      0.000
REMARK SMILES O=C(OCCOCCOCCOCCOC(=O)[C@@H]1CC[C@@]2(CCN(C(=O)OCc3ccccc3)C2)C1)c1ccc(-c2c3nc(c(-c4c(F)c(F)c(F)c(F)c4F)c4ccc([nH]4)c(-c4c(F)c(F)c(F)c(F)c4F)c4nc(c(-c5c(F)c(F)c(F)c(F)c5F)c5ccc2[nH]5)C=C4)C=C3)cc1
REMARK SMILES IDX 10 1 9 2 8 3 7 4 6 5 5 6 4 7 3 8 2 9 1 10 37 11 38 12 99 13
REMARK SMILES IDX 39 14 98 15 40 16 41 17 42 18 92 19 43 20 97 21 91 22 93 23
REMARK SMILES IDX 44 24 96 25 90 26 89 27 45 29 77 30 57 31 76 32 58 33 61 34
REMARK SMILES IDX 75 35 94 36 59 37 60 38 74 40 95 41 62 42 46 43 47 44 55 45
REMARK SMILES IDX 48 46 49 47 53 48 56 49 50 50 51 51 54 52 52 53 78 54 79 55
REMARK SMILES IDX 87 56 80 57 81 58 85 59 88 60 82 61 83 62 86 63 84 64 63 65
REMARK SMILES IDX 64 66 72 67 65 68 66 69 70 70 73 71 67 72 68 73 71 74 69 75
REMARK SMILES IDX 11 76 12 77 13 78 14 79 15 80 16 81 17 82 18 83 19 84 36 85
REMARK SMILES IDX 20 86 21 87 22 88 35 89 23 90 24 91 25 92 26 93 27 94 28 95
REMARK SMILES IDX 29 96 30 97 34 98 31 99 33 100 32 101
REMARK H PARENT 93 28 61 39
REMARK Flexibility Score: inf
ROOT
ATOM      1  C   UNL A   1      34.158  23.092  23.299  1.00  0.00     0.188 C 
ENDROOT
BRANCH   1   2
ATOM      2  O   UNL A   1      33.156  22.373  23.986  1.00  0.00    -0.377 OA
BRANCH   2   3
ATOM      3  C   UNL A   1      33.635  21.592  25.088  1.00  0.00     0.188 C 
BRANCH   3   4
ATOM      4  C   UNL A   1      34.281  20.252  24.704  1.00  0.00     0.188 C 
BRANCH   4   5
ATOM      5  O   UNL A   1      35.681  20.234  25.025  1.00  0.00    -0.376 OA
BRANCH   5   6
ATOM      6  C   UNL A   1      36.175  21.417  25.679  1.00  0.00     0.202 C 
BRANCH   6   7
ATOM      7  C   UNL A   1      37.626  21.760  25.355  1.00  0.00     0.261 C 
BRANCH   7   8
ATOM      8  O   UNL A   1      38.582  20.940  26.045  1.00  0.00    -0.460 OA
BRANCH   8   9
ATOM      9  C   UNL A   1      39.824  21.260  26.490  1.00  0.00     0.338 C 
ATOM     10  O   UNL A   1      40.632  20.346  26.653  1.00  0.00    -0.246 OA
BRANCH   9  11
ATOM     11  C   UNL A   1      40.266  22.646  26.856  1.00  0.00     0.060 A 
ATOM     12  C   UNL A   1      39.862  23.804  26.204  1.00  0.00     0.016 A 
ATOM     13  C   UNL A   1      41.124  22.803  27.962  1.00  0.00     0.016 A 
ATOM     14  C   UNL A   1      40.219  25.062  26.627  1.00  0.00     0.010 A 
ATOM     15  C   UNL A   1      41.563  24.073  28.366  1.00  0.00     0.010 A 
ATOM     16  C   UNL A   1      41.108  25.202  27.678  1.00  0.00    -0.014 A 
BRANCH  16  17
ATOM     17  C   UNL A   1      41.723  26.532  27.744  1.00  0.00     0.031 A 
ATOM     18  C   UNL A   1      41.023  27.545  28.600  1.00  0.00     0.074 A 
ATOM     19  C   UNL A   1      43.008  26.676  27.377  1.00  0.00     0.049 A 
ATOM     20  N   UNL A   1      41.370  28.765  28.898  1.00  0.00    -0.248 NA
ATOM     21  C   UNL A   1      39.784  27.094  29.267  1.00  0.00     0.031 C 
ATOM     22  C   UNL A   1      43.842  25.615  26.802  1.00  0.00     0.029 A 
ATOM     23  N   UNL A   1      43.859  27.736  27.505  1.00  0.00    -0.354 N 
ATOM     24  C   UNL A   1      40.386  29.230  29.759  1.00  0.00     0.074 A 
ATOM     25  C   UNL A   1      39.436  28.164  29.961  1.00  0.00     0.031 C 
ATOM     26  C   UNL A   1      45.090  26.082  26.631  1.00  0.00     0.029 A 
ATOM     27  C   UNL A   1      45.116  27.489  27.008  1.00  0.00     0.049 A 
ATOM     28  H   UNL A   1      43.598  28.594  27.913  1.00  0.00     0.167 HD
ATOM     29  C   UNL A   1      40.286  30.459  30.312  1.00  0.00     0.037 A 
ATOM     30  C   UNL A   1      46.141  28.342  26.834  1.00  0.00     0.037 A 
ATOM     31  C   UNL A   1      41.244  31.494  30.051  1.00  0.00     0.049 A 
ATOM     32  C   UNL A   1      45.926  29.765  27.284  1.00  0.00     0.074 A 
ATOM     33  C   UNL A   1      41.189  32.837  30.360  1.00  0.00     0.029 A 
ATOM     34  N   UNL A   1      42.454  31.273  29.401  1.00  0.00    -0.354 N 
ATOM     35  N   UNL A   1      44.909  30.278  27.940  1.00  0.00    -0.248 NA
ATOM     36  C   UNL A   1      46.975  30.732  26.952  1.00  0.00     0.031 C 
ATOM     37  C   UNL A   1      42.350  33.437  29.857  1.00  0.00     0.029 A 
ATOM     38  C   UNL A   1      43.152  32.458  29.285  1.00  0.00     0.049 A 
ATOM     39  H   UNL A   1      42.765  30.398  29.072  1.00  0.00     0.167 HD
ATOM     40  C   UNL A   1      45.196  31.623  28.106  1.00  0.00     0.074 A 
ATOM     41  C   UNL A   1      46.501  31.838  27.508  1.00  0.00     0.031 C 
ATOM     42  C   UNL A   1      44.455  32.600  28.685  1.00  0.00     0.037 A 
BRANCH  29  43
ATOM     43  C   UNL A   1      39.052  30.738  31.113  1.00  0.00     0.064 A 
ATOM     44  C   UNL A   1      37.830  31.069  30.508  1.00  0.00     0.173 A 
ATOM     45  C   UNL A   1      39.123  30.777  32.514  1.00  0.00     0.173 A 
ATOM     46  F   UNL A   1      37.725  31.095  29.171  1.00  0.00    -0.203 F 
ATOM     47  C   UNL A   1      36.733  31.455  31.277  1.00  0.00     0.198 A 
ATOM     48  C   UNL A   1      38.018  31.143  33.279  1.00  0.00     0.198 A 
ATOM     49  F   UNL A   1      40.275  30.495  33.140  1.00  0.00    -0.203 F 
ATOM     50  F   UNL A   1      35.596  31.832  30.676  1.00  0.00    -0.200 F 
ATOM     51  C   UNL A   1      36.828  31.490  32.660  1.00  0.00     0.200 A 
ATOM     52  F   UNL A   1      38.116  31.188  34.615  1.00  0.00    -0.200 F 
ATOM     53  F   UNL A   1      35.778  31.884  33.396  1.00  0.00    -0.200 F 
ENDBRANCH  29  43
BRANCH  30  54
ATOM     54  C   UNL A   1      47.376  27.920  26.117  1.00  0.00     0.064 A 
ATOM     55  C   UNL A   1      47.420  27.805  24.721  1.00  0.00     0.173 A 
ATOM     56  C   UNL A   1      48.535  27.564  26.829  1.00  0.00     0.173 A 
ATOM     57  F   UNL A   1      46.337  28.108  23.991  1.00  0.00    -0.203 F 
ATOM     58  C   UNL A   1      48.559  27.328  24.071  1.00  0.00     0.198 A 
ATOM     59  C   UNL A   1      49.684  27.121  26.176  1.00  0.00     0.198 A 
ATOM     60  F   UNL A   1      48.555  27.639  28.168  1.00  0.00    -0.203 F 
ATOM     61  F   UNL A   1      48.550  27.167  22.740  1.00  0.00    -0.200 F 
ATOM     62  C   UNL A   1      49.691  26.989  24.798  1.00  0.00     0.200 A 
ATOM     63  F   UNL A   1      50.777  26.806  26.885  1.00  0.00    -0.200 F 
ATOM     64  F   UNL A   1      50.779  26.520  24.173  1.00  0.00    -0.200 F 
ENDBRANCH  30  54
BRANCH  42  65
ATOM     65  C   UNL A   1      45.062  33.967  28.717  1.00  0.00     0.064 A 
ATOM     66  C   UNL A   1      45.906  34.367  29.761  1.00  0.00     0.173 A 
ATOM     67  C   UNL A   1      44.836  34.860  27.661  1.00  0.00     0.173 A 
ATOM     68  F   UNL A   1      46.137  33.546  30.798  1.00  0.00    -0.203 F 
ATOM     69  C   UNL A   1      46.488  35.629  29.758  1.00  0.00     0.198 A 
ATOM     70  C   UNL A   1      45.444  36.109  27.646  1.00  0.00     0.198 A 
ATOM     71  F   UNL A   1      44.040  34.511  26.638  1.00  0.00    -0.203 F 
ATOM     72  F   UNL A   1      47.257  36.013  30.786  1.00  0.00    -0.200 F 
ATOM     73  C   UNL A   1      46.264  36.496  28.697  1.00  0.00     0.200 A 
ATOM     74  F   UNL A   1      45.239  36.938  26.613  1.00  0.00    -0.200 F 
ATOM     75  F   UNL A   1      46.834  37.707  28.689  1.00  0.00    -0.200 F 
ENDBRANCH  42  65
ENDBRANCH  16  17
ENDBRANCH   9  11
ENDBRANCH   8   9
ENDBRANCH   7   8
ENDBRANCH   6   7
ENDBRANCH   5   6
ENDBRANCH   4   5
ENDBRANCH   3   4
ENDBRANCH   2   3
ENDBRANCH   1   2
BRANCH   1  76
ATOM     76  C   UNL A   1      34.026  24.603  23.094  1.00  0.00     0.188 C 
BRANCH  76  77
ATOM     77  O   UNL A   1      33.636  25.070  21.816  1.00  0.00    -0.376 OA
BRANCH  77  78
ATOM     78  C   UNL A   1      32.384  25.754  21.727  1.00  0.00     0.202 C 
BRANCH  78  79
ATOM     79  C   UNL A   1      31.165  25.101  22.408  1.00  0.00     0.261 C 
BRANCH  79  80
ATOM     80  O   UNL A   1      30.374  26.076  23.123  1.00  0.00    -0.463 OA
BRANCH  80  81
ATOM     81  C   UNL A   1      30.502  26.152  24.486  1.00  0.00     0.309 C 
ATOM     82  O   UNL A   1      29.690  25.696  25.280  1.00  0.00    -0.252 OA
BRANCH  81  83
ATOM     83  C   UNL A   1      31.815  26.861  24.893  1.00  0.00     0.100 C 
ATOM     84  C   UNL A   1      32.206  26.403  26.275  1.00  0.00     0.016 C 
ATOM     85  C   UNL A   1      31.646  28.375  25.127  1.00  0.00     0.024 C 
ATOM     86  C   UNL A   1      33.039  27.458  26.949  1.00  0.00     0.010 C 
ATOM     87  C   UNL A   1      32.530  28.775  26.357  1.00  0.00    -0.009 C 
ATOM     88  C   UNL A   1      33.750  29.672  25.995  1.00  0.00     0.030 C 
ATOM     89  C   UNL A   1      31.717  29.638  27.367  1.00  0.00     0.130 C 
ATOM     90  C   UNL A   1      33.690  30.836  26.977  1.00  0.00     0.124 C 
ATOM     91  N   UNL A   1      32.269  30.961  27.188  1.00  0.00    -0.308 N 
BRANCH  91  92
ATOM     92  C   UNL A   1      31.515  31.993  26.670  1.00  0.00     0.410 C 
ATOM     93  O   UNL A   1      31.610  33.160  27.024  1.00  0.00    -0.224 OA
BRANCH  92  94
ATOM     94  O   UNL A   1      30.588  31.533  25.791  1.00  0.00    -0.445 OA
BRANCH  94  95
ATOM     95  C   UNL A   1      30.197  32.465  24.779  1.00  0.00     0.270 C 
BRANCH  95  96
ATOM     96  C   UNL A   1      29.346  31.715  23.781  1.00  0.00    -0.011 A 
ATOM     97  C   UNL A   1      29.452  30.323  23.657  1.00  0.00     0.007 A 
ATOM     98  C   UNL A   1      28.505  32.413  22.901  1.00  0.00     0.007 A 
ATOM     99  C   UNL A   1      28.719  29.642  22.682  1.00  0.00     0.000 A 
ATOM    100  C   UNL A   1      27.776  31.731  21.925  1.00  0.00     0.000 A 
ATOM    101  C   UNL A   1      27.883  30.346  21.817  1.00  0.00     0.000 A 
ENDBRANCH  95  96
ENDBRANCH  94  95
ENDBRANCH  92  94
ENDBRANCH  91  92
ENDBRANCH  81  83
ENDBRANCH  80  81
ENDBRANCH  79  80
ENDBRANCH  78  79
ENDBRANCH  77  78
ENDBRANCH  76  77
ENDBRANCH   1  76
TORSDOF 24
ENDMDL
MODEL 2
REMARK VINA RESULT:      -9.6      4.588     10.452
REMARK SMILES O=C(OCCOCCOCCOCCOC(=O)[C@@H]1CC[C@@]2(CCN(C(=O)OCc3ccccc3)C2)C1)c1ccc(-c2c3nc(c(-c4c(F)c(F)c(F)c(F)c4F)c4ccc([nH]4)c(-c4c(F)c(F)c(F)c(F)c4F)c4nc(c(-c5c(F)c(F)c(F)c(F)c5F)c5ccc2[nH]5)C=C4)C=C3)cc1
REMARK SMILES IDX 10 1 9 2 8 3 7 4 6 5 5 6 4 7 3 8 2 9 1 10 37 11 38 12 99 13
REMARK SMILES IDX 39 14 98 15 40 16 41 17 42 18 92 19 43 20 97 21 91 22 93 23
REMARK SMILES IDX 44 24 96 25 90 26 89 27 45 29 77 30 57 31 76 32 58 33 61 34
REMARK SMILES IDX 75 35 94 36 59 37 60 38 74 40 95 41 62 42 46 43 47 44 55 45
REMARK SMILES IDX 48 46 49 47 53 48 56 49 50 50 51 51 54 52 52 53 78 54 79 55
REMARK SMILES IDX 87 56 80 57 81 58 85 59 88 60 82 61 83 62 86 63 84 64 63 65
REMARK SMILES IDX 64 66 72 67 65 68 66 69 70 70 73 71 67 72 68 73 71 74 69 75
REMARK SMILES IDX 11 76 12 77 13 78 14 79 15 80 16 81 17 82 18 83 19 84 36 85
REMARK SMILES IDX 20 86 21 87 22 88 35 89 23 90 24 91 25 92 26 93 27 94 28 95
REMARK SMILES IDX 29 96 30 97 34 98 31 99 33 100 32 101
REMARK H PARENT 93 28 61 39
REMARK Flexibility Score: inf
ROOT
ATOM      1  C   UNL A   1      35.453  33.017  27.992  1.00  0.00     0.188 C 
ENDROOT
BRANCH   1   2
ATOM      2  O   UNL A   1      35.132  34.198  28.695  1.00  0.00    -0.377 OA
BRANCH   2   3
ATOM      3  C   UNL A   1      34.013  34.076  29.582  1.00  0.00     0.188 C 
BRANCH   3   4
ATOM      4  C   UNL A   1      34.245  34.618  31.001  1.00  0.00     0.188 C 
BRANCH   4   5
ATOM      5  O   UNL A   1      35.533  34.229  31.505  1.00  0.00    -0.376 OA
BRANCH   5   6
ATOM      6  C   UNL A   1      35.860  34.742  32.810  1.00  0.00     0.202 C 
BRANCH   6   7
ATOM      7  C   UNL A   1      35.182  34.013  33.965  1.00  0.00     0.261 C 
BRANCH   7   8
ATOM      8  O   UNL A   1      36.037  33.077  34.640  1.00  0.00    -0.460 OA
BRANCH   8   9
ATOM      9  C   UNL A   1      37.345  33.201  34.982  1.00  0.00     0.338 C 
ATOM     10  O   UNL A   1      37.653  34.093  35.772  1.00  0.00    -0.246 OA
BRANCH   9  11
ATOM     11  C   UNL A   1      38.455  32.364  34.419  1.00  0.00     0.060 A 
ATOM     12  C   UNL A   1      39.791  32.470  34.786  1.00  0.00     0.016 A 
ATOM     13  C   UNL A   1      38.128  31.368  33.478  1.00  0.00     0.016 A 
ATOM     14  C   UNL A   1      40.764  31.623  34.312  1.00  0.00     0.010 A 
ATOM     15  C   UNL A   1      39.118  30.542  32.924  1.00  0.00     0.010 A 
ATOM     16  C   UNL A   1      40.443  30.687  33.344  1.00  0.00    -0.014 A 
BRANCH  16  17
ATOM     17  C   UNL A   1      41.614  30.162  32.634  1.00  0.00     0.031 A 
ATOM     18  C   UNL A   1      42.259  31.086  31.643  1.00  0.00     0.074 A 
ATOM     19  C   UNL A   1      42.259  29.096  33.138  1.00  0.00     0.049 A 
ATOM     20  N   UNL A   1      43.336  30.919  30.929  1.00  0.00    -0.248 NA
ATOM     21  C   UNL A   1      41.631  32.414  31.482  1.00  0.00     0.031 C 
ATOM     22  C   UNL A   1      41.823  28.325  34.308  1.00  0.00     0.029 A 
ATOM     23  N   UNL A   1      43.449  28.526  32.788  1.00  0.00    -0.354 N 
ATOM     24  C   UNL A   1      43.497  32.103  30.222  1.00  0.00     0.074 A 
ATOM     25  C   UNL A   1      42.428  32.993  30.602  1.00  0.00     0.031 C 
ATOM     26  C   UNL A   1      42.742  27.384  34.579  1.00  0.00     0.029 A 
ATOM     27  C   UNL A   1      43.780  27.438  33.558  1.00  0.00     0.049 A 
ATOM     28  H   UNL A   1      44.016  28.862  32.056  1.00  0.00     0.167 HD
ATOM     29  C   UNL A   1      44.455  32.399  29.316  1.00  0.00     0.037 A 
ATOM     30  C   UNL A   1      44.786  26.560  33.397  1.00  0.00     0.037 A 
ATOM     31  C   UNL A   1      45.478  31.462  28.953  1.00  0.00     0.049 A 
ATOM     32  C   UNL A   1      45.730  26.810  32.248  1.00  0.00     0.074 A 
ATOM     33  C   UNL A   1      46.392  31.519  27.922  1.00  0.00     0.029 A 
ATOM     34  N   UNL A   1      45.709  30.274  29.639  1.00  0.00    -0.354 N 
ATOM     35  N   UNL A   1      45.785  27.842  31.436  1.00  0.00    -0.248 NA
ATOM     36  C   UNL A   1      46.728  25.774  31.972  1.00  0.00     0.031 C 
ATOM     37  C   UNL A   1      47.150  30.342  27.960  1.00  0.00     0.029 A 
ATOM     38  C   UNL A   1      46.745  29.580  29.047  1.00  0.00     0.049 A 
ATOM     39  H   UNL A   1      45.207  29.974  30.431  1.00  0.00     0.167 HD
ATOM     40  C   UNL A   1      46.825  27.585  30.557  1.00  0.00     0.074 A 
ATOM     41  C   UNL A   1      47.393  26.311  30.960  1.00  0.00     0.031 C 
ATOM     42  C   UNL A   1      47.270  28.318  29.506  1.00  0.00     0.037 A 
BRANCH  29  43
ATOM     43  C   UNL A   1      44.327  33.710  28.606  1.00  0.00     0.064 A 
ATOM     44  C   UNL A   1      44.620  34.930  29.234  1.00  0.00     0.173 A 
ATOM     45  C   UNL A   1      43.799  33.752  27.306  1.00  0.00     0.173 A 
ATOM     46  F   UNL A   1      45.079  34.947  30.494  1.00  0.00    -0.203 F 
ATOM     47  C   UNL A   1      44.364  36.143  28.596  1.00  0.00     0.198 A 
ATOM     48  C   UNL A   1      43.564  34.965  26.664  1.00  0.00     0.198 A 
ATOM     49  F   UNL A   1      43.477  32.615  26.672  1.00  0.00    -0.203 F 
ATOM     50  F   UNL A   1      44.588  37.297  29.239  1.00  0.00    -0.200 F 
ATOM     51  C   UNL A   1      43.838  36.159  27.312  1.00  0.00     0.200 A 
ATOM     52  F   UNL A   1      43.045  34.978  25.429  1.00  0.00    -0.200 F 
ATOM     53  F   UNL A   1      43.571  37.327  26.709  1.00  0.00    -0.200 F 
ENDBRANCH  29  43
BRANCH  30  54
ATOM     54  C   UNL A   1      44.879  25.337  34.243  1.00  0.00     0.064 A 
ATOM     55  C   UNL A   1      45.523  25.345  35.488  1.00  0.00     0.173 A 
ATOM     56  C   UNL A   1      44.369  24.108  33.790  1.00  0.00     0.173 A 
ATOM     57  F   UNL A   1      46.050  26.483  35.962  1.00  0.00    -0.203 F 
ATOM     58  C   UNL A   1      45.675  24.173  36.230  1.00  0.00     0.198 A 
ATOM     59  C   UNL A   1      44.490  22.945  34.547  1.00  0.00     0.198 A 
ATOM     60  F   UNL A   1      43.753  24.030  32.601  1.00  0.00    -0.203 F 
ATOM     61  F   UNL A   1      46.351  24.198  37.387  1.00  0.00    -0.200 F 
ATOM     62  C   UNL A   1      45.156  22.974  35.761  1.00  0.00     0.200 A 
ATOM     63  F   UNL A   1      43.977  21.794  34.092  1.00  0.00    -0.200 F 
ATOM     64  F   UNL A   1      45.313  21.848  36.469  1.00  0.00    -0.200 F 
ENDBRANCH  30  54
BRANCH  42  65
ATOM     65  C   UNL A   1      48.438  27.764  28.754  1.00  0.00     0.064 A 
ATOM     66  C   UNL A   1      49.749  28.169  29.040  1.00  0.00     0.173 A 
ATOM     67  C   UNL A   1      48.241  26.779  27.778  1.00  0.00     0.173 A 
ATOM     68  F   UNL A   1      49.979  29.120  29.958  1.00  0.00    -0.203 F 
ATOM     69  C   UNL A   1      50.825  27.619  28.353  1.00  0.00     0.198 A 
ATOM     70  C   UNL A   1      49.322  26.210  27.116  1.00  0.00     0.198 A 
ATOM     71  F   UNL A   1      47.001  26.359  27.480  1.00  0.00    -0.203 F 
ATOM     72  F   UNL A   1      52.069  28.049  28.607  1.00  0.00    -0.200 F 
ATOM     73  C   UNL A   1      50.612  26.635  27.399  1.00  0.00     0.200 A 
ATOM     74  F   UNL A   1      49.115  25.249  26.205  1.00  0.00    -0.200 F 
ATOM     75  F   UNL A   1      51.651  26.098  26.746  1.00  0.00    -0.200 F 
ENDBRANCH  42  65
ENDBRANCH  16  17
ENDBRANCH   9  11
ENDBRANCH   8   9
ENDBRANCH   7   8
ENDBRANCH   6   7
ENDBRANCH   5   6
ENDBRANCH   4   5
ENDBRANCH   3   4
ENDBRANCH   2   3
ENDBRANCH   1   2
BRANCH   1  76
ATOM     76  C   UNL A   1      35.648  31.697  28.740  1.00  0.00     0.188 C 
BRANCH  76  77
ATOM     77  O   UNL A   1      35.503  30.491  28.012  1.00  0.00    -0.376 OA
BRANCH  77  78
ATOM     78  C   UNL A   1      36.568  29.542  28.106  1.00  0.00     0.202 C 
BRANCH  78  79
ATOM     79  C   UNL A   1      37.994  30.090  28.309  1.00  0.00     0.261 C 
BRANCH  79  80
ATOM     80  O   UNL A   1      38.906  29.049  28.723  1.00  0.00    -0.463 OA
BRANCH  80  81
ATOM     81  C   UNL A   1      39.980  28.760  27.920  1.00  0.00     0.309 C 
ATOM     82  O   UNL A   1      40.024  28.993  26.720  1.00  0.00    -0.252 OA
BRANCH  81  83
ATOM     83  C   UNL A   1      41.138  28.129  28.728  1.00  0.00     0.100 C 
ATOM     84  C   UNL A   1      42.422  28.829  28.365  1.00  0.00     0.016 C 
ATOM     85  C   UNL A   1      41.466  26.684  28.302  1.00  0.00     0.024 C 
ATOM     86  C   UNL A   1      43.590  27.910  28.592  1.00  0.00     0.010 C 
ATOM     87  C   UNL A   1      43.022  26.510  28.344  1.00  0.00    -0.009 C 
ATOM     88  C   UNL A   1      43.523  25.555  29.466  1.00  0.00     0.030 C 
ATOM     89  C   UNL A   1      43.542  25.852  27.032  1.00  0.00     0.130 C 
ATOM     90  C   UNL A   1      44.474  24.590  28.769  1.00  0.00     0.124 C 
ATOM     91  N   UNL A   1      43.893  24.515  27.452  1.00  0.00    -0.308 N 
BRANCH  91  92
ATOM     92  C   UNL A   1      43.209  23.410  26.988  1.00  0.00     0.410 C 
ATOM     93  O   UNL A   1      43.730  22.332  26.741  1.00  0.00    -0.224 OA
BRANCH  92  94
ATOM     94  O   UNL A   1      41.905  23.703  26.749  1.00  0.00    -0.445 OA
BRANCH  94  95
ATOM     95  C   UNL A   1      40.970  23.057  27.617  1.00  0.00     0.270 C 
BRANCH  95  96
ATOM     96  C   UNL A   1      39.691  22.863  26.836  1.00  0.00    -0.011 A 
ATOM     97  C   UNL A   1      39.412  21.637  26.217  1.00  0.00     0.007 A 
ATOM     98  C   UNL A   1      38.808  23.937  26.643  1.00  0.00     0.007 A 
ATOM     99  C   UNL A   1      38.267  21.484  25.433  1.00  0.00     0.000 A 
ATOM    100  C   UNL A   1      37.666  23.784  25.856  1.00  0.00     0.000 A 
ATOM    101  C   UNL A   1      37.395  22.556  25.254  1.00  0.00     0.000 A 
ENDBRANCH  95  96
ENDBRANCH  94  95
ENDBRANCH  92  94
ENDBRANCH  91  92
ENDBRANCH  81  83
ENDBRANCH  80  81
ENDBRANCH  79  80
ENDBRANCH  78  79
ENDBRANCH  77  78
ENDBRANCH  76  77
ENDBRANCH   1  76
TORSDOF 24
ENDMDL
MODEL 3
REMARK VINA RESULT:      -9.5      1.253      2.621
REMARK SMILES O=C(OCCOCCOCCOCCOC(=O)[C@@H]1CC[C@@]2(CCN(C(=O)OCc3ccccc3)C2)C1)c1ccc(-c2c3nc(c(-c4c(F)c(F)c(F)c(F)c4F)c4ccc([nH]4)c(-c4c(F)c(F)c(F)c(F)c4F)c4nc(c(-c5c(F)c(F)c(F)c(F)c5F)c5ccc2[nH]5)C=C4)C=C3)cc1
REMARK SMILES IDX 10 1 9 2 8 3 7 4 6 5 5 6 4 7 3 8 2 9 1 10 37 11 38 12 99 13
REMARK SMILES IDX 39 14 98 15 40 16 41 17 42 18 92 19 43 20 97 21 91 22 93 23
REMARK SMILES IDX 44 24 96 25 90 26 89 27 45 29 77 30 57 31 76 32 58 33 61 34
REMARK SMILES IDX 75 35 94 36 59 37 60 38 74 40 95 41 62 42 46 43 47 44 55 45
REMARK SMILES IDX 48 46 49 47 53 48 56 49 50 50 51 51 54 52 52 53 78 54 79 55
REMARK SMILES IDX 87 56 80 57 81 58 85 59 88 60 82 61 83 62 86 63 84 64 63 65
REMARK SMILES IDX 64 66 72 67 65 68 66 69 70 70 73 71 67 72 68 73 71 74 69 75
REMARK SMILES IDX 11 76 12 77 13 78 14 79 15 80 16 81 17 82 18 83 19 84 36 85
REMARK SMILES IDX 20 86 21 87 22 88 35 89 23 90 24 91 25 92 26 93 27 94 28 95
REMARK SMILES IDX 29 96 30 97 34 98 31 99 33 100 32 101
REMARK H PARENT 93 28 61 39
REMARK Flexibility Score: inf
ROOT
ATOM      1  C   UNL A   1      34.201  23.001  23.175  1.00  0.00     0.188 C 
ENDROOT
BRANCH   1   2
ATOM      2  O   UNL A   1      33.013  22.256  23.337  1.00  0.00    -0.377 OA
BRANCH   2   3
ATOM      3  C   UNL A   1      33.048  21.307  24.410  1.00  0.00     0.188 C 
BRANCH   3   4
ATOM      4  C   UNL A   1      33.935  20.078  24.162  1.00  0.00     0.188 C 
BRANCH   4   5
ATOM      5  O   UNL A   1      35.174  20.171  24.884  1.00  0.00    -0.376 OA
BRANCH   5   6
ATOM      6  C   UNL A   1      35.255  21.257  25.825  1.00  0.00     0.202 C 
BRANCH   6   7
ATOM      7  C   UNL A   1      36.604  21.968  25.855  1.00  0.00     0.261 C 
BRANCH   7   8
ATOM      8  O   UNL A   1      37.722  21.083  26.023  1.00  0.00    -0.460 OA
BRANCH   8   9
ATOM      9  C   UNL A   1      39.041  21.378  26.145  1.00  0.00     0.338 C 
ATOM     10  O   UNL A   1      39.856  20.484  25.922  1.00  0.00    -0.246 OA
BRANCH   9  11
ATOM     11  C   UNL A   1      39.577  22.707  26.591  1.00  0.00     0.060 A 
ATOM     12  C   UNL A   1      39.178  23.935  26.077  1.00  0.00     0.016 A 
ATOM     13  C   UNL A   1      40.526  22.728  27.630  1.00  0.00     0.016 A 
ATOM     14  C   UNL A   1      39.628  25.134  26.574  1.00  0.00     0.010 A 
ATOM     15  C   UNL A   1      41.057  23.938  28.103  1.00  0.00     0.010 A 
ATOM     16  C   UNL A   1      40.604  25.142  27.556  1.00  0.00    -0.014 A 
BRANCH  16  17
ATOM     17  C   UNL A   1      41.286  26.434  27.684  1.00  0.00     0.031 A 
ATOM     18  C   UNL A   1      40.601  27.465  28.532  1.00  0.00     0.074 A 
ATOM     19  C   UNL A   1      42.593  26.516  27.382  1.00  0.00     0.049 A 
ATOM     20  N   UNL A   1      40.998  28.657  28.877  1.00  0.00    -0.248 NA
ATOM     21  C   UNL A   1      39.308  27.068  29.128  1.00  0.00     0.031 C 
ATOM     22  C   UNL A   1      43.396  25.424  26.820  1.00  0.00     0.029 A 
ATOM     23  N   UNL A   1      43.493  27.524  27.576  1.00  0.00    -0.354 N 
ATOM     24  C   UNL A   1      40.000  29.156  29.702  1.00  0.00     0.074 A 
ATOM     25  C   UNL A   1      38.986  28.139  29.832  1.00  0.00     0.031 C 
ATOM     26  C   UNL A   1      44.674  25.826  26.720  1.00  0.00     0.029 A 
ATOM     27  C   UNL A   1      44.757  27.220  27.133  1.00  0.00     0.049 A 
ATOM     28  H   UNL A   1      43.259  28.386  27.993  1.00  0.00     0.167 HD
ATOM     29  C   UNL A   1      39.941  30.375  30.280  1.00  0.00     0.037 A 
ATOM     30  C   UNL A   1      45.834  28.019  27.029  1.00  0.00     0.037 A 
ATOM     31  C   UNL A   1      40.964  31.361  30.091  1.00  0.00     0.049 A 
ATOM     32  C   UNL A   1      45.674  29.441  27.504  1.00  0.00     0.074 A 
ATOM     33  C   UNL A   1      40.966  32.698  30.431  1.00  0.00     0.029 A 
ATOM     34  N   UNL A   1      42.190  31.089  29.493  1.00  0.00    -0.354 N 
ATOM     35  N   UNL A   1      44.656  29.994  28.124  1.00  0.00    -0.248 NA
ATOM     36  C   UNL A   1      46.788  30.356  27.246  1.00  0.00     0.031 C 
ATOM     37  C   UNL A   1      42.181  33.244  29.998  1.00  0.00     0.029 A 
ATOM     38  C   UNL A   1      42.956  32.236  29.440  1.00  0.00     0.049 A 
ATOM     39  H   UNL A   1      42.470  30.207  29.157  1.00  0.00     0.167 HD
ATOM     40  C   UNL A   1      45.007  31.317  28.338  1.00  0.00     0.074 A 
ATOM     41  C   UNL A   1      46.349  31.473  27.807  1.00  0.00     0.031 C 
ATOM     42  C   UNL A   1      44.292  32.321  28.906  1.00  0.00     0.037 A 
BRANCH  29  43
ATOM     43  C   UNL A   1      38.686  30.704  31.029  1.00  0.00     0.064 A 
ATOM     44  C   UNL A   1      37.531  31.167  30.381  1.00  0.00     0.173 A 
ATOM     45  C   UNL A   1      38.676  30.653  32.431  1.00  0.00     0.173 A 
ATOM     46  F   UNL A   1      37.507  31.282  29.045  1.00  0.00    -0.203 F 
ATOM     47  C   UNL A   1      36.423  31.592  31.112  1.00  0.00     0.198 A 
ATOM     48  C   UNL A   1      37.559  31.059  33.157  1.00  0.00     0.198 A 
ATOM     49  F   UNL A   1      39.764  30.242  33.100  1.00  0.00    -0.203 F 
ATOM     50  F   UNL A   1      35.355  32.095  30.476  1.00  0.00    -0.200 F 
ATOM     51  C   UNL A   1      36.438  31.537  32.498  1.00  0.00     0.200 A 
ATOM     52  F   UNL A   1      37.580  31.015  34.497  1.00  0.00    -0.200 F 
ATOM     53  F   UNL A   1      35.380  31.969  33.200  1.00  0.00    -0.200 F 
ENDBRANCH  29  43
BRANCH  30  54
ATOM     54  C   UNL A   1      47.078  27.546  26.360  1.00  0.00     0.064 A 
ATOM     55  C   UNL A   1      47.262  27.656  24.976  1.00  0.00     0.173 A 
ATOM     56  C   UNL A   1      48.095  26.914  27.097  1.00  0.00     0.173 A 
ATOM     57  F   UNL A   1      46.316  28.228  24.218  1.00  0.00    -0.203 F 
ATOM     58  C   UNL A   1      48.397  27.132  24.354  1.00  0.00     0.198 A 
ATOM     59  C   UNL A   1      49.243  26.422  26.480  1.00  0.00     0.198 A 
ATOM     60  F   UNL A   1      47.974  26.765  28.425  1.00  0.00    -0.203 F 
ATOM     61  F   UNL A   1      48.516  27.195  23.020  1.00  0.00    -0.200 F 
ATOM     62  C   UNL A   1      49.388  26.519  25.106  1.00  0.00     0.200 A 
ATOM     63  F   UNL A   1      50.201  25.841  27.215  1.00  0.00    -0.200 F 
ATOM     64  F   UNL A   1      50.471  26.006  24.507  1.00  0.00    -0.200 F 
ENDBRANCH  30  54
BRANCH  42  65
ATOM     65  C   UNL A   1      44.969  33.650  29.001  1.00  0.00     0.064 A 
ATOM     66  C   UNL A   1      45.791  33.976  30.088  1.00  0.00     0.173 A 
ATOM     67  C   UNL A   1      44.835  34.582  27.963  1.00  0.00     0.173 A 
ATOM     68  F   UNL A   1      45.934  33.117  31.110  1.00  0.00    -0.203 F 
ATOM     69  C   UNL A   1      46.438  35.204  30.144  1.00  0.00     0.198 A 
ATOM     70  C   UNL A   1      45.509  35.796  28.008  1.00  0.00     0.198 A 
ATOM     71  F   UNL A   1      44.064  34.305  26.900  1.00  0.00    -0.203 F 
ATOM     72  F   UNL A   1      47.185  35.518  31.212  1.00  0.00    -0.200 F 
ATOM     73  C   UNL A   1      46.305  36.110  29.100  1.00  0.00     0.200 A 
ATOM     74  F   UNL A   1      45.391  36.663  26.992  1.00  0.00    -0.200 F 
ATOM     75  F   UNL A   1      46.939  37.288  29.150  1.00  0.00    -0.200 F 
ENDBRANCH  42  65
ENDBRANCH  16  17
ENDBRANCH   9  11
ENDBRANCH   8   9
ENDBRANCH   7   8
ENDBRANCH   6   7
ENDBRANCH   5   6
ENDBRANCH   4   5
ENDBRANCH   3   4
ENDBRANCH   2   3
ENDBRANCH   1   2
BRANCH   1  76
ATOM     76  C   UNL A   1      34.142  24.499  22.869  1.00  0.00     0.188 C 
BRANCH  76  77
ATOM     77  O   UNL A   1      33.465  24.913  21.696  1.00  0.00    -0.376 OA
BRANCH  77  78
ATOM     78  C   UNL A   1      32.523  25.980  21.831  1.00  0.00     0.202 C 
BRANCH  78  79
ATOM     79  C   UNL A   1      31.182  25.664  22.522  1.00  0.00     0.261 C 
BRANCH  79  80
ATOM     80  O   UNL A   1      30.255  26.765  22.403  1.00  0.00    -0.463 OA
BRANCH  80  81
ATOM     81  C   UNL A   1      29.312  26.938  23.384  1.00  0.00     0.309 C 
ATOM     82  O   UNL A   1      28.408  26.148  23.617  1.00  0.00    -0.252 OA
BRANCH  81  83
ATOM     83  C   UNL A   1      29.554  28.243  24.178  1.00  0.00     0.100 C 
ATOM     84  C   UNL A   1      29.970  29.327  23.215  1.00  0.00     0.016 C 
ATOM     85  C   UNL A   1      30.791  28.182  25.096  1.00  0.00     0.024 C 
ATOM     86  C   UNL A   1      30.794  30.360  23.931  1.00  0.00     0.010 C 
ATOM     87  C   UNL A   1      31.504  29.576  25.038  1.00  0.00    -0.009 C 
ATOM     88  C   UNL A   1      31.422  30.386  26.364  1.00  0.00     0.030 C 
ATOM     89  C   UNL A   1      33.034  29.406  24.797  1.00  0.00     0.130 C 
ATOM     90  C   UNL A   1      32.853  30.827  26.648  1.00  0.00     0.124 C 
ATOM     91  N   UNL A   1      33.608  29.738  26.080  1.00  0.00    -0.308 N 
BRANCH  91  92
ATOM     92  C   UNL A   1      34.264  28.794  26.843  1.00  0.00     0.410 C 
ATOM     93  O   UNL A   1      35.394  28.934  27.288  1.00  0.00    -0.224 OA
BRANCH  92  94
ATOM     94  O   UNL A   1      33.534  27.654  26.951  1.00  0.00    -0.445 OA
BRANCH  94  95
ATOM     95  C   UNL A   1      33.957  26.580  26.106  1.00  0.00     0.270 C 
BRANCH  95  96
ATOM     96  C   UNL A   1      32.970  25.451  26.286  1.00  0.00    -0.011 A 
ATOM     97  C   UNL A   1      31.601  25.657  26.065  1.00  0.00     0.007 A 
ATOM     98  C   UNL A   1      33.400  24.204  26.766  1.00  0.00     0.007 A 
ATOM     99  C   UNL A   1      30.684  24.632  26.305  1.00  0.00     0.000 A 
ATOM    100  C   UNL A   1      32.481  23.182  27.009  1.00  0.00     0.000 A 
ATOM    101  C   UNL A   1      31.123  23.396  26.776  1.00  0.00     0.000 A 
ENDBRANCH  95  96
ENDBRANCH  94  95
ENDBRANCH  92  94
ENDBRANCH  91  92
ENDBRANCH  81  83
ENDBRANCH  80  81
ENDBRANCH  79  80
ENDBRANCH  78  79
ENDBRANCH  77  78
ENDBRANCH  76  77
ENDBRANCH   1  76
TORSDOF 24
ENDMDL
