MODEL 1
REMARK VINA RESULT:     -11.5      0.000      0.000
REMARK SMILES O=C(OCCOCCOCCOCCOC(=O)[C@H]1CC2=c3ccccc3=N[C@H]2[C@@H](c2ccccc2)[NH2+]1)c1ccc(-c2c3nc(c(-c4c(F)c(F)c(F)c(F)c4F)c4ccc([nH]4)c(-c4c(F)c(F)c(F)c(F)c4F)c4nc(c(-c5c(F)c(F)c(F)c(F)c5F)c5ccc2[nH]5)C=C4)C=C3)cc1
REMARK SMILES IDX 8 1 7 2 6 3 5 4 4 5 3 6 2 7 1 8 37 9 38 10 99 11 39 12 98 13
REMARK SMILES IDX 40 14 41 15 42 16 92 17 43 18 97 19 91 20 93 21 44 22 96 23
REMARK SMILES IDX 90 24 89 25 45 27 77 28 57 29 76 30 58 31 61 32 75 33 94 34
REMARK SMILES IDX 59 35 60 36 74 38 95 39 62 40 46 41 47 42 55 43 48 44 49 45
REMARK SMILES IDX 53 46 56 47 50 48 51 49 54 50 52 51 78 52 79 53 87 54 80 55
REMARK SMILES IDX 81 56 85 57 88 58 82 59 83 60 86 61 84 62 63 63 64 64 72 65
REMARK SMILES IDX 65 66 66 67 70 68 73 69 67 70 68 71 71 72 69 73 9 74 10 75
REMARK SMILES IDX 11 76 12 77 13 78 14 79 15 80 16 81 17 82 18 83 19 84 36 85
REMARK SMILES IDX 20 86 29 87 21 90 28 91 22 92 26 93 27 94 23 95 25 96 24 97
REMARK SMILES IDX 30 98 31 99 35 100 32 101 34 102 33 103
REMARK H PARENT 93 26 61 37 36 88 36 89
REMARK Flexibility Score: inf
ROOT
ATOM      1  C   UNL A   1      40.318  20.471  26.292  1.00  0.00     0.188 C 
ENDROOT
BRANCH   1   2
ATOM      2  C   UNL A   1      41.329  19.948  27.309  1.00  0.00     0.188 C 
BRANCH   2   3
ATOM      3  O   UNL A   1      42.682  19.901  26.866  1.00  0.00    -0.376 OA
BRANCH   3   4
ATOM      4  C   UNL A   1      42.933  20.444  25.577  1.00  0.00     0.202 C 
BRANCH   4   5
ATOM      5  C   UNL A   1      43.777  21.706  25.670  1.00  0.00     0.261 C 
BRANCH   5   6
ATOM      6  O   UNL A   1      43.045  22.796  26.255  1.00  0.00    -0.460 OA
BRANCH   6   7
ATOM      7  C   UNL A   1      42.852  24.069  25.835  1.00  0.00     0.338 C 
ATOM      8  O   UNL A   1      43.129  24.323  24.670  1.00  0.00    -0.246 OA
BRANCH   7   9
ATOM      9  C   UNL A   1      42.409  25.220  26.699  1.00  0.00     0.060 A 
ATOM     10  C   UNL A   1      41.308  24.959  27.540  1.00  0.00     0.016 A 
ATOM     11  C   UNL A   1      42.977  26.495  26.767  1.00  0.00     0.016 A 
ATOM     12  C   UNL A   1      40.806  25.926  28.417  1.00  0.00     0.010 A 
ATOM     13  C   UNL A   1      42.468  27.480  27.622  1.00  0.00     0.010 A 
ATOM     14  C   UNL A   1      41.399  27.190  28.471  1.00  0.00    -0.014 A 
BRANCH  14  15
ATOM     15  C   UNL A   1      41.069  28.121  29.567  1.00  0.00     0.031 A 
ATOM     16  C   UNL A   1      39.953  29.105  29.463  1.00  0.00     0.074 A 
ATOM     17  C   UNL A   1      41.854  28.071  30.660  1.00  0.00     0.049 A 
ATOM     18  N   UNL A   1      39.463  29.885  30.392  1.00  0.00    -0.248 NA
ATOM     19  C   UNL A   1      39.312  29.250  28.149  1.00  0.00     0.031 C 
ATOM     20  C   UNL A   1      43.015  27.191  30.807  1.00  0.00     0.029 A 
ATOM     21  N   UNL A   1      41.803  28.762  31.839  1.00  0.00    -0.354 N 
ATOM     22  C   UNL A   1      38.432  30.589  29.789  1.00  0.00     0.074 A 
ATOM     23  C   UNL A   1      38.405  30.188  28.397  1.00  0.00     0.031 C 
ATOM     24  C   UNL A   1      43.556  27.379  32.018  1.00  0.00     0.029 A 
ATOM     25  C   UNL A   1      42.780  28.389  32.728  1.00  0.00     0.049 A 
ATOM     26  H   UNL A   1      41.134  29.458  32.031  1.00  0.00     0.167 HD
ATOM     27  C   UNL A   1      37.581  31.471  30.368  1.00  0.00     0.037 A 
ATOM     28  C   UNL A   1      43.007  28.798  33.989  1.00  0.00     0.037 A 
ATOM     29  C   UNL A   1      37.662  31.870  31.752  1.00  0.00     0.049 A 
ATOM     30  C   UNL A   1      42.061  29.785  34.603  1.00  0.00     0.074 A 
ATOM     31  C   UNL A   1      36.810  32.692  32.466  1.00  0.00     0.029 A 
ATOM     32  N   UNL A   1      38.678  31.494  32.623  1.00  0.00    -0.354 N 
ATOM     33  N   UNL A   1      40.995  30.338  34.074  1.00  0.00    -0.248 NA
ATOM     34  C   UNL A   1      42.333  30.197  35.984  1.00  0.00     0.031 C 
ATOM     35  C   UNL A   1      37.340  32.860  33.751  1.00  0.00     0.029 A 
ATOM     36  C   UNL A   1      38.498  32.105  33.854  1.00  0.00     0.049 A 
ATOM     37  H   UNL A   1      39.417  30.883  32.399  1.00  0.00     0.167 HD
ATOM     38  C   UNL A   1      40.465  31.160  35.054  1.00  0.00     0.074 A 
ATOM     39  C   UNL A   1      41.315  31.015  36.221  1.00  0.00     0.031 C 
ATOM     40  C   UNL A   1      39.375  31.964  34.992  1.00  0.00     0.037 A 
BRANCH  27  41
ATOM     41  C   UNL A   1      36.484  32.051  29.522  1.00  0.00     0.064 A 
ATOM     42  C   UNL A   1      35.417  31.259  29.067  1.00  0.00     0.173 A 
ATOM     43  C   UNL A   1      36.450  33.422  29.225  1.00  0.00     0.173 A 
ATOM     44  F   UNL A   1      35.397  29.942  29.323  1.00  0.00    -0.203 F 
ATOM     45  C   UNL A   1      34.373  31.812  28.329  1.00  0.00     0.198 A 
ATOM     46  C   UNL A   1      35.391  33.977  28.509  1.00  0.00     0.198 A 
ATOM     47  F   UNL A   1      37.436  34.230  29.644  1.00  0.00    -0.203 F 
ATOM     48  F   UNL A   1      33.385  31.028  27.877  1.00  0.00    -0.200 F 
ATOM     49  C   UNL A   1      34.358  33.172  28.057  1.00  0.00     0.200 A 
ATOM     50  F   UNL A   1      35.368  35.294  28.261  1.00  0.00    -0.200 F 
ATOM     51  F   UNL A   1      33.345  33.705  27.359  1.00  0.00    -0.200 F 
ENDBRANCH  27  41
BRANCH  28  52
ATOM     52  C   UNL A   1      44.131  28.192  34.745  1.00  0.00     0.064 A 
ATOM     53  C   UNL A   1      43.961  26.980  35.425  1.00  0.00     0.173 A 
ATOM     54  C   UNL A   1      45.420  28.747  34.704  1.00  0.00     0.173 A 
ATOM     55  F   UNL A   1      42.747  26.416  35.494  1.00  0.00    -0.203 F 
ATOM     56  C   UNL A   1      45.040  26.340  36.031  1.00  0.00     0.198 A 
ATOM     57  C   UNL A   1      46.501  28.094  35.291  1.00  0.00     0.198 A 
ATOM     58  F   UNL A   1      45.635  29.897  34.049  1.00  0.00    -0.203 F 
ATOM     59  F   UNL A   1      44.851  25.183  36.680  1.00  0.00    -0.200 F 
ATOM     60  C   UNL A   1      46.310  26.891  35.953  1.00  0.00     0.200 A 
ATOM     61  F   UNL A   1      47.731  28.617  35.194  1.00  0.00    -0.200 F 
ATOM     62  F   UNL A   1      47.353  26.258  36.509  1.00  0.00    -0.200 F 
ENDBRANCH  28  52
BRANCH  40  63
ATOM     63  C   UNL A   1      39.059  32.783  36.207  1.00  0.00     0.064 A 
ATOM     64  C   UNL A   1      38.324  32.241  37.271  1.00  0.00     0.173 A 
ATOM     65  C   UNL A   1      39.568  34.083  36.348  1.00  0.00     0.173 A 
ATOM     66  F   UNL A   1      37.804  31.008  37.173  1.00  0.00    -0.203 F 
ATOM     67  C   UNL A   1      38.109  32.972  38.435  1.00  0.00     0.198 A 
ATOM     68  C   UNL A   1      39.373  34.801  37.524  1.00  0.00     0.198 A 
ATOM     69  F   UNL A   1      40.280  34.641  35.358  1.00  0.00    -0.203 F 
ATOM     70  F   UNL A   1      37.386  32.443  39.431  1.00  0.00    -0.200 F 
ATOM     71  C   UNL A   1      38.644  34.245  38.566  1.00  0.00     0.200 A 
ATOM     72  F   UNL A   1      39.902  36.025  37.655  1.00  0.00    -0.200 F 
ATOM     73  F   UNL A   1      38.457  34.938  39.698  1.00  0.00    -0.200 F 
ENDBRANCH  40  63
ENDBRANCH  14  15
ENDBRANCH   7   9
ENDBRANCH   6   7
ENDBRANCH   5   6
ENDBRANCH   4   5
ENDBRANCH   3   4
ENDBRANCH   2   3
ENDBRANCH   1   2
BRANCH   1  74
ATOM     74  O   UNL A   1      39.408  21.476  26.710  1.00  0.00    -0.377 OA
BRANCH  74  75
ATOM     75  C   UNL A   1      38.719  22.271  25.752  1.00  0.00     0.188 C 
BRANCH  75  76
ATOM     76  C   UNL A   1      37.246  21.969  25.471  1.00  0.00     0.188 C 
BRANCH  76  77
ATOM     77  O   UNL A   1      36.414  23.119  25.480  1.00  0.00    -0.376 OA
BRANCH  77  78
ATOM     78  C   UNL A   1      35.008  22.980  25.256  1.00  0.00     0.202 C 
BRANCH  78  79
ATOM     79  C   UNL A   1      34.092  24.212  25.145  1.00  0.00     0.261 C 
BRANCH  79  80
ATOM     80  O   UNL A   1      33.061  23.990  24.168  1.00  0.00    -0.459 OA
BRANCH  80  81
ATOM     81  C   UNL A   1      33.339  24.465  22.914  1.00  0.00     0.365 C 
ATOM     82  O   UNL A   1      33.951  23.841  22.062  1.00  0.00    -0.245 OA
BRANCH  81  83
ATOM     83  C   UNL A   1      32.512  25.734  22.646  1.00  0.00     0.298 C 
ATOM     84  C   UNL A   1      31.146  25.855  23.370  1.00  0.00     0.111 C 
ATOM     85  N   UNL A   1      33.452  26.908  22.746  1.00  0.00    -0.326 N 
ATOM     86  C   UNL A   1      30.492  27.147  22.926  1.00  0.00    -0.024 C 
ATOM     87  C   UNL A   1      32.769  28.188  23.130  1.00  0.00     0.243 C 
ATOM     88  H   UNL A   1      33.901  27.040  21.840  1.00  0.00     0.347 HD
ATOM     89  H   UNL A   1      34.123  26.692  23.483  1.00  0.00     0.347 HD
ATOM     90  C   UNL A   1      29.283  27.690  23.051  1.00  0.00     0.002 A 
ATOM     91  C   UNL A   1      31.434  28.157  22.320  1.00  0.00     0.196 C 
ATOM     92  C   UNL A   1      28.054  27.356  23.697  1.00  0.00     0.010 A 
ATOM     93  C   UNL A   1      29.470  29.034  22.450  1.00  0.00     0.066 A 
ATOM     94  N   UNL A   1      30.679  29.422  22.171  1.00  0.00    -0.270 NA
ATOM     95  C   UNL A   1      27.016  28.203  23.581  1.00  0.00     0.001 A 
ATOM     96  C   UNL A   1      28.249  29.836  22.230  1.00  0.00     0.028 A 
ATOM     97  C   UNL A   1      27.094  29.398  22.753  1.00  0.00     0.002 A 
BRANCH  87  98
ATOM     98  C   UNL A   1      32.737  28.323  24.670  1.00  0.00     0.012 A 
ATOM     99  C   UNL A   1      31.631  28.813  25.379  1.00  0.00     0.010 A 
ATOM    100  C   UNL A   1      33.843  27.902  25.440  1.00  0.00     0.010 A 
ATOM    101  C   UNL A   1      31.557  28.719  26.774  1.00  0.00     0.001 A 
ATOM    102  C   UNL A   1      33.775  27.806  26.833  1.00  0.00     0.001 A 
ATOM    103  C   UNL A   1      32.618  28.187  27.498  1.00  0.00     0.000 A 
ENDBRANCH  87  98
ENDBRANCH  81  83
ENDBRANCH  80  81
ENDBRANCH  79  80
ENDBRANCH  78  79
ENDBRANCH  77  78
ENDBRANCH  76  77
ENDBRANCH  75  76
ENDBRANCH  74  75
ENDBRANCH   1  74
TORSDOF 21
ENDMDL
MODEL 2
REMARK VINA RESULT:     -11.0      1.938      3.671
REMARK SMILES O=C(OCCOCCOCCOCCOC(=O)[C@H]1CC2=c3ccccc3=N[C@H]2[C@@H](c2ccccc2)[NH2+]1)c1ccc(-c2c3nc(c(-c4c(F)c(F)c(F)c(F)c4F)c4ccc([nH]4)c(-c4c(F)c(F)c(F)c(F)c4F)c4nc(c(-c5c(F)c(F)c(F)c(F)c5F)c5ccc2[nH]5)C=C4)C=C3)cc1
REMARK SMILES IDX 8 1 7 2 6 3 5 4 4 5 3 6 2 7 1 8 37 9 38 10 99 11 39 12 98 13
REMARK SMILES IDX 40 14 41 15 42 16 92 17 43 18 97 19 91 20 93 21 44 22 96 23
REMARK SMILES IDX 90 24 89 25 45 27 77 28 57 29 76 30 58 31 61 32 75 33 94 34
REMARK SMILES IDX 59 35 60 36 74 38 95 39 62 40 46 41 47 42 55 43 48 44 49 45
REMARK SMILES IDX 53 46 56 47 50 48 51 49 54 50 52 51 78 52 79 53 87 54 80 55
REMARK SMILES IDX 81 56 85 57 88 58 82 59 83 60 86 61 84 62 63 63 64 64 72 65
REMARK SMILES IDX 65 66 66 67 70 68 73 69 67 70 68 71 71 72 69 73 9 74 10 75
REMARK SMILES IDX 11 76 12 77 13 78 14 79 15 80 16 81 17 82 18 83 19 84 36 85
REMARK SMILES IDX 20 86 29 87 21 90 28 91 22 92 26 93 27 94 23 95 25 96 24 97
REMARK SMILES IDX 30 98 31 99 35 100 32 101 34 102 33 103
REMARK H PARENT 93 26 61 37 36 88 36 89
REMARK Flexibility Score: inf
ROOT
ATOM      1  C   UNL A   1      44.039  21.223  25.896  1.00  0.00     0.188 C 
ENDROOT
BRANCH   1   2
ATOM      2  C   UNL A   1      45.233  20.818  25.033  1.00  0.00     0.188 C 
BRANCH   2   3
ATOM      3  O   UNL A   1      46.349  21.703  25.072  1.00  0.00    -0.376 OA
BRANCH   3   4
ATOM      4  C   UNL A   1      46.302  22.804  24.175  1.00  0.00     0.202 C 
BRANCH   4   5
ATOM      5  C   UNL A   1      46.210  24.121  24.931  1.00  0.00     0.261 C 
BRANCH   5   6
ATOM      6  O   UNL A   1      44.996  24.828  24.626  1.00  0.00    -0.460 OA
BRANCH   6   7
ATOM      7  C   UNL A   1      43.769  24.783  25.200  1.00  0.00     0.338 C 
ATOM      8  O   UNL A   1      42.887  24.191  24.591  1.00  0.00    -0.246 OA
BRANCH   7   9
ATOM      9  C   UNL A   1      43.373  25.474  26.478  1.00  0.00     0.060 A 
ATOM     10  C   UNL A   1      43.884  26.777  26.647  1.00  0.00     0.016 A 
ATOM     11  C   UNL A   1      42.550  24.974  27.491  1.00  0.00     0.016 A 
ATOM     12  C   UNL A   1      43.576  27.547  27.773  1.00  0.00     0.010 A 
ATOM     13  C   UNL A   1      42.255  25.725  28.634  1.00  0.00     0.010 A 
ATOM     14  C   UNL A   1      42.743  27.025  28.766  1.00  0.00    -0.014 A 
BRANCH  14  15
ATOM     15  C   UNL A   1      42.190  27.907  29.812  1.00  0.00     0.031 A 
ATOM     16  C   UNL A   1      40.941  28.695  29.606  1.00  0.00     0.074 A 
ATOM     17  C   UNL A   1      42.892  28.001  30.956  1.00  0.00     0.049 A 
ATOM     18  N   UNL A   1      40.266  29.398  30.479  1.00  0.00    -0.248 NA
ATOM     19  C   UNL A   1      40.380  28.714  28.248  1.00  0.00     0.031 C 
ATOM     20  C   UNL A   1      44.166  27.324  31.206  1.00  0.00     0.029 A 
ATOM     21  N   UNL A   1      42.647  28.693  32.111  1.00  0.00    -0.354 N 
ATOM     22  C   UNL A   1      39.181  29.916  29.789  1.00  0.00     0.074 A 
ATOM     23  C   UNL A   1      39.318  29.496  28.409  1.00  0.00     0.031 C 
ATOM     24  C   UNL A   1      44.582  27.615  32.445  1.00  0.00     0.029 A 
ATOM     25  C   UNL A   1      43.605  28.496  33.074  1.00  0.00     0.049 A 
ATOM     26  H   UNL A   1      41.862  29.273  32.239  1.00  0.00     0.167 HD
ATOM     27  C   UNL A   1      38.160  30.657  30.285  1.00  0.00     0.037 A 
ATOM     28  C   UNL A   1      43.672  28.955  34.337  1.00  0.00     0.037 A 
ATOM     29  C   UNL A   1      38.076  31.085  31.660  1.00  0.00     0.049 A 
ATOM     30  C   UNL A   1      42.538  29.784  34.859  1.00  0.00     0.074 A 
ATOM     31  C   UNL A   1      37.054  31.767  32.293  1.00  0.00     0.029 A 
ATOM     32  N   UNL A   1      39.074  30.891  32.608  1.00  0.00    -0.354 N 
ATOM     33  N   UNL A   1      41.438  30.149  34.243  1.00  0.00    -0.248 NA
ATOM     34  C   UNL A   1      42.641  30.256  36.243  1.00  0.00     0.031 C 
ATOM     35  C   UNL A   1      37.457  32.039  33.605  1.00  0.00     0.029 A 
ATOM     36  C   UNL A   1      38.711  31.484  33.807  1.00  0.00     0.049 A 
ATOM     37  H   UNL A   1      39.916  30.405  32.452  1.00  0.00     0.167 HD
ATOM     38  C   UNL A   1      40.713  30.888  35.163  1.00  0.00     0.074 A 
ATOM     39  C   UNL A   1      41.490  30.901  36.389  1.00  0.00     0.031 C 
ATOM     40  C   UNL A   1      39.516  31.504  35.006  1.00  0.00     0.037 A 
BRANCH  27  41
ATOM     41  C   UNL A   1      37.047  31.038  29.351  1.00  0.00     0.064 A 
ATOM     42  C   UNL A   1      36.068  30.109  28.965  1.00  0.00     0.173 A 
ATOM     43  C   UNL A   1      36.906  32.359  28.897  1.00  0.00     0.173 A 
ATOM     44  F   UNL A   1      36.152  28.832  29.370  1.00  0.00    -0.203 F 
ATOM     45  C   UNL A   1      35.007  30.480  28.142  1.00  0.00     0.198 A 
ATOM     46  C   UNL A   1      35.829  32.734  28.096  1.00  0.00     0.198 A 
ATOM     47  F   UNL A   1      37.805  33.293  29.244  1.00  0.00    -0.203 F 
ATOM     48  F   UNL A   1      34.105  29.565  27.760  1.00  0.00    -0.200 F 
ATOM     49  C   UNL A   1      34.884  31.793  27.715  1.00  0.00     0.200 A 
ATOM     50  F   UNL A   1      35.702  34.007  27.697  1.00  0.00    -0.200 F 
ATOM     51  F   UNL A   1      33.855  32.152  26.935  1.00  0.00    -0.200 F 
ENDBRANCH  27  41
BRANCH  28  52
ATOM     52  C   UNL A   1      44.822  28.552  35.183  1.00  0.00     0.064 A 
ATOM     53  C   UNL A   1      45.917  29.407  35.352  1.00  0.00     0.173 A 
ATOM     54  C   UNL A   1      44.796  27.363  35.929  1.00  0.00     0.173 A 
ATOM     55  F   UNL A   1      45.987  30.551  34.657  1.00  0.00    -0.203 F 
ATOM     56  C   UNL A   1      46.942  29.093  36.243  1.00  0.00     0.198 A 
ATOM     57  C   UNL A   1      45.810  27.062  36.835  1.00  0.00     0.198 A 
ATOM     58  F   UNL A   1      43.759  26.521  35.814  1.00  0.00    -0.203 F 
ATOM     59  F   UNL A   1      47.982  29.927  36.384  1.00  0.00    -0.200 F 
ATOM     60  C   UNL A   1      46.882  27.928  36.992  1.00  0.00     0.200 A 
ATOM     61  F   UNL A   1      45.737  25.946  37.574  1.00  0.00    -0.200 F 
ATOM     62  F   UNL A   1      47.853  27.643  37.870  1.00  0.00    -0.200 F 
ENDBRANCH  28  52
BRANCH  40  63
ATOM     63  C   UNL A   1      38.985  32.279  36.174  1.00  0.00     0.064 A 
ATOM     64  C   UNL A   1      38.144  31.674  37.119  1.00  0.00     0.173 A 
ATOM     65  C   UNL A   1      39.391  33.603  36.401  1.00  0.00     0.173 A 
ATOM     66  F   UNL A   1      37.717  30.415  36.934  1.00  0.00    -0.203 F 
ATOM     67  C   UNL A   1      37.726  32.368  38.250  1.00  0.00     0.198 A 
ATOM     68  C   UNL A   1      38.992  34.284  37.546  1.00  0.00     0.198 A 
ATOM     69  F   UNL A   1      40.199  34.221  35.527  1.00  0.00    -0.203 F 
ATOM     70  F   UNL A   1      36.905  31.778  39.129  1.00  0.00    -0.200 F 
ATOM     71  C   UNL A   1      38.161  33.666  38.470  1.00  0.00     0.200 A 
ATOM     72  F   UNL A   1      39.423  35.534  37.765  1.00  0.00    -0.200 F 
ATOM     73  F   UNL A   1      37.777  34.324  39.572  1.00  0.00    -0.200 F 
ENDBRANCH  40  63
ENDBRANCH  14  15
ENDBRANCH   7   9
ENDBRANCH   6   7
ENDBRANCH   5   6
ENDBRANCH   4   5
ENDBRANCH   3   4
ENDBRANCH   2   3
ENDBRANCH   1   2
BRANCH   1  74
ATOM     74  O   UNL A   1      42.747  21.177  25.311  1.00  0.00    -0.377 OA
BRANCH  74  75
ATOM     75  C   UNL A   1      41.585  21.120  26.130  1.00  0.00     0.188 C 
BRANCH  75  76
ATOM     76  C   UNL A   1      40.977  19.752  26.446  1.00  0.00     0.188 C 
BRANCH  76  77
ATOM     77  O   UNL A   1      40.071  19.287  25.457  1.00  0.00    -0.376 OA
BRANCH  77  78
ATOM     78  C   UNL A   1      38.705  19.711  25.492  1.00  0.00     0.202 C 
BRANCH  78  79
ATOM     79  C   UNL A   1      38.300  21.130  25.052  1.00  0.00     0.261 C 
BRANCH  79  80
ATOM     80  O   UNL A   1      37.654  21.829  26.129  1.00  0.00    -0.459 OA
BRANCH  80  81
ATOM     81  C   UNL A   1      37.695  23.195  26.040  1.00  0.00     0.365 C 
ATOM     82  O   UNL A   1      38.706  23.841  25.816  1.00  0.00    -0.245 OA
BRANCH  81  83
ATOM     83  C   UNL A   1      36.263  23.751  25.949  1.00  0.00     0.298 C 
ATOM     84  C   UNL A   1      35.702  24.035  24.530  1.00  0.00     0.111 C 
ATOM     85  N   UNL A   1      35.405  22.929  26.876  1.00  0.00    -0.326 N 
ATOM     86  C   UNL A   1      34.311  24.615  24.682  1.00  0.00    -0.024 C 
ATOM     87  C   UNL A   1      33.960  22.893  26.477  1.00  0.00     0.243 C 
ATOM     88  H   UNL A   1      35.473  23.326  27.814  1.00  0.00     0.347 HD
ATOM     89  H   UNL A   1      35.753  21.972  26.836  1.00  0.00     0.347 HD
ATOM     90  C   UNL A   1      33.436  25.205  23.871  1.00  0.00     0.002 A 
ATOM     91  C   UNL A   1      33.661  24.356  26.018  1.00  0.00     0.196 C 
ATOM     92  C   UNL A   1      33.356  25.523  22.482  1.00  0.00     0.010 A 
ATOM     93  C   UNL A   1      32.248  25.371  24.746  1.00  0.00     0.066 A 
ATOM     94  N   UNL A   1      32.245  24.776  25.902  1.00  0.00    -0.270 NA
ATOM     95  C   UNL A   1      32.255  26.151  22.029  1.00  0.00     0.001 A 
ATOM     96  C   UNL A   1      31.146  26.198  24.215  1.00  0.00     0.028 A 
ATOM     97  C   UNL A   1      31.195  26.580  22.930  1.00  0.00     0.002 A 
BRANCH  87  98
ATOM     98  C   UNL A   1      33.713  21.712  25.509  1.00  0.00     0.012 A 
ATOM     99  C   UNL A   1      34.612  20.649  25.343  1.00  0.00     0.010 A 
ATOM    100  C   UNL A   1      32.512  21.644  24.769  1.00  0.00     0.010 A 
ATOM    101  C   UNL A   1      34.258  19.499  24.626  1.00  0.00     0.001 A 
ATOM    102  C   UNL A   1      32.155  20.499  24.052  1.00  0.00     0.001 A 
ATOM    103  C   UNL A   1      33.017  19.413  24.007  1.00  0.00     0.000 A 
ENDBRANCH  87  98
ENDBRANCH  81  83
ENDBRANCH  80  81
ENDBRANCH  79  80
ENDBRANCH  78  79
ENDBRANCH  77  78
ENDBRANCH  76  77
ENDBRANCH  75  76
ENDBRANCH  74  75
ENDBRANCH   1  74
TORSDOF 21
ENDMDL
MODEL 3
REMARK VINA RESULT:     -10.7      0.594      6.903
REMARK SMILES O=C(OCCOCCOCCOCCOC(=O)[C@H]1CC2=c3ccccc3=N[C@H]2[C@@H](c2ccccc2)[NH2+]1)c1ccc(-c2c3nc(c(-c4c(F)c(F)c(F)c(F)c4F)c4ccc([nH]4)c(-c4c(F)c(F)c(F)c(F)c4F)c4nc(c(-c5c(F)c(F)c(F)c(F)c5F)c5ccc2[nH]5)C=C4)C=C3)cc1
REMARK SMILES IDX 8 1 7 2 6 3 5 4 4 5 3 6 2 7 1 8 37 9 38 10 99 11 39 12 98 13
REMARK SMILES IDX 40 14 41 15 42 16 92 17 43 18 97 19 91 20 93 21 44 22 96 23
REMARK SMILES IDX 90 24 89 25 45 27 77 28 57 29 76 30 58 31 61 32 75 33 94 34
REMARK SMILES IDX 59 35 60 36 74 38 95 39 62 40 46 41 47 42 55 43 48 44 49 45
REMARK SMILES IDX 53 46 56 47 50 48 51 49 54 50 52 51 78 52 79 53 87 54 80 55
REMARK SMILES IDX 81 56 85 57 88 58 82 59 83 60 86 61 84 62 63 63 64 64 72 65
REMARK SMILES IDX 65 66 66 67 70 68 73 69 67 70 68 71 71 72 69 73 9 74 10 75
REMARK SMILES IDX 11 76 12 77 13 78 14 79 15 80 16 81 17 82 18 83 19 84 36 85
REMARK SMILES IDX 20 86 29 87 21 90 28 91 22 92 26 93 27 94 23 95 25 96 24 97
REMARK SMILES IDX 30 98 31 99 35 100 32 101 34 102 33 103
REMARK H PARENT 93 26 61 37 36 88 36 89
REMARK Flexibility Score: inf
ROOT
ATOM      1  C   UNL A   1      40.500  20.722  26.342  1.00  0.00     0.188 C 
ENDROOT
BRANCH   1   2
ATOM      2  C   UNL A   1      41.579  20.131  27.247  1.00  0.00     0.188 C 
BRANCH   2   3
ATOM      3  O   UNL A   1      42.898  20.123  26.709  1.00  0.00    -0.376 OA
BRANCH   3   4
ATOM      4  C   UNL A   1      43.038  20.645  25.395  1.00  0.00     0.202 C 
BRANCH   4   5
ATOM      5  C   UNL A   1      44.122  21.711  25.343  1.00  0.00     0.261 C 
BRANCH   5   6
ATOM      6  O   UNL A   1      43.782  22.857  26.141  1.00  0.00    -0.460 OA
BRANCH   6   7
ATOM      7  C   UNL A   1      43.498  24.135  25.793  1.00  0.00     0.338 C 
ATOM      8  O   UNL A   1      43.704  24.458  24.630  1.00  0.00    -0.246 OA
BRANCH   7   9
ATOM      9  C   UNL A   1      43.035  25.217  26.731  1.00  0.00     0.060 A 
ATOM     10  C   UNL A   1      41.864  24.927  27.461  1.00  0.00     0.016 A 
ATOM     11  C   UNL A   1      43.644  26.453  26.965  1.00  0.00     0.016 A 
ATOM     12  C   UNL A   1      41.334  25.829  28.390  1.00  0.00     0.010 A 
ATOM     13  C   UNL A   1      43.109  27.374  27.873  1.00  0.00     0.010 A 
ATOM     14  C   UNL A   1      41.969  27.053  28.610  1.00  0.00    -0.014 A 
BRANCH  14  15
ATOM     15  C   UNL A   1      41.591  27.890  29.766  1.00  0.00     0.031 A 
ATOM     16  C   UNL A   1      42.329  27.833  31.060  1.00  0.00     0.074 A 
ATOM     17  C   UNL A   1      40.514  28.683  29.612  1.00  0.00     0.049 A 
ATOM     18  N   UNL A   1      42.198  28.604  32.109  1.00  0.00    -0.248 NA
ATOM     19  C   UNL A   1      43.332  26.770  31.211  1.00  0.00     0.031 C 
ATOM     20  C   UNL A   1      39.690  28.736  28.403  1.00  0.00     0.029 A 
ATOM     21  N   UNL A   1      39.929  29.584  30.459  1.00  0.00    -0.354 N 
ATOM     22  C   UNL A   1      43.124  28.146  33.033  1.00  0.00     0.074 A 
ATOM     23  C   UNL A   1      43.770  26.990  32.445  1.00  0.00     0.031 C 
ATOM     24  C   UNL A   1      38.717  29.640  28.576  1.00  0.00     0.029 A 
ATOM     25  C   UNL A   1      38.851  30.227  29.904  1.00  0.00     0.049 A 
ATOM     26  H   UNL A   1      40.249  29.754  31.374  1.00  0.00     0.167 HD
ATOM     27  C   UNL A   1      43.409  28.669  34.250  1.00  0.00     0.037 A 
ATOM     28  C   UNL A   1      38.072  31.204  30.404  1.00  0.00     0.037 A 
ATOM     29  C   UNL A   1      42.719  29.803  34.816  1.00  0.00     0.049 A 
ATOM     30  C   UNL A   1      38.399  31.757  31.758  1.00  0.00     0.074 A 
ATOM     31  C   UNL A   1      42.974  30.468  36.001  1.00  0.00     0.029 A 
ATOM     32  N   UNL A   1      41.613  30.419  34.242  1.00  0.00    -0.354 N 
ATOM     33  N   UNL A   1      39.373  31.418  32.570  1.00  0.00    -0.248 NA
ATOM     34  C   UNL A   1      37.537  32.829  32.265  1.00  0.00     0.031 C 
ATOM     35  C   UNL A   1      41.989  31.448  36.173  1.00  0.00     0.029 A 
ATOM     36  C   UNL A   1      41.147  31.426  35.072  1.00  0.00     0.049 A 
ATOM     37  H   UNL A   1      41.219  30.177  33.373  1.00  0.00     0.167 HD
ATOM     38  C   UNL A   1      39.247  32.235  33.680  1.00  0.00     0.074 A 
ATOM     39  C   UNL A   1      38.113  33.105  33.428  1.00  0.00     0.031 C 
ATOM     40  C   UNL A   1      39.999  32.261  34.808  1.00  0.00     0.037 A 
BRANCH  27  41
ATOM     41  C   UNL A   1      44.519  28.042  35.045  1.00  0.00     0.064 A 
ATOM     42  C   UNL A   1      44.273  26.977  35.926  1.00  0.00     0.173 A 
ATOM     43  C   UNL A   1      45.851  28.451  34.873  1.00  0.00     0.173 A 
ATOM     44  F   UNL A   1      43.019  26.544  36.129  1.00  0.00    -0.203 F 
ATOM     45  C   UNL A   1      45.312  26.361  36.621  1.00  0.00     0.198 A 
ATOM     46  C   UNL A   1      46.891  27.815  35.549  1.00  0.00     0.198 A 
ATOM     47  F   UNL A   1      46.148  29.455  34.035  1.00  0.00    -0.203 F 
ATOM     48  F   UNL A   1      45.046  25.369  37.482  1.00  0.00    -0.200 F 
ATOM     49  C   UNL A   1      46.621  26.776  36.425  1.00  0.00     0.200 A 
ATOM     50  F   UNL A   1      48.157  28.206  35.347  1.00  0.00    -0.200 F 
ATOM     51  F   UNL A   1      47.621  26.174  37.084  1.00  0.00    -0.200 F 
ENDBRANCH  27  41
BRANCH  28  52
ATOM     52  C   UNL A   1      36.980  31.748  29.561  1.00  0.00     0.064 A 
ATOM     53  C   UNL A   1      35.842  30.980  29.286  1.00  0.00     0.173 A 
ATOM     54  C   UNL A   1      36.998  33.080  29.115  1.00  0.00     0.173 A 
ATOM     55  F   UNL A   1      35.783  29.703  29.688  1.00  0.00    -0.203 F 
ATOM     56  C   UNL A   1      34.757  31.526  28.602  1.00  0.00     0.198 A 
ATOM     57  C   UNL A   1      35.904  33.629  28.452  1.00  0.00     0.198 A 
ATOM     58  F   UNL A   1      38.058  33.858  29.371  1.00  0.00    -0.203 F 
ATOM     59  F   UNL A   1      33.681  30.769  28.348  1.00  0.00    -0.200 F 
ATOM     60  C   UNL A   1      34.784  32.851  28.198  1.00  0.00     0.200 A 
ATOM     61  F   UNL A   1      35.923  34.917  28.083  1.00  0.00    -0.200 F 
ATOM     62  F   UNL A   1      33.726  33.383  27.568  1.00  0.00    -0.200 F 
ENDBRANCH  28  52
BRANCH  40  63
ATOM     63  C   UNL A   1      39.599  33.234  35.876  1.00  0.00     0.064 A 
ATOM     64  C   UNL A   1      38.757  32.844  36.928  1.00  0.00     0.173 A 
ATOM     65  C   UNL A   1      40.129  34.532  35.899  1.00  0.00     0.173 A 
ATOM     66  F   UNL A   1      38.213  31.617  36.938  1.00  0.00    -0.203 F 
ATOM     67  C   UNL A   1      38.460  33.721  37.967  1.00  0.00     0.198 A 
ATOM     68  C   UNL A   1      39.851  35.397  36.953  1.00  0.00     0.198 A 
ATOM     69  F   UNL A   1      40.942  34.948  34.917  1.00  0.00    -0.203 F 
ATOM     70  F   UNL A   1      37.637  33.335  38.951  1.00  0.00    -0.200 F 
ATOM     71  C   UNL A   1      39.017  34.991  37.985  1.00  0.00     0.200 A 
ATOM     72  F   UNL A   1      40.401  36.619  36.978  1.00  0.00    -0.200 F 
ATOM     73  F   UNL A   1      38.750  35.825  38.999  1.00  0.00    -0.200 F 
ENDBRANCH  40  63
ENDBRANCH  14  15
ENDBRANCH   7   9
ENDBRANCH   6   7
ENDBRANCH   5   6
ENDBRANCH   4   5
ENDBRANCH   3   4
ENDBRANCH   2   3
ENDBRANCH   1   2
BRANCH   1  74
ATOM     74  O   UNL A   1      39.602  21.666  26.901  1.00  0.00    -0.377 OA
BRANCH  74  75
ATOM     75  C   UNL A   1      38.939  22.612  26.071  1.00  0.00     0.188 C 
BRANCH  75  76
ATOM     76  C   UNL A   1      37.556  22.259  25.518  1.00  0.00     0.188 C 
BRANCH  76  77
ATOM     77  O   UNL A   1      36.642  23.346  25.528  1.00  0.00    -0.376 OA
BRANCH  77  78
ATOM     78  C   UNL A   1      35.282  23.132  25.141  1.00  0.00     0.202 C 
BRANCH  78  79
ATOM     79  C   UNL A   1      34.309  24.312  24.959  1.00  0.00     0.261 C 
BRANCH  79  80
ATOM     80  O   UNL A   1      33.255  23.962  24.047  1.00  0.00    -0.459 OA
BRANCH  80  81
ATOM     81  C   UNL A   1      33.413  24.433  22.770  1.00  0.00     0.365 C 
ATOM     82  O   UNL A   1      33.994  23.832  21.882  1.00  0.00    -0.245 OA
BRANCH  81  83
ATOM     83  C   UNL A   1      32.500  25.652  22.551  1.00  0.00     0.298 C 
ATOM     84  C   UNL A   1      31.177  25.700  23.360  1.00  0.00     0.111 C 
ATOM     85  N   UNL A   1      33.375  26.878  22.589  1.00  0.00    -0.326 N 
ATOM     86  C   UNL A   1      30.424  26.950  22.955  1.00  0.00    -0.024 C 
ATOM     87  C   UNL A   1      32.646  28.120  23.012  1.00  0.00     0.243 C 
ATOM     88  H   UNL A   1      33.759  27.029  21.656  1.00  0.00     0.347 HD
ATOM     89  H   UNL A   1      34.103  26.706  23.283  1.00  0.00     0.347 HD
ATOM     90  C   UNL A   1      29.196  27.423  23.154  1.00  0.00     0.002 A 
ATOM     91  C   UNL A   1      31.267  28.008  22.288  1.00  0.00     0.196 C 
ATOM     92  C   UNL A   1      28.031  27.024  23.876  1.00  0.00     0.010 A 
ATOM     93  C   UNL A   1      29.268  28.773  22.539  1.00  0.00     0.066 A 
ATOM     94  N   UNL A   1      30.433  29.227  22.183  1.00  0.00    -0.270 NA
ATOM     95  C   UNL A   1      26.941  27.811  23.823  1.00  0.00     0.001 A 
ATOM     96  C   UNL A   1      27.992  29.503  22.393  1.00  0.00     0.028 A 
ATOM     97  C   UNL A   1      26.898  29.002  22.989  1.00  0.00     0.002 A 
BRANCH  87  98
ATOM     98  C   UNL A   1      32.703  28.263  24.551  1.00  0.00     0.012 A 
ATOM     99  C   UNL A   1      31.618  28.699  25.326  1.00  0.00     0.010 A 
ATOM    100  C   UNL A   1      33.874  27.903  25.252  1.00  0.00     0.010 A 
ATOM    101  C   UNL A   1      31.637  28.610  26.723  1.00  0.00     0.001 A 
ATOM    102  C   UNL A   1      33.898  27.813  26.646  1.00  0.00     0.001 A 
ATOM    103  C   UNL A   1      32.766  28.137  27.381  1.00  0.00     0.000 A 
ENDBRANCH  87  98
ENDBRANCH  81  83
ENDBRANCH  80  81
ENDBRANCH  79  80
ENDBRANCH  78  79
ENDBRANCH  77  78
ENDBRANCH  76  77
ENDBRANCH  75  76
ENDBRANCH  74  75
ENDBRANCH   1  74
TORSDOF 21
ENDMDL
