MODEL 1
REMARK VINA RESULT:     -11.8      0.000      0.000
REMARK SMILES Nn1c(S[C@@H](C(=O)OCCOCCOCCOCCOC(=O)c2ccc(-c3c4nc(c(-c5c(F)c(F)c(F)c(F)c5F)c5ccc([nH]5)c(-c5c(F)c(F)c(F)c(F)c5F)c5nc(c(-c6c(F)c(F)c(F)c(F)c6F)c6ccc3[nH]6)C=C5)C=C4)cc2)c2ccccc2)nc2ccc(Br)cc2c1=O
REMARK SMILES IDX 13 1 12 2 11 3 10 4 9 5 8 6 6 7 7 8 5 9 4 10 3 11 2 12
REMARK SMILES IDX 100 13 92 14 99 15 101 16 93 17 98 18 94 19 96 20 95 21
REMARK SMILES IDX 97 22 1 23 86 26 87 27 91 28 88 29 90 30 89 31 14 32 15 33
REMARK SMILES IDX 16 34 17 35 18 36 19 37 20 38 21 39 22 40 23 41 24 42 85 43
REMARK SMILES IDX 25 44 84 45 26 46 27 47 28 48 78 49 29 50 83 51 77 52 79 53
REMARK SMILES IDX 30 54 82 55 76 56 75 57 31 59 63 60 43 61 62 62 44 63 47 64
REMARK SMILES IDX 61 65 80 66 45 67 46 68 60 70 81 71 48 72 32 73 33 74 41 75
REMARK SMILES IDX 34 76 35 77 39 78 42 79 36 80 37 81 40 82 38 83 64 84 65 85
REMARK SMILES IDX 73 86 66 87 67 88 71 89 74 90 68 91 69 92 72 93 70 94 49 95
REMARK SMILES IDX 50 96 58 97 51 98 52 99 56 100 59 101 53 102 54 103 57 104
REMARK SMILES IDX 55 105
REMARK H PARENT 1 24 1 25 79 58 47 69
REMARK Flexibility Score: inf
ROOT
ATOM      1  C   UNL A   1      35.087  32.813  28.051  1.00  0.00     0.188 C 
ENDROOT
BRANCH   1   2
ATOM      2  C   UNL A   1      33.841  31.916  27.984  1.00  0.00     0.188 C 
BRANCH   2   3
ATOM      3  O   UNL A   1      33.867  30.679  27.288  1.00  0.00    -0.376 OA
BRANCH   3   4
ATOM      4  C   UNL A   1      32.653  29.983  27.077  1.00  0.00     0.202 C 
BRANCH   4   5
ATOM      5  C   UNL A   1      32.007  29.977  25.677  1.00  0.00     0.261 C 
BRANCH   5   6
ATOM      6  O   UNL A   1      32.641  29.181  24.648  1.00  0.00    -0.462 OA
BRANCH   6   7
ATOM      7  C   UNL A   1      31.946  29.032  23.485  1.00  0.00     0.324 C 
ATOM      8  O   UNL A   1      32.508  29.118  22.394  1.00  0.00    -0.251 OA
BRANCH   7   9
ATOM      9  C   UNL A   1      30.410  28.881  23.635  1.00  0.00     0.194 C 
BRANCH   9  10
ATOM     10  S   UNL A   1      29.663  27.230  23.553  1.00  0.00    -0.066 SA
BRANCH  10  11
ATOM     11  C   UNL A   1      30.666  25.793  23.371  1.00  0.00     0.191 A 
ATOM     12  N   UNL A   1      31.576  25.535  22.346  1.00  0.00    -0.202 N 
ATOM     13  C   UNL A   1      32.380  24.388  22.314  1.00  0.00     0.280 A 
ATOM     14  N   UNL A   1      30.524  24.948  24.356  1.00  0.00    -0.222 NA
ATOM     15  C   UNL A   1      32.241  23.459  23.432  1.00  0.00     0.069 A 
ATOM     16  O   UNL A   1      33.196  24.155  21.421  1.00  0.00    -0.267 OA
ATOM     17  C   UNL A   1      31.304  23.777  24.409  1.00  0.00     0.079 A 
ATOM     18  C   UNL A   1      33.089  22.345  23.537  1.00  0.00     0.031 A 
ATOM     19  C   UNL A   1      31.206  22.923  25.513  1.00  0.00     0.030 A 
ATOM     20  C   UNL A   1      32.997  21.533  24.659  1.00  0.00     0.018 A 
ATOM     21  C   UNL A   1      32.052  21.809  25.646  1.00  0.00     0.018 A 
ATOM     22  Br  UNL A   1      34.201  20.092  24.874  1.00  0.00    -0.051 Br
BRANCH  12  23
ATOM     23  N   UNL A   1      31.763  26.376  21.254  1.00  0.00    -0.334 N 
ATOM     24  H   UNL A   1      32.665  26.703  21.033  1.00  0.00     0.178 HD
ATOM     25  H   UNL A   1      30.993  26.645  20.701  1.00  0.00     0.178 HD
ENDBRANCH  12  23
ENDBRANCH  10  11
ENDBRANCH   9  10
BRANCH   9  26
ATOM     26  C   UNL A   1      29.578  30.034  23.084  1.00  0.00    -0.023 A 
ATOM     27  C   UNL A   1      29.148  30.010  21.748  1.00  0.00     0.005 A 
ATOM     28  C   UNL A   1      29.247  31.158  23.865  1.00  0.00     0.005 A 
ATOM     29  C   UNL A   1      28.495  31.112  21.193  1.00  0.00     0.000 A 
ATOM     30  C   UNL A   1      28.623  32.270  23.302  1.00  0.00     0.000 A 
ATOM     31  C   UNL A   1      28.262  32.251  21.961  1.00  0.00     0.000 A 
ENDBRANCH   9  26
ENDBRANCH   7   9
ENDBRANCH   6   7
ENDBRANCH   5   6
ENDBRANCH   4   5
ENDBRANCH   3   4
ENDBRANCH   2   3
ENDBRANCH   1   2
BRANCH   1  32
ATOM     32  O   UNL A   1      34.947  33.892  28.952  1.00  0.00    -0.377 OA
BRANCH  32  33
ATOM     33  C   UNL A   1      33.631  34.389  29.055  1.00  0.00     0.188 C 
BRANCH  33  34
ATOM     34  C   UNL A   1      33.362  35.214  30.320  1.00  0.00     0.188 C 
BRANCH  34  35
ATOM     35  O   UNL A   1      34.428  35.128  31.270  1.00  0.00    -0.376 OA
BRANCH  35  36
ATOM     36  C   UNL A   1      34.108  34.584  32.547  1.00  0.00     0.202 C 
BRANCH  36  37
ATOM     37  C   UNL A   1      34.171  33.054  32.618  1.00  0.00     0.261 C 
BRANCH  37  38
ATOM     38  O   UNL A   1      35.357  32.432  32.111  1.00  0.00    -0.460 OA
BRANCH  38  39
ATOM     39  C   UNL A   1      36.376  32.181  32.957  1.00  0.00     0.338 C 
ATOM     40  O   UNL A   1      36.365  32.242  34.172  1.00  0.00    -0.246 OA
BRANCH  39  41
ATOM     41  C   UNL A   1      37.439  31.561  32.137  1.00  0.00     0.060 A 
ATOM     42  C   UNL A   1      37.356  31.559  30.740  1.00  0.00     0.016 A 
ATOM     43  C   UNL A   1      38.459  30.857  32.790  1.00  0.00     0.016 A 
ATOM     44  C   UNL A   1      38.308  30.869  29.994  1.00  0.00     0.010 A 
ATOM     45  C   UNL A   1      39.400  30.150  32.041  1.00  0.00     0.010 A 
ATOM     46  C   UNL A   1      39.345  30.175  30.640  1.00  0.00    -0.014 A 
BRANCH  46  47
ATOM     47  C   UNL A   1      40.508  29.705  29.858  1.00  0.00     0.031 A 
ATOM     48  C   UNL A   1      40.610  28.313  29.318  1.00  0.00     0.074 A 
ATOM     49  C   UNL A   1      41.504  30.593  29.680  1.00  0.00     0.049 A 
ATOM     50  N   UNL A   1      41.573  27.785  28.607  1.00  0.00    -0.248 NA
ATOM     51  C   UNL A   1      39.503  27.394  29.616  1.00  0.00     0.031 C 
ATOM     52  C   UNL A   1      41.499  31.963  30.200  1.00  0.00     0.029 A 
ATOM     53  N   UNL A   1      42.706  30.485  29.035  1.00  0.00    -0.354 N 
ATOM     54  C   UNL A   1      41.188  26.475  28.357  1.00  0.00     0.074 A 
ATOM     55  C   UNL A   1      39.914  26.279  29.020  1.00  0.00     0.031 C 
ATOM     56  C   UNL A   1      42.643  32.568  29.853  1.00  0.00     0.029 A 
ATOM     57  C   UNL A   1      43.468  31.624  29.110  1.00  0.00     0.049 A 
ATOM     58  H   UNL A   1      42.996  29.670  28.563  1.00  0.00     0.167 HD
ATOM     59  C   UNL A   1      41.843  25.540  27.628  1.00  0.00     0.037 A 
ATOM     60  C   UNL A   1      44.700  31.878  28.638  1.00  0.00     0.037 A 
ATOM     61  C   UNL A   1      43.116  25.759  26.983  1.00  0.00     0.049 A 
ATOM     62  C   UNL A   1      45.407  30.812  27.855  1.00  0.00     0.074 A 
ATOM     63  C   UNL A   1      43.834  24.893  26.177  1.00  0.00     0.029 A 
ATOM     64  N   UNL A   1      43.866  26.923  27.082  1.00  0.00    -0.354 N 
ATOM     65  N   UNL A   1      44.996  29.605  27.555  1.00  0.00    -0.248 NA
ATOM     66  C   UNL A   1      46.740  31.143  27.338  1.00  0.00     0.031 C 
ATOM     67  C   UNL A   1      45.041  25.510  25.833  1.00  0.00     0.029 A 
ATOM     68  C   UNL A   1      45.053  26.783  26.379  1.00  0.00     0.049 A 
ATOM     69  H   UNL A   1      43.596  27.729  27.579  1.00  0.00     0.167 HD
ATOM     70  C   UNL A   1      46.010  29.036  26.800  1.00  0.00     0.074 A 
ATOM     71  C   UNL A   1      47.046  30.040  26.670  1.00  0.00     0.031 C 
ATOM     72  C   UNL A   1      46.077  27.792  26.267  1.00  0.00     0.037 A 
BRANCH  59  73
ATOM     73  C   UNL A   1      41.214  24.186  27.466  1.00  0.00     0.064 A 
ATOM     74  C   UNL A   1      40.110  23.992  26.623  1.00  0.00     0.173 A 
ATOM     75  C   UNL A   1      41.800  23.051  28.049  1.00  0.00     0.173 A 
ATOM     76  F   UNL A   1      39.513  25.042  26.041  1.00  0.00    -0.203 F 
ATOM     77  C   UNL A   1      39.616  22.714  26.370  1.00  0.00     0.198 A 
ATOM     78  C   UNL A   1      41.318  21.774  27.777  1.00  0.00     0.198 A 
ATOM     79  F   UNL A   1      42.867  23.179  28.853  1.00  0.00    -0.203 F 
ATOM     80  F   UNL A   1      38.554  22.554  25.569  1.00  0.00    -0.200 F 
ATOM     81  C   UNL A   1      40.227  21.605  26.938  1.00  0.00     0.200 A 
ATOM     82  F   UNL A   1      41.922  20.702  28.311  1.00  0.00    -0.200 F 
ATOM     83  F   UNL A   1      39.769  20.374  26.670  1.00  0.00    -0.200 F 
ENDBRANCH  59  73
BRANCH  60  84
ATOM     84  C   UNL A   1      45.313  33.207  28.881  1.00  0.00     0.064 A 
ATOM     85  C   UNL A   1      46.156  33.422  29.979  1.00  0.00     0.173 A 
ATOM     86  C   UNL A   1      45.106  34.277  27.996  1.00  0.00     0.173 A 
ATOM     87  F   UNL A   1      46.377  32.431  30.857  1.00  0.00    -0.203 F 
ATOM     88  C   UNL A   1      46.759  34.659  30.191  1.00  0.00     0.198 A 
ATOM     89  C   UNL A   1      45.731  35.505  28.193  1.00  0.00     0.198 A 
ATOM     90  F   UNL A   1      44.319  34.117  26.923  1.00  0.00    -0.203 F 
ATOM     91  F   UNL A   1      47.535  34.847  31.266  1.00  0.00    -0.200 F 
ATOM     92  C   UNL A   1      46.551  35.697  29.294  1.00  0.00     0.200 A 
ATOM     93  F   UNL A   1      45.546  36.498  27.313  1.00  0.00    -0.200 F 
ATOM     94  F   UNL A   1      47.143  36.883  29.492  1.00  0.00    -0.200 F 
ENDBRANCH  60  84
BRANCH  72  95
ATOM     95  C   UNL A   1      47.314  27.446  25.492  1.00  0.00     0.064 A 
ATOM     96  C   UNL A   1      48.414  26.835  26.109  1.00  0.00     0.173 A 
ATOM     97  C   UNL A   1      47.377  27.677  24.110  1.00  0.00     0.173 A 
ATOM     98  F   UNL A   1      48.408  26.609  27.432  1.00  0.00    -0.203 F 
ATOM     99  C   UNL A   1      49.541  26.482  25.373  1.00  0.00     0.198 A 
ATOM    100  C   UNL A   1      48.493  27.296  23.372  1.00  0.00     0.198 A 
ATOM    101  F   UNL A   1      46.348  28.255  23.472  1.00  0.00    -0.203 F 
ATOM    102  F   UNL A   1      50.599  25.936  25.990  1.00  0.00    -0.200 F 
ATOM    103  C   UNL A   1      49.577  26.704  24.004  1.00  0.00     0.200 A 
ATOM    104  F   UNL A   1      48.520  27.498  22.047  1.00  0.00    -0.200 F 
ATOM    105  F   UNL A   1      50.657  26.350  23.295  1.00  0.00    -0.200 F 
ENDBRANCH  72  95
ENDBRANCH  46  47
ENDBRANCH  39  41
ENDBRANCH  38  39
ENDBRANCH  37  38
ENDBRANCH  36  37
ENDBRANCH  35  36
ENDBRANCH  34  35
ENDBRANCH  33  34
ENDBRANCH  32  33
ENDBRANCH   1  32
TORSDOF 24
ENDMDL
MODEL 2
REMARK VINA RESULT:     -11.0      5.208     10.272
REMARK SMILES Nn1c(S[C@@H](C(=O)OCCOCCOCCOCCOC(=O)c2ccc(-c3c4nc(c(-c5c(F)c(F)c(F)c(F)c5F)c5ccc([nH]5)c(-c5c(F)c(F)c(F)c(F)c5F)c5nc(c(-c6c(F)c(F)c(F)c(F)c6F)c6ccc3[nH]6)C=C5)C=C4)cc2)c2ccccc2)nc2ccc(Br)cc2c1=O
REMARK SMILES IDX 13 1 12 2 11 3 10 4 9 5 8 6 6 7 7 8 5 9 4 10 3 11 2 12
REMARK SMILES IDX 100 13 92 14 99 15 101 16 93 17 98 18 94 19 96 20 95 21
REMARK SMILES IDX 97 22 1 23 86 26 87 27 91 28 88 29 90 30 89 31 14 32 15 33
REMARK SMILES IDX 16 34 17 35 18 36 19 37 20 38 21 39 22 40 23 41 24 42 85 43
REMARK SMILES IDX 25 44 84 45 26 46 27 47 28 48 78 49 29 50 83 51 77 52 79 53
REMARK SMILES IDX 30 54 82 55 76 56 75 57 31 59 63 60 43 61 62 62 44 63 47 64
REMARK SMILES IDX 61 65 80 66 45 67 46 68 60 70 81 71 48 72 32 73 33 74 41 75
REMARK SMILES IDX 34 76 35 77 39 78 42 79 36 80 37 81 40 82 38 83 64 84 65 85
REMARK SMILES IDX 73 86 66 87 67 88 71 89 74 90 68 91 69 92 72 93 70 94 49 95
REMARK SMILES IDX 50 96 58 97 51 98 52 99 56 100 59 101 53 102 54 103 57 104
REMARK SMILES IDX 55 105
REMARK H PARENT 1 24 1 25 79 58 47 69
REMARK Flexibility Score: inf
ROOT
ATOM      1  C   UNL A   1      38.031  21.065  24.982  1.00  0.00     0.188 C 
ENDROOT
BRANCH   1   2
ATOM      2  C   UNL A   1      37.940  22.394  25.749  1.00  0.00     0.188 C 
BRANCH   2   3
ATOM      3  O   UNL A   1      37.368  23.546  25.148  1.00  0.00    -0.376 OA
BRANCH   3   4
ATOM      4  C   UNL A   1      35.971  23.754  25.252  1.00  0.00     0.202 C 
BRANCH   4   5
ATOM      5  C   UNL A   1      35.160  24.140  23.999  1.00  0.00     0.261 C 
BRANCH   5   6
ATOM      6  O   UNL A   1      34.563  25.457  23.964  1.00  0.00    -0.462 OA
BRANCH   6   7
ATOM      7  C   UNL A   1      33.519  25.625  23.104  1.00  0.00     0.324 C 
ATOM      8  O   UNL A   1      33.708  25.918  21.925  1.00  0.00    -0.251 OA
BRANCH   7   9
ATOM      9  C   UNL A   1      32.106  25.549  23.740  1.00  0.00     0.194 C 
BRANCH   9  10
ATOM     10  S   UNL A   1      31.197  23.979  23.715  1.00  0.00    -0.066 SA
BRANCH  10  11
ATOM     11  C   UNL A   1      31.956  22.488  24.269  1.00  0.00     0.191 A 
ATOM     12  N   UNL A   1      32.514  22.253  25.524  1.00  0.00    -0.202 N 
ATOM     13  C   UNL A   1      33.042  21.011  25.901  1.00  0.00     0.280 A 
ATOM     14  N   UNL A   1      31.912  21.536  23.376  1.00  0.00    -0.222 NA
ATOM     15  C   UNL A   1      32.966  19.940  24.912  1.00  0.00     0.069 A 
ATOM     16  O   UNL A   1      33.527  20.787  27.011  1.00  0.00    -0.267 OA
ATOM     17  C   UNL A   1      32.408  20.253  23.678  1.00  0.00     0.079 A 
ATOM     18  C   UNL A   1      33.367  18.636  25.247  1.00  0.00     0.031 A 
ATOM     19  C   UNL A   1      32.277  19.218  22.745  1.00  0.00     0.030 A 
ATOM     20  C   UNL A   1      33.194  17.619  24.317  1.00  0.00     0.018 A 
ATOM     21  C   UNL A   1      32.660  17.905  23.062  1.00  0.00     0.018 A 
ATOM     22  Br  UNL A   1      33.625  15.840  24.785  1.00  0.00    -0.051 Br
BRANCH  12  23
ATOM     23  N   UNL A   1      32.616  23.225  26.515  1.00  0.00    -0.334 N 
ATOM     24  H   UNL A   1      32.866  24.146  26.275  1.00  0.00     0.178 HD
ATOM     25  H   UNL A   1      32.439  22.991  27.455  1.00  0.00     0.178 HD
ENDBRANCH  12  23
ENDBRANCH  10  11
ENDBRANCH   9  10
BRANCH   9  26
ATOM     26  C   UNL A   1      31.272  26.822  23.642  1.00  0.00    -0.023 A 
ATOM     27  C   UNL A   1      29.882  26.735  23.465  1.00  0.00     0.005 A 
ATOM     28  C   UNL A   1      31.852  28.104  23.689  1.00  0.00     0.005 A 
ATOM     29  C   UNL A   1      29.121  27.885  23.248  1.00  0.00     0.000 A 
ATOM     30  C   UNL A   1      31.098  29.248  23.442  1.00  0.00     0.000 A 
ATOM     31  C   UNL A   1      29.734  29.136  23.205  1.00  0.00     0.000 A 
ENDBRANCH   9  26
ENDBRANCH   7   9
ENDBRANCH   6   7
ENDBRANCH   5   6
ENDBRANCH   4   5
ENDBRANCH   3   4
ENDBRANCH   2   3
ENDBRANCH   1   2
BRANCH   1  32
ATOM     32  O   UNL A   1      38.913  20.139  25.581  1.00  0.00    -0.377 OA
BRANCH  32  33
ATOM     33  C   UNL A   1      40.058  20.724  26.162  1.00  0.00     0.188 C 
BRANCH  33  34
ATOM     34  C   UNL A   1      41.242  19.765  26.336  1.00  0.00     0.188 C 
BRANCH  34  35
ATOM     35  O   UNL A   1      42.398  20.177  25.603  1.00  0.00    -0.376 OA
BRANCH  35  36
ATOM     36  C   UNL A   1      42.758  21.553  25.691  1.00  0.00     0.202 C 
BRANCH  36  37
ATOM     37  C   UNL A   1      44.267  21.817  25.659  1.00  0.00     0.261 C 
BRANCH  37  38
ATOM     38  O   UNL A   1      44.729  23.010  26.302  1.00  0.00    -0.460 OA
BRANCH  38  39
ATOM     39  C   UNL A   1      44.540  24.197  25.691  1.00  0.00     0.338 C 
ATOM     40  O   UNL A   1      44.697  24.459  24.513  1.00  0.00    -0.246 OA
BRANCH  39  41
ATOM     41  C   UNL A   1      43.850  25.055  26.677  1.00  0.00     0.060 A 
ATOM     42  C   UNL A   1      42.810  24.546  27.464  1.00  0.00     0.016 A 
ATOM     43  C   UNL A   1      44.165  26.419  26.710  1.00  0.00     0.016 A 
ATOM     44  C   UNL A   1      42.097  25.401  28.302  1.00  0.00     0.010 A 
ATOM     45  C   UNL A   1      43.438  27.277  27.535  1.00  0.00     0.010 A 
ATOM     46  C   UNL A   1      42.419  26.768  28.355  1.00  0.00    -0.014 A 
BRANCH  46  47
ATOM     47  C   UNL A   1      41.878  27.605  29.447  1.00  0.00     0.031 A 
ATOM     48  C   UNL A   1      40.660  28.458  29.283  1.00  0.00     0.074 A 
ATOM     49  C   UNL A   1      42.564  27.588  30.605  1.00  0.00     0.049 A 
ATOM     50  N   UNL A   1      40.080  29.226  30.170  1.00  0.00    -0.248 NA
ATOM     51  C   UNL A   1      40.013  28.461  27.964  1.00  0.00     0.031 C 
ATOM     52  C   UNL A   1      43.781  26.806  30.839  1.00  0.00     0.029 A 
ATOM     53  N   UNL A   1      42.355  28.244  31.788  1.00  0.00    -0.354 N 
ATOM     54  C   UNL A   1      38.991  29.797  29.526  1.00  0.00     0.074 A 
ATOM     55  C   UNL A   1      39.008  29.309  28.162  1.00  0.00     0.031 C 
ATOM     56  C   UNL A   1      44.211  27.028  32.088  1.00  0.00     0.029 A 
ATOM     57  C   UNL A   1      43.316  27.982  32.732  1.00  0.00     0.049 A 
ATOM     58  H   UNL A   1      41.591  28.844  31.946  1.00  0.00     0.167 HD
ATOM     59  C   UNL A   1      38.065  30.638  30.045  1.00  0.00     0.037 A 
ATOM     60  C   UNL A   1      43.465  28.463  33.978  1.00  0.00     0.037 A 
ATOM     61  C   UNL A   1      38.075  31.115  31.408  1.00  0.00     0.049 A 
ATOM     62  C   UNL A   1      42.433  29.411  34.513  1.00  0.00     0.074 A 
ATOM     63  C   UNL A   1      37.151  31.926  32.044  1.00  0.00     0.029 A 
ATOM     64  N   UNL A   1      39.065  30.836  32.340  1.00  0.00    -0.354 N 
ATOM     65  N   UNL A   1      41.362  29.878  33.922  1.00  0.00    -0.248 NA
ATOM     66  C   UNL A   1      42.623  29.891  35.887  1.00  0.00     0.031 C 
ATOM     67  C   UNL A   1      37.607  32.181  33.340  1.00  0.00     0.029 A 
ATOM     68  C   UNL A   1      38.790  31.485  33.533  1.00  0.00     0.049 A 
ATOM     69  H   UNL A   1      39.849  30.261  32.177  1.00  0.00     0.167 HD
ATOM     70  C   UNL A   1      40.739  30.694  34.853  1.00  0.00     0.074 A 
ATOM     71  C   UNL A   1      41.542  30.638  36.057  1.00  0.00     0.031 C 
ATOM     72  C   UNL A   1      39.606  31.425  34.720  1.00  0.00     0.037 A 
BRANCH  59  73
ATOM     73  C   UNL A   1      36.946  31.107  29.160  1.00  0.00     0.064 A 
ATOM     74  C   UNL A   1      35.866  30.269  28.845  1.00  0.00     0.173 A 
ATOM     75  C   UNL A   1      36.884  32.444  28.735  1.00  0.00     0.173 A 
ATOM     76  F   UNL A   1      35.876  28.984  29.228  1.00  0.00    -0.203 F 
ATOM     77  C   UNL A   1      34.766  30.752  28.139  1.00  0.00     0.198 A 
ATOM     78  C   UNL A   1      35.773  32.928  28.048  1.00  0.00     0.198 A 
ATOM     79  F   UNL A   1      37.884  33.291  29.021  1.00  0.00    -0.203 F 
ATOM     80  F   UNL A   1      33.750  29.930  27.841  1.00  0.00    -0.200 F 
ATOM     81  C   UNL A   1      34.715  32.083  27.751  1.00  0.00     0.200 A 
ATOM     82  F   UNL A   1      35.717  34.219  27.691  1.00  0.00    -0.200 F 
ATOM     83  F   UNL A   1      33.644  32.552  27.097  1.00  0.00    -0.200 F 
ENDBRANCH  59  73
BRANCH  60  84
ATOM     84  C   UNL A   1      44.625  28.026  34.794  1.00  0.00     0.064 A 
ATOM     85  C   UNL A   1      44.580  26.833  35.527  1.00  0.00     0.173 A 
ATOM     86  C   UNL A   1      45.816  28.768  34.822  1.00  0.00     0.173 A 
ATOM     87  F   UNL A   1      43.459  26.096  35.538  1.00  0.00    -0.203 F 
ATOM     88  C   UNL A   1      45.678  26.405  36.269  1.00  0.00     0.198 A 
ATOM     89  C   UNL A   1      46.922  28.324  35.540  1.00  0.00     0.198 A 
ATOM     90  F   UNL A   1      45.912  29.909  34.124  1.00  0.00    -0.203 F 
ATOM     91  F   UNL A   1      45.599  25.277  36.987  1.00  0.00    -0.200 F 
ATOM     92  C   UNL A   1      46.851  27.147  36.268  1.00  0.00     0.200 A 
ATOM     93  F   UNL A   1      48.060  29.031  35.520  1.00  0.00    -0.200 F 
ATOM     94  F   UNL A   1      47.912  26.725  36.971  1.00  0.00    -0.200 F 
ENDBRANCH  60  84
BRANCH  72  95
ATOM     95  C   UNL A   1      39.166  32.226  35.909  1.00  0.00     0.064 A 
ATOM     96  C   UNL A   1      38.288  31.693  36.864  1.00  0.00     0.173 A 
ATOM     97  C   UNL A   1      39.669  33.517  36.125  1.00  0.00     0.173 A 
ATOM     98  F   UNL A   1      37.767  30.468  36.692  1.00  0.00    -0.203 F 
ATOM     99  C   UNL A   1      37.917  32.430  37.984  1.00  0.00     0.198 A 
ATOM    100  C   UNL A   1      39.320  34.241  37.261  1.00  0.00     0.198 A 
ATOM    101  F   UNL A   1      40.516  34.071  35.243  1.00  0.00    -0.203 F 
ATOM    102  F   UNL A   1      37.046  31.917  38.863  1.00  0.00    -0.200 F 
ATOM    103  C   UNL A   1      38.440  33.699  38.187  1.00  0.00     0.200 A 
ATOM    104  F   UNL A   1      39.836  35.461  37.463  1.00  0.00    -0.200 F 
ATOM    105  F   UNL A   1      38.093  34.402  39.274  1.00  0.00    -0.200 F 
ENDBRANCH  72  95
ENDBRANCH  46  47
ENDBRANCH  39  41
ENDBRANCH  38  39
ENDBRANCH  37  38
ENDBRANCH  36  37
ENDBRANCH  35  36
ENDBRANCH  34  35
ENDBRANCH  33  34
ENDBRANCH  32  33
ENDBRANCH   1  32
TORSDOF 24
ENDMDL
MODEL 3
REMARK VINA RESULT:     -10.7      5.227     10.529
REMARK SMILES Nn1c(S[C@@H](C(=O)OCCOCCOCCOCCOC(=O)c2ccc(-c3c4nc(c(-c5c(F)c(F)c(F)c(F)c5F)c5ccc([nH]5)c(-c5c(F)c(F)c(F)c(F)c5F)c5nc(c(-c6c(F)c(F)c(F)c(F)c6F)c6ccc3[nH]6)C=C5)C=C4)cc2)c2ccccc2)nc2ccc(Br)cc2c1=O
REMARK SMILES IDX 13 1 12 2 11 3 10 4 9 5 8 6 6 7 7 8 5 9 4 10 3 11 2 12
REMARK SMILES IDX 100 13 92 14 99 15 101 16 93 17 98 18 94 19 96 20 95 21
REMARK SMILES IDX 97 22 1 23 86 26 87 27 91 28 88 29 90 30 89 31 14 32 15 33
REMARK SMILES IDX 16 34 17 35 18 36 19 37 20 38 21 39 22 40 23 41 24 42 85 43
REMARK SMILES IDX 25 44 84 45 26 46 27 47 28 48 78 49 29 50 83 51 77 52 79 53
REMARK SMILES IDX 30 54 82 55 76 56 75 57 31 59 63 60 43 61 62 62 44 63 47 64
REMARK SMILES IDX 61 65 80 66 45 67 46 68 60 70 81 71 48 72 32 73 33 74 41 75
REMARK SMILES IDX 34 76 35 77 39 78 42 79 36 80 37 81 40 82 38 83 64 84 65 85
REMARK SMILES IDX 73 86 66 87 67 88 71 89 74 90 68 91 69 92 72 93 70 94 49 95
REMARK SMILES IDX 50 96 58 97 51 98 52 99 56 100 59 101 53 102 54 103 57 104
REMARK SMILES IDX 55 105
REMARK H PARENT 1 24 1 25 79 58 47 69
REMARK Flexibility Score: inf
ROOT
ATOM      1  C   UNL A   1      38.034  21.068  24.972  1.00  0.00     0.188 C 
ENDROOT
BRANCH   1   2
ATOM      2  C   UNL A   1      37.940  22.393  25.746  1.00  0.00     0.188 C 
BRANCH   2   3
ATOM      3  O   UNL A   1      37.376  23.550  25.148  1.00  0.00    -0.376 OA
BRANCH   3   4
ATOM      4  C   UNL A   1      35.980  23.763  25.246  1.00  0.00     0.202 C 
BRANCH   4   5
ATOM      5  C   UNL A   1      35.176  24.154  23.989  1.00  0.00     0.261 C 
BRANCH   5   6
ATOM      6  O   UNL A   1      34.588  25.476  23.952  1.00  0.00    -0.462 OA
BRANCH   6   7
ATOM      7  C   UNL A   1      33.553  25.652  23.084  1.00  0.00     0.324 C 
ATOM      8  O   UNL A   1      33.753  25.940  21.905  1.00  0.00    -0.251 OA
BRANCH   7   9
ATOM      9  C   UNL A   1      32.134  25.593  23.710  1.00  0.00     0.194 C 
BRANCH   9  10
ATOM     10  S   UNL A   1      31.212  24.031  23.685  1.00  0.00    -0.066 SA
BRANCH  10  11
ATOM     11  C   UNL A   1      31.953  22.535  24.250  1.00  0.00     0.191 A 
ATOM     12  N   UNL A   1      32.498  22.299  25.511  1.00  0.00    -0.202 N 
ATOM     13  C   UNL A   1      33.012  21.054  25.896  1.00  0.00     0.280 A 
ATOM     14  N   UNL A   1      31.910  21.581  23.360  1.00  0.00    -0.222 NA
ATOM     15  C   UNL A   1      32.937  19.980  24.910  1.00  0.00     0.069 A 
ATOM     16  O   UNL A   1      33.486  20.830  27.011  1.00  0.00    -0.267 OA
ATOM     17  C   UNL A   1      32.392  20.295  23.670  1.00  0.00     0.079 A 
ATOM     18  C   UNL A   1      33.324  18.675  25.252  1.00  0.00     0.031 A 
ATOM     19  C   UNL A   1      32.261  19.258  22.739  1.00  0.00     0.030 A 
ATOM     20  C   UNL A   1      33.151  17.657  24.324  1.00  0.00     0.018 A 
ATOM     21  C   UNL A   1      32.630  17.942  23.063  1.00  0.00     0.018 A 
ATOM     22  Br  UNL A   1      33.563  15.875  24.801  1.00  0.00    -0.051 Br
BRANCH  12  23
ATOM     23  N   UNL A   1      32.599  23.273  26.500  1.00  0.00    -0.334 N 
ATOM     24  H   UNL A   1      31.800  23.775  26.780  1.00  0.00     0.178 HD
ATOM     25  H   UNL A   1      33.470  23.461  26.919  1.00  0.00     0.178 HD
ENDBRANCH  12  23
ENDBRANCH  10  11
ENDBRANCH   9  10
BRANCH   9  26
ATOM     26  C   UNL A   1      31.312  26.872  23.599  1.00  0.00    -0.023 A 
ATOM     27  C   UNL A   1      29.925  26.797  23.405  1.00  0.00     0.005 A 
ATOM     28  C   UNL A   1      31.904  28.149  23.650  1.00  0.00     0.005 A 
ATOM     29  C   UNL A   1      29.176  27.954  23.177  1.00  0.00     0.000 A 
ATOM     30  C   UNL A   1      31.163  29.300  23.391  1.00  0.00     0.000 A 
ATOM     31  C   UNL A   1      29.801  29.198  23.138  1.00  0.00     0.000 A 
ENDBRANCH   9  26
ENDBRANCH   7   9
ENDBRANCH   6   7
ENDBRANCH   5   6
ENDBRANCH   4   5
ENDBRANCH   3   4
ENDBRANCH   2   3
ENDBRANCH   1   2
BRANCH   1  32
ATOM     32  O   UNL A   1      38.907  20.135  25.574  1.00  0.00    -0.377 OA
BRANCH  32  33
ATOM     33  C   UNL A   1      40.058  20.712  26.153  1.00  0.00     0.188 C 
BRANCH  33  34
ATOM     34  C   UNL A   1      41.233  19.742  26.329  1.00  0.00     0.188 C 
BRANCH  34  35
ATOM     35  O   UNL A   1      42.383  20.127  25.571  1.00  0.00    -0.376 OA
BRANCH  35  36
ATOM     36  C   UNL A   1      42.775  21.494  25.649  1.00  0.00     0.202 C 
BRANCH  36  37
ATOM     37  C   UNL A   1      44.289  21.724  25.595  1.00  0.00     0.261 C 
BRANCH  37  38
ATOM     38  O   UNL A   1      44.787  22.907  26.230  1.00  0.00    -0.460 OA
BRANCH  38  39
ATOM     39  C   UNL A   1      44.553  24.104  25.655  1.00  0.00     0.338 C 
ATOM     40  O   UNL A   1      44.591  24.379  24.470  1.00  0.00    -0.246 OA
BRANCH  39  41
ATOM     41  C   UNL A   1      43.982  24.959  26.718  1.00  0.00     0.060 A 
ATOM     42  C   UNL A   1      42.927  24.499  27.515  1.00  0.00     0.016 A 
ATOM     43  C   UNL A   1      44.425  26.284  26.818  1.00  0.00     0.016 A 
ATOM     44  C   UNL A   1      42.328  25.363  28.430  1.00  0.00     0.010 A 
ATOM     45  C   UNL A   1      43.812  27.152  27.721  1.00  0.00     0.010 A 
ATOM     46  C   UNL A   1      42.779  26.688  28.550  1.00  0.00    -0.014 A 
BRANCH  46  47
ATOM     47  C   UNL A   1      42.358  27.501  29.711  1.00  0.00     0.031 A 
ATOM     48  C   UNL A   1      43.076  27.471  31.022  1.00  0.00     0.074 A 
ATOM     49  C   UNL A   1      41.257  28.258  29.539  1.00  0.00     0.049 A 
ATOM     50  N   UNL A   1      42.812  28.148  32.111  1.00  0.00    -0.248 NA
ATOM     51  C   UNL A   1      44.230  26.568  31.137  1.00  0.00     0.031 C 
ATOM     52  C   UNL A   1      40.478  28.322  28.300  1.00  0.00     0.029 A 
ATOM     53  N   UNL A   1      40.598  29.100  30.393  1.00  0.00    -0.354 N 
ATOM     54  C   UNL A   1      43.770  27.767  33.040  1.00  0.00     0.074 A 
ATOM     55  C   UNL A   1      44.606  26.774  32.395  1.00  0.00     0.031 C 
ATOM     56  C   UNL A   1      39.446  29.159  28.473  1.00  0.00     0.029 A 
ATOM     57  C   UNL A   1      39.478  29.668  29.839  1.00  0.00     0.049 A 
ATOM     58  H   UNL A   1      40.897  29.280  31.313  1.00  0.00     0.167 HD
ATOM     59  C   UNL A   1      43.930  28.223  34.305  1.00  0.00     0.037 A 
ATOM     60  C   UNL A   1      38.572  30.503  30.374  1.00  0.00     0.037 A 
ATOM     61  C   UNL A   1      43.077  29.209  34.926  1.00  0.00     0.049 A 
ATOM     62  C   UNL A   1      38.767  30.971  31.786  1.00  0.00     0.074 A 
ATOM     63  C   UNL A   1      43.190  29.776  36.183  1.00  0.00     0.029 A 
ATOM     64  N   UNL A   1      41.947  29.762  34.341  1.00  0.00    -0.354 N 
ATOM     65  N   UNL A   1      39.724  30.667  32.627  1.00  0.00    -0.248 NA
ATOM     66  C   UNL A   1      37.766  31.902  32.320  1.00  0.00     0.031 C 
ATOM     67  C   UNL A   1      42.101  30.630  36.380  1.00  0.00     0.029 A 
ATOM     68  C   UNL A   1      41.336  30.639  35.225  1.00  0.00     0.049 A 
ATOM     69  H   UNL A   1      41.625  29.562  33.432  1.00  0.00     0.167 HD
ATOM     70  C   UNL A   1      39.454  31.379  33.784  1.00  0.00     0.074 A 
ATOM     71  C   UNL A   1      38.253  32.149  33.528  1.00  0.00     0.031 C 
ATOM     72  C   UNL A   1      40.136  31.391  34.955  1.00  0.00     0.037 A 
BRANCH  59  73
ATOM     73  C   UNL A   1      45.067  27.684  35.123  1.00  0.00     0.064 A 
ATOM     74  C   UNL A   1      46.317  28.319  35.142  1.00  0.00     0.173 A 
ATOM     75  C   UNL A   1      44.868  26.604  35.999  1.00  0.00     0.173 A 
ATOM     76  F   UNL A   1      46.559  29.355  34.326  1.00  0.00    -0.203 F 
ATOM     77  C   UNL A   1      47.325  27.896  36.006  1.00  0.00     0.198 A 
ATOM     78  C   UNL A   1      45.870  26.198  36.877  1.00  0.00     0.198 A 
ATOM     79  F   UNL A   1      43.687  25.969  36.032  1.00  0.00    -0.203 F 
ATOM     80  F   UNL A   1      48.515  28.513  36.000  1.00  0.00    -0.200 F 
ATOM     81  C   UNL A   1      47.097  26.843  36.881  1.00  0.00     0.200 A 
ATOM     82  F   UNL A   1      45.642  25.193  37.735  1.00  0.00    -0.200 F 
ATOM     83  F   UNL A   1      48.058  26.456  37.731  1.00  0.00    -0.200 F 
ENDBRANCH  59  73
BRANCH  60  84
ATOM     84  C   UNL A   1      37.424  30.958  29.551  1.00  0.00     0.064 A 
ATOM     85  C   UNL A   1      37.410  32.235  28.977  1.00  0.00     0.173 A 
ATOM     86  C   UNL A   1      36.339  30.108  29.284  1.00  0.00     0.173 A 
ATOM     87  F   UNL A   1      38.422  33.085  29.212  1.00  0.00    -0.203 F 
ATOM     88  C   UNL A   1      36.349  32.653  28.178  1.00  0.00     0.198 A 
ATOM     89  C   UNL A   1      35.292  30.516  28.462  1.00  0.00     0.198 A 
ATOM     90  F   UNL A   1      36.313  28.871  29.799  1.00  0.00    -0.203 F 
ATOM     91  F   UNL A   1      36.346  33.891  27.668  1.00  0.00    -0.200 F 
ATOM     92  C   UNL A   1      35.295  31.790  27.915  1.00  0.00     0.200 A 
ATOM     93  F   UNL A   1      34.286  29.673  28.192  1.00  0.00    -0.200 F 
ATOM     94  F   UNL A   1      34.281  32.188  27.134  1.00  0.00    -0.200 F 
ENDBRANCH  60  84
BRANCH  72  95
ATOM     95  C   UNL A   1      39.601  32.265  36.050  1.00  0.00     0.064 A 
ATOM     96  C   UNL A   1      40.091  33.563  36.252  1.00  0.00     0.173 A 
ATOM     97  C   UNL A   1      38.552  31.822  36.868  1.00  0.00     0.173 A 
ATOM     98  F   UNL A   1      41.106  34.026  35.505  1.00  0.00    -0.203 F 
ATOM     99  C   UNL A   1      39.561  34.381  37.245  1.00  0.00     0.198 A 
ATOM    100  C   UNL A   1      38.003  32.652  37.840  1.00  0.00     0.198 A 
ATOM    101  F   UNL A   1      38.045  30.589  36.711  1.00  0.00    -0.203 F 
ATOM    102  F   UNL A   1      40.071  35.604  37.448  1.00  0.00    -0.200 F 
ATOM    103  C   UNL A   1      38.511  33.929  38.032  1.00  0.00     0.200 A 
ATOM    104  F   UNL A   1      36.981  32.219  38.591  1.00  0.00    -0.200 F 
ATOM    105  F   UNL A   1      37.992  34.722  38.979  1.00  0.00    -0.200 F 
ENDBRANCH  72  95
ENDBRANCH  46  47
ENDBRANCH  39  41
ENDBRANCH  38  39
ENDBRANCH  37  38
ENDBRANCH  36  37
ENDBRANCH  35  36
ENDBRANCH  34  35
ENDBRANCH  33  34
ENDBRANCH  32  33
ENDBRANCH   1  32
TORSDOF 24
ENDMDL
