MODEL 1
REMARK VINA RESULT:     -10.5      0.000      0.000
REMARK SMILES CC[C@@H]1CCCN1c1cc(C)c(N)c(C(=O)OCCOCCOCCOCCOC(=O)c2ccc(-c3c4nc(c(-c5c(F)c(F)c(F)c(F)c5F)c5ccc([nH]5)c(-c5c(F)c(F)c(F)c(F)c5F)c5nc(c(-c6c(F)c(F)c(F)c(F)c6F)c6ccc3[nH]6)C=C5)C=C4)cc2)c1
REMARK SMILES IDX 23 1 22 2 21 3 20 4 19 5 18 6 17 7 15 8 16 9 14 10 8 11 9 12
REMARK SMILES IDX 95 13 10 14 11 15 12 16 7 17 3 18 4 19 5 20 6 21 2 22 1 23
REMARK SMILES IDX 13 24 24 27 25 28 26 29 27 30 28 31 29 32 30 33 31 34 32 35
REMARK SMILES IDX 33 36 94 37 34 38 93 39 35 40 36 41 37 42 87 43 38 44 92 45
REMARK SMILES IDX 86 46 88 47 39 48 91 49 85 50 84 51 40 53 72 54 52 55 71 56
REMARK SMILES IDX 53 57 56 58 70 59 89 60 54 61 55 62 69 64 90 65 57 66 41 67
REMARK SMILES IDX 42 68 50 69 43 70 44 71 48 72 51 73 45 74 46 75 49 76 47 77
REMARK SMILES IDX 73 78 74 79 82 80 75 81 76 82 80 83 83 84 77 85 78 86 81 87
REMARK SMILES IDX 79 88 58 89 59 90 67 91 60 92 61 93 65 94 68 95 62 96 63 97
REMARK SMILES IDX 66 98 64 99
REMARK H PARENT 13 25 13 26 88 52 56 63
REMARK Flexibility Score: inf
ROOT
ATOM      1  O   UNL A   1      34.390  35.240  28.843  1.00  0.00    -0.377 OA
ENDROOT
BRANCH   1   2
ATOM      2  C   UNL A   1      34.515  34.163  27.916  1.00  0.00     0.188 C 
BRANCH   2   3
ATOM      3  C   UNL A   1      34.656  32.691  28.374  1.00  0.00     0.188 C 
BRANCH   3   4
ATOM      4  O   UNL A   1      35.853  32.048  27.970  1.00  0.00    -0.376 OA
BRANCH   4   5
ATOM      5  C   UNL A   1      35.791  30.687  27.595  1.00  0.00     0.202 C 
BRANCH   5   6
ATOM      6  C   UNL A   1      34.432  29.995  27.755  1.00  0.00     0.261 C 
BRANCH   6   7
ATOM      7  O   UNL A   1      33.770  29.649  26.531  1.00  0.00    -0.460 OA
BRANCH   7   8
ATOM      8  C   UNL A   1      32.422  29.788  26.505  1.00  0.00     0.340 C 
ATOM      9  O   UNL A   1      31.799  30.770  26.872  1.00  0.00    -0.246 OA
BRANCH   8  10
ATOM     10  C   UNL A   1      31.834  28.629  25.781  1.00  0.00     0.085 A 
ATOM     11  C   UNL A   1      31.700  26.188  25.519  1.00  0.00     0.038 A 
ATOM     12  C   UNL A   1      30.808  26.427  24.472  1.00  0.00     0.031 A 
ATOM     13  C   UNL A   1      32.192  27.324  26.173  1.00  0.00     0.043 A 
ATOM     14  C   UNL A   1      30.455  27.721  24.031  1.00  0.00    -0.025 A 
ATOM     15  C   UNL A   1      29.528  27.844  22.852  1.00  0.00     0.047 C 
ATOM     16  C   UNL A   1      30.973  28.848  24.688  1.00  0.00     0.049 A 
BRANCH  11  17
ATOM     17  N   UNL A   1      32.026  24.927  25.949  1.00  0.00    -0.369 N 
ATOM     18  C   UNL A   1      33.321  24.242  26.120  1.00  0.00     0.082 C 
ATOM     19  C   UNL A   1      32.950  22.811  25.704  1.00  0.00     0.027 C 
ATOM     20  C   UNL A   1      31.589  22.620  26.353  1.00  0.00     0.024 C 
ATOM     21  C   UNL A   1      30.929  23.995  26.253  1.00  0.00     0.117 C 
BRANCH  18  22
ATOM     22  C   UNL A   1      34.562  24.718  25.374  1.00  0.00     0.021 C 
ATOM     23  C   UNL A   1      35.107  23.689  24.390  1.00  0.00     0.006 C 
ENDBRANCH  18  22
ENDBRANCH  11  17
BRANCH  16  24
ATOM     24  N   UNL A   1      30.773  30.122  24.156  1.00  0.00    -0.398 N 
ATOM     25  H   UNL A   1      30.307  30.810  24.685  1.00  0.00     0.156 HD
ATOM     26  H   UNL A   1      31.097  30.335  23.251  1.00  0.00     0.156 HD
ENDBRANCH  16  24
ENDBRANCH   8  10
ENDBRANCH   7   8
ENDBRANCH   6   7
ENDBRANCH   5   6
ENDBRANCH   4   5
ENDBRANCH   3   4
ENDBRANCH   2   3
ENDBRANCH   1   2
BRANCH   1  27
ATOM     27  C   UNL A   1      33.118  35.568  29.382  1.00  0.00     0.188 C 
BRANCH  27  28
ATOM     28  C   UNL A   1      33.058  36.192  30.794  1.00  0.00     0.188 C 
BRANCH  28  29
ATOM     29  O   UNL A   1      32.762  35.257  31.816  1.00  0.00    -0.376 OA
BRANCH  29  30
ATOM     30  C   UNL A   1      33.827  34.768  32.609  1.00  0.00     0.202 C 
BRANCH  30  31
ATOM     31  C   UNL A   1      34.465  33.413  32.262  1.00  0.00     0.261 C 
BRANCH  31  32
ATOM     32  O   UNL A   1      35.894  33.377  32.132  1.00  0.00    -0.460 OA
BRANCH  32  33
ATOM     33  C   UNL A   1      36.587  32.598  32.986  1.00  0.00     0.338 C 
ATOM     34  O   UNL A   1      36.344  32.391  34.165  1.00  0.00    -0.246 OA
BRANCH  33  35
ATOM     35  C   UNL A   1      37.598  31.869  32.192  1.00  0.00     0.060 A 
ATOM     36  C   UNL A   1      38.655  31.226  32.852  1.00  0.00     0.016 A 
ATOM     37  C   UNL A   1      37.484  31.796  30.802  1.00  0.00     0.016 A 
ATOM     38  C   UNL A   1      39.616  30.529  32.118  1.00  0.00     0.010 A 
ATOM     39  C   UNL A   1      38.461  31.121  30.065  1.00  0.00     0.010 A 
ATOM     40  C   UNL A   1      39.547  30.510  30.718  1.00  0.00    -0.014 A 
BRANCH  40  41
ATOM     41  C   UNL A   1      40.707  30.019  29.936  1.00  0.00     0.031 A 
ATOM     42  C   UNL A   1      41.841  30.970  29.670  1.00  0.00     0.074 A 
ATOM     43  C   UNL A   1      40.767  28.752  29.494  1.00  0.00     0.049 A 
ATOM     44  N   UNL A   1      42.940  30.786  28.984  1.00  0.00    -0.248 NA
ATOM     45  C   UNL A   1      41.714  32.314  30.256  1.00  0.00     0.031 C 
ATOM     46  C   UNL A   1      39.752  27.728  29.724  1.00  0.00     0.029 A 
ATOM     47  N   UNL A   1      41.730  28.114  28.750  1.00  0.00    -0.354 N 
ATOM     48  C   UNL A   1      43.631  31.989  29.055  1.00  0.00     0.074 A 
ATOM     49  C   UNL A   1      42.813  32.906  29.817  1.00  0.00     0.031 C 
ATOM     50  C   UNL A   1      40.140  26.588  29.123  1.00  0.00     0.029 A 
ATOM     51  C   UNL A   1      41.414  26.816  28.440  1.00  0.00     0.049 A 
ATOM     52  H   UNL A   1      42.567  28.548  28.468  1.00  0.00     0.167 HD
ATOM     53  C   UNL A   1      44.845  32.297  28.538  1.00  0.00     0.037 A 
ATOM     54  C   UNL A   1      42.068  25.923  27.669  1.00  0.00     0.037 A 
ATOM     55  C   UNL A   1      45.652  31.382  27.774  1.00  0.00     0.049 A 
ATOM     56  C   UNL A   1      43.379  26.318  27.035  1.00  0.00     0.074 A 
ATOM     57  C   UNL A   1      46.903  31.592  27.220  1.00  0.00     0.029 A 
ATOM     58  N   UNL A   1      45.281  30.087  27.444  1.00  0.00    -0.354 N 
ATOM     59  N   UNL A   1      44.042  27.445  27.129  1.00  0.00    -0.248 NA
ATOM     60  C   UNL A   1      44.034  25.310  26.189  1.00  0.00     0.031 C 
ATOM     61  C   UNL A   1      47.258  30.446  26.501  1.00  0.00     0.029 A 
ATOM     62  C   UNL A   1      46.263  29.496  26.666  1.00  0.00     0.049 A 
ATOM     63  H   UNL A   1      44.443  29.651  27.723  1.00  0.00     0.167 HD
ATOM     64  C   UNL A   1      45.202  27.273  26.383  1.00  0.00     0.074 A 
ATOM     65  C   UNL A   1      45.161  25.924  25.859  1.00  0.00     0.031 C 
ATOM     66  C   UNL A   1      46.210  28.150  26.152  1.00  0.00     0.037 A 
BRANCH  53  67
ATOM     67  C   UNL A   1      45.356  33.692  28.755  1.00  0.00     0.064 A 
ATOM     68  C   UNL A   1      46.232  34.007  29.805  1.00  0.00     0.173 A 
ATOM     69  C   UNL A   1      44.985  34.725  27.881  1.00  0.00     0.173 A 
ATOM     70  F   UNL A   1      46.607  33.060  30.679  1.00  0.00    -0.203 F 
ATOM     71  C   UNL A   1      46.695  35.307  29.988  1.00  0.00     0.198 A 
ATOM     72  C   UNL A   1      45.477  36.017  28.046  1.00  0.00     0.198 A 
ATOM     73  F   UNL A   1      44.152  34.480  26.858  1.00  0.00    -0.203 F 
ATOM     74  F   UNL A   1      47.488  35.595  31.029  1.00  0.00    -0.200 F 
ATOM     75  C   UNL A   1      46.324  36.309  29.104  1.00  0.00     0.200 A 
ATOM     76  F   UNL A   1      45.129  36.981  27.181  1.00  0.00    -0.200 F 
ATOM     77  F   UNL A   1      46.777  37.558  29.276  1.00  0.00    -0.200 F 
ENDBRANCH  53  67
BRANCH  54  78
ATOM     78  C   UNL A   1      41.492  24.571  27.440  1.00  0.00     0.064 A 
ATOM     79  C   UNL A   1      40.334  24.395  26.669  1.00  0.00     0.173 A 
ATOM     80  C   UNL A   1      42.071  23.428  28.013  1.00  0.00     0.173 A 
ATOM     81  F   UNL A   1      39.727  25.459  26.122  1.00  0.00    -0.203 F 
ATOM     82  C   UNL A   1      39.765  23.134  26.500  1.00  0.00     0.198 A 
ATOM     83  C   UNL A   1      41.520  22.164  27.814  1.00  0.00     0.198 A 
ATOM     84  F   UNL A   1      43.177  23.538  28.764  1.00  0.00    -0.203 F 
ATOM     85  F   UNL A   1      38.626  23.004  25.806  1.00  0.00    -0.200 F 
ATOM     86  C   UNL A   1      40.361  22.019  27.067  1.00  0.00     0.200 A 
ATOM     87  F   UNL A   1      42.107  21.087  28.354  1.00  0.00    -0.200 F 
ATOM     88  F   UNL A   1      39.814  20.807  26.903  1.00  0.00    -0.200 F 
ENDBRANCH  54  78
BRANCH  66  89
ATOM     89  C   UNL A   1      47.372  27.668  25.326  1.00  0.00     0.064 A 
ATOM     90  C   UNL A   1      48.465  27.005  25.903  1.00  0.00     0.173 A 
ATOM     91  C   UNL A   1      47.375  27.846  23.933  1.00  0.00     0.173 A 
ATOM     92  F   UNL A   1      48.520  26.819  27.230  1.00  0.00    -0.203 F 
ATOM     93  C   UNL A   1      49.535  26.574  25.122  1.00  0.00     0.198 A 
ATOM     94  C   UNL A   1      48.428  27.379  23.151  1.00  0.00     0.198 A 
ATOM     95  F   UNL A   1      46.349  28.463  23.327  1.00  0.00    -0.203 F 
ATOM     96  F   UNL A   1      50.598  26.000  25.703  1.00  0.00    -0.200 F 
ATOM     97  C   UNL A   1      49.513  26.754  23.747  1.00  0.00     0.200 A 
ATOM     98  F   UNL A   1      48.394  27.537  21.821  1.00  0.00    -0.200 F 
ATOM     99  F   UNL A   1      50.541  26.334  22.997  1.00  0.00    -0.200 F 
ENDBRANCH  66  89
ENDBRANCH  40  41
ENDBRANCH  33  35
ENDBRANCH  32  33
ENDBRANCH  31  32
ENDBRANCH  30  31
ENDBRANCH  29  30
ENDBRANCH  28  29
ENDBRANCH  27  28
ENDBRANCH   1  27
TORSDOF 23
ENDMDL
MODEL 2
REMARK VINA RESULT:     -10.0      3.828      6.097
REMARK SMILES CC[C@@H]1CCCN1c1cc(C)c(N)c(C(=O)OCCOCCOCCOCCOC(=O)c2ccc(-c3c4nc(c(-c5c(F)c(F)c(F)c(F)c5F)c5ccc([nH]5)c(-c5c(F)c(F)c(F)c(F)c5F)c5nc(c(-c6c(F)c(F)c(F)c(F)c6F)c6ccc3[nH]6)C=C5)C=C4)cc2)c1
REMARK SMILES IDX 23 1 22 2 21 3 20 4 19 5 18 6 17 7 15 8 16 9 14 10 8 11 9 12
REMARK SMILES IDX 95 13 10 14 11 15 12 16 7 17 3 18 4 19 5 20 6 21 2 22 1 23
REMARK SMILES IDX 13 24 24 27 25 28 26 29 27 30 28 31 29 32 30 33 31 34 32 35
REMARK SMILES IDX 33 36 94 37 34 38 93 39 35 40 36 41 37 42 87 43 38 44 92 45
REMARK SMILES IDX 86 46 88 47 39 48 91 49 85 50 84 51 40 53 72 54 52 55 71 56
REMARK SMILES IDX 53 57 56 58 70 59 89 60 54 61 55 62 69 64 90 65 57 66 41 67
REMARK SMILES IDX 42 68 50 69 43 70 44 71 48 72 51 73 45 74 46 75 49 76 47 77
REMARK SMILES IDX 73 78 74 79 82 80 75 81 76 82 80 83 83 84 77 85 78 86 81 87
REMARK SMILES IDX 79 88 58 89 59 90 67 91 60 92 61 93 65 94 68 95 62 96 63 97
REMARK SMILES IDX 66 98 64 99
REMARK H PARENT 13 25 13 26 88 52 56 63
REMARK Flexibility Score: inf
ROOT
ATOM      1  O   UNL A   1      33.537  27.803  22.477  1.00  0.00    -0.377 OA
ENDROOT
BRANCH   1   2
ATOM      2  C   UNL A   1      32.999  26.507  22.730  1.00  0.00     0.188 C 
BRANCH   2   3
ATOM      3  C   UNL A   1      33.549  25.588  23.848  1.00  0.00     0.188 C 
BRANCH   3   4
ATOM      4  O   UNL A   1      33.760  26.223  25.098  1.00  0.00    -0.376 OA
BRANCH   4   5
ATOM      5  C   UNL A   1      32.907  25.888  26.175  1.00  0.00     0.202 C 
BRANCH   5   6
ATOM      6  C   UNL A   1      31.568  25.236  25.808  1.00  0.00     0.261 C 
BRANCH   6   7
ATOM      7  O   UNL A   1      31.556  23.802  25.828  1.00  0.00    -0.460 OA
BRANCH   7   8
ATOM      8  C   UNL A   1      32.311  23.199  26.778  1.00  0.00     0.340 C 
ATOM      9  O   UNL A   1      32.170  23.316  27.984  1.00  0.00    -0.246 OA
BRANCH   8  10
ATOM     10  C   UNL A   1      33.219  22.222  26.119  1.00  0.00     0.085 A 
ATOM     11  C   UNL A   1      33.453  20.172  24.782  1.00  0.00     0.038 A 
ATOM     12  C   UNL A   1      34.833  20.352  24.890  1.00  0.00     0.031 A 
ATOM     13  C   UNL A   1      32.660  21.145  25.402  1.00  0.00     0.043 A 
ATOM     14  C   UNL A   1      35.426  21.398  25.629  1.00  0.00    -0.025 A 
ATOM     15  C   UNL A   1      36.928  21.447  25.716  1.00  0.00     0.047 C 
ATOM     16  C   UNL A   1      34.615  22.354  26.259  1.00  0.00     0.049 A 
BRANCH  11  17
ATOM     17  N   UNL A   1      32.887  19.159  24.051  1.00  0.00    -0.369 N 
ATOM     18  C   UNL A   1      32.666  17.729  24.341  1.00  0.00     0.082 C 
ATOM     19  C   UNL A   1      32.905  17.111  22.957  1.00  0.00     0.027 C 
ATOM     20  C   UNL A   1      32.208  18.093  22.030  1.00  0.00     0.024 C 
ATOM     21  C   UNL A   1      32.451  19.457  22.677  1.00  0.00     0.117 C 
BRANCH  18  22
ATOM     22  C   UNL A   1      33.491  17.012  25.404  1.00  0.00     0.021 C 
ATOM     23  C   UNL A   1      34.787  16.419  24.864  1.00  0.00     0.006 C 
ENDBRANCH  18  22
ENDBRANCH  11  17
BRANCH  16  24
ATOM     24  N   UNL A   1      35.179  23.285  27.131  1.00  0.00    -0.398 N 
ATOM     25  H   UNL A   1      35.896  23.012  27.749  1.00  0.00     0.156 HD
ATOM     26  H   UNL A   1      34.860  24.217  27.131  1.00  0.00     0.156 HD
ENDBRANCH  16  24
ENDBRANCH   8  10
ENDBRANCH   7   8
ENDBRANCH   6   7
ENDBRANCH   5   6
ENDBRANCH   4   5
ENDBRANCH   3   4
ENDBRANCH   2   3
ENDBRANCH   1   2
BRANCH   1  27
ATOM     27  C   UNL A   1      33.041  28.928  23.186  1.00  0.00     0.188 C 
BRANCH  27  28
ATOM     28  C   UNL A   1      31.562  28.924  23.628  1.00  0.00     0.188 C 
BRANCH  28  29
ATOM     29  O   UNL A   1      31.387  29.043  25.029  1.00  0.00    -0.376 OA
BRANCH  29  30
ATOM     30  C   UNL A   1      31.715  30.274  25.646  1.00  0.00     0.202 C 
BRANCH  30  31
ATOM     31  C   UNL A   1      32.425  30.267  27.010  1.00  0.00     0.261 C 
BRANCH  31  32
ATOM     32  O   UNL A   1      33.860  30.269  27.001  1.00  0.00    -0.460 OA
BRANCH  32  33
ATOM     33  C   UNL A   1      34.497  31.020  27.921  1.00  0.00     0.338 C 
ATOM     34  O   UNL A   1      34.054  31.981  28.531  1.00  0.00    -0.246 OA
BRANCH  33  35
ATOM     35  C   UNL A   1      35.784  30.356  28.215  1.00  0.00     0.060 A 
ATOM     36  C   UNL A   1      35.969  29.740  29.461  1.00  0.00     0.016 A 
ATOM     37  C   UNL A   1      36.792  30.315  27.250  1.00  0.00     0.016 A 
ATOM     38  C   UNL A   1      37.175  29.104  29.753  1.00  0.00     0.010 A 
ATOM     39  C   UNL A   1      38.011  29.700  27.553  1.00  0.00     0.010 A 
ATOM     40  C   UNL A   1      38.218  29.119  28.817  1.00  0.00    -0.014 A 
BRANCH  40  41
ATOM     41  C   UNL A   1      39.578  28.697  29.229  1.00  0.00     0.031 A 
ATOM     42  C   UNL A   1      40.348  29.590  30.163  1.00  0.00     0.074 A 
ATOM     43  C   UNL A   1      40.110  27.537  28.808  1.00  0.00     0.049 A 
ATOM     44  N   UNL A   1      41.561  29.455  30.635  1.00  0.00    -0.248 NA
ATOM     45  C   UNL A   1      39.653  30.802  30.625  1.00  0.00     0.031 C 
ATOM     46  C   UNL A   1      39.446  26.571  27.938  1.00  0.00     0.029 A 
ATOM     47  N   UNL A   1      41.340  26.980  29.059  1.00  0.00    -0.354 N 
ATOM     48  C   UNL A   1      41.774  30.564  31.443  1.00  0.00     0.074 A 
ATOM     49  C   UNL A   1      40.581  31.380  31.371  1.00  0.00     0.031 C 
ATOM     50  C   UNL A   1      40.282  25.540  27.716  1.00  0.00     0.029 A 
ATOM     51  C   UNL A   1      41.549  25.794  28.402  1.00  0.00     0.049 A 
ATOM     52  H   UNL A   1      42.007  27.393  29.653  1.00  0.00     0.167 HD
ATOM     53  C   UNL A   1      42.863  30.869  32.188  1.00  0.00     0.037 A 
ATOM     54  C   UNL A   1      42.650  25.017  28.342  1.00  0.00     0.037 A 
ATOM     55  C   UNL A   1      44.050  30.057  32.253  1.00  0.00     0.049 A 
ATOM     56  C   UNL A   1      43.880  25.422  29.115  1.00  0.00     0.074 A 
ATOM     57  C   UNL A   1      45.202  30.271  32.989  1.00  0.00     0.029 A 
ATOM     58  N   UNL A   1      44.242  28.882  31.541  1.00  0.00    -0.354 N 
ATOM     59  N   UNL A   1      44.066  26.455  29.901  1.00  0.00    -0.248 NA
ATOM     60  C   UNL A   1      45.055  24.546  28.994  1.00  0.00     0.031 C 
ATOM     61  C   UNL A   1      46.115  29.259  32.674  1.00  0.00     0.029 A 
ATOM     62  C   UNL A   1      45.507  28.376  31.795  1.00  0.00     0.049 A 
ATOM     63  H   UNL A   1      43.578  28.468  30.944  1.00  0.00     0.167 HD
ATOM     64  C   UNL A   1      45.362  26.338  30.390  1.00  0.00     0.074 A 
ATOM     65  C   UNL A   1      45.910  25.122  29.827  1.00  0.00     0.031 C 
ATOM     66  C   UNL A   1      46.039  27.162  31.229  1.00  0.00     0.037 A 
BRANCH  53  67
ATOM     67  C   UNL A   1      42.832  32.153  32.967  1.00  0.00     0.064 A 
ATOM     68  C   UNL A   1      42.276  32.228  34.254  1.00  0.00     0.173 A 
ATOM     69  C   UNL A   1      43.393  33.321  32.429  1.00  0.00     0.173 A 
ATOM     70  F   UNL A   1      41.712  31.144  34.810  1.00  0.00    -0.203 F 
ATOM     71  C   UNL A   1      42.258  33.428  34.959  1.00  0.00     0.198 A 
ATOM     72  C   UNL A   1      43.404  34.511  33.151  1.00  0.00     0.198 A 
ATOM     73  F   UNL A   1      43.941  33.306  31.205  1.00  0.00    -0.203 F 
ATOM     74  F   UNL A   1      41.673  33.487  36.164  1.00  0.00    -0.200 F 
ATOM     75  C   UNL A   1      42.829  34.566  34.411  1.00  0.00     0.200 A 
ATOM     76  F   UNL A   1      43.971  35.606  32.625  1.00  0.00    -0.200 F 
ATOM     77  F   UNL A   1      42.819  35.718  35.094  1.00  0.00    -0.200 F 
ENDBRANCH  53  67
BRANCH  54  78
ATOM     78  C   UNL A   1      42.649  23.783  27.512  1.00  0.00     0.064 A 
ATOM     79  C   UNL A   1      42.273  22.544  28.051  1.00  0.00     0.173 A 
ATOM     80  C   UNL A   1      43.056  23.810  26.169  1.00  0.00     0.173 A 
ATOM     81  F   UNL A   1      41.902  22.460  29.337  1.00  0.00    -0.203 F 
ATOM     82  C   UNL A   1      42.325  21.380  27.287  1.00  0.00     0.198 A 
ATOM     83  C   UNL A   1      43.075  22.650  25.397  1.00  0.00     0.198 A 
ATOM     84  F   UNL A   1      43.431  24.967  25.603  1.00  0.00    -0.203 F 
ATOM     85  F   UNL A   1      42.015  20.201  27.846  1.00  0.00    -0.200 F 
ATOM     86  C   UNL A   1      42.720  21.434  25.960  1.00  0.00     0.200 A 
ATOM     87  F   UNL A   1      43.445  22.710  24.111  1.00  0.00    -0.200 F 
ATOM     88  F   UNL A   1      42.769  20.314  25.226  1.00  0.00    -0.200 F 
ENDBRANCH  54  78
BRANCH  66  89
ATOM     89  C   UNL A   1      47.435  26.757  31.621  1.00  0.00     0.064 A 
ATOM     90  C   UNL A   1      48.563  27.226  30.932  1.00  0.00     0.173 A 
ATOM     91  C   UNL A   1      47.644  25.909  32.720  1.00  0.00     0.173 A 
ATOM     92  F   UNL A   1      48.419  28.028  29.866  1.00  0.00    -0.203 F 
ATOM     93  C   UNL A   1      49.845  26.832  31.305  1.00  0.00     0.198 A 
ATOM     94  C   UNL A   1      48.930  25.549  33.115  1.00  0.00     0.198 A 
ATOM     95  F   UNL A   1      46.602  25.440  33.422  1.00  0.00    -0.203 F 
ATOM     96  F   UNL A   1      50.904  27.242  30.593  1.00  0.00    -0.200 F 
ATOM     97  C   UNL A   1      50.029  26.000  32.400  1.00  0.00     0.200 A 
ATOM     98  F   UNL A   1      49.105  24.760  34.184  1.00  0.00    -0.200 F 
ATOM     99  F   UNL A   1      51.264  25.626  32.761  1.00  0.00    -0.200 F 
ENDBRANCH  66  89
ENDBRANCH  40  41
ENDBRANCH  33  35
ENDBRANCH  32  33
ENDBRANCH  31  32
ENDBRANCH  30  31
ENDBRANCH  29  30
ENDBRANCH  28  29
ENDBRANCH  27  28
ENDBRANCH   1  27
TORSDOF 23
ENDMDL
MODEL 3
REMARK VINA RESULT:      -9.7      4.164      9.095
REMARK SMILES CC[C@@H]1CCCN1c1cc(C)c(N)c(C(=O)OCCOCCOCCOCCOC(=O)c2ccc(-c3c4nc(c(-c5c(F)c(F)c(F)c(F)c5F)c5ccc([nH]5)c(-c5c(F)c(F)c(F)c(F)c5F)c5nc(c(-c6c(F)c(F)c(F)c(F)c6F)c6ccc3[nH]6)C=C5)C=C4)cc2)c1
REMARK SMILES IDX 23 1 22 2 21 3 20 4 19 5 18 6 17 7 15 8 16 9 14 10 8 11 9 12
REMARK SMILES IDX 95 13 10 14 11 15 12 16 7 17 3 18 4 19 5 20 6 21 2 22 1 23
REMARK SMILES IDX 13 24 24 27 25 28 26 29 27 30 28 31 29 32 30 33 31 34 32 35
REMARK SMILES IDX 33 36 94 37 34 38 93 39 35 40 36 41 37 42 87 43 38 44 92 45
REMARK SMILES IDX 86 46 88 47 39 48 91 49 85 50 84 51 40 53 72 54 52 55 71 56
REMARK SMILES IDX 53 57 56 58 70 59 89 60 54 61 55 62 69 64 90 65 57 66 41 67
REMARK SMILES IDX 42 68 50 69 43 70 44 71 48 72 51 73 45 74 46 75 49 76 47 77
REMARK SMILES IDX 73 78 74 79 82 80 75 81 76 82 80 83 83 84 77 85 78 86 81 87
REMARK SMILES IDX 79 88 58 89 59 90 67 91 60 92 61 93 65 94 68 95 62 96 63 97
REMARK SMILES IDX 66 98 64 99
REMARK H PARENT 13 25 13 26 88 52 56 63
REMARK Flexibility Score: inf
ROOT
ATOM      1  O   UNL A   1      33.881  27.647  22.020  1.00  0.00    -0.377 OA
ENDROOT
BRANCH   1   2
ATOM      2  C   UNL A   1      33.165  26.414  22.024  1.00  0.00     0.188 C 
BRANCH   2   3
ATOM      3  C   UNL A   1      33.654  25.179  22.820  1.00  0.00     0.188 C 
BRANCH   3   4
ATOM      4  O   UNL A   1      33.796  25.381  24.217  1.00  0.00    -0.376 OA
BRANCH   4   5
ATOM      5  C   UNL A   1      32.637  25.328  25.025  1.00  0.00     0.202 C 
BRANCH   5   6
ATOM      6  C   UNL A   1      31.541  24.349  24.585  1.00  0.00     0.261 C 
BRANCH   6   7
ATOM      7  O   UNL A   1      31.496  23.111  25.308  1.00  0.00    -0.460 OA
BRANCH   7   8
ATOM      8  C   UNL A   1      32.363  22.976  26.340  1.00  0.00     0.340 C 
ATOM      9  O   UNL A   1      32.188  23.380  27.478  1.00  0.00    -0.246 OA
BRANCH   8  10
ATOM     10  C   UNL A   1      33.479  22.089  25.915  1.00  0.00     0.085 A 
ATOM     11  C   UNL A   1      35.896  21.808  25.561  1.00  0.00     0.038 A 
ATOM     12  C   UNL A   1      35.603  20.516  25.121  1.00  0.00     0.031 A 
ATOM     13  C   UNL A   1      34.800  22.577  25.972  1.00  0.00     0.043 A 
ATOM     14  C   UNL A   1      34.290  20.009  25.019  1.00  0.00    -0.025 A 
ATOM     15  C   UNL A   1      34.104  18.618  24.473  1.00  0.00     0.047 C 
ATOM     16  C   UNL A   1      33.202  20.800  25.418  1.00  0.00     0.049 A 
BRANCH  11  17
ATOM     17  N   UNL A   1      37.177  22.287  25.669  1.00  0.00    -0.369 N 
ATOM     18  C   UNL A   1      38.492  21.667  25.421  1.00  0.00     0.082 C 
ATOM     19  C   UNL A   1      39.332  22.312  26.533  1.00  0.00     0.027 C 
ATOM     20  C   UNL A   1      38.853  23.754  26.514  1.00  0.00     0.024 C 
ATOM     21  C   UNL A   1      37.364  23.652  26.187  1.00  0.00     0.117 C 
BRANCH  18  22
ATOM     22  C   UNL A   1      38.655  20.151  25.432  1.00  0.00     0.021 C 
ATOM     23  C   UNL A   1      40.052  19.696  25.834  1.00  0.00     0.006 C 
ENDBRANCH  18  22
ENDBRANCH  11  17
BRANCH  16  24
ATOM     24  N   UNL A   1      31.897  20.379  25.160  1.00  0.00    -0.398 N 
ATOM     25  H   UNL A   1      31.160  20.676  25.741  1.00  0.00     0.156 HD
ATOM     26  H   UNL A   1      31.713  19.785  24.397  1.00  0.00     0.156 HD
ENDBRANCH  16  24
ENDBRANCH   8  10
ENDBRANCH   7   8
ENDBRANCH   6   7
ENDBRANCH   5   6
ENDBRANCH   4   5
ENDBRANCH   3   4
ENDBRANCH   2   3
ENDBRANCH   1   2
BRANCH   1  27
ATOM     27  C   UNL A   1      33.647  28.607  23.040  1.00  0.00     0.188 C 
BRANCH  27  28
ATOM     28  C   UNL A   1      32.191  29.031  23.330  1.00  0.00     0.188 C 
BRANCH  28  29
ATOM     29  O   UNL A   1      31.753  28.703  24.636  1.00  0.00    -0.376 OA
BRANCH  29  30
ATOM     30  C   UNL A   1      31.750  29.721  25.620  1.00  0.00     0.202 C 
BRANCH  30  31
ATOM     31  C   UNL A   1      32.495  29.489  26.945  1.00  0.00     0.261 C 
BRANCH  31  32
ATOM     32  O   UNL A   1      33.926  29.593  26.918  1.00  0.00    -0.460 OA
BRANCH  32  33
ATOM     33  C   UNL A   1      34.498  30.625  27.568  1.00  0.00     0.338 C 
ATOM     34  O   UNL A   1      33.989  31.700  27.847  1.00  0.00    -0.246 OA
BRANCH  33  35
ATOM     35  C   UNL A   1      35.809  30.158  28.066  1.00  0.00     0.060 A 
ATOM     36  C   UNL A   1      35.899  29.618  29.357  1.00  0.00     0.016 A 
ATOM     37  C   UNL A   1      36.938  30.225  27.248  1.00  0.00     0.016 A 
ATOM     38  C   UNL A   1      37.127  29.168  29.841  1.00  0.00     0.010 A 
ATOM     39  C   UNL A   1      38.174  29.799  27.743  1.00  0.00     0.010 A 
ATOM     40  C   UNL A   1      38.279  29.297  29.053  1.00  0.00    -0.014 A 
BRANCH  40  41
ATOM     41  C   UNL A   1      39.612  29.085  29.665  1.00  0.00     0.031 A 
ATOM     42  C   UNL A   1      40.438  27.922  29.189  1.00  0.00     0.074 A 
ATOM     43  C   UNL A   1      40.093  29.918  30.603  1.00  0.00     0.049 A 
ATOM     44  N   UNL A   1      41.613  27.512  29.594  1.00  0.00    -0.248 NA
ATOM     45  C   UNL A   1      39.855  27.109  28.109  1.00  0.00     0.031 C 
ATOM     46  C   UNL A   1      39.406  31.101  31.114  1.00  0.00     0.029 A 
ATOM     47  N   UNL A   1      41.279  29.889  31.295  1.00  0.00    -0.354 N 
ATOM     48  C   UNL A   1      41.906  26.394  28.822  1.00  0.00     0.074 A 
ATOM     49  C   UNL A   1      40.773  26.169  27.951  1.00  0.00     0.031 C 
ATOM     50  C   UNL A   1      40.178  31.682  32.050  1.00  0.00     0.029 A 
ATOM     51  C   UNL A   1      41.397  30.891  32.225  1.00  0.00     0.049 A 
ATOM     52  H   UNL A   1      41.977  29.213  31.139  1.00  0.00     0.167 HD
ATOM     53  C   UNL A   1      43.025  25.632  28.832  1.00  0.00     0.037 A 
ATOM     54  C   UNL A   1      42.368  31.125  33.131  1.00  0.00     0.037 A 
ATOM     55  C   UNL A   1      44.147  25.857  29.705  1.00  0.00     0.049 A 
ATOM     56  C   UNL A   1      43.567  30.211  33.179  1.00  0.00     0.074 A 
ATOM     57  C   UNL A   1      45.335  25.150  29.783  1.00  0.00     0.029 A 
ATOM     58  N   UNL A   1      44.214  26.858  30.663  1.00  0.00    -0.354 N 
ATOM     59  N   UNL A   1      43.853  29.175  32.428  1.00  0.00    -0.248 NA
ATOM     60  C   UNL A   1      44.581  30.504  34.202  1.00  0.00     0.031 C 
ATOM     61  C   UNL A   1      46.091  25.684  30.831  1.00  0.00     0.029 A 
ATOM     62  C   UNL A   1      45.409  26.767  31.360  1.00  0.00     0.049 A 
ATOM     63  H   UNL A   1      43.516  27.533  30.824  1.00  0.00     0.167 HD
ATOM     64  C   UNL A   1      45.089  28.712  32.864  1.00  0.00     0.074 A 
ATOM     65  C   UNL A   1      45.507  29.594  33.934  1.00  0.00     0.031 C 
ATOM     66  C   UNL A   1      45.813  27.654  32.422  1.00  0.00     0.037 A 
BRANCH  53  67
ATOM     67  C   UNL A   1      43.074  24.462  27.891  1.00  0.00     0.064 A 
ATOM     68  C   UNL A   1      43.559  24.583  26.580  1.00  0.00     0.173 A 
ATOM     69  C   UNL A   1      42.656  23.192  28.319  1.00  0.00     0.173 A 
ATOM     70  F   UNL A   1      43.958  25.778  26.116  1.00  0.00    -0.203 F 
ATOM     71  C   UNL A   1      43.597  23.486  25.724  1.00  0.00     0.198 A 
ATOM     72  C   UNL A   1      42.727  22.090  27.472  1.00  0.00     0.198 A 
ATOM     73  F   UNL A   1      42.186  23.018  29.563  1.00  0.00    -0.203 F 
ATOM     74  F   UNL A   1      44.014  23.638  24.460  1.00  0.00    -0.200 F 
ATOM     75  C   UNL A   1      43.188  22.239  26.173  1.00  0.00     0.200 A 
ATOM     76  F   UNL A   1      42.346  20.883  27.912  1.00  0.00    -0.200 F 
ATOM     77  F   UNL A   1      43.233  21.182  25.352  1.00  0.00    -0.200 F 
ENDBRANCH  53  67
BRANCH  54  78
ATOM     78  C   UNL A   1      42.246  32.265  34.079  1.00  0.00     0.064 A 
ATOM     79  C   UNL A   1      42.805  33.517  33.784  1.00  0.00     0.173 A 
ATOM     80  C   UNL A   1      41.597  32.117  35.314  1.00  0.00     0.173 A 
ATOM     81  F   UNL A   1      43.459  33.703  32.628  1.00  0.00    -0.203 F 
ATOM     82  C   UNL A   1      42.738  34.569  34.696  1.00  0.00     0.198 A 
ATOM     83  C   UNL A   1      41.502  33.180  36.210  1.00  0.00     0.198 A 
ATOM     84  F   UNL A   1      41.049  30.940  35.650  1.00  0.00    -0.203 F 
ATOM     85  F   UNL A   1      43.330  35.737  34.412  1.00  0.00    -0.200 F 
ATOM     86  C   UNL A   1      42.082  34.402  35.906  1.00  0.00     0.200 A 
ATOM     87  F   UNL A   1      40.855  33.017  37.372  1.00  0.00    -0.200 F 
ATOM     88  F   UNL A   1      42.017  35.414  36.781  1.00  0.00    -0.200 F 
ENDBRANCH  54  78
BRANCH  66  89
ATOM     89  C   UNL A   1      47.151  27.412  33.067  1.00  0.00     0.064 A 
ATOM     90  C   UNL A   1      47.281  26.660  34.244  1.00  0.00     0.173 A 
ATOM     91  C   UNL A   1      48.322  27.919  32.481  1.00  0.00     0.173 A 
ATOM     92  F   UNL A   1      46.194  26.163  34.852  1.00  0.00    -0.203 F 
ATOM     93  C   UNL A   1      48.528  26.456  34.829  1.00  0.00     0.198 A 
ATOM     94  C   UNL A   1      49.571  27.679  33.048  1.00  0.00     0.198 A 
ATOM     95  F   UNL A   1      48.258  28.636  31.349  1.00  0.00    -0.203 F 
ATOM     96  F   UNL A   1      48.622  25.787  35.987  1.00  0.00    -0.200 F 
ATOM     97  C   UNL A   1      49.672  26.959  34.228  1.00  0.00     0.200 A 
ATOM     98  F   UNL A   1      50.677  28.151  32.454  1.00  0.00    -0.200 F 
ATOM     99  F   UNL A   1      50.872  26.757  34.790  1.00  0.00    -0.200 F 
ENDBRANCH  66  89
ENDBRANCH  40  41
ENDBRANCH  33  35
ENDBRANCH  32  33
ENDBRANCH  31  32
ENDBRANCH  30  31
ENDBRANCH  29  30
ENDBRANCH  28  29
ENDBRANCH  27  28
ENDBRANCH   1  27
TORSDOF 23
ENDMDL
