MODEL 1
REMARK VINA RESULT:     -10.0      0.000      0.000
REMARK SMILES CC[C@@H]1CCCC[C@@]1(O)[C@H](F)C(=O)OCCOCCOCCOCCOC(=O)c1ccc(-c2c3nc(c(-c4c(F)c(F)c(F)c(F)c4F)c4ccc([nH]4)c(-c4c(F)c(F)c(F)c(F)c4F)c4nc(c(-c5c(F)c(F)c(F)c(F)c5F)c5ccc2[nH]5)C=C4)C=C3)cc1
REMARK SMILES IDX 20 1 19 2 18 3 17 4 16 5 15 6 14 7 12 8 13 9 10 10 11 11
REMARK SMILES IDX 8 12 3 13 4 14 5 15 7 16 6 17 2 18 1 19 9 20 21 22 22 23
REMARK SMILES IDX 23 24 24 25 25 26 26 27 27 28 28 29 29 30 30 31 91 32 31 33
REMARK SMILES IDX 90 34 32 35 33 36 34 37 84 38 35 39 89 40 83 41 85 42 36 43
REMARK SMILES IDX 88 44 82 45 81 46 37 48 69 49 49 50 68 51 50 52 53 53 67 54
REMARK SMILES IDX 86 55 51 56 52 57 66 59 87 60 54 61 38 62 39 63 47 64 40 65
REMARK SMILES IDX 41 66 45 67 48 68 42 69 43 70 46 71 44 72 70 73 71 74 79 75
REMARK SMILES IDX 72 76 73 77 77 78 80 79 74 80 75 81 78 82 76 83 55 84 56 85
REMARK SMILES IDX 64 86 57 87 58 88 62 89 65 90 59 91 60 92 63 93 61 94
REMARK H PARENT 9 21 85 47 53 58
REMARK Flexibility Score: inf
ROOT
ATOM      1  O   UNL A   1      42.172  20.435  26.263  1.00  0.00    -0.377 OA
ENDROOT
BRANCH   1   2
ATOM      2  C   UNL A   1      40.821  20.442  26.686  1.00  0.00     0.188 C 
BRANCH   2   3
ATOM      3  C   UNL A   1      39.978  21.573  26.062  1.00  0.00     0.188 C 
BRANCH   3   4
ATOM      4  O   UNL A   1      38.576  21.429  25.838  1.00  0.00    -0.376 OA
BRANCH   4   5
ATOM      5  C   UNL A   1      38.038  20.391  25.033  1.00  0.00     0.202 C 
BRANCH   5   6
ATOM      6  C   UNL A   1      36.535  20.122  24.954  1.00  0.00     0.261 C 
BRANCH   6   7
ATOM      7  O   UNL A   1      35.738  21.141  25.542  1.00  0.00    -0.461 OA
BRANCH   7   8
ATOM      8  C   UNL A   1      34.920  21.838  24.714  1.00  0.00     0.343 C 
ATOM      9  O   UNL A   1      35.245  22.315  23.635  1.00  0.00    -0.249 OA
BRANCH   8  10
ATOM     10  C   UNL A   1      33.535  21.944  25.323  1.00  0.00     0.307 C 
ATOM     11  F   UNL A   1      33.184  20.832  26.023  1.00  0.00    -0.232 F 
BRANCH  10  12
ATOM     12  C   UNL A   1      33.394  23.191  26.226  1.00  0.00     0.110 C 
ATOM     13  C   UNL A   1      33.178  24.472  25.349  1.00  0.00     0.024 C 
ATOM     14  C   UNL A   1      31.720  24.635  24.850  1.00  0.00     0.007 C 
ATOM     15  C   UNL A   1      30.663  24.455  25.929  1.00  0.00     0.001 C 
ATOM     16  C   UNL A   1      32.264  23.064  27.278  1.00  0.00     0.039 C 
ATOM     17  C   UNL A   1      30.857  23.155  26.691  1.00  0.00     0.003 C 
BRANCH  13  18
ATOM     18  C   UNL A   1      33.729  25.799  25.939  1.00  0.00     0.003 C 
ATOM     19  C   UNL A   1      33.007  27.097  25.616  1.00  0.00     0.004 C 
ENDBRANCH  13  18
BRANCH  12  20
ATOM     20  O   UNL A   1      34.642  23.306  26.932  1.00  0.00    -0.386 OA
ATOM     21  H   UNL A   1      34.569  23.998  27.607  1.00  0.00     0.211 HD
ENDBRANCH  12  20
ENDBRANCH  10  12
ENDBRANCH   8  10
ENDBRANCH   7   8
ENDBRANCH   6   7
ENDBRANCH   5   6
ENDBRANCH   4   5
ENDBRANCH   3   4
ENDBRANCH   2   3
ENDBRANCH   1   2
BRANCH   1  22
ATOM     22  C   UNL A   1      42.687  19.162  25.886  1.00  0.00     0.188 C 
BRANCH  22  23
ATOM     23  C   UNL A   1      43.945  19.120  24.983  1.00  0.00     0.188 C 
BRANCH  23  24
ATOM     24  O   UNL A   1      44.406  20.393  24.556  1.00  0.00    -0.376 OA
BRANCH  24  25
ATOM     25  C   UNL A   1      45.399  21.059  25.317  1.00  0.00     0.202 C 
BRANCH  25  26
ATOM     26  C   UNL A   1      45.613  22.559  25.054  1.00  0.00     0.261 C 
BRANCH  26  27
ATOM     27  O   UNL A   1      44.757  23.451  25.781  1.00  0.00    -0.460 OA
BRANCH  27  28
ATOM     28  C   UNL A   1      43.584  23.781  25.205  1.00  0.00     0.338 C 
ATOM     29  O   UNL A   1      43.058  23.245  24.241  1.00  0.00    -0.246 OA
BRANCH  28  30
ATOM     30  C   UNL A   1      42.926  24.787  26.060  1.00  0.00     0.060 A 
ATOM     31  C   UNL A   1      43.455  26.084  26.109  1.00  0.00     0.016 A 
ATOM     32  C   UNL A   1      41.801  24.450  26.815  1.00  0.00     0.016 A 
ATOM     33  C   UNL A   1      42.884  27.039  26.947  1.00  0.00     0.010 A 
ATOM     34  C   UNL A   1      41.246  25.399  27.676  1.00  0.00     0.010 A 
ATOM     35  C   UNL A   1      41.811  26.684  27.775  1.00  0.00    -0.014 A 
BRANCH  35  36
ATOM     36  C   UNL A   1      41.430  27.578  28.893  1.00  0.00     0.031 A 
ATOM     37  C   UNL A   1      42.226  27.498  30.165  1.00  0.00     0.074 A 
ATOM     38  C   UNL A   1      40.422  28.458  28.775  1.00  0.00     0.049 A 
ATOM     39  N   UNL A   1      42.055  28.128  31.299  1.00  0.00    -0.248 NA
ATOM     40  C   UNL A   1      43.373  26.573  30.159  1.00  0.00     0.031 C 
ATOM     41  C   UNL A   1      39.612  28.662  27.578  1.00  0.00     0.029 A 
ATOM     42  N   UNL A   1      39.903  29.341  29.690  1.00  0.00    -0.354 N 
ATOM     43  C   UNL A   1      43.059  27.667  32.140  1.00  0.00     0.074 A 
ATOM     44  C   UNL A   1      43.820  26.686  31.400  1.00  0.00     0.031 C 
ATOM     45  C   UNL A   1      38.681  29.597  27.836  1.00  0.00     0.029 A 
ATOM     46  C   UNL A   1      38.809  30.029  29.228  1.00  0.00     0.049 A 
ATOM     47  H   UNL A   1      40.279  29.468  30.591  1.00  0.00     0.167 HD
ATOM     48  C   UNL A   1      43.324  28.036  33.415  1.00  0.00     0.037 A 
ATOM     49  C   UNL A   1      37.988  30.885  29.870  1.00  0.00     0.037 A 
ATOM     50  C   UNL A   1      42.564  29.016  34.145  1.00  0.00     0.049 A 
ATOM     51  C   UNL A   1      38.262  31.225  31.315  1.00  0.00     0.074 A 
ATOM     52  C   UNL A   1      42.768  29.480  35.432  1.00  0.00     0.029 A 
ATOM     53  N   UNL A   1      41.446  29.673  33.653  1.00  0.00    -0.354 N 
ATOM     54  N   UNL A   1      39.229  30.810  32.097  1.00  0.00    -0.248 NA
ATOM     55  C   UNL A   1      37.329  32.156  31.965  1.00  0.00     0.031 C 
ATOM     56  C   UNL A   1      41.733  30.367  35.743  1.00  0.00     0.029 A 
ATOM     57  C   UNL A   1      40.927  30.513  34.625  1.00  0.00     0.049 A 
ATOM     58  H   UNL A   1      41.076  29.560  32.748  1.00  0.00     0.167 HD
ATOM     59  C   UNL A   1      39.042  31.453  33.315  1.00  0.00     0.074 A 
ATOM     60  C   UNL A   1      37.876  32.298  33.163  1.00  0.00     0.031 C 
ATOM     61  C   UNL A   1      39.770  31.356  34.456  1.00  0.00     0.037 A 
BRANCH  48  62
ATOM     62  C   UNL A   1      44.458  27.347  34.119  1.00  0.00     0.064 A 
ATOM     63  C   UNL A   1      44.266  26.183  34.877  1.00  0.00     0.173 A 
ATOM     64  C   UNL A   1      45.765  27.842  33.998  1.00  0.00     0.173 A 
ATOM     65  F   UNL A   1      43.034  25.676  35.038  1.00  0.00    -0.203 F 
ATOM     66  C   UNL A   1      45.337  25.555  35.509  1.00  0.00     0.198 A 
ATOM     67  C   UNL A   1      46.838  27.193  34.603  1.00  0.00     0.198 A 
ATOM     68  F   UNL A   1      46.006  28.952  33.284  1.00  0.00    -0.203 F 
ATOM     69  F   UNL A   1      45.123  24.473  36.269  1.00  0.00    -0.200 F 
ATOM     70  C   UNL A   1      46.623  26.055  35.364  1.00  0.00     0.200 A 
ATOM     71  F   UNL A   1      48.081  27.670  34.448  1.00  0.00    -0.200 F 
ATOM     72  F   UNL A   1      47.653  25.443  35.962  1.00  0.00    -0.200 F 
ENDBRANCH  48  62
BRANCH  49  73
ATOM     73  C   UNL A   1      36.813  31.462  29.164  1.00  0.00     0.064 A 
ATOM     74  C   UNL A   1      36.769  32.818  28.811  1.00  0.00     0.173 A 
ATOM     75  C   UNL A   1      35.691  30.676  28.860  1.00  0.00     0.173 A 
ATOM     76  F   UNL A   1      37.804  33.620  29.104  1.00  0.00    -0.203 F 
ATOM     77  C   UNL A   1      35.642  33.369  28.205  1.00  0.00     0.198 A 
ATOM     78  C   UNL A   1      34.579  31.220  28.223  1.00  0.00     0.198 A 
ATOM     79  F   UNL A   1      35.678  29.373  29.179  1.00  0.00    -0.203 F 
ATOM     80  F   UNL A   1      35.605  34.681  27.933  1.00  0.00    -0.200 F 
ATOM     81  C   UNL A   1      34.550  32.569  27.905  1.00  0.00     0.200 A 
ATOM     82  F   UNL A   1      33.531  30.439  27.923  1.00  0.00    -0.200 F 
ATOM     83  F   UNL A   1      33.467  33.100  27.323  1.00  0.00    -0.200 F 
ENDBRANCH  49  73
BRANCH  61  84
ATOM     84  C   UNL A   1      39.360  32.218  35.617  1.00  0.00     0.064 A 
ATOM     85  C   UNL A   1      38.479  31.760  36.607  1.00  0.00     0.173 A 
ATOM     86  C   UNL A   1      39.896  33.508  35.764  1.00  0.00     0.173 A 
ATOM     87  F   UNL A   1      37.929  30.540  36.511  1.00  0.00    -0.203 F 
ATOM     88  C   UNL A   1      38.124  32.572  37.683  1.00  0.00     0.198 A 
ATOM     89  C   UNL A   1      39.569  34.302  36.860  1.00  0.00     0.198 A 
ATOM     90  F   UNL A   1      40.753  33.993  34.853  1.00  0.00    -0.203 F 
ATOM     91  F   UNL A   1      37.237  32.133  38.587  1.00  0.00    -0.200 F 
ATOM     92  C   UNL A   1      38.676  33.837  37.812  1.00  0.00     0.200 A 
ATOM     93  F   UNL A   1      40.119  35.516  36.993  1.00  0.00    -0.200 F 
ATOM     94  F   UNL A   1      38.341  34.612  38.852  1.00  0.00    -0.200 F 
ENDBRANCH  61  84
ENDBRANCH  35  36
ENDBRANCH  28  30
ENDBRANCH  27  28
ENDBRANCH  26  27
ENDBRANCH  25  26
ENDBRANCH  24  25
ENDBRANCH  23  24
ENDBRANCH  22  23
ENDBRANCH   1  22
TORSDOF 23
ENDMDL
MODEL 2
REMARK VINA RESULT:      -9.7      1.312      7.365
REMARK SMILES CC[C@@H]1CCCC[C@@]1(O)[C@H](F)C(=O)OCCOCCOCCOCCOC(=O)c1ccc(-c2c3nc(c(-c4c(F)c(F)c(F)c(F)c4F)c4ccc([nH]4)c(-c4c(F)c(F)c(F)c(F)c4F)c4nc(c(-c5c(F)c(F)c(F)c(F)c5F)c5ccc2[nH]5)C=C4)C=C3)cc1
REMARK SMILES IDX 20 1 19 2 18 3 17 4 16 5 15 6 14 7 12 8 13 9 10 10 11 11
REMARK SMILES IDX 8 12 3 13 4 14 5 15 7 16 6 17 2 18 1 19 9 20 21 22 22 23
REMARK SMILES IDX 23 24 24 25 25 26 26 27 27 28 28 29 29 30 30 31 91 32 31 33
REMARK SMILES IDX 90 34 32 35 33 36 34 37 84 38 35 39 89 40 83 41 85 42 36 43
REMARK SMILES IDX 88 44 82 45 81 46 37 48 69 49 49 50 68 51 50 52 53 53 67 54
REMARK SMILES IDX 86 55 51 56 52 57 66 59 87 60 54 61 38 62 39 63 47 64 40 65
REMARK SMILES IDX 41 66 45 67 48 68 42 69 43 70 46 71 44 72 70 73 71 74 79 75
REMARK SMILES IDX 72 76 73 77 77 78 80 79 74 80 75 81 78 82 76 83 55 84 56 85
REMARK SMILES IDX 64 86 57 87 58 88 62 89 65 90 59 91 60 92 63 93 61 94
REMARK H PARENT 9 21 85 47 53 58
REMARK Flexibility Score: inf
ROOT
ATOM      1  O   UNL A   1      44.159  19.107  25.748  1.00  0.00    -0.377 OA
ENDROOT
BRANCH   1   2
ATOM      2  C   UNL A   1      42.785  18.767  25.724  1.00  0.00     0.188 C 
BRANCH   2   3
ATOM      3  C   UNL A   1      41.939  19.516  26.776  1.00  0.00     0.188 C 
BRANCH   3   4
ATOM      4  O   UNL A   1      42.002  20.934  26.918  1.00  0.00    -0.376 OA
BRANCH   4   5
ATOM      5  C   UNL A   1      40.931  21.785  26.535  1.00  0.00     0.202 C 
BRANCH   5   6
ATOM      6  C   UNL A   1      39.509  21.261  26.341  1.00  0.00     0.261 C 
BRANCH   6   7
ATOM      7  O   UNL A   1      38.643  22.179  25.689  1.00  0.00    -0.461 OA
BRANCH   7   8
ATOM      8  C   UNL A   1      37.705  21.657  24.857  1.00  0.00     0.343 C 
ATOM      9  O   UNL A   1      37.598  20.473  24.566  1.00  0.00    -0.249 OA
BRANCH   8  10
ATOM     10  C   UNL A   1      36.805  22.761  24.335  1.00  0.00     0.307 C 
ATOM     11  F   UNL A   1      36.466  22.588  23.029  1.00  0.00    -0.232 F 
BRANCH  10  12
ATOM     12  C   UNL A   1      35.524  22.915  25.187  1.00  0.00     0.110 C 
ATOM     13  C   UNL A   1      34.832  24.288  24.881  1.00  0.00     0.024 C 
ATOM     14  C   UNL A   1      33.996  24.276  23.576  1.00  0.00     0.007 C 
ATOM     15  C   UNL A   1      33.061  23.083  23.441  1.00  0.00     0.001 C 
ATOM     16  C   UNL A   1      34.517  21.753  25.000  1.00  0.00     0.039 C 
ATOM     17  C   UNL A   1      33.795  21.770  23.655  1.00  0.00     0.003 C 
BRANCH  13  18
ATOM     18  C   UNL A   1      34.045  24.927  26.056  1.00  0.00     0.003 C 
ATOM     19  C   UNL A   1      33.032  26.019  25.747  1.00  0.00     0.004 C 
ENDBRANCH  13  18
BRANCH  12  20
ATOM     20  O   UNL A   1      35.962  22.902  26.557  1.00  0.00    -0.386 OA
ATOM     21  H   UNL A   1      36.606  23.613  26.698  1.00  0.00     0.211 HD
ENDBRANCH  12  20
ENDBRANCH  10  12
ENDBRANCH   8  10
ENDBRANCH   7   8
ENDBRANCH   6   7
ENDBRANCH   5   6
ENDBRANCH   4   5
ENDBRANCH   3   4
ENDBRANCH   2   3
ENDBRANCH   1   2
BRANCH   1  22
ATOM     22  C   UNL A   1      44.609  19.909  24.660  1.00  0.00     0.188 C 
BRANCH  22  23
ATOM     23  C   UNL A   1      45.987  20.604  24.785  1.00  0.00     0.188 C 
BRANCH  23  24
ATOM     24  O   UNL A   1      45.966  22.001  24.531  1.00  0.00    -0.376 OA
BRANCH  24  25
ATOM     25  C   UNL A   1      44.845  22.568  23.874  1.00  0.00     0.202 C 
BRANCH  25  26
ATOM     26  C   UNL A   1      43.716  23.134  24.751  1.00  0.00     0.261 C 
BRANCH  26  27
ATOM     27  O   UNL A   1      43.396  24.517  24.545  1.00  0.00    -0.460 OA
BRANCH  27  28
ATOM     28  C   UNL A   1      44.196  25.426  25.138  1.00  0.00     0.338 C 
ATOM     29  O   UNL A   1      45.325  25.748  24.803  1.00  0.00    -0.246 OA
BRANCH  28  30
ATOM     30  C   UNL A   1      43.401  26.129  26.163  1.00  0.00     0.060 A 
ATOM     31  C   UNL A   1      43.670  27.481  26.420  1.00  0.00     0.016 A 
ATOM     32  C   UNL A   1      42.403  25.457  26.872  1.00  0.00     0.016 A 
ATOM     33  C   UNL A   1      42.970  28.154  27.418  1.00  0.00     0.010 A 
ATOM     34  C   UNL A   1      41.721  26.124  27.892  1.00  0.00     0.010 A 
ATOM     35  C   UNL A   1      42.031  27.463  28.195  1.00  0.00    -0.014 A 
BRANCH  35  36
ATOM     36  C   UNL A   1      41.543  28.070  29.455  1.00  0.00     0.031 A 
ATOM     37  C   UNL A   1      40.279  28.883  29.405  1.00  0.00     0.074 A 
ATOM     38  C   UNL A   1      42.187  27.884  30.619  1.00  0.00     0.049 A 
ATOM     39  N   UNL A   1      39.684  29.561  30.354  1.00  0.00    -0.248 NA
ATOM     40  C   UNL A   1      39.594  28.944  28.102  1.00  0.00     0.031 C 
ATOM     41  C   UNL A   1      43.391  27.078  30.800  1.00  0.00     0.029 A 
ATOM     42  N   UNL A   1      41.917  28.377  31.871  1.00  0.00    -0.354 N 
ATOM     43  C   UNL A   1      38.569  30.136  29.760  1.00  0.00     0.074 A 
ATOM     44  C   UNL A   1      38.580  29.754  28.366  1.00  0.00     0.031 C 
ATOM     45  C   UNL A   1      43.770  27.147  32.088  1.00  0.00     0.029 A 
ATOM     46  C   UNL A   1      42.856  28.031  32.811  1.00  0.00     0.049 A 
ATOM     47  H   UNL A   1      41.126  28.925  32.076  1.00  0.00     0.167 HD
ATOM     48  C   UNL A   1      37.617  30.911  30.331  1.00  0.00     0.037 A 
ATOM     49  C   UNL A   1      42.977  28.413  34.098  1.00  0.00     0.037 A 
ATOM     50  C   UNL A   1      37.609  31.285  31.720  1.00  0.00     0.049 A 
ATOM     51  C   UNL A   1      41.942  29.337  34.692  1.00  0.00     0.074 A 
ATOM     52  C   UNL A   1      36.676  32.043  32.403  1.00  0.00     0.029 A 
ATOM     53  N   UNL A   1      38.591  30.937  32.636  1.00  0.00    -0.354 N 
ATOM     54  N   UNL A   1      40.872  29.855  34.137  1.00  0.00    -0.248 NA
ATOM     55  C   UNL A   1      42.129  29.726  36.097  1.00  0.00     0.031 C 
ATOM     56  C   UNL A   1      37.128  32.213  33.715  1.00  0.00     0.029 A 
ATOM     57  C   UNL A   1      38.305  31.497  33.870  1.00  0.00     0.049 A 
ATOM     58  H   UNL A   1      39.376  30.376  32.438  1.00  0.00     0.167 HD
ATOM     59  C   UNL A   1      40.245  30.600  35.128  1.00  0.00     0.074 A 
ATOM     60  C   UNL A   1      41.046  30.454  36.325  1.00  0.00     0.031 C 
ATOM     61  C   UNL A   1      39.108  31.336  35.056  1.00  0.00     0.037 A 
BRANCH  48  62
ATOM     62  C   UNL A   1      36.526  31.441  29.446  1.00  0.00     0.064 A 
ATOM     63  C   UNL A   1      35.506  30.617  28.948  1.00  0.00     0.173 A 
ATOM     64  C   UNL A   1      36.482  32.806  29.123  1.00  0.00     0.173 A 
ATOM     65  F   UNL A   1      35.508  29.302  29.212  1.00  0.00    -0.203 F 
ATOM     66  C   UNL A   1      34.497  31.136  28.139  1.00  0.00     0.198 A 
ATOM     67  C   UNL A   1      35.455  33.327  28.342  1.00  0.00     0.198 A 
ATOM     68  F   UNL A   1      37.433  33.638  29.573  1.00  0.00    -0.203 F 
ATOM     69  F   UNL A   1      33.560  30.322  27.633  1.00  0.00    -0.200 F 
ATOM     70  C   UNL A   1      34.467  32.491  27.845  1.00  0.00     0.200 A 
ATOM     71  F   UNL A   1      35.419  34.639  28.072  1.00  0.00    -0.200 F 
ATOM     72  F   UNL A   1      33.489  32.990  27.077  1.00  0.00    -0.200 F 
ENDBRANCH  48  62
BRANCH  49  73
ATOM     73  C   UNL A   1      44.134  27.949  34.908  1.00  0.00     0.064 A 
ATOM     74  C   UNL A   1      45.343  28.660  34.927  1.00  0.00     0.173 A 
ATOM     75  C   UNL A   1      44.068  26.762  35.655  1.00  0.00     0.173 A 
ATOM     76  F   UNL A   1      45.468  29.786  34.208  1.00  0.00    -0.203 F 
ATOM     77  C   UNL A   1      46.445  28.189  35.639  1.00  0.00     0.198 A 
ATOM     78  C   UNL A   1      45.158  26.312  36.394  1.00  0.00     0.198 A 
ATOM     79  F   UNL A   1      42.937  26.041  35.670  1.00  0.00    -0.203 F 
ATOM     80  F   UNL A   1      47.606  28.858  35.589  1.00  0.00    -0.200 F 
ATOM     81  C   UNL A   1      46.350  27.019  36.377  1.00  0.00     0.200 A 
ATOM     82  F   UNL A   1      45.058  25.187  37.116  1.00  0.00    -0.200 F 
ATOM     83  F   UNL A   1      47.410  26.568  37.060  1.00  0.00    -0.200 F 
ENDBRANCH  49  73
BRANCH  61  84
ATOM     84  C   UNL A   1      38.631  32.003  36.317  1.00  0.00     0.064 A 
ATOM     85  C   UNL A   1      37.866  31.321  37.274  1.00  0.00     0.173 A 
ATOM     86  C   UNL A   1      38.987  33.334  36.590  1.00  0.00     0.173 A 
ATOM     87  F   UNL A   1      37.489  30.052  37.060  1.00  0.00    -0.203 F 
ATOM     88  C   UNL A   1      37.448  31.957  38.442  1.00  0.00     0.198 A 
ATOM     89  C   UNL A   1      38.599  33.953  37.775  1.00  0.00     0.198 A 
ATOM     90  F   UNL A   1      39.728  34.030  35.714  1.00  0.00    -0.203 F 
ATOM     91  F   UNL A   1      36.670  31.302  39.316  1.00  0.00    -0.200 F 
ATOM     92  C   UNL A   1      37.822  33.267  38.694  1.00  0.00     0.200 A 
ATOM     93  F   UNL A   1      38.979  35.213  38.025  1.00  0.00    -0.200 F 
ATOM     94  F   UNL A   1      37.427  33.873  39.822  1.00  0.00    -0.200 F 
ENDBRANCH  61  84
ENDBRANCH  35  36
ENDBRANCH  28  30
ENDBRANCH  27  28
ENDBRANCH  26  27
ENDBRANCH  25  26
ENDBRANCH  24  25
ENDBRANCH  23  24
ENDBRANCH  22  23
ENDBRANCH   1  22
TORSDOF 23
ENDMDL
MODEL 3
REMARK VINA RESULT:      -9.7      1.186      2.116
REMARK SMILES CC[C@@H]1CCCC[C@@]1(O)[C@H](F)C(=O)OCCOCCOCCOCCOC(=O)c1ccc(-c2c3nc(c(-c4c(F)c(F)c(F)c(F)c4F)c4ccc([nH]4)c(-c4c(F)c(F)c(F)c(F)c4F)c4nc(c(-c5c(F)c(F)c(F)c(F)c5F)c5ccc2[nH]5)C=C4)C=C3)cc1
REMARK SMILES IDX 20 1 19 2 18 3 17 4 16 5 15 6 14 7 12 8 13 9 10 10 11 11
REMARK SMILES IDX 8 12 3 13 4 14 5 15 7 16 6 17 2 18 1 19 9 20 21 22 22 23
REMARK SMILES IDX 23 24 24 25 25 26 26 27 27 28 28 29 29 30 30 31 91 32 31 33
REMARK SMILES IDX 90 34 32 35 33 36 34 37 84 38 35 39 89 40 83 41 85 42 36 43
REMARK SMILES IDX 88 44 82 45 81 46 37 48 69 49 49 50 68 51 50 52 53 53 67 54
REMARK SMILES IDX 86 55 51 56 52 57 66 59 87 60 54 61 38 62 39 63 47 64 40 65
REMARK SMILES IDX 41 66 45 67 48 68 42 69 43 70 46 71 44 72 70 73 71 74 79 75
REMARK SMILES IDX 72 76 73 77 77 78 80 79 74 80 75 81 78 82 76 83 55 84 56 85
REMARK SMILES IDX 64 86 57 87 58 88 62 89 65 90 59 91 60 92 63 93 61 94
REMARK H PARENT 9 21 85 47 53 58
REMARK Flexibility Score: inf
ROOT
ATOM      1  O   UNL A   1      39.680  22.258  26.058  1.00  0.00    -0.377 OA
ENDROOT
BRANCH   1   2
ATOM      2  C   UNL A   1      38.909  23.060  26.935  1.00  0.00     0.188 C 
BRANCH   2   3
ATOM      3  C   UNL A   1      38.165  24.214  26.233  1.00  0.00     0.188 C 
BRANCH   3   4
ATOM      4  O   UNL A   1      36.804  24.091  25.823  1.00  0.00    -0.376 OA
BRANCH   4   5
ATOM      5  C   UNL A   1      36.371  23.086  24.917  1.00  0.00     0.202 C 
BRANCH   5   6
ATOM      6  C   UNL A   1      34.896  22.890  24.570  1.00  0.00     0.261 C 
BRANCH   6   7
ATOM      7  O   UNL A   1      34.654  22.685  23.185  1.00  0.00    -0.461 OA
BRANCH   7   8
ATOM      8  C   UNL A   1      33.716  23.473  22.600  1.00  0.00     0.343 C 
ATOM      9  O   UNL A   1      33.390  23.428  21.422  1.00  0.00    -0.249 OA
BRANCH   8  10
ATOM     10  C   UNL A   1      33.128  24.425  23.624  1.00  0.00     0.307 C 
ATOM     11  F   UNL A   1      33.012  25.696  23.154  1.00  0.00    -0.232 F 
BRANCH  10  12
ATOM     12  C   UNL A   1      31.756  23.938  24.146  1.00  0.00     0.110 C 
ATOM     13  C   UNL A   1      31.814  23.720  25.698  1.00  0.00     0.024 C 
ATOM     14  C   UNL A   1      31.686  25.036  26.507  1.00  0.00     0.007 C 
ATOM     15  C   UNL A   1      30.542  25.936  26.064  1.00  0.00     0.001 C 
ATOM     16  C   UNL A   1      30.588  24.886  23.781  1.00  0.00     0.039 C 
ATOM     17  C   UNL A   1      30.582  26.194  24.567  1.00  0.00     0.003 C 
BRANCH  13  18
ATOM     18  C   UNL A   1      30.885  22.612  26.262  1.00  0.00     0.003 C 
ATOM     19  C   UNL A   1      29.613  23.025  26.986  1.00  0.00     0.004 C 
ENDBRANCH  13  18
BRANCH  12  20
ATOM     20  O   UNL A   1      31.518  22.675  23.501  1.00  0.00    -0.386 OA
ATOM     21  H   UNL A   1      30.565  22.543  23.388  1.00  0.00     0.211 HD
ENDBRANCH  12  20
ENDBRANCH  10  12
ENDBRANCH   8  10
ENDBRANCH   7   8
ENDBRANCH   6   7
ENDBRANCH   5   6
ENDBRANCH   4   5
ENDBRANCH   3   4
ENDBRANCH   2   3
ENDBRANCH   1   2
BRANCH   1  22
ATOM     22  C   UNL A   1      40.049  20.980  26.566  1.00  0.00     0.188 C 
BRANCH  22  23
ATOM     23  C   UNL A   1      41.555  20.688  26.786  1.00  0.00     0.188 C 
BRANCH  23  24
ATOM     24  O   UNL A   1      42.297  20.494  25.591  1.00  0.00    -0.376 OA
BRANCH  24  25
ATOM     25  C   UNL A   1      43.706  20.655  25.618  1.00  0.00     0.202 C 
BRANCH  25  26
ATOM     26  C   UNL A   1      44.290  21.928  24.985  1.00  0.00     0.261 C 
BRANCH  26  27
ATOM     27  O   UNL A   1      43.459  23.095  25.040  1.00  0.00    -0.460 OA
BRANCH  27  28
ATOM     28  C   UNL A   1      44.080  24.290  25.064  1.00  0.00     0.338 C 
ATOM     29  O   UNL A   1      45.006  24.657  24.356  1.00  0.00    -0.246 OA
BRANCH  28  30
ATOM     30  C   UNL A   1      43.323  25.177  25.967  1.00  0.00     0.060 A 
ATOM     31  C   UNL A   1      43.611  26.549  25.968  1.00  0.00     0.016 A 
ATOM     32  C   UNL A   1      42.342  24.658  26.813  1.00  0.00     0.016 A 
ATOM     33  C   UNL A   1      42.948  27.401  26.847  1.00  0.00     0.010 A 
ATOM     34  C   UNL A   1      41.697  25.508  27.715  1.00  0.00     0.010 A 
ATOM     35  C   UNL A   1      42.027  26.875  27.762  1.00  0.00    -0.014 A 
BRANCH  35  36
ATOM     36  C   UNL A   1      41.582  27.706  28.905  1.00  0.00     0.031 A 
ATOM     37  C   UNL A   1      42.344  27.598  30.197  1.00  0.00     0.074 A 
ATOM     38  C   UNL A   1      40.548  28.556  28.794  1.00  0.00     0.049 A 
ATOM     39  N   UNL A   1      42.118  28.172  31.350  1.00  0.00    -0.248 NA
ATOM     40  C   UNL A   1      43.522  26.713  30.186  1.00  0.00     0.031 C 
ATOM     41  C   UNL A   1      39.766  28.784  27.582  1.00  0.00     0.029 A 
ATOM     42  N   UNL A   1      39.972  29.380  29.730  1.00  0.00    -0.354 N 
ATOM     43  C   UNL A   1      43.113  27.709  32.201  1.00  0.00     0.074 A 
ATOM     44  C   UNL A   1      43.929  26.787  31.443  1.00  0.00     0.031 C 
ATOM     45  C   UNL A   1      38.796  29.675  27.852  1.00  0.00     0.029 A 
ATOM     46  C   UNL A   1      38.868  30.050  29.264  1.00  0.00     0.049 A 
ATOM     47  H   UNL A   1      40.318  29.481  30.646  1.00  0.00     0.167 HD
ATOM     48  C   UNL A   1      43.328  28.031  33.498  1.00  0.00     0.037 A 
ATOM     49  C   UNL A   1      38.000  30.849  29.916  1.00  0.00     0.037 A 
ATOM     50  C   UNL A   1      42.514  28.952  34.245  1.00  0.00     0.049 A 
ATOM     51  C   UNL A   1      38.220  31.135  31.382  1.00  0.00     0.074 A 
ATOM     52  C   UNL A   1      42.664  29.367  35.556  1.00  0.00     0.029 A 
ATOM     53  N   UNL A   1      41.388  29.592  33.748  1.00  0.00    -0.354 N 
ATOM     54  N   UNL A   1      39.179  30.719  32.175  1.00  0.00    -0.248 NA
ATOM     55  C   UNL A   1      37.237  32.005  32.042  1.00  0.00     0.031 C 
ATOM     56  C   UNL A   1      41.590  30.204  35.873  1.00  0.00     0.029 A 
ATOM     57  C   UNL A   1      40.812  30.371  34.739  1.00  0.00     0.049 A 
ATOM     58  H   UNL A   1      41.049  29.506  32.828  1.00  0.00     0.167 HD
ATOM     59  C   UNL A   1      38.934  31.302  33.413  1.00  0.00     0.074 A 
ATOM     60  C   UNL A   1      37.744  32.113  33.262  1.00  0.00     0.031 C 
ATOM     61  C   UNL A   1      39.632  31.181  34.570  1.00  0.00     0.037 A 
BRANCH  48  62
ATOM     62  C   UNL A   1      44.465  27.351  34.205  1.00  0.00     0.064 A 
ATOM     63  C   UNL A   1      44.310  26.110  34.840  1.00  0.00     0.173 A 
ATOM     64  C   UNL A   1      45.740  27.937  34.214  1.00  0.00     0.173 A 
ATOM     65  F   UNL A   1      43.110  25.513  34.875  1.00  0.00    -0.203 F 
ATOM     66  C   UNL A   1      45.385  25.493  35.478  1.00  0.00     0.198 A 
ATOM     67  C   UNL A   1      46.818  27.303  34.824  1.00  0.00     0.198 A 
ATOM     68  F   UNL A   1      45.943  29.123  33.622  1.00  0.00    -0.203 F 
ATOM     69  F   UNL A   1      45.203  24.331  36.120  1.00  0.00    -0.200 F 
ATOM     70  C   UNL A   1      46.639  26.085  35.461  1.00  0.00     0.200 A 
ATOM     71  F   UNL A   1      48.032  27.869  34.793  1.00  0.00    -0.200 F 
ATOM     72  F   UNL A   1      47.673  25.484  36.065  1.00  0.00    -0.200 F 
ENDBRANCH  48  62
BRANCH  49  73
ATOM     73  C   UNL A   1      36.826  31.416  29.201  1.00  0.00     0.064 A 
ATOM     74  C   UNL A   1      36.763  32.778  28.870  1.00  0.00     0.173 A 
ATOM     75  C   UNL A   1      35.725  30.614  28.863  1.00  0.00     0.173 A 
ATOM     76  F   UNL A   1      37.777  33.593  29.195  1.00  0.00    -0.203 F 
ATOM     77  C   UNL A   1      35.635  33.318  28.254  1.00  0.00     0.198 A 
ATOM     78  C   UNL A   1      34.614  31.148  28.216  1.00  0.00     0.198 A 
ATOM     79  F   UNL A   1      35.731  29.306  29.159  1.00  0.00    -0.203 F 
ATOM     80  F   UNL A   1      35.578  34.634  28.004  1.00  0.00    -0.200 F 
ATOM     81  C   UNL A   1      34.564  32.502  27.922  1.00  0.00     0.200 A 
ATOM     82  F   UNL A   1      33.587  30.354  27.886  1.00  0.00    -0.200 F 
ATOM     83  F   UNL A   1      33.481  33.023  27.330  1.00  0.00    -0.200 F 
ENDBRANCH  49  73
BRANCH  61  84
ATOM     84  C   UNL A   1      39.159  31.977  35.754  1.00  0.00     0.064 A 
ATOM     85  C   UNL A   1      39.522  33.319  35.939  1.00  0.00     0.173 A 
ATOM     86  C   UNL A   1      38.289  31.399  36.693  1.00  0.00     0.173 A 
ATOM     87  F   UNL A   1      40.358  33.918  35.078  1.00  0.00    -0.203 F 
ATOM     88  C   UNL A   1      39.059  34.042  37.037  1.00  0.00     0.198 A 
ATOM     89  C   UNL A   1      37.799  32.136  37.768  1.00  0.00     0.198 A 
ATOM     90  F   UNL A   1      37.900  30.122  36.559  1.00  0.00    -0.203 F 
ATOM     91  F   UNL A   1      39.465  35.306  37.223  1.00  0.00    -0.200 F 
ATOM     92  C   UNL A   1      38.193  33.453  37.944  1.00  0.00     0.200 A 
ATOM     93  F   UNL A   1      36.946  31.570  38.632  1.00  0.00    -0.200 F 
ATOM     94  F   UNL A   1      37.741  34.153  38.993  1.00  0.00    -0.200 F 
ENDBRANCH  61  84
ENDBRANCH  35  36
ENDBRANCH  28  30
ENDBRANCH  27  28
ENDBRANCH  26  27
ENDBRANCH  25  26
ENDBRANCH  24  25
ENDBRANCH  23  24
ENDBRANCH  22  23
ENDBRANCH   1  22
TORSDOF 23
ENDMDL
