MODEL 1
REMARK VINA RESULT:     -10.5      0.000      0.000
REMARK SMILES CCc1nc2sc(C(=O)NCC(=O)OCCOCCOCCOCCOC(=O)c3ccc(-c4c5nc(c(-c6c(F)c(F)c(F)c(F)c6F)c6ccc([nH]6)c(-c6c(F)c(F)c(F)c(F)c6F)c6nc(c(-c7c(F)c(F)c(F)c(F)c7F)c7ccc4[nH]7)C=C6)C=C5)cc3)c(N)c2c(C(F)(F)F)c1C
REMARK SMILES IDX 19 1 18 2 17 3 16 4 15 5 14 6 12 7 13 8 11 9 10 10 8 11 9 12
REMARK SMILES IDX 7 14 3 15 4 16 100 17 5 18 95 19 101 20 6 21 94 22 92 23
REMARK SMILES IDX 2 24 1 25 96 26 97 27 98 28 99 29 93 30 20 33 21 34 22 35
REMARK SMILES IDX 23 36 24 37 25 38 26 39 27 40 28 41 29 42 30 43 91 44 31 45
REMARK SMILES IDX 90 46 32 47 33 48 34 49 84 50 35 51 89 52 83 53 85 54 36 55
REMARK SMILES IDX 88 56 82 57 81 58 37 60 69 61 49 62 68 63 50 64 53 65 67 66
REMARK SMILES IDX 86 67 51 68 52 69 66 71 87 72 54 73 38 74 39 75 47 76 40 77
REMARK SMILES IDX 41 78 45 79 48 80 42 81 43 82 46 83 44 84 70 85 71 86 79 87
REMARK SMILES IDX 72 88 73 89 77 90 80 91 74 92 75 93 78 94 76 95 55 96 56 97
REMARK SMILES IDX 64 98 57 99 58 100 62 101 65 102 59 103 60 104 63 105 61 106
REMARK H PARENT 10 13 93 31 93 32 85 59 53 70
REMARK Flexibility Score: inf
ROOT
ATOM      1  C   UNL A   1      35.545  22.399  25.388  1.00  0.00     0.188 C 
ENDROOT
BRANCH   1   2
ATOM      2  C   UNL A   1      35.760  23.926  25.375  1.00  0.00     0.188 C 
BRANCH   2   3
ATOM      3  O   UNL A   1      34.754  24.800  24.892  1.00  0.00    -0.376 OA
BRANCH   3   4
ATOM      4  C   UNL A   1      34.265  25.890  25.655  1.00  0.00     0.202 C 
BRANCH   4   5
ATOM      5  C   UNL A   1      34.016  27.295  25.067  1.00  0.00     0.261 C 
BRANCH   5   6
ATOM      6  O   UNL A   1      33.121  28.156  25.791  1.00  0.00    -0.462 OA
BRANCH   6   7
ATOM      7  C   UNL A   1      32.814  29.331  25.181  1.00  0.00     0.325 C 
ATOM      8  O   UNL A   1      32.501  30.352  25.793  1.00  0.00    -0.250 OA
BRANCH   7   9
ATOM      9  C   UNL A   1      33.051  29.323  23.643  1.00  0.00     0.239 C 
BRANCH   9  10
ATOM     10  N   UNL A   1      31.904  29.350  22.745  1.00  0.00    -0.340 N 
ATOM     11  C   UNL A   1      30.965  28.391  22.455  1.00  0.00     0.264 C 
ATOM     12  O   UNL A   1      29.995  28.813  21.816  1.00  0.00    -0.268 OA
ATOM     13  H   UNL A   1      31.781  30.201  22.264  1.00  0.00     0.164 HD
BRANCH  11  14
ATOM     14  C   UNL A   1      31.115  26.996  22.859  1.00  0.00     0.118 A 
ATOM     15  C   UNL A   1      32.112  22.436  23.406  1.00  0.00     0.045 A 
ATOM     16  N   UNL A   1      32.187  23.372  22.430  1.00  0.00    -0.242 NA
ATOM     17  C   UNL A   1      31.631  22.661  24.710  1.00  0.00    -0.017 A 
ATOM     18  C   UNL A   1      31.750  24.589  22.781  1.00  0.00     0.127 A 
ATOM     19  C   UNL A   1      31.177  23.948  25.044  1.00  0.00     0.073 A 
ATOM     20  C   UNL A   1      31.604  21.590  25.766  1.00  0.00     0.047 C 
ATOM     21  S   UNL A   1      31.788  25.898  21.696  1.00  0.00    -0.108 S 
ATOM     22  C   UNL A   1      31.245  24.930  24.016  1.00  0.00     0.048 A 
ATOM     23  C   UNL A   1      30.859  26.291  24.017  1.00  0.00     0.066 A 
BRANCH  15  24
ATOM     24  C   UNL A   1      32.677  21.100  22.999  1.00  0.00     0.053 C 
ATOM     25  C   UNL A   1      31.893  20.537  21.824  1.00  0.00     0.011 C 
ENDBRANCH  15  24
BRANCH  19  26
ATOM     26  C   UNL A   1      30.653  24.322  26.419  1.00  0.00     0.417 C 
ATOM     27  F   UNL A   1      31.392  25.319  26.999  1.00  0.00    -0.166 F 
ATOM     28  F   UNL A   1      29.370  24.795  26.375  1.00  0.00    -0.166 F 
ATOM     29  F   UNL A   1      30.622  23.334  27.351  1.00  0.00    -0.166 F 
ENDBRANCH  19  26
BRANCH  23  30
ATOM     30  N   UNL A   1      30.301  26.756  25.139  1.00  0.00    -0.397 N 
ATOM     31  H   UNL A   1      30.831  27.304  25.762  1.00  0.00     0.156 HD
ATOM     32  H   UNL A   1      29.360  26.550  25.344  1.00  0.00     0.156 HD
ENDBRANCH  23  30
ENDBRANCH  11  14
ENDBRANCH   9  10
ENDBRANCH   7   9
ENDBRANCH   6   7
ENDBRANCH   5   6
ENDBRANCH   4   5
ENDBRANCH   3   4
ENDBRANCH   2   3
ENDBRANCH   1   2
BRANCH   1  33
ATOM     33  O   UNL A   1      36.706  21.611  25.325  1.00  0.00    -0.377 OA
BRANCH  33  34
ATOM     34  C   UNL A   1      37.912  22.242  25.722  1.00  0.00     0.188 C 
BRANCH  34  35
ATOM     35  C   UNL A   1      39.165  21.390  26.076  1.00  0.00     0.188 C 
BRANCH  35  36
ATOM     36  O   UNL A   1      40.089  21.911  27.020  1.00  0.00    -0.376 OA
BRANCH  36  37
ATOM     37  C   UNL A   1      41.270  21.295  27.518  1.00  0.00     0.202 C 
BRANCH  37  38
ATOM     38  C   UNL A   1      42.120  20.329  26.686  1.00  0.00     0.261 C 
BRANCH  38  39
ATOM     39  O   UNL A   1      42.557  20.874  25.466  1.00  0.00    -0.460 OA
BRANCH  39  40
ATOM     40  C   UNL A   1      43.885  20.872  25.330  1.00  0.00     0.338 C 
ATOM     41  O   UNL A   1      44.643  19.900  25.393  1.00  0.00    -0.246 OA
BRANCH  40  42
ATOM     42  C   UNL A   1      44.323  22.249  25.177  1.00  0.00     0.060 A 
ATOM     43  C   UNL A   1      45.359  22.649  26.015  1.00  0.00     0.016 A 
ATOM     44  C   UNL A   1      43.425  23.147  24.584  1.00  0.00     0.016 A 
ATOM     45  C   UNL A   1      45.216  23.872  26.609  1.00  0.00     0.010 A 
ATOM     46  C   UNL A   1      43.311  24.379  25.151  1.00  0.00     0.010 A 
ATOM     47  C   UNL A   1      44.091  24.635  26.270  1.00  0.00    -0.014 A 
BRANCH  47  48
ATOM     48  C   UNL A   1      43.775  25.800  27.052  1.00  0.00     0.031 A 
ATOM     49  C   UNL A   1      44.750  26.864  26.771  1.00  0.00     0.074 A 
ATOM     50  C   UNL A   1      42.688  25.868  27.849  1.00  0.00     0.049 A 
ATOM     51  N   UNL A   1      45.734  27.209  27.529  1.00  0.00    -0.248 NA
ATOM     52  C   UNL A   1      44.832  27.384  25.395  1.00  0.00     0.031 C 
ATOM     53  C   UNL A   1      41.595  24.909  28.027  1.00  0.00     0.029 A 
ATOM     54  N   UNL A   1      42.311  26.902  28.653  1.00  0.00    -0.354 N 
ATOM     55  C   UNL A   1      46.406  28.185  26.811  1.00  0.00     0.074 A 
ATOM     56  C   UNL A   1      45.986  28.051  25.444  1.00  0.00     0.031 C 
ATOM     57  C   UNL A   1      40.572  25.503  28.693  1.00  0.00     0.029 A 
ATOM     58  C   UNL A   1      40.992  26.827  29.109  1.00  0.00     0.049 A 
ATOM     59  H   UNL A   1      42.918  27.640  28.893  1.00  0.00     0.167 HD
ATOM     60  C   UNL A   1      46.959  29.237  27.466  1.00  0.00     0.037 A 
ATOM     61  C   UNL A   1      40.327  27.841  29.729  1.00  0.00     0.037 A 
ATOM     62  C   UNL A   1      47.136  28.936  28.866  1.00  0.00     0.049 A 
ATOM     63  C   UNL A   1      41.373  28.744  30.290  1.00  0.00     0.074 A 
ATOM     64  C   UNL A   1      47.868  27.998  29.569  1.00  0.00     0.029 A 
ATOM     65  N   UNL A   1      46.161  29.377  29.726  1.00  0.00    -0.354 N 
ATOM     66  N   UNL A   1      42.184  28.383  31.247  1.00  0.00    -0.248 NA
ATOM     67  C   UNL A   1      41.853  29.811  29.423  1.00  0.00     0.031 C 
ATOM     68  C   UNL A   1      47.026  27.598  30.648  1.00  0.00     0.029 A 
ATOM     69  C   UNL A   1      45.864  28.369  30.607  1.00  0.00     0.049 A 
ATOM     70  H   UNL A   1      45.744  30.269  29.713  1.00  0.00     0.167 HD
ATOM     71  C   UNL A   1      43.428  28.848  30.843  1.00  0.00     0.074 A 
ATOM     72  C   UNL A   1      43.154  29.749  29.723  1.00  0.00     0.031 C 
ATOM     73  C   UNL A   1      44.574  28.223  31.243  1.00  0.00     0.037 A 
BRANCH  60  74
ATOM     74  C   UNL A   1      46.900  30.644  26.937  1.00  0.00     0.064 A 
ATOM     75  C   UNL A   1      48.070  31.421  26.958  1.00  0.00     0.173 A 
ATOM     76  C   UNL A   1      45.701  31.352  26.683  1.00  0.00     0.173 A 
ATOM     77  F   UNL A   1      49.256  30.858  27.229  1.00  0.00    -0.203 F 
ATOM     78  C   UNL A   1      48.033  32.808  26.791  1.00  0.00     0.198 A 
ATOM     79  C   UNL A   1      45.675  32.723  26.458  1.00  0.00     0.198 A 
ATOM     80  F   UNL A   1      44.494  30.780  26.760  1.00  0.00    -0.203 F 
ATOM     81  F   UNL A   1      49.154  33.522  26.940  1.00  0.00    -0.200 F 
ATOM     82  C   UNL A   1      46.837  33.456  26.541  1.00  0.00     0.200 A 
ATOM     83  F   UNL A   1      44.499  33.333  26.248  1.00  0.00    -0.200 F 
ATOM     84  F   UNL A   1      46.792  34.790  26.433  1.00  0.00    -0.200 F 
ENDBRANCH  60  74
BRANCH  61  85
ATOM     85  C   UNL A   1      38.940  28.324  29.477  1.00  0.00     0.064 A 
ATOM     86  C   UNL A   1      38.058  28.588  30.543  1.00  0.00     0.173 A 
ATOM     87  C   UNL A   1      38.560  28.834  28.221  1.00  0.00     0.173 A 
ATOM     88  F   UNL A   1      38.361  28.183  31.784  1.00  0.00    -0.203 F 
ATOM     89  C   UNL A   1      36.890  29.343  30.367  1.00  0.00     0.198 A 
ATOM     90  C   UNL A   1      37.395  29.587  28.047  1.00  0.00     0.198 A 
ATOM     91  F   UNL A   1      39.361  28.697  27.154  1.00  0.00    -0.203 F 
ATOM     92  F   UNL A   1      36.109  29.628  31.420  1.00  0.00    -0.200 F 
ATOM     93  C   UNL A   1      36.568  29.854  29.121  1.00  0.00     0.200 A 
ATOM     94  F   UNL A   1      37.116  30.109  26.844  1.00  0.00    -0.200 F 
ATOM     95  F   UNL A   1      35.489  30.634  28.965  1.00  0.00    -0.200 F 
ENDBRANCH  61  85
BRANCH  73  96
ATOM     96  C   UNL A   1      44.465  27.165  32.307  1.00  0.00     0.064 A 
ATOM     97  C   UNL A   1      44.304  25.791  32.050  1.00  0.00     0.173 A 
ATOM     98  C   UNL A   1      44.705  27.546  33.633  1.00  0.00     0.173 A 
ATOM     99  F   UNL A   1      44.159  25.338  30.798  1.00  0.00    -0.203 F 
ATOM    100  C   UNL A   1      44.359  24.850  33.081  1.00  0.00     0.198 A 
ATOM    101  C   UNL A   1      44.792  26.605  34.655  1.00  0.00     0.198 A 
ATOM    102  F   UNL A   1      44.916  28.838  33.929  1.00  0.00    -0.203 F 
ATOM    103  F   UNL A   1      44.206  23.545  32.812  1.00  0.00    -0.200 F 
ATOM    104  C   UNL A   1      44.613  25.260  34.380  1.00  0.00     0.200 A 
ATOM    105  F   UNL A   1      45.086  27.002  35.899  1.00  0.00    -0.200 F 
ATOM    106  F   UNL A   1      44.713  24.355  35.365  1.00  0.00    -0.200 F 
ENDBRANCH  73  96
ENDBRANCH  47  48
ENDBRANCH  40  42
ENDBRANCH  39  40
ENDBRANCH  38  39
ENDBRANCH  37  38
ENDBRANCH  36  37
ENDBRANCH  35  36
ENDBRANCH  34  35
ENDBRANCH  33  34
ENDBRANCH   1  33
TORSDOF 25
ENDMDL
MODEL 2
REMARK VINA RESULT:     -10.3      1.927      3.386
REMARK SMILES CCc1nc2sc(C(=O)NCC(=O)OCCOCCOCCOCCOC(=O)c3ccc(-c4c5nc(c(-c6c(F)c(F)c(F)c(F)c6F)c6ccc([nH]6)c(-c6c(F)c(F)c(F)c(F)c6F)c6nc(c(-c7c(F)c(F)c(F)c(F)c7F)c7ccc4[nH]7)C=C6)C=C5)cc3)c(N)c2c(C(F)(F)F)c1C
REMARK SMILES IDX 19 1 18 2 17 3 16 4 15 5 14 6 12 7 13 8 11 9 10 10 8 11 9 12
REMARK SMILES IDX 7 14 3 15 4 16 100 17 5 18 95 19 101 20 6 21 94 22 92 23
REMARK SMILES IDX 2 24 1 25 96 26 97 27 98 28 99 29 93 30 20 33 21 34 22 35
REMARK SMILES IDX 23 36 24 37 25 38 26 39 27 40 28 41 29 42 30 43 91 44 31 45
REMARK SMILES IDX 90 46 32 47 33 48 34 49 84 50 35 51 89 52 83 53 85 54 36 55
REMARK SMILES IDX 88 56 82 57 81 58 37 60 69 61 49 62 68 63 50 64 53 65 67 66
REMARK SMILES IDX 86 67 51 68 52 69 66 71 87 72 54 73 38 74 39 75 47 76 40 77
REMARK SMILES IDX 41 78 45 79 48 80 42 81 43 82 46 83 44 84 70 85 71 86 79 87
REMARK SMILES IDX 72 88 73 89 77 90 80 91 74 92 75 93 78 94 76 95 55 96 56 97
REMARK SMILES IDX 64 98 57 99 58 100 62 101 65 102 59 103 60 104 63 105 61 106
REMARK H PARENT 10 13 93 31 93 32 85 59 53 70
REMARK Flexibility Score: inf
ROOT
ATOM      1  C   UNL A   1      37.743  23.147  26.222  1.00  0.00     0.188 C 
ENDROOT
BRANCH   1   2
ATOM      2  C   UNL A   1      37.330  23.875  24.926  1.00  0.00     0.188 C 
BRANCH   2   3
ATOM      3  O   UNL A   1      35.982  24.254  24.701  1.00  0.00    -0.376 OA
BRANCH   3   4
ATOM      4  C   UNL A   1      35.171  23.625  23.723  1.00  0.00     0.202 C 
BRANCH   4   5
ATOM      5  C   UNL A   1      34.587  22.207  23.888  1.00  0.00     0.261 C 
BRANCH   5   6
ATOM      6  O   UNL A   1      33.483  21.852  23.038  1.00  0.00    -0.462 OA
BRANCH   6   7
ATOM      7  C   UNL A   1      32.682  20.856  23.501  1.00  0.00     0.325 C 
ATOM      8  O   UNL A   1      32.143  20.025  22.769  1.00  0.00    -0.250 OA
BRANCH   7   9
ATOM      9  C   UNL A   1      32.635  20.753  25.053  1.00  0.00     0.239 C 
BRANCH   9  10
ATOM     10  N   UNL A   1      31.398  21.076  25.751  1.00  0.00    -0.340 N 
ATOM     11  C   UNL A   1      30.739  22.270  25.909  1.00  0.00     0.264 C 
ATOM     12  O   UNL A   1      29.598  22.158  26.370  1.00  0.00    -0.268 OA
ATOM     13  H   UNL A   1      30.960  20.307  26.183  1.00  0.00     0.164 HD
BRANCH  11  14
ATOM     14  C   UNL A   1      31.346  23.554  25.572  1.00  0.00     0.118 A 
ATOM     15  C   UNL A   1      33.619  27.662  25.343  1.00  0.00     0.045 A 
ATOM     16  N   UNL A   1      33.207  26.791  26.295  1.00  0.00    -0.242 NA
ATOM     17  C   UNL A   1      33.421  27.500  23.958  1.00  0.00    -0.017 A 
ATOM     18  C   UNL A   1      32.560  25.713  25.833  1.00  0.00     0.127 A 
ATOM     19  C   UNL A   1      32.735  26.360  23.507  1.00  0.00     0.073 A 
ATOM     20  C   UNL A   1      33.933  28.484  22.941  1.00  0.00     0.047 C 
ATOM     21  S   UNL A   1      31.989  24.499  26.878  1.00  0.00    -0.108 S 
ATOM     22  C   UNL A   1      32.293  25.451  24.508  1.00  0.00     0.048 A 
ATOM     23  C   UNL A   1      31.570  24.239  24.395  1.00  0.00     0.066 A 
BRANCH  15  24
ATOM     24  C   UNL A   1      34.404  28.823  25.892  1.00  0.00     0.053 C 
ATOM     25  C   UNL A   1      33.561  29.598  26.892  1.00  0.00     0.011 C 
ENDBRANCH  15  24
BRANCH  19  26
ATOM     26  C   UNL A   1      32.475  26.064  22.041  1.00  0.00     0.417 C 
ATOM     27  F   UNL A   1      32.683  24.744  21.737  1.00  0.00    -0.166 F 
ATOM     28  F   UNL A   1      31.180  26.323  21.680  1.00  0.00    -0.166 F 
ATOM     29  F   UNL A   1      33.226  26.745  21.136  1.00  0.00    -0.166 F 
ENDBRANCH  19  26
BRANCH  23  30
ATOM     30  N   UNL A   1      31.194  23.877  23.165  1.00  0.00    -0.397 N 
ATOM     31  H   UNL A   1      31.767  24.087  22.392  1.00  0.00     0.156 HD
ATOM     32  H   UNL A   1      30.343  23.401  23.030  1.00  0.00     0.156 HD
ENDBRANCH  23  30
ENDBRANCH  11  14
ENDBRANCH   9  10
ENDBRANCH   7   9
ENDBRANCH   6   7
ENDBRANCH   5   6
ENDBRANCH   4   5
ENDBRANCH   3   4
ENDBRANCH   2   3
ENDBRANCH   1   2
BRANCH   1  33
ATOM     33  O   UNL A   1      38.105  21.797  26.082  1.00  0.00    -0.377 OA
BRANCH  33  34
ATOM     34  C   UNL A   1      39.490  21.532  25.936  1.00  0.00     0.188 C 
BRANCH  34  35
ATOM     35  C   UNL A   1      40.404  21.417  27.190  1.00  0.00     0.188 C 
BRANCH  35  36
ATOM     36  O   UNL A   1      40.769  20.120  27.641  1.00  0.00    -0.376 OA
BRANCH  36  37
ATOM     37  C   UNL A   1      41.948  19.388  27.331  1.00  0.00     0.202 C 
BRANCH  37  38
ATOM     38  C   UNL A   1      42.702  19.543  26.006  1.00  0.00     0.261 C 
BRANCH  38  39
ATOM     39  O   UNL A   1      43.674  20.558  26.030  1.00  0.00    -0.460 OA
BRANCH  39  40
ATOM     40  C   UNL A   1      44.320  20.702  24.870  1.00  0.00     0.338 C 
ATOM     41  O   UNL A   1      44.671  19.810  24.093  1.00  0.00    -0.246 OA
BRANCH  40  42
ATOM     42  C   UNL A   1      44.634  22.111  24.702  1.00  0.00     0.060 A 
ATOM     43  C   UNL A   1      45.742  22.571  25.405  1.00  0.00     0.016 A 
ATOM     44  C   UNL A   1      43.601  22.951  24.261  1.00  0.00     0.016 A 
ATOM     45  C   UNL A   1      45.593  23.768  26.049  1.00  0.00     0.010 A 
ATOM     46  C   UNL A   1      43.477  24.159  24.875  1.00  0.00     0.010 A 
ATOM     47  C   UNL A   1      44.381  24.451  25.886  1.00  0.00    -0.014 A 
BRANCH  47  48
ATOM     48  C   UNL A   1      44.091  25.573  26.738  1.00  0.00     0.031 A 
ATOM     49  C   UNL A   1      45.086  26.631  26.517  1.00  0.00     0.074 A 
ATOM     50  C   UNL A   1      43.009  25.614  27.543  1.00  0.00     0.049 A 
ATOM     51  N   UNL A   1      46.079  26.911  27.290  1.00  0.00    -0.248 NA
ATOM     52  C   UNL A   1      45.174  27.232  25.175  1.00  0.00     0.031 C 
ATOM     53  C   UNL A   1      41.896  24.667  27.669  1.00  0.00     0.029 A 
ATOM     54  N   UNL A   1      42.655  26.605  28.409  1.00  0.00    -0.354 N 
ATOM     55  C   UNL A   1      46.768  27.915  26.629  1.00  0.00     0.074 A 
ATOM     56  C   UNL A   1      46.341  27.871  25.258  1.00  0.00     0.031 C 
ATOM     57  C   UNL A   1      40.889  25.241  28.373  1.00  0.00     0.029 A 
ATOM     58  C   UNL A   1      41.336  26.529  28.866  1.00  0.00     0.049 A 
ATOM     59  H   UNL A   1      43.277  27.315  28.690  1.00  0.00     0.167 HD
ATOM     60  C   UNL A   1      47.345  28.915  27.343  1.00  0.00     0.037 A 
ATOM     61  C   UNL A   1      40.693  27.517  29.548  1.00  0.00     0.037 A 
ATOM     62  C   UNL A   1      47.520  28.527  28.722  1.00  0.00     0.049 A 
ATOM     63  C   UNL A   1      41.759  28.364  30.157  1.00  0.00     0.074 A 
ATOM     64  C   UNL A   1      48.235  27.535  29.364  1.00  0.00     0.029 A 
ATOM     65  N   UNL A   1      46.557  28.935  29.610  1.00  0.00    -0.354 N 
ATOM     66  N   UNL A   1      42.566  27.930  31.087  1.00  0.00    -0.248 NA
ATOM     67  C   UNL A   1      42.258  29.472  29.353  1.00  0.00     0.031 C 
ATOM     68  C   UNL A   1      47.389  27.087  30.421  1.00  0.00     0.029 A 
ATOM     69  C   UNL A   1      46.243  27.882  30.431  1.00  0.00     0.049 A 
ATOM     70  H   UNL A   1      46.158  29.834  29.653  1.00  0.00     0.167 HD
ATOM     71  C   UNL A   1      43.818  28.394  30.706  1.00  0.00     0.074 A 
ATOM     72  C   UNL A   1      43.558  29.366  29.644  1.00  0.00     0.031 C 
ATOM     73  C   UNL A   1      44.952  27.724  31.063  1.00  0.00     0.037 A 
BRANCH  60  74
ATOM     74  C   UNL A   1      47.312  30.352  26.899  1.00  0.00     0.064 A 
ATOM     75  C   UNL A   1      48.490  31.111  26.986  1.00  0.00     0.173 A 
ATOM     76  C   UNL A   1      46.126  31.089  26.669  1.00  0.00     0.173 A 
ATOM     77  F   UNL A   1      49.665  30.517  27.244  1.00  0.00    -0.203 F 
ATOM     78  C   UNL A   1      48.473  32.505  26.904  1.00  0.00     0.198 A 
ATOM     79  C   UNL A   1      46.121  32.472  26.526  1.00  0.00     0.198 A 
ATOM     80  F   UNL A   1      44.911  30.530  26.690  1.00  0.00    -0.203 F 
ATOM     81  F   UNL A   1      49.600  33.195  27.115  1.00  0.00    -0.200 F 
ATOM     82  C   UNL A   1      47.289  33.184  26.673  1.00  0.00     0.200 A 
ATOM     83  F   UNL A   1      44.956  33.109  26.333  1.00  0.00    -0.200 F 
ATOM     84  F   UNL A   1      47.263  34.522  26.645  1.00  0.00    -0.200 F 
ENDBRANCH  60  74
BRANCH  61  85
ATOM     85  C   UNL A   1      39.315  28.041  29.332  1.00  0.00     0.064 A 
ATOM     86  C   UNL A   1      38.432  28.232  30.413  1.00  0.00     0.173 A 
ATOM     87  C   UNL A   1      38.950  28.659  28.121  1.00  0.00     0.173 A 
ATOM     88  F   UNL A   1      38.723  27.721  31.618  1.00  0.00    -0.203 F 
ATOM     89  C   UNL A   1      37.278  29.018  30.296  1.00  0.00     0.198 A 
ATOM     90  C   UNL A   1      37.798  29.443  28.005  1.00  0.00     0.198 A 
ATOM     91  F   UNL A   1      39.754  28.598  27.049  1.00  0.00    -0.203 F 
ATOM     92  F   UNL A   1      36.496  29.227  31.365  1.00  0.00    -0.200 F 
ATOM     93  C   UNL A   1      36.970  29.634  29.095  1.00  0.00     0.200 A 
ATOM     94  F   UNL A   1      37.533  30.067  26.848  1.00  0.00    -0.200 F 
ATOM     95  F   UNL A   1      35.904  30.442  28.999  1.00  0.00    -0.200 F 
ENDBRANCH  61  85
BRANCH  73  96
ATOM     96  C   UNL A   1      44.826  26.607  32.063  1.00  0.00     0.064 A 
ATOM     97  C   UNL A   1      44.579  25.262  31.727  1.00  0.00     0.173 A 
ATOM     98  C   UNL A   1      45.137  26.888  33.398  1.00  0.00     0.173 A 
ATOM     99  F   UNL A   1      44.362  24.899  30.457  1.00  0.00    -0.203 F 
ATOM    100  C   UNL A   1      44.621  24.255  32.694  1.00  0.00     0.198 A 
ATOM    101  C   UNL A   1      45.211  25.879  34.355  1.00  0.00     0.198 A 
ATOM    102  F   UNL A   1      45.430  28.145  33.765  1.00  0.00    -0.203 F 
ATOM    103  F   UNL A   1      44.387  22.980  32.351  1.00  0.00    -0.200 F 
ATOM    104  C   UNL A   1      44.947  24.565  34.004  1.00  0.00     0.200 A 
ATOM    105  F   UNL A   1      45.574  26.178  35.609  1.00  0.00    -0.200 F 
ATOM    106  F   UNL A   1      45.035  23.595  34.925  1.00  0.00    -0.200 F 
ENDBRANCH  73  96
ENDBRANCH  47  48
ENDBRANCH  40  42
ENDBRANCH  39  40
ENDBRANCH  38  39
ENDBRANCH  37  38
ENDBRANCH  36  37
ENDBRANCH  35  36
ENDBRANCH  34  35
ENDBRANCH  33  34
ENDBRANCH   1  33
TORSDOF 25
ENDMDL
MODEL 3
REMARK VINA RESULT:      -9.7      3.969     10.430
REMARK SMILES CCc1nc2sc(C(=O)NCC(=O)OCCOCCOCCOCCOC(=O)c3ccc(-c4c5nc(c(-c6c(F)c(F)c(F)c(F)c6F)c6ccc([nH]6)c(-c6c(F)c(F)c(F)c(F)c6F)c6nc(c(-c7c(F)c(F)c(F)c(F)c7F)c7ccc4[nH]7)C=C6)C=C5)cc3)c(N)c2c(C(F)(F)F)c1C
REMARK SMILES IDX 19 1 18 2 17 3 16 4 15 5 14 6 12 7 13 8 11 9 10 10 8 11 9 12
REMARK SMILES IDX 7 14 3 15 4 16 100 17 5 18 95 19 101 20 6 21 94 22 92 23
REMARK SMILES IDX 2 24 1 25 96 26 97 27 98 28 99 29 93 30 20 33 21 34 22 35
REMARK SMILES IDX 23 36 24 37 25 38 26 39 27 40 28 41 29 42 30 43 91 44 31 45
REMARK SMILES IDX 90 46 32 47 33 48 34 49 84 50 35 51 89 52 83 53 85 54 36 55
REMARK SMILES IDX 88 56 82 57 81 58 37 60 69 61 49 62 68 63 50 64 53 65 67 66
REMARK SMILES IDX 86 67 51 68 52 69 66 71 87 72 54 73 38 74 39 75 47 76 40 77
REMARK SMILES IDX 41 78 45 79 48 80 42 81 43 82 46 83 44 84 70 85 71 86 79 87
REMARK SMILES IDX 72 88 73 89 77 90 80 91 74 92 75 93 78 94 76 95 55 96 56 97
REMARK SMILES IDX 64 98 57 99 58 100 62 101 65 102 59 103 60 104 63 105 61 106
REMARK H PARENT 10 13 93 31 93 32 85 59 53 70
REMARK Flexibility Score: inf
ROOT
ATOM      1  C   UNL A   1      33.449  25.513  24.877  1.00  0.00     0.188 C 
ENDROOT
BRANCH   1   2
ATOM      2  C   UNL A   1      34.533  24.489  25.278  1.00  0.00     0.188 C 
BRANCH   2   3
ATOM      3  O   UNL A   1      35.101  23.616  24.316  1.00  0.00    -0.376 OA
BRANCH   3   4
ATOM      4  C   UNL A   1      36.502  23.451  24.177  1.00  0.00     0.202 C 
BRANCH   4   5
ATOM      5  C   UNL A   1      37.409  22.905  25.300  1.00  0.00     0.261 C 
BRANCH   5   6
ATOM      6  O   UNL A   1      37.107  21.592  25.803  1.00  0.00    -0.462 OA
BRANCH   6   7
ATOM      7  C   UNL A   1      37.952  20.603  25.408  1.00  0.00     0.325 C 
ATOM      8  O   UNL A   1      37.627  19.702  24.636  1.00  0.00    -0.250 OA
BRANCH   7   9
ATOM      9  C   UNL A   1      39.420  20.799  25.888  1.00  0.00     0.239 C 
BRANCH   9  10
ATOM     10  N   UNL A   1      40.344  19.675  25.830  1.00  0.00    -0.340 N 
ATOM     11  C   UNL A   1      41.686  19.599  26.110  1.00  0.00     0.264 C 
ATOM     12  O   UNL A   1      42.123  18.444  26.174  1.00  0.00    -0.268 OA
ATOM     13  H   UNL A   1      39.938  18.825  25.544  1.00  0.00     0.164 HD
BRANCH  11  14
ATOM     14  C   UNL A   1      42.519  20.783  26.299  1.00  0.00     0.118 A 
ATOM     15  C   UNL A   1      44.867  24.584  27.761  1.00  0.00     0.045 A 
ATOM     16  N   UNL A   1      43.823  23.825  28.174  1.00  0.00    -0.242 NA
ATOM     17  C   UNL A   1      45.616  24.363  26.590  1.00  0.00    -0.017 A 
ATOM     18  C   UNL A   1      43.515  22.802  27.366  1.00  0.00     0.127 A 
ATOM     19  C   UNL A   1      45.264  23.283  25.763  1.00  0.00     0.073 A 
ATOM     20  C   UNL A   1      46.790  25.219  26.199  1.00  0.00     0.047 C 
ATOM     21  S   UNL A   1      42.249  21.726  27.731  1.00  0.00    -0.108 S 
ATOM     22  C   UNL A   1      44.161  22.492  26.190  1.00  0.00     0.048 A 
ATOM     23  C   UNL A   1      43.549  21.366  25.589  1.00  0.00     0.066 A 
BRANCH  15  24
ATOM     24  C   UNL A   1      45.229  25.680  28.729  1.00  0.00     0.053 C 
ATOM     25  C   UNL A   1      44.201  26.798  28.662  1.00  0.00     0.011 C 
ENDBRANCH  15  24
BRANCH  19  26
ATOM     26  C   UNL A   1      46.003  22.930  24.485  1.00  0.00     0.417 C 
ATOM     27  F   UNL A   1      46.472  21.643  24.499  1.00  0.00    -0.166 F 
ATOM     28  F   UNL A   1      45.201  23.015  23.379  1.00  0.00    -0.166 F 
ATOM     29  F   UNL A   1      47.091  23.685  24.179  1.00  0.00    -0.166 F 
ENDBRANCH  19  26
BRANCH  23  30
ATOM     30  N   UNL A   1      44.039  20.975  24.408  1.00  0.00    -0.397 N 
ATOM     31  H   UNL A   1      44.376  21.644  23.770  1.00  0.00     0.156 HD
ATOM     32  H   UNL A   1      44.061  20.019  24.177  1.00  0.00     0.156 HD
ENDBRANCH  23  30
ENDBRANCH  11  14
ENDBRANCH   9  10
ENDBRANCH   7   9
ENDBRANCH   6   7
ENDBRANCH   5   6
ENDBRANCH   4   5
ENDBRANCH   3   4
ENDBRANCH   2   3
ENDBRANCH   1   2
BRANCH   1  33
ATOM     33  O   UNL A   1      33.908  26.684  24.253  1.00  0.00    -0.377 OA
BRANCH  33  34
ATOM     34  C   UNL A   1      33.156  27.860  24.500  1.00  0.00     0.188 C 
BRANCH  34  35
ATOM     35  C   UNL A   1      32.281  27.979  25.781  1.00  0.00     0.188 C 
BRANCH  35  36
ATOM     36  O   UNL A   1      32.748  28.800  26.842  1.00  0.00    -0.376 OA
BRANCH  36  37
ATOM     37  C   UNL A   1      33.971  29.522  26.915  1.00  0.00     0.202 C 
BRANCH  37  38
ATOM     38  C   UNL A   1      34.031  31.044  27.085  1.00  0.00     0.261 C 
BRANCH  38  39
ATOM     39  O   UNL A   1      33.230  31.522  28.137  1.00  0.00    -0.460 OA
BRANCH  39  40
ATOM     40  C   UNL A   1      33.218  32.854  28.231  1.00  0.00     0.338 C 
ATOM     41  O   UNL A   1      32.465  33.639  27.650  1.00  0.00    -0.246 OA
BRANCH  40  42
ATOM     42  C   UNL A   1      34.324  33.254  29.086  1.00  0.00     0.060 A 
ATOM     43  C   UNL A   1      35.247  34.121  28.513  1.00  0.00     0.016 A 
ATOM     44  C   UNL A   1      34.622  32.427  30.179  1.00  0.00     0.016 A 
ATOM     45  C   UNL A   1      36.565  33.832  28.735  1.00  0.00     0.010 A 
ATOM     46  C   UNL A   1      35.935  32.171  30.426  1.00  0.00     0.010 A 
ATOM     47  C   UNL A   1      36.864  32.747  29.569  1.00  0.00    -0.014 A 
BRANCH  47  48
ATOM     48  C   UNL A   1      38.215  32.259  29.625  1.00  0.00     0.031 A 
ATOM     49  C   UNL A   1      38.289  30.934  28.994  1.00  0.00     0.074 A 
ATOM     50  C   UNL A   1      39.232  32.990  30.127  1.00  0.00     0.049 A 
ATOM     51  N   UNL A   1      38.362  29.804  29.611  1.00  0.00    -0.248 NA
ATOM     52  C   UNL A   1      37.941  30.824  27.566  1.00  0.00     0.031 C 
ATOM     53  C   UNL A   1      39.245  34.376  30.603  1.00  0.00     0.029 A 
ATOM     54  N   UNL A   1      40.537  32.619  30.257  1.00  0.00    -0.354 N 
ATOM     55  C   UNL A   1      38.328  28.851  28.605  1.00  0.00     0.074 A 
ATOM     56  C   UNL A   1      37.803  29.505  27.438  1.00  0.00     0.031 C 
ATOM     57  C   UNL A   1      40.527  34.798  30.742  1.00  0.00     0.029 A 
ATOM     58  C   UNL A   1      41.417  33.676  30.505  1.00  0.00     0.049 A 
ATOM     59  H   UNL A   1      40.835  31.683  30.184  1.00  0.00     0.167 HD
ATOM     60  C   UNL A   1      39.072  27.722  28.726  1.00  0.00     0.037 A 
ATOM     61  C   UNL A   1      42.774  33.586  30.447  1.00  0.00     0.037 A 
ATOM     62  C   UNL A   1      39.443  27.496  30.102  1.00  0.00     0.049 A 
ATOM     63  C   UNL A   1      43.104  32.143  30.628  1.00  0.00     0.074 A 
ATOM     64  C   UNL A   1      38.739  27.265  31.268  1.00  0.00     0.029 A 
ATOM     65  N   UNL A   1      40.687  27.926  30.490  1.00  0.00    -0.354 N 
ATOM     66  N   UNL A   1      42.878  31.497  31.741  1.00  0.00    -0.248 NA
ATOM     67  C   UNL A   1      43.164  31.327  29.424  1.00  0.00     0.031 C 
ATOM     68  C   UNL A   1      39.437  27.992  32.277  1.00  0.00     0.029 A 
ATOM     69  C   UNL A   1      40.576  28.556  31.702  1.00  0.00     0.049 A 
ATOM     70  H   UNL A   1      41.523  27.802  29.982  1.00  0.00     0.167 HD
ATOM     71  C   UNL A   1      42.334  30.286  31.335  1.00  0.00     0.074 A 
ATOM     72  C   UNL A   1      42.565  30.228  29.891  1.00  0.00     0.031 C 
ATOM     73  C   UNL A   1      41.477  29.597  32.144  1.00  0.00     0.037 A 
BRANCH  60  74
ATOM     74  C   UNL A   1      39.821  27.117  27.570  1.00  0.00     0.064 A 
ATOM     75  C   UNL A   1      39.706  25.735  27.344  1.00  0.00     0.173 A 
ATOM     76  C   UNL A   1      40.858  27.769  26.862  1.00  0.00     0.173 A 
ATOM     77  F   UNL A   1      38.783  25.013  27.995  1.00  0.00    -0.203 F 
ATOM     78  C   UNL A   1      40.598  25.052  26.513  1.00  0.00     0.198 A 
ATOM     79  C   UNL A   1      41.705  27.095  25.989  1.00  0.00     0.198 A 
ATOM     80  F   UNL A   1      41.179  29.051  27.067  1.00  0.00    -0.203 F 
ATOM     81  F   UNL A   1      40.528  23.718  26.422  1.00  0.00    -0.200 F 
ATOM     82  C   UNL A   1      41.595  25.732  25.837  1.00  0.00     0.200 A 
ATOM     83  F   UNL A   1      42.683  27.772  25.370  1.00  0.00    -0.200 F 
ATOM     84  F   UNL A   1      42.482  25.071  25.083  1.00  0.00    -0.200 F 
ENDBRANCH  60  74
BRANCH  61  85
ATOM     85  C   UNL A   1      43.734  34.526  29.803  1.00  0.00     0.064 A 
ATOM     86  C   UNL A   1      43.667  34.802  28.423  1.00  0.00     0.173 A 
ATOM     87  C   UNL A   1      44.522  35.406  30.570  1.00  0.00     0.173 A 
ATOM     88  F   UNL A   1      42.902  34.046  27.623  1.00  0.00    -0.203 F 
ATOM     89  C   UNL A   1      44.318  35.906  27.856  1.00  0.00     0.198 A 
ATOM     90  C   UNL A   1      45.170  36.508  30.003  1.00  0.00     0.198 A 
ATOM     91  F   UNL A   1      44.598  35.275  31.902  1.00  0.00    -0.203 F 
ATOM     92  F   UNL A   1      44.176  36.171  26.549  1.00  0.00    -0.200 F 
ATOM     93  C   UNL A   1      45.057  36.766  28.650  1.00  0.00     0.200 A 
ATOM     94  F   UNL A   1      45.850  37.355  30.790  1.00  0.00    -0.200 F 
ATOM     95  F   UNL A   1      45.623  37.861  28.122  1.00  0.00    -0.200 F 
ENDBRANCH  61  85
BRANCH  73  96
ATOM     96  C   UNL A   1      41.318  30.066  33.565  1.00  0.00     0.064 A 
ATOM     97  C   UNL A   1      42.204  29.747  34.611  1.00  0.00     0.173 A 
ATOM     98  C   UNL A   1      40.323  31.012  33.833  1.00  0.00     0.173 A 
ATOM     99  F   UNL A   1      43.236  28.917  34.410  1.00  0.00    -0.203 F 
ATOM    100  C   UNL A   1      42.078  30.336  35.871  1.00  0.00     0.198 A 
ATOM    101  C   UNL A   1      40.218  31.623  35.079  1.00  0.00     0.198 A 
ATOM    102  F   UNL A   1      39.482  31.391  32.858  1.00  0.00    -0.203 F 
ATOM    103  F   UNL A   1      42.936  30.020  36.853  1.00  0.00    -0.200 F 
ATOM    104  C   UNL A   1      41.090  31.280  36.099  1.00  0.00     0.200 A 
ATOM    105  F   UNL A   1      39.293  32.571  35.278  1.00  0.00    -0.200 F 
ATOM    106  F   UNL A   1      40.996  31.883  37.293  1.00  0.00    -0.200 F 
ENDBRANCH  73  96
ENDBRANCH  47  48
ENDBRANCH  40  42
ENDBRANCH  39  40
ENDBRANCH  38  39
ENDBRANCH  37  38
ENDBRANCH  36  37
ENDBRANCH  35  36
ENDBRANCH  34  35
ENDBRANCH  33  34
ENDBRANCH   1  33
TORSDOF 25
ENDMDL
