MODEL 1
REMARK VINA RESULT:      -7.5      0.000      0.000
REMARK SMILES CCc1cc(/C=C/C(=O)OCCOCCOCCOCCOC(=O)c2ccc(-c3c4nc(c(-c5c(F)c(F)c(F)c(F)c5F)c5ccc([nH]5)c(-c5c(F)c(F)c(F)c(F)c5F)c5nc(c(-c6c(F)c(F)c(F)c(F)c6F)c6ccc3[nH]6)C=C5)C=C4)cc2)cc(C(=O)c2ccccc2)c1
REMARK SMILES IDX 15 1 14 2 13 3 12 4 11 5 10 6 8 7 9 8 7 9 6 10 5 11 3 12
REMARK SMILES IDX 4 13 98 14 89 15 88 16 2 17 1 18 90 19 91 20 92 21 93 22
REMARK SMILES IDX 97 23 94 24 96 25 95 26 16 27 17 28 18 29 19 30 20 31 21 32
REMARK SMILES IDX 22 33 23 34 24 35 25 36 26 37 87 38 27 39 86 40 28 41 29 42
REMARK SMILES IDX 30 43 80 44 31 45 85 46 79 47 81 48 32 49 84 50 78 51 77 52
REMARK SMILES IDX 33 54 65 55 45 56 64 57 46 58 49 59 63 60 82 61 47 62 48 63
REMARK SMILES IDX 62 65 83 66 50 67 34 68 35 69 43 70 36 71 37 72 41 73 44 74
REMARK SMILES IDX 38 75 39 76 42 77 40 78 66 79 67 80 75 81 68 82 69 83 73 84
REMARK SMILES IDX 76 85 70 86 71 87 74 88 72 89 51 90 52 91 60 92 53 93 54 94
REMARK SMILES IDX 58 95 61 96 55 97 56 98 59 99 57 100
REMARK H PARENT 81 53 49 64
REMARK Flexibility Score: inf
ROOT
ATOM      1  C   UNL A   1      36.733  33.046  32.698  1.00  0.00     0.188 C 
ENDROOT
BRANCH   1   2
ATOM      2  C   UNL A   1      36.896  32.176  33.961  1.00  0.00     0.188 C 
BRANCH   2   3
ATOM      3  O   UNL A   1      38.189  31.612  34.113  1.00  0.00    -0.376 OA
BRANCH   3   4
ATOM      4  C   UNL A   1      38.968  32.033  35.219  1.00  0.00     0.202 C 
BRANCH   4   5
ATOM      5  C   UNL A   1      39.576  33.439  35.127  1.00  0.00     0.261 C 
BRANCH   5   6
ATOM      6  O   UNL A   1      40.616  33.588  34.151  1.00  0.00    -0.460 OA
BRANCH   6   7
ATOM      7  C   UNL A   1      40.267  34.163  32.981  1.00  0.00     0.330 C 
ATOM      8  O   UNL A   1      39.378  34.985  32.821  1.00  0.00    -0.247 OA
BRANCH   7   9
ATOM      9  C   UNL A   1      41.220  33.805  31.907  1.00  0.00     0.094 C 
ATOM     10  C   UNL A   1      41.387  34.499  30.768  1.00  0.00     0.015 C 
BRANCH  10  11
ATOM     11  C   UNL A   1      42.278  34.077  29.673  1.00  0.00    -0.024 A 
ATOM     12  C   UNL A   1      43.400  34.497  27.540  1.00  0.00    -0.047 A 
ATOM     13  C   UNL A   1      42.566  34.917  28.587  1.00  0.00     0.011 A 
ATOM     14  C   UNL A   1      43.964  33.216  27.594  1.00  0.00     0.016 A 
ATOM     15  C   UNL A   1      43.743  32.383  28.698  1.00  0.00     0.023 A 
ATOM     16  C   UNL A   1      42.902  32.825  29.733  1.00  0.00     0.020 A 
BRANCH  12  17
ATOM     17  C   UNL A   1      43.670  35.405  26.365  1.00  0.00     0.032 C 
ATOM     18  C   UNL A   1      43.368  34.738  25.031  1.00  0.00     0.009 C 
ENDBRANCH  12  17
BRANCH  15  19
ATOM     19  C   UNL A   1      44.316  31.006  28.792  1.00  0.00     0.193 C 
ATOM     20  O   UNL A   1      45.079  30.720  29.711  1.00  0.00    -0.289 OA
BRANCH  19  21
ATOM     21  C   UNL A   1      43.945  29.934  27.841  1.00  0.00     0.022 A 
ATOM     22  C   UNL A   1      42.656  29.952  27.296  1.00  0.00     0.012 A 
ATOM     23  C   UNL A   1      44.837  28.911  27.501  1.00  0.00     0.012 A 
ATOM     24  C   UNL A   1      42.277  28.977  26.373  1.00  0.00     0.001 A 
ATOM     25  C   UNL A   1      44.454  27.940  26.573  1.00  0.00     0.001 A 
ATOM     26  C   UNL A   1      43.179  27.978  26.006  1.00  0.00     0.000 A 
ENDBRANCH  19  21
ENDBRANCH  15  19
ENDBRANCH  10  11
ENDBRANCH   7   9
ENDBRANCH   6   7
ENDBRANCH   5   6
ENDBRANCH   4   5
ENDBRANCH   3   4
ENDBRANCH   2   3
ENDBRANCH   1   2
BRANCH   1  27
ATOM     27  O   UNL A   1      35.945  34.226  32.765  1.00  0.00    -0.377 OA
BRANCH  27  28
ATOM     28  C   UNL A   1      34.539  34.153  32.540  1.00  0.00     0.188 C 
BRANCH  28  29
ATOM     29  C   UNL A   1      33.876  34.858  31.333  1.00  0.00     0.188 C 
BRANCH  29  30
ATOM     30  O   UNL A   1      33.709  34.036  30.189  1.00  0.00    -0.376 OA
BRANCH  30  31
ATOM     31  C   UNL A   1      34.878  33.730  29.450  1.00  0.00     0.202 C 
BRANCH  31  32
ATOM     32  C   UNL A   1      34.653  33.043  28.096  1.00  0.00     0.261 C 
BRANCH  32  33
ATOM     33  O   UNL A   1      35.600  32.019  27.745  1.00  0.00    -0.460 OA
BRANCH  33  34
ATOM     34  C   UNL A   1      35.313  30.745  28.089  1.00  0.00     0.338 C 
ATOM     35  O   UNL A   1      34.248  30.166  27.974  1.00  0.00    -0.246 OA
BRANCH  34  36
ATOM     36  C   UNL A   1      36.589  30.108  28.475  1.00  0.00     0.060 A 
ATOM     37  C   UNL A   1      36.674  29.396  29.680  1.00  0.00     0.016 A 
ATOM     38  C   UNL A   1      37.685  30.173  27.613  1.00  0.00     0.016 A 
ATOM     39  C   UNL A   1      37.861  28.741  30.021  1.00  0.00     0.010 A 
ATOM     40  C   UNL A   1      38.877  29.539  27.968  1.00  0.00     0.010 A 
ATOM     41  C   UNL A   1      38.976  28.830  29.178  1.00  0.00    -0.014 A 
BRANCH  41  42
ATOM     42  C   UNL A   1      40.298  28.310  29.603  1.00  0.00     0.031 A 
ATOM     43  C   UNL A   1      41.074  29.078  30.633  1.00  0.00     0.074 A 
ATOM     44  C   UNL A   1      40.820  27.198  29.054  1.00  0.00     0.049 A 
ATOM     45  N   UNL A   1      42.297  28.900  31.061  1.00  0.00    -0.248 NA
ATOM     46  C   UNL A   1      40.370  30.205  31.264  1.00  0.00     0.031 C 
ATOM     47  C   UNL A   1      40.150  26.342  28.080  1.00  0.00     0.029 A 
ATOM     48  N   UNL A   1      42.052  26.617  29.226  1.00  0.00    -0.354 N 
ATOM     49  C   UNL A   1      42.514  29.897  32.002  1.00  0.00     0.074 A 
ATOM     50  C   UNL A   1      41.306  30.692  32.065  1.00  0.00     0.031 C 
ATOM     51  C   UNL A   1      40.987  25.353  27.723  1.00  0.00     0.029 A 
ATOM     52  C   UNL A   1      42.267  25.535  28.407  1.00  0.00     0.049 A 
ATOM     53  H   UNL A   1      42.719  26.944  29.873  1.00  0.00     0.167 HD
ATOM     54  C   UNL A   1      43.620  30.126  32.748  1.00  0.00     0.037 A 
ATOM     55  C   UNL A   1      43.381  24.803  28.208  1.00  0.00     0.037 A 
ATOM     56  C   UNL A   1      44.824  29.342  32.670  1.00  0.00     0.049 A 
ATOM     57  C   UNL A   1      44.640  25.147  28.968  1.00  0.00     0.074 A 
ATOM     58  C   UNL A   1      45.993  29.482  33.395  1.00  0.00     0.029 A 
ATOM     59  N   UNL A   1      45.018  28.280  31.798  1.00  0.00    -0.354 N 
ATOM     60  N   UNL A   1      44.833  26.072  29.877  1.00  0.00    -0.248 NA
ATOM     61  C   UNL A   1      45.837  24.348  28.666  1.00  0.00     0.031 C 
ATOM     62  C   UNL A   1      46.917  28.545  32.919  1.00  0.00     0.029 A 
ATOM     63  C   UNL A   1      46.303  27.781  31.941  1.00  0.00     0.049 A 
ATOM     64  H   UNL A   1      44.344  27.933  31.171  1.00  0.00     0.167 HD
ATOM     65  C   UNL A   1      46.160  25.950  30.274  1.00  0.00     0.074 A 
ATOM     66  C   UNL A   1      46.721  24.852  29.515  1.00  0.00     0.031 C 
ATOM     67  C   UNL A   1      46.849  26.681  31.183  1.00  0.00     0.037 A 
BRANCH  54  68
ATOM     68  C   UNL A   1      43.588  31.297  33.688  1.00  0.00     0.064 A 
ATOM     69  C   UNL A   1      43.030  31.200  34.972  1.00  0.00     0.173 A 
ATOM     70  C   UNL A   1      44.143  32.528  33.306  1.00  0.00     0.173 A 
ATOM     71  F   UNL A   1      42.475  30.049  35.382  1.00  0.00    -0.203 F 
ATOM     72  C   UNL A   1      42.997  32.300  35.824  1.00  0.00     0.198 A 
ATOM     73  C   UNL A   1      44.138  33.617  34.173  1.00  0.00     0.198 A 
ATOM     74  F   UNL A   1      44.693  32.674  32.091  1.00  0.00    -0.203 F 
ATOM     75  F   UNL A   1      42.409  32.200  37.023  1.00  0.00    -0.200 F 
ATOM     76  C   UNL A   1      43.557  33.505  35.427  1.00  0.00     0.200 A 
ATOM     77  F   UNL A   1      44.691  34.777  33.792  1.00  0.00    -0.200 F 
ATOM     78  F   UNL A   1      43.528  34.563  36.250  1.00  0.00    -0.200 F 
ENDBRANCH  54  68
BRANCH  55  79
ATOM     79  C   UNL A   1      43.373  23.685  27.227  1.00  0.00     0.064 A 
ATOM     80  C   UNL A   1      42.899  22.415  27.586  1.00  0.00     0.173 A 
ATOM     81  C   UNL A   1      43.854  23.854  25.921  1.00  0.00     0.173 A 
ATOM     82  F   UNL A   1      42.458  22.194  28.833  1.00  0.00    -0.203 F 
ATOM     83  C   UNL A   1      42.920  21.356  26.680  1.00  0.00     0.198 A 
ATOM     84  C   UNL A   1      43.846  22.803  25.007  1.00  0.00     0.198 A 
ATOM     85  F   UNL A   1      44.328  25.046  25.528  1.00  0.00    -0.203 F 
ATOM     86  F   UNL A   1      42.504  20.141  27.065  1.00  0.00    -0.200 F 
ATOM     87  C   UNL A   1      43.385  21.552  25.389  1.00  0.00     0.200 A 
ATOM     88  F   UNL A   1      44.289  22.999  23.757  1.00  0.00    -0.200 F 
ATOM     89  F   UNL A   1      43.400  20.534  24.518  1.00  0.00    -0.200 F 
ENDBRANCH  55  79
BRANCH  67  90
ATOM     90  C   UNL A   1      48.282  26.306  31.439  1.00  0.00     0.064 A 
ATOM     91  C   UNL A   1      48.638  25.396  32.444  1.00  0.00     0.173 A 
ATOM     92  C   UNL A   1      49.305  26.816  30.624  1.00  0.00     0.173 A 
ATOM     93  F   UNL A   1      47.701  24.890  33.260  1.00  0.00    -0.203 F 
ATOM     94  C   UNL A   1      49.966  25.022  32.634  1.00  0.00     0.198 A 
ATOM     95  C   UNL A   1      50.628  26.416  30.796  1.00  0.00     0.198 A 
ATOM     96  F   UNL A   1      49.019  27.686  29.642  1.00  0.00    -0.203 F 
ATOM     97  F   UNL A   1      50.288  24.180  33.626  1.00  0.00    -0.200 F 
ATOM     98  C   UNL A   1      50.958  25.524  31.804  1.00  0.00     0.200 A 
ATOM     99  F   UNL A   1      51.580  26.889  29.982  1.00  0.00    -0.200 F 
ATOM    100  F   UNL A   1      52.233  25.150  31.979  1.00  0.00    -0.200 F 
ENDBRANCH  67  90
ENDBRANCH  41  42
ENDBRANCH  34  36
ENDBRANCH  33  34
ENDBRANCH  32  33
ENDBRANCH  31  32
ENDBRANCH  30  31
ENDBRANCH  29  30
ENDBRANCH  28  29
ENDBRANCH  27  28
ENDBRANCH   1  27
TORSDOF 24
ENDMDL
MODEL 2
REMARK VINA RESULT:      -6.9      3.550      9.085
REMARK SMILES CCc1cc(/C=C/C(=O)OCCOCCOCCOCCOC(=O)c2ccc(-c3c4nc(c(-c5c(F)c(F)c(F)c(F)c5F)c5ccc([nH]5)c(-c5c(F)c(F)c(F)c(F)c5F)c5nc(c(-c6c(F)c(F)c(F)c(F)c6F)c6ccc3[nH]6)C=C5)C=C4)cc2)cc(C(=O)c2ccccc2)c1
REMARK SMILES IDX 15 1 14 2 13 3 12 4 11 5 10 6 8 7 9 8 7 9 6 10 5 11 3 12
REMARK SMILES IDX 4 13 98 14 89 15 88 16 2 17 1 18 90 19 91 20 92 21 93 22
REMARK SMILES IDX 97 23 94 24 96 25 95 26 16 27 17 28 18 29 19 30 20 31 21 32
REMARK SMILES IDX 22 33 23 34 24 35 25 36 26 37 87 38 27 39 86 40 28 41 29 42
REMARK SMILES IDX 30 43 80 44 31 45 85 46 79 47 81 48 32 49 84 50 78 51 77 52
REMARK SMILES IDX 33 54 65 55 45 56 64 57 46 58 49 59 63 60 82 61 47 62 48 63
REMARK SMILES IDX 62 65 83 66 50 67 34 68 35 69 43 70 36 71 37 72 41 73 44 74
REMARK SMILES IDX 38 75 39 76 42 77 40 78 66 79 67 80 75 81 68 82 69 83 73 84
REMARK SMILES IDX 76 85 70 86 71 87 74 88 72 89 51 90 52 91 60 92 53 93 54 94
REMARK SMILES IDX 58 95 61 96 55 97 56 98 59 99 57 100
REMARK H PARENT 81 53 49 64
REMARK Flexibility Score: inf
ROOT
ATOM      1  C   UNL A   1      38.065  31.407  34.088  1.00  0.00     0.188 C 
ENDROOT
BRANCH   1   2
ATOM      2  C   UNL A   1      37.565  31.523  32.634  1.00  0.00     0.188 C 
BRANCH   2   3
ATOM      3  O   UNL A   1      36.427  32.357  32.477  1.00  0.00    -0.376 OA
BRANCH   3   4
ATOM      4  C   UNL A   1      35.443  31.961  31.537  1.00  0.00     0.202 C 
BRANCH   4   5
ATOM      5  C   UNL A   1      35.206  32.915  30.358  1.00  0.00     0.261 C 
BRANCH   5   6
ATOM      6  O   UNL A   1      34.132  32.543  29.484  1.00  0.00    -0.460 OA
BRANCH   6   7
ATOM      7  C   UNL A   1      34.445  32.374  28.182  1.00  0.00     0.330 C 
ATOM      8  O   UNL A   1      35.446  32.796  27.623  1.00  0.00    -0.247 OA
BRANCH   7   9
ATOM      9  C   UNL A   1      33.496  31.451  27.521  1.00  0.00     0.094 C 
ATOM     10  C   UNL A   1      33.833  30.272  26.970  1.00  0.00     0.015 C 
BRANCH  10  11
ATOM     11  C   UNL A   1      32.889  29.407  26.241  1.00  0.00    -0.024 A 
ATOM     12  C   UNL A   1      31.048  29.097  24.660  1.00  0.00    -0.047 A 
ATOM     13  C   UNL A   1      31.955  29.929  25.334  1.00  0.00     0.011 A 
ATOM     14  C   UNL A   1      31.090  27.717  24.893  1.00  0.00     0.016 A 
ATOM     15  C   UNL A   1      32.054  27.165  25.747  1.00  0.00     0.023 A 
ATOM     16  C   UNL A   1      32.951  28.018  26.412  1.00  0.00     0.020 A 
BRANCH  12  17
ATOM     17  C   UNL A   1      30.031  29.684  23.712  1.00  0.00     0.032 C 
ATOM     18  C   UNL A   1      30.430  29.518  22.252  1.00  0.00     0.009 C 
ENDBRANCH  12  17
BRANCH  15  19
ATOM     19  C   UNL A   1      32.129  25.700  26.032  1.00  0.00     0.193 C 
ATOM     20  O   UNL A   1      31.387  25.199  26.874  1.00  0.00    -0.289 OA
BRANCH  19  21
ATOM     21  C   UNL A   1      33.034  24.799  25.283  1.00  0.00     0.022 A 
ATOM     22  C   UNL A   1      34.373  24.727  25.684  1.00  0.00     0.012 A 
ATOM     23  C   UNL A   1      32.587  24.051  24.189  1.00  0.00     0.012 A 
ATOM     24  C   UNL A   1      35.251  23.868  25.023  1.00  0.00     0.001 A 
ATOM     25  C   UNL A   1      33.470  23.190  23.533  1.00  0.00     0.001 A 
ATOM     26  C   UNL A   1      34.797  23.094  23.955  1.00  0.00     0.000 A 
ENDBRANCH  19  21
ENDBRANCH  15  19
ENDBRANCH  10  11
ENDBRANCH   7   9
ENDBRANCH   6   7
ENDBRANCH   5   6
ENDBRANCH   4   5
ENDBRANCH   3   4
ENDBRANCH   2   3
ENDBRANCH   1   2
BRANCH   1  27
ATOM     27  O   UNL A   1      38.503  32.575  34.766  1.00  0.00    -0.377 OA
BRANCH  27  28
ATOM     28  C   UNL A   1      39.622  33.306  34.268  1.00  0.00     0.188 C 
BRANCH  28  29
ATOM     29  C   UNL A   1      40.390  34.313  35.157  1.00  0.00     0.188 C 
BRANCH  29  30
ATOM     30  O   UNL A   1      41.801  34.194  35.098  1.00  0.00    -0.376 OA
BRANCH  30  31
ATOM     31  C   UNL A   1      42.553  35.299  35.569  1.00  0.00     0.202 C 
BRANCH  31  32
ATOM     32  C   UNL A   1      43.710  35.754  34.670  1.00  0.00     0.261 C 
BRANCH  32  33
ATOM     33  O   UNL A   1      45.022  35.316  35.062  1.00  0.00    -0.460 OA
BRANCH  33  34
ATOM     34  C   UNL A   1      45.994  35.308  34.124  1.00  0.00     0.338 C 
ATOM     35  O   UNL A   1      46.974  36.029  34.063  1.00  0.00    -0.246 OA
BRANCH  34  36
ATOM     36  C   UNL A   1      45.751  34.131  33.265  1.00  0.00     0.060 A 
ATOM     37  C   UNL A   1      45.599  32.864  33.847  1.00  0.00     0.016 A 
ATOM     38  C   UNL A   1      45.622  34.294  31.884  1.00  0.00     0.016 A 
ATOM     39  C   UNL A   1      45.310  31.757  33.044  1.00  0.00     0.010 A 
ATOM     40  C   UNL A   1      45.358  33.183  31.082  1.00  0.00     0.010 A 
ATOM     41  C   UNL A   1      45.213  31.907  31.655  1.00  0.00    -0.014 A 
BRANCH  41  42
ATOM     42  C   UNL A   1      45.098  30.726  30.765  1.00  0.00     0.031 A 
ATOM     43  C   UNL A   1      43.729  30.279  30.343  1.00  0.00     0.074 A 
ATOM     44  C   UNL A   1      46.185  30.039  30.372  1.00  0.00     0.049 A 
ATOM     45  N   UNL A   1      43.367  29.206  29.687  1.00  0.00    -0.248 NA
ATOM     46  C   UNL A   1      42.615  31.163  30.717  1.00  0.00     0.031 C 
ATOM     47  C   UNL A   1      47.567  30.397  30.677  1.00  0.00     0.029 A 
ATOM     48  N   UNL A   1      46.288  28.876  29.649  1.00  0.00    -0.354 N 
ATOM     49  C   UNL A   1      41.985  29.281  29.579  1.00  0.00     0.074 A 
ATOM     50  C   UNL A   1      41.571  30.490  30.257  1.00  0.00     0.031 C 
ATOM     51  C   UNL A   1      48.382  29.461  30.161  1.00  0.00     0.029 A 
ATOM     52  C   UNL A   1      47.576  28.415  29.533  1.00  0.00     0.049 A 
ATOM     53  H   UNL A   1      45.513  28.416  29.253  1.00  0.00     0.167 HD
ATOM     54  C   UNL A   1      41.139  28.420  28.965  1.00  0.00     0.037 A 
ATOM     55  C   UNL A   1      48.043  27.262  29.013  1.00  0.00     0.037 A 
ATOM     56  C   UNL A   1      41.555  27.211  28.305  1.00  0.00     0.049 A 
ATOM     57  C   UNL A   1      47.071  26.262  28.435  1.00  0.00     0.074 A 
ATOM     58  C   UNL A   1      40.779  26.281  27.639  1.00  0.00     0.029 A 
ATOM     59  N   UNL A   1      42.865  26.756  28.245  1.00  0.00    -0.354 N 
ATOM     60  N   UNL A   1      45.769  26.348  28.309  1.00  0.00    -0.248 NA
ATOM     61  C   UNL A   1      47.636  25.000  27.934  1.00  0.00     0.031 C 
ATOM     62  C   UNL A   1      41.609  25.231  27.230  1.00  0.00     0.029 A 
ATOM     63  C   UNL A   1      42.912  25.537  27.587  1.00  0.00     0.049 A 
ATOM     64  H   UNL A   1      43.645  27.228  28.616  1.00  0.00     0.167 HD
ATOM     65  C   UNL A   1      45.363  25.170  27.693  1.00  0.00     0.074 A 
ATOM     66  C   UNL A   1      46.559  24.390  27.459  1.00  0.00     0.031 C 
ATOM     67  C   UNL A   1      44.112  24.772  27.353  1.00  0.00     0.037 A 
BRANCH  54  68
ATOM     68  C   UNL A   1      39.673  28.741  29.014  1.00  0.00     0.064 A 
ATOM     69  C   UNL A   1      38.988  29.240  27.896  1.00  0.00     0.173 A 
ATOM     70  C   UNL A   1      38.939  28.526  30.191  1.00  0.00     0.173 A 
ATOM     71  F   UNL A   1      39.645  29.476  26.750  1.00  0.00    -0.203 F 
ATOM     72  C   UNL A   1      37.631  29.544  27.964  1.00  0.00     0.198 A 
ATOM     73  C   UNL A   1      37.576  28.800  30.246  1.00  0.00     0.198 A 
ATOM     74  F   UNL A   1      39.545  28.046  31.287  1.00  0.00    -0.203 F 
ATOM     75  F   UNL A   1      37.010  30.073  26.902  1.00  0.00    -0.200 F 
ATOM     76  C   UNL A   1      36.925  29.317  29.136  1.00  0.00     0.200 A 
ATOM     77  F   UNL A   1      36.893  28.568  31.375  1.00  0.00    -0.200 F 
ATOM     78  F   UNL A   1      35.618  29.608  29.200  1.00  0.00    -0.200 F 
ENDBRANCH  54  68
BRANCH  55  79
ATOM     79  C   UNL A   1      49.501  26.971  29.036  1.00  0.00     0.064 A 
ATOM     80  C   UNL A   1      50.067  26.204  30.065  1.00  0.00     0.173 A 
ATOM     81  C   UNL A   1      50.362  27.467  28.046  1.00  0.00     0.173 A 
ATOM     82  F   UNL A   1      49.291  25.733  31.052  1.00  0.00    -0.203 F 
ATOM     83  C   UNL A   1      51.438  25.956  30.108  1.00  0.00     0.198 A 
ATOM     84  C   UNL A   1      51.728  27.193  28.074  1.00  0.00     0.198 A 
ATOM     85  F   UNL A   1      49.875  28.214  27.045  1.00  0.00    -0.203 F 
ATOM     86  F   UNL A   1      51.958  25.258  31.128  1.00  0.00    -0.200 F 
ATOM     87  C   UNL A   1      52.266  26.443  29.109  1.00  0.00     0.200 A 
ATOM     88  F   UNL A   1      52.524  27.660  27.102  1.00  0.00    -0.200 F 
ATOM     89  F   UNL A   1      53.584  26.200  29.150  1.00  0.00    -0.200 F 
ENDBRANCH  55  79
BRANCH  67  90
ATOM     90  C   UNL A   1      43.966  23.445  26.663  1.00  0.00     0.064 A 
ATOM     91  C   UNL A   1      43.365  22.347  27.295  1.00  0.00     0.173 A 
ATOM     92  C   UNL A   1      44.373  23.292  25.328  1.00  0.00     0.173 A 
ATOM     93  F   UNL A   1      42.971  22.436  28.574  1.00  0.00    -0.203 F 
ATOM     94  C   UNL A   1      43.193  21.140  26.622  1.00  0.00     0.198 A 
ATOM     95  C   UNL A   1      44.170  22.093  24.648  1.00  0.00     0.198 A 
ATOM     96  F   UNL A   1      44.947  24.313  24.673  1.00  0.00    -0.203 F 
ATOM     97  F   UNL A   1      42.652  20.091  27.259  1.00  0.00    -0.200 F 
ATOM     98  C   UNL A   1      43.586  21.017  25.298  1.00  0.00     0.200 A 
ATOM     99  F   UNL A   1      44.535  21.983  23.364  1.00  0.00    -0.200 F 
ATOM    100  F   UNL A   1      43.403  19.859  24.648  1.00  0.00    -0.200 F 
ENDBRANCH  67  90
ENDBRANCH  41  42
ENDBRANCH  34  36
ENDBRANCH  33  34
ENDBRANCH  32  33
ENDBRANCH  31  32
ENDBRANCH  30  31
ENDBRANCH  29  30
ENDBRANCH  28  29
ENDBRANCH  27  28
ENDBRANCH   1  27
TORSDOF 24
ENDMDL
MODEL 3
REMARK VINA RESULT:      -6.5      4.979      9.284
REMARK SMILES CCc1cc(/C=C/C(=O)OCCOCCOCCOCCOC(=O)c2ccc(-c3c4nc(c(-c5c(F)c(F)c(F)c(F)c5F)c5ccc([nH]5)c(-c5c(F)c(F)c(F)c(F)c5F)c5nc(c(-c6c(F)c(F)c(F)c(F)c6F)c6ccc3[nH]6)C=C5)C=C4)cc2)cc(C(=O)c2ccccc2)c1
REMARK SMILES IDX 15 1 14 2 13 3 12 4 11 5 10 6 8 7 9 8 7 9 6 10 5 11 3 12
REMARK SMILES IDX 4 13 98 14 89 15 88 16 2 17 1 18 90 19 91 20 92 21 93 22
REMARK SMILES IDX 97 23 94 24 96 25 95 26 16 27 17 28 18 29 19 30 20 31 21 32
REMARK SMILES IDX 22 33 23 34 24 35 25 36 26 37 87 38 27 39 86 40 28 41 29 42
REMARK SMILES IDX 30 43 80 44 31 45 85 46 79 47 81 48 32 49 84 50 78 51 77 52
REMARK SMILES IDX 33 54 65 55 45 56 64 57 46 58 49 59 63 60 82 61 47 62 48 63
REMARK SMILES IDX 62 65 83 66 50 67 34 68 35 69 43 70 36 71 37 72 41 73 44 74
REMARK SMILES IDX 38 75 39 76 42 77 40 78 66 79 67 80 75 81 68 82 69 83 73 84
REMARK SMILES IDX 76 85 70 86 71 87 74 88 72 89 51 90 52 91 60 92 53 93 54 94
REMARK SMILES IDX 58 95 61 96 55 97 56 98 59 99 57 100
REMARK H PARENT 81 53 49 64
REMARK Flexibility Score: inf
ROOT
ATOM      1  C   UNL A   1      42.041  19.381  26.062  1.00  0.00     0.188 C 
ENDROOT
BRANCH   1   2
ATOM      2  C   UNL A   1      43.287  18.705  25.455  1.00  0.00     0.188 C 
BRANCH   2   3
ATOM      3  O   UNL A   1      44.071  19.561  24.638  1.00  0.00    -0.376 OA
BRANCH   3   4
ATOM      4  C   UNL A   1      45.398  19.834  25.052  1.00  0.00     0.202 C 
BRANCH   4   5
ATOM      5  C   UNL A   1      45.756  21.312  25.257  1.00  0.00     0.261 C 
BRANCH   5   6
ATOM      6  O   UNL A   1      45.527  22.156  24.119  1.00  0.00    -0.460 OA
BRANCH   6   7
ATOM      7  C   UNL A   1      44.473  22.996  24.194  1.00  0.00     0.330 C 
ATOM      8  O   UNL A   1      43.336  22.758  23.816  1.00  0.00    -0.247 OA
BRANCH   7   9
ATOM      9  C   UNL A   1      44.816  24.213  24.963  1.00  0.00     0.094 C 
ATOM     10  C   UNL A   1      44.216  25.406  24.815  1.00  0.00     0.015 C 
BRANCH  10  11
ATOM     11  C   UNL A   1      44.631  26.628  25.527  1.00  0.00    -0.024 A 
ATOM     12  C   UNL A   1      44.104  28.692  26.730  1.00  0.00    -0.047 A 
ATOM     13  C   UNL A   1      43.697  27.522  26.071  1.00  0.00     0.011 A 
ATOM     14  C   UNL A   1      45.474  28.959  26.856  1.00  0.00     0.016 A 
ATOM     15  C   UNL A   1      46.426  28.050  26.376  1.00  0.00     0.023 A 
ATOM     16  C   UNL A   1      45.994  26.886  25.718  1.00  0.00     0.020 A 
BRANCH  12  17
ATOM     17  C   UNL A   1      43.082  29.656  27.280  1.00  0.00     0.032 C 
ATOM     18  C   UNL A   1      43.609  30.453  28.464  1.00  0.00     0.009 C 
ENDBRANCH  12  17
BRANCH  15  19
ATOM     19  C   UNL A   1      47.896  28.299  26.479  1.00  0.00     0.193 C 
ATOM     20  O   UNL A   1      48.329  29.449  26.440  1.00  0.00    -0.289 OA
BRANCH  19  21
ATOM     21  C   UNL A   1      48.865  27.201  26.694  1.00  0.00     0.022 A 
ATOM     22  C   UNL A   1      48.613  26.290  27.726  1.00  0.00     0.012 A 
ATOM     23  C   UNL A   1      50.018  27.075  25.911  1.00  0.00     0.012 A 
ATOM     24  C   UNL A   1      49.487  25.224  27.941  1.00  0.00     0.001 A 
ATOM     25  C   UNL A   1      50.887  26.003  26.129  1.00  0.00     0.001 A 
ATOM     26  C   UNL A   1      50.617  25.077  27.138  1.00  0.00     0.000 A 
ENDBRANCH  19  21
ENDBRANCH  15  19
ENDBRANCH  10  11
ENDBRANCH   7   9
ENDBRANCH   6   7
ENDBRANCH   5   6
ENDBRANCH   4   5
ENDBRANCH   3   4
ENDBRANCH   2   3
ENDBRANCH   1   2
BRANCH   1  27
ATOM     27  O   UNL A   1      42.210  20.410  27.027  1.00  0.00    -0.377 OA
BRANCH  27  28
ATOM     28  C   UNL A   1      41.308  21.514  27.051  1.00  0.00     0.188 C 
BRANCH  28  29
ATOM     29  C   UNL A   1      41.402  22.657  26.013  1.00  0.00     0.188 C 
BRANCH  29  30
ATOM     30  O   UNL A   1      40.795  23.872  26.419  1.00  0.00    -0.376 OA
BRANCH  30  31
ATOM     31  C   UNL A   1      40.186  23.883  27.699  1.00  0.00     0.202 C 
BRANCH  31  32
ATOM     32  C   UNL A   1      39.664  25.244  28.180  1.00  0.00     0.261 C 
BRANCH  32  33
ATOM     33  O   UNL A   1      40.441  26.390  27.792  1.00  0.00    -0.460 OA
BRANCH  33  34
ATOM     34  C   UNL A   1      40.576  27.396  28.683  1.00  0.00     0.338 C 
ATOM     35  O   UNL A   1      39.779  28.283  28.927  1.00  0.00    -0.246 OA
BRANCH  34  36
ATOM     36  C   UNL A   1      41.807  27.124  29.453  1.00  0.00     0.060 A 
ATOM     37  C   UNL A   1      42.042  27.810  30.654  1.00  0.00     0.016 A 
ATOM     38  C   UNL A   1      42.703  26.150  29.010  1.00  0.00     0.016 A 
ATOM     39  C   UNL A   1      43.175  27.514  31.416  1.00  0.00     0.010 A 
ATOM     40  C   UNL A   1      43.847  25.874  29.760  1.00  0.00     0.010 A 
ATOM     41  C   UNL A   1      44.097  26.563  30.960  1.00  0.00    -0.014 A 
BRANCH  41  42
ATOM     42  C   UNL A   1      45.396  26.367  31.647  1.00  0.00     0.031 A 
ATOM     43  C   UNL A   1      46.553  27.238  31.253  1.00  0.00     0.074 A 
ATOM     44  C   UNL A   1      45.559  25.406  32.574  1.00  0.00     0.049 A 
ATOM     45  N   UNL A   1      47.810  27.168  31.609  1.00  0.00    -0.248 NA
ATOM     46  C   UNL A   1      46.247  28.339  30.327  1.00  0.00     0.031 C 
ATOM     47  C   UNL A   1      44.505  24.527  33.073  1.00  0.00     0.029 A 
ATOM     48  N   UNL A   1      46.687  24.995  33.240  1.00  0.00    -0.354 N 
ATOM     49  C   UNL A   1      48.447  28.206  30.942  1.00  0.00     0.074 A 
ATOM     50  C   UNL A   1      47.444  28.876  30.142  1.00  0.00     0.031 C 
ATOM     51  C   UNL A   1      45.041  23.665  33.955  1.00  0.00     0.029 A 
ATOM     52  C   UNL A   1      46.482  23.901  34.044  1.00  0.00     0.049 A 
ATOM     53  H   UNL A   1      47.560  25.442  33.150  1.00  0.00     0.167 HD
ATOM     54  C   UNL A   1      49.750  28.569  30.997  1.00  0.00     0.037 A 
ATOM     55  C   UNL A   1      47.363  23.156  34.740  1.00  0.00     0.037 A 
ATOM     56  C   UNL A   1      50.746  27.889  31.782  1.00  0.00     0.049 A 
ATOM     57  C   UNL A   1      48.830  23.510  34.696  1.00  0.00     0.074 A 
ATOM     58  C   UNL A   1      52.089  28.188  31.919  1.00  0.00     0.029 A 
ATOM     59  N   UNL A   1      50.507  26.758  32.551  1.00  0.00    -0.354 N 
ATOM     60  N   UNL A   1      49.425  24.508  34.089  1.00  0.00    -0.248 NA
ATOM     61  C   UNL A   1      49.749  22.626  35.430  1.00  0.00     0.031 C 
ATOM     62  C   UNL A   1      52.677  27.203  32.719  1.00  0.00     0.029 A 
ATOM     63  C   UNL A   1      51.689  26.326  33.133  1.00  0.00     0.049 A 
ATOM     64  H   UNL A   1      49.630  26.328  32.666  1.00  0.00     0.167 HD
ATOM     65  C   UNL A   1      50.778  24.389  34.387  1.00  0.00     0.074 A 
ATOM     66  C   UNL A   1      50.915  23.228  35.241  1.00  0.00     0.031 C 
ATOM     67  C   UNL A   1      51.811  25.171  33.988  1.00  0.00     0.037 A 
BRANCH  54  68
ATOM     68  C   UNL A   1      50.177  29.734  30.152  1.00  0.00     0.064 A 
ATOM     69  C   UNL A   1      49.900  31.058  30.524  1.00  0.00     0.173 A 
ATOM     70  C   UNL A   1      50.893  29.524  28.963  1.00  0.00     0.173 A 
ATOM     71  F   UNL A   1      49.208  31.315  31.645  1.00  0.00    -0.203 F 
ATOM     72  C   UNL A   1      50.293  32.126  29.721  1.00  0.00     0.198 A 
ATOM     73  C   UNL A   1      51.313  30.594  28.180  1.00  0.00     0.198 A 
ATOM     74  F   UNL A   1      51.188  28.278  28.563  1.00  0.00    -0.203 F 
ATOM     75  F   UNL A   1      49.968  33.378  30.068  1.00  0.00    -0.200 F 
ATOM     76  C   UNL A   1      51.004  31.893  28.554  1.00  0.00     0.200 A 
ATOM     77  F   UNL A   1      52.011  30.368  27.059  1.00  0.00    -0.200 F 
ATOM     78  F   UNL A   1      51.384  32.922  27.783  1.00  0.00    -0.200 F 
ENDBRANCH  54  68
BRANCH  55  79
ATOM     79  C   UNL A   1      46.893  21.980  35.520  1.00  0.00     0.064 A 
ATOM     80  C   UNL A   1      46.635  20.755  34.890  1.00  0.00     0.173 A 
ATOM     81  C   UNL A   1      46.674  22.060  36.903  1.00  0.00     0.173 A 
ATOM     82  F   UNL A   1      46.798  20.636  33.565  1.00  0.00    -0.203 F 
ATOM     83  C   UNL A   1      46.162  19.659  35.612  1.00  0.00     0.198 A 
ATOM     84  C   UNL A   1      46.231  20.956  37.629  1.00  0.00     0.198 A 
ATOM     85  F   UNL A   1      46.897  23.211  37.554  1.00  0.00    -0.203 F 
ATOM     86  F   UNL A   1      45.879  18.513  34.976  1.00  0.00    -0.200 F 
ATOM     87  C   UNL A   1      45.969  19.758  36.981  1.00  0.00     0.200 A 
ATOM     88  F   UNL A   1      46.054  21.053  38.953  1.00  0.00    -0.200 F 
ATOM     89  F   UNL A   1      45.520  18.703  37.675  1.00  0.00    -0.200 F 
ENDBRANCH  55  79
BRANCH  67  90
ATOM     90  C   UNL A   1      53.184  24.823  34.492  1.00  0.00     0.064 A 
ATOM     91  C   UNL A   1      54.090  24.088  33.714  1.00  0.00     0.173 A 
ATOM     92  C   UNL A   1      53.620  25.288  35.742  1.00  0.00     0.173 A 
ATOM     93  F   UNL A   1      53.719  23.607  32.518  1.00  0.00    -0.203 F 
ATOM     94  C   UNL A   1      55.376  23.817  34.178  1.00  0.00     0.198 A 
ATOM     95  C   UNL A   1      54.916  25.043  36.189  1.00  0.00     0.198 A 
ATOM     96  F   UNL A   1      52.795  26.003  36.524  1.00  0.00    -0.203 F 
ATOM     97  F   UNL A   1      56.212  23.079  33.434  1.00  0.00    -0.200 F 
ATOM     98  C   UNL A   1      55.790  24.303  35.408  1.00  0.00     0.200 A 
ATOM     99  F   UNL A   1      55.319  25.529  37.370  1.00  0.00    -0.200 F 
ATOM    100  F   UNL A   1      57.034  24.056  35.844  1.00  0.00    -0.200 F 
ENDBRANCH  67  90
ENDBRANCH  41  42
ENDBRANCH  34  36
ENDBRANCH  33  34
ENDBRANCH  32  33
ENDBRANCH  31  32
ENDBRANCH  30  31
ENDBRANCH  29  30
ENDBRANCH  28  29
ENDBRANCH  27  28
ENDBRANCH   1  27
TORSDOF 24
ENDMDL
