MODEL 1
REMARK VINA RESULT:     -10.8      0.000      0.000
REMARK SMILES C[C@H](C(=O)OCCOCCOCCOCCOC(=O)c1ccc(-c2c3nc(c(-c4c(F)c(F)c(F)c(F)c4F)c4ccc([nH]4)c(-c4c(F)c(F)c(F)c(F)c4F)c4nc(c(-c5c(F)c(F)c(F)c(F)c5F)c5ccc2[nH]5)C=C4)C=C3)cc1)c1cccc(C(=O)c2ccccc2)c1
REMARK SMILES IDX 10 1 9 2 8 3 7 4 6 5 5 6 3 7 4 8 2 9 1 10 83 11 84 12 96 13
REMARK SMILES IDX 85 14 87 15 86 16 88 17 89 18 90 19 91 20 95 21 92 22 94 23
REMARK SMILES IDX 93 24 11 25 12 26 13 27 14 28 15 29 16 30 17 31 18 32 19 33
REMARK SMILES IDX 20 34 21 35 82 36 22 37 81 38 23 39 24 40 25 41 75 42 26 43
REMARK SMILES IDX 80 44 74 45 76 46 27 47 79 48 73 49 72 50 28 52 60 53 40 54
REMARK SMILES IDX 59 55 41 56 44 57 58 58 77 59 42 60 43 61 57 63 78 64 45 65
REMARK SMILES IDX 29 66 30 67 38 68 31 69 32 70 36 71 39 72 33 73 34 74 37 75
REMARK SMILES IDX 35 76 61 77 62 78 70 79 63 80 64 81 68 82 71 83 65 84 66 85
REMARK SMILES IDX 69 86 67 87 46 88 47 89 55 90 48 91 49 92 53 93 56 94 50 95
REMARK SMILES IDX 51 96 54 97 52 98
REMARK H PARENT 76 51 44 62
REMARK Flexibility Score: inf
ROOT
ATOM      1  C   UNL A   1      39.257  21.150  25.747  1.00  0.00     0.188 C 
ENDROOT
BRANCH   1   2
ATOM      2  C   UNL A   1      38.318  22.368  25.793  1.00  0.00     0.188 C 
BRANCH   2   3
ATOM      3  O   UNL A   1      37.562  22.593  24.626  1.00  0.00    -0.376 OA
BRANCH   3   4
ATOM      4  C   UNL A   1      36.153  22.468  24.619  1.00  0.00     0.202 C 
BRANCH   4   5
ATOM      5  C   UNL A   1      35.167  23.480  23.990  1.00  0.00     0.261 C 
BRANCH   5   6
ATOM      6  O   UNL A   1      33.761  23.257  24.207  1.00  0.00    -0.463 OA
BRANCH   6   7
ATOM      7  C   UNL A   1      33.128  23.990  25.147  1.00  0.00     0.313 C 
ATOM      8  O   UNL A   1      33.649  24.266  26.223  1.00  0.00    -0.252 OA
BRANCH   7   9
ATOM      9  C   UNL A   1      31.719  24.499  24.765  1.00  0.00     0.126 C 
ATOM     10  C   UNL A   1      30.864  24.406  26.038  1.00  0.00     0.025 C 
BRANCH   9  11
ATOM     11  C   UNL A   1      31.533  25.833  24.005  1.00  0.00    -0.033 A 
ATOM     12  C   UNL A   1      32.653  26.456  23.424  1.00  0.00     0.004 A 
ATOM     13  C   UNL A   1      30.270  26.465  23.808  1.00  0.00     0.016 A 
ATOM     14  C   UNL A   1      32.535  27.670  22.737  1.00  0.00     0.001 A 
ATOM     15  C   UNL A   1      30.152  27.732  23.194  1.00  0.00     0.023 A 
ATOM     16  C   UNL A   1      31.299  28.313  22.638  1.00  0.00     0.012 A 
BRANCH  15  17
ATOM     17  C   UNL A   1      28.878  28.518  23.109  1.00  0.00     0.193 C 
ATOM     18  O   UNL A   1      27.825  27.928  23.363  1.00  0.00    -0.289 OA
BRANCH  17  19
ATOM     19  C   UNL A   1      28.771  29.950  22.679  1.00  0.00     0.022 A 
ATOM     20  C   UNL A   1      28.952  30.949  23.650  1.00  0.00     0.012 A 
ATOM     21  C   UNL A   1      28.399  30.348  21.392  1.00  0.00     0.012 A 
ATOM     22  C   UNL A   1      28.781  32.302  23.336  1.00  0.00     0.001 A 
ATOM     23  C   UNL A   1      28.215  31.700  21.077  1.00  0.00     0.001 A 
ATOM     24  C   UNL A   1      28.408  32.676  22.048  1.00  0.00     0.000 A 
ENDBRANCH  17  19
ENDBRANCH  15  17
ENDBRANCH   9  11
ENDBRANCH   7   9
ENDBRANCH   6   7
ENDBRANCH   5   6
ENDBRANCH   4   5
ENDBRANCH   3   4
ENDBRANCH   2   3
ENDBRANCH   1   2
BRANCH   1  25
ATOM     25  O   UNL A   1      40.518  21.239  26.362  1.00  0.00    -0.377 OA
BRANCH  25  26
ATOM     26  C   UNL A   1      41.031  20.006  26.790  1.00  0.00     0.188 C 
BRANCH  26  27
ATOM     27  C   UNL A   1      42.440  19.753  26.251  1.00  0.00     0.188 C 
BRANCH  27  28
ATOM     28  O   UNL A   1      43.005  20.489  25.173  1.00  0.00    -0.376 OA
BRANCH  28  29
ATOM     29  C   UNL A   1      43.902  21.572  25.358  1.00  0.00     0.202 C 
BRANCH  29  30
ATOM     30  C   UNL A   1      43.910  22.823  24.461  1.00  0.00     0.261 C 
BRANCH  30  31
ATOM     31  O   UNL A   1      43.172  23.949  24.932  1.00  0.00    -0.460 OA
BRANCH  31  32
ATOM     32  C   UNL A   1      43.914  25.024  25.256  1.00  0.00     0.338 C 
ATOM     33  O   UNL A   1      44.925  25.434  24.705  1.00  0.00    -0.246 OA
BRANCH  32  34
ATOM     34  C   UNL A   1      43.191  25.774  26.293  1.00  0.00     0.060 A 
ATOM     35  C   UNL A   1      43.522  27.125  26.458  1.00  0.00     0.016 A 
ATOM     36  C   UNL A   1      42.199  25.177  27.075  1.00  0.00     0.016 A 
ATOM     37  C   UNL A   1      42.860  27.890  27.401  1.00  0.00     0.010 A 
ATOM     38  C   UNL A   1      41.574  25.931  28.069  1.00  0.00     0.010 A 
ATOM     39  C   UNL A   1      41.929  27.280  28.247  1.00  0.00    -0.014 A 
BRANCH  39  40
ATOM     40  C   UNL A   1      41.555  28.004  29.476  1.00  0.00     0.031 A 
ATOM     41  C   UNL A   1      40.314  28.847  29.427  1.00  0.00     0.074 A 
ATOM     42  C   UNL A   1      42.242  27.828  30.615  1.00  0.00     0.049 A 
ATOM     43  N   UNL A   1      39.753  29.556  30.369  1.00  0.00    -0.248 NA
ATOM     44  C   UNL A   1      39.602  28.886  28.137  1.00  0.00     0.031 C 
ATOM     45  C   UNL A   1      43.410  26.964  30.771  1.00  0.00     0.029 A 
ATOM     46  N   UNL A   1      42.044  28.362  31.860  1.00  0.00    -0.354 N 
ATOM     47  C   UNL A   1      38.630  30.128  29.784  1.00  0.00     0.074 A 
ATOM     48  C   UNL A   1      38.599  29.706  28.403  1.00  0.00     0.031 C 
ATOM     49  C   UNL A   1      43.834  27.035  32.045  1.00  0.00     0.029 A 
ATOM     50  C   UNL A   1      42.985  27.973  32.778  1.00  0.00     0.049 A 
ATOM     51  H   UNL A   1      41.298  28.968  32.075  1.00  0.00     0.167 HD
ATOM     52  C   UNL A   1      37.707  30.931  30.357  1.00  0.00     0.037 A 
ATOM     53  C   UNL A   1      43.146  28.359  34.058  1.00  0.00     0.037 A 
ATOM     54  C   UNL A   1      37.763  31.346  31.733  1.00  0.00     0.049 A 
ATOM     55  C   UNL A   1      42.156  29.333  34.646  1.00  0.00     0.074 A 
ATOM     56  C   UNL A   1      36.886  32.158  32.426  1.00  0.00     0.029 A 
ATOM     57  N   UNL A   1      38.767  30.984  32.621  1.00  0.00    -0.354 N 
ATOM     58  N   UNL A   1      41.088  29.865  34.097  1.00  0.00    -0.248 NA
ATOM     59  C   UNL A   1      42.391  29.759  36.031  1.00  0.00     0.031 C 
ATOM     60  C   UNL A   1      37.397  32.344  33.714  1.00  0.00     0.029 A 
ATOM     61  C   UNL A   1      38.552  31.587  33.848  1.00  0.00     0.049 A 
ATOM     62  H   UNL A   1      39.521  30.388  32.409  1.00  0.00     0.167 HD
ATOM     63  C   UNL A   1      40.508  30.659  35.076  1.00  0.00     0.074 A 
ATOM     64  C   UNL A   1      41.335  30.528  36.258  1.00  0.00     0.031 C 
ATOM     65  C   UNL A   1      39.391  31.428  35.009  1.00  0.00     0.037 A 
BRANCH  52  66
ATOM     66  C   UNL A   1      36.602  31.453  29.485  1.00  0.00     0.064 A 
ATOM     67  C   UNL A   1      35.599  30.616  28.970  1.00  0.00     0.173 A 
ATOM     68  C   UNL A   1      36.543  32.817  29.166  1.00  0.00     0.173 A 
ATOM     69  F   UNL A   1      35.621  29.300  29.226  1.00  0.00    -0.203 F 
ATOM     70  C   UNL A   1      34.596  31.123  28.147  1.00  0.00     0.198 A 
ATOM     71  C   UNL A   1      35.520  33.326  28.371  1.00  0.00     0.198 A 
ATOM     72  F   UNL A   1      37.479  33.661  29.627  1.00  0.00    -0.203 F 
ATOM     73  F   UNL A   1      33.680  30.297  27.622  1.00  0.00    -0.200 F 
ATOM     74  C   UNL A   1      34.552  32.478  27.855  1.00  0.00     0.200 A 
ATOM     75  F   UNL A   1      35.474  34.638  28.100  1.00  0.00    -0.200 F 
ATOM     76  F   UNL A   1      33.582  32.966  27.070  1.00  0.00    -0.200 F 
ENDBRANCH  52  66
BRANCH  53  77
ATOM     77  C   UNL A   1      44.288  27.845  34.858  1.00  0.00     0.064 A 
ATOM     78  C   UNL A   1      45.514  28.521  34.894  1.00  0.00     0.173 A 
ATOM     79  C   UNL A   1      44.184  26.650  35.587  1.00  0.00     0.173 A 
ATOM     80  F   UNL A   1      45.674  29.657  34.198  1.00  0.00    -0.203 F 
ATOM     81  C   UNL A   1      46.598  28.013  35.610  1.00  0.00     0.198 A 
ATOM     82  C   UNL A   1      45.257  26.160  36.330  1.00  0.00     0.198 A 
ATOM     83  F   UNL A   1      43.033  25.961  35.588  1.00  0.00    -0.203 F 
ATOM     84  F   UNL A   1      47.774  28.656  35.587  1.00  0.00    -0.200 F 
ATOM     85  C   UNL A   1      46.467  26.837  36.332  1.00  0.00     0.200 A 
ATOM     86  F   UNL A   1      45.118  25.032  37.038  1.00  0.00    -0.200 F 
ATOM     87  F   UNL A   1      47.506  26.352  37.024  1.00  0.00    -0.200 F 
ENDBRANCH  53  77
BRANCH  65  88
ATOM     88  C   UNL A   1      38.976  32.148  36.261  1.00  0.00     0.064 A 
ATOM     89  C   UNL A   1      39.390  33.459  36.535  1.00  0.00     0.173 A 
ATOM     90  C   UNL A   1      38.111  31.528  37.177  1.00  0.00     0.173 A 
ATOM     91  F   UNL A   1      40.227  34.092  35.697  1.00  0.00    -0.203 F 
ATOM     92  C   UNL A   1      38.980  34.111  37.694  1.00  0.00     0.198 A 
ATOM     93  C   UNL A   1      37.672  32.196  38.315  1.00  0.00     0.198 A 
ATOM     94  F   UNL A   1      37.675  30.277  36.957  1.00  0.00    -0.203 F 
ATOM     95  F   UNL A   1      39.434  35.343  37.963  1.00  0.00    -0.200 F 
ATOM     96  C   UNL A   1      38.115  33.484  38.577  1.00  0.00     0.200 A 
ATOM     97  F   UNL A   1      36.819  31.595  39.156  1.00  0.00    -0.200 F 
ATOM     98  F   UNL A   1      37.713  34.117  39.688  1.00  0.00    -0.200 F 
ENDBRANCH  65  88
ENDBRANCH  39  40
ENDBRANCH  32  34
ENDBRANCH  31  32
ENDBRANCH  30  31
ENDBRANCH  29  30
ENDBRANCH  28  29
ENDBRANCH  27  28
ENDBRANCH  26  27
ENDBRANCH  25  26
ENDBRANCH   1  25
TORSDOF 23
ENDMDL
MODEL 2
REMARK VINA RESULT:     -10.5      4.921     10.234
REMARK SMILES C[C@H](C(=O)OCCOCCOCCOCCOC(=O)c1ccc(-c2c3nc(c(-c4c(F)c(F)c(F)c(F)c4F)c4ccc([nH]4)c(-c4c(F)c(F)c(F)c(F)c4F)c4nc(c(-c5c(F)c(F)c(F)c(F)c5F)c5ccc2[nH]5)C=C4)C=C3)cc1)c1cccc(C(=O)c2ccccc2)c1
REMARK SMILES IDX 10 1 9 2 8 3 7 4 6 5 5 6 3 7 4 8 2 9 1 10 83 11 84 12 96 13
REMARK SMILES IDX 85 14 87 15 86 16 88 17 89 18 90 19 91 20 95 21 92 22 94 23
REMARK SMILES IDX 93 24 11 25 12 26 13 27 14 28 15 29 16 30 17 31 18 32 19 33
REMARK SMILES IDX 20 34 21 35 82 36 22 37 81 38 23 39 24 40 25 41 75 42 26 43
REMARK SMILES IDX 80 44 74 45 76 46 27 47 79 48 73 49 72 50 28 52 60 53 40 54
REMARK SMILES IDX 59 55 41 56 44 57 58 58 77 59 42 60 43 61 57 63 78 64 45 65
REMARK SMILES IDX 29 66 30 67 38 68 31 69 32 70 36 71 39 72 33 73 34 74 37 75
REMARK SMILES IDX 35 76 61 77 62 78 70 79 63 80 64 81 68 82 71 83 65 84 66 85
REMARK SMILES IDX 69 86 67 87 46 88 47 89 55 90 48 91 49 92 53 93 56 94 50 95
REMARK SMILES IDX 51 96 54 97 52 98
REMARK H PARENT 76 51 44 62
REMARK Flexibility Score: inf
ROOT
ATOM      1  C   UNL A   1      45.447  20.811  24.650  1.00  0.00     0.188 C 
ENDROOT
BRANCH   1   2
ATOM      2  C   UNL A   1      44.988  22.053  25.433  1.00  0.00     0.188 C 
BRANCH   2   3
ATOM      3  O   UNL A   1      45.375  23.292  24.884  1.00  0.00    -0.376 OA
BRANCH   3   4
ATOM      4  C   UNL A   1      46.643  23.475  24.285  1.00  0.00     0.202 C 
BRANCH   4   5
ATOM      5  C   UNL A   1      47.492  24.765  24.361  1.00  0.00     0.261 C 
BRANCH   5   6
ATOM      6  O   UNL A   1      46.796  26.022  24.263  1.00  0.00    -0.463 OA
BRANCH   6   7
ATOM      7  C   UNL A   1      46.744  26.819  25.351  1.00  0.00     0.313 C 
ATOM      8  O   UNL A   1      47.609  27.657  25.592  1.00  0.00    -0.252 OA
BRANCH   7   9
ATOM      9  C   UNL A   1      45.502  26.641  26.254  1.00  0.00     0.126 C 
ATOM     10  C   UNL A   1      46.013  26.064  27.584  1.00  0.00     0.025 C 
BRANCH   9  11
ATOM     11  C   UNL A   1      44.483  27.789  26.442  1.00  0.00    -0.033 A 
ATOM     12  C   UNL A   1      43.178  27.640  25.937  1.00  0.00     0.004 A 
ATOM     13  C   UNL A   1      44.767  28.995  27.149  1.00  0.00     0.016 A 
ATOM     14  C   UNL A   1      42.225  28.657  26.073  1.00  0.00     0.001 A 
ATOM     15  C   UNL A   1      43.842  30.061  27.215  1.00  0.00     0.023 A 
ATOM     16  C   UNL A   1      42.559  29.864  26.691  1.00  0.00     0.012 A 
BRANCH  15  17
ATOM     17  C   UNL A   1      44.144  31.410  27.797  1.00  0.00     0.193 C 
ATOM     18  O   UNL A   1      44.442  31.462  28.992  1.00  0.00    -0.289 OA
BRANCH  17  19
ATOM     19  C   UNL A   1      44.050  32.711  27.059  1.00  0.00     0.022 A 
ATOM     20  C   UNL A   1      43.754  33.870  27.796  1.00  0.00     0.012 A 
ATOM     21  C   UNL A   1      44.136  32.823  25.669  1.00  0.00     0.012 A 
ATOM     22  C   UNL A   1      43.566  35.102  27.158  1.00  0.00     0.001 A 
ATOM     23  C   UNL A   1      43.937  34.051  25.027  1.00  0.00     0.001 A 
ATOM     24  C   UNL A   1      43.654  35.191  25.772  1.00  0.00     0.000 A 
ENDBRANCH  17  19
ENDBRANCH  15  17
ENDBRANCH   9  11
ENDBRANCH   7   9
ENDBRANCH   6   7
ENDBRANCH   5   6
ENDBRANCH   4   5
ENDBRANCH   3   4
ENDBRANCH   2   3
ENDBRANCH   1   2
BRANCH   1  25
ATOM     25  O   UNL A   1      44.541  20.181  23.780  1.00  0.00    -0.377 OA
BRANCH  25  26
ATOM     26  C   UNL A   1      44.191  18.880  24.166  1.00  0.00     0.188 C 
BRANCH  26  27
ATOM     27  C   UNL A   1      43.671  18.828  25.604  1.00  0.00     0.188 C 
BRANCH  27  28
ATOM     28  O   UNL A   1      42.297  18.978  25.941  1.00  0.00    -0.376 OA
BRANCH  28  29
ATOM     29  C   UNL A   1      41.797  20.069  26.697  1.00  0.00     0.202 C 
BRANCH  29  30
ATOM     30  C   UNL A   1      40.556  20.881  26.286  1.00  0.00     0.261 C 
BRANCH  30  31
ATOM     31  O   UNL A   1      40.579  22.275  26.586  1.00  0.00    -0.460 OA
BRANCH  31  32
ATOM     32  C   UNL A   1      39.429  22.931  26.346  1.00  0.00     0.338 C 
ATOM     33  O   UNL A   1      38.436  22.520  25.762  1.00  0.00    -0.246 OA
BRANCH  32  34
ATOM     34  C   UNL A   1      39.470  24.200  27.087  1.00  0.00     0.060 A 
ATOM     35  C   UNL A   1      40.066  25.296  26.451  1.00  0.00     0.016 A 
ATOM     36  C   UNL A   1      38.923  24.321  28.367  1.00  0.00     0.016 A 
ATOM     37  C   UNL A   1      40.113  26.524  27.087  1.00  0.00     0.010 A 
ATOM     38  C   UNL A   1      39.026  25.543  29.035  1.00  0.00     0.010 A 
ATOM     39  C   UNL A   1      39.648  26.632  28.402  1.00  0.00    -0.014 A 
BRANCH  39  40
ATOM     40  C   UNL A   1      40.077  27.812  29.175  1.00  0.00     0.031 A 
ATOM     41  C   UNL A   1      41.490  27.823  29.684  1.00  0.00     0.074 A 
ATOM     42  C   UNL A   1      39.268  28.871  29.322  1.00  0.00     0.049 A 
ATOM     43  N   UNL A   1      42.123  28.744  30.360  1.00  0.00    -0.248 NA
ATOM     44  C   UNL A   1      42.303  26.634  29.379  1.00  0.00     0.031 C 
ATOM     45  C   UNL A   1      37.910  28.976  28.790  1.00  0.00     0.029 A 
ATOM     46  N   UNL A   1      39.479  30.066  29.957  1.00  0.00    -0.354 N 
ATOM     47  C   UNL A   1      43.401  28.242  30.564  1.00  0.00     0.074 A 
ATOM     48  C   UNL A   1      43.452  26.929  29.964  1.00  0.00     0.031 C 
ATOM     49  C   UNL A   1      37.404  30.174  29.130  1.00  0.00     0.029 A 
ATOM     50  C   UNL A   1      38.390  30.899  29.929  1.00  0.00     0.049 A 
ATOM     51  H   UNL A   1      40.330  30.304  30.391  1.00  0.00     0.167 HD
ATOM     52  C   UNL A   1      44.440  28.834  31.195  1.00  0.00     0.037 A 
ATOM     53  C   UNL A   1      38.215  32.101  30.512  1.00  0.00     0.037 A 
ATOM     54  C   UNL A   1      44.365  30.140  31.792  1.00  0.00     0.049 A 
ATOM     55  C   UNL A   1      39.360  32.696  31.292  1.00  0.00     0.074 A 
ATOM     56  C   UNL A   1      45.350  30.843  32.458  1.00  0.00     0.029 A 
ATOM     57  N   UNL A   1      43.225  30.932  31.802  1.00  0.00    -0.354 N 
ATOM     58  N   UNL A   1      40.572  32.227  31.476  1.00  0.00    -0.248 NA
ATOM     59  C   UNL A   1      39.114  33.988  31.944  1.00  0.00     0.031 C 
ATOM     60  C   UNL A   1      44.786  32.031  32.932  1.00  0.00     0.029 A 
ATOM     61  C   UNL A   1      43.471  32.104  32.496  1.00  0.00     0.049 A 
ATOM     62  H   UNL A   1      42.368  30.696  31.379  1.00  0.00     0.167 HD
ATOM     63  C   UNL A   1      41.241  33.178  32.234  1.00  0.00     0.074 A 
ATOM     64  C   UNL A   1      40.303  34.258  32.463  1.00  0.00     0.031 C 
ATOM     65  C   UNL A   1      42.517  33.165  32.699  1.00  0.00     0.037 A 
BRANCH  52  66
ATOM     66  C   UNL A   1      45.716  28.052  31.316  1.00  0.00     0.064 A 
ATOM     67  C   UNL A   1      45.900  27.074  32.306  1.00  0.00     0.173 A 
ATOM     68  C   UNL A   1      46.769  28.282  30.419  1.00  0.00     0.173 A 
ATOM     69  F   UNL A   1      44.933  26.830  33.204  1.00  0.00    -0.203 F 
ATOM     70  C   UNL A   1      47.101  26.376  32.409  1.00  0.00     0.198 A 
ATOM     71  C   UNL A   1      47.955  27.558  30.504  1.00  0.00     0.198 A 
ATOM     72  F   UNL A   1      46.649  29.208  29.457  1.00  0.00    -0.203 F 
ATOM     73  F   UNL A   1      47.275  25.485  33.396  1.00  0.00    -0.200 F 
ATOM     74  C   UNL A   1      48.124  26.612  31.503  1.00  0.00     0.200 A 
ATOM     75  F   UNL A   1      48.938  27.781  29.620  1.00  0.00    -0.200 F 
ATOM     76  F   UNL A   1      49.276  25.934  31.598  1.00  0.00    -0.200 F 
ENDBRANCH  52  66
BRANCH  53  77
ATOM     77  C   UNL A   1      36.912  32.806  30.396  1.00  0.00     0.064 A 
ATOM     78  C   UNL A   1      36.558  33.494  29.228  1.00  0.00     0.173 A 
ATOM     79  C   UNL A   1      35.999  32.825  31.462  1.00  0.00     0.173 A 
ATOM     80  F   UNL A   1      37.403  33.525  28.187  1.00  0.00    -0.203 F 
ATOM     81  C   UNL A   1      35.354  34.191  29.138  1.00  0.00     0.198 A 
ATOM     82  C   UNL A   1      34.780  33.494  31.359  1.00  0.00     0.198 A 
ATOM     83  F   UNL A   1      36.286  32.183  32.605  1.00  0.00    -0.203 F 
ATOM     84  F   UNL A   1      35.063  34.882  28.026  1.00  0.00    -0.200 F 
ATOM     85  C   UNL A   1      34.463  34.186  30.201  1.00  0.00     0.200 A 
ATOM     86  F   UNL A   1      33.918  33.471  32.384  1.00  0.00    -0.200 F 
ATOM     87  F   UNL A   1      33.305  34.851  30.112  1.00  0.00    -0.200 F 
ENDBRANCH  53  77
BRANCH  65  88
ATOM     88  C   UNL A   1      42.983  34.373  33.461  1.00  0.00     0.064 A 
ATOM     89  C   UNL A   1      42.929  34.433  34.861  1.00  0.00     0.173 A 
ATOM     90  C   UNL A   1      43.535  35.468  32.777  1.00  0.00     0.173 A 
ATOM     91  F   UNL A   1      42.399  33.418  35.561  1.00  0.00    -0.203 F 
ATOM     92  C   UNL A   1      43.381  35.557  35.546  1.00  0.00     0.198 A 
ATOM     93  C   UNL A   1      44.022  36.573  33.467  1.00  0.00     0.198 A 
ATOM     94  F   UNL A   1      43.621  35.457  31.438  1.00  0.00    -0.203 F 
ATOM     95  F   UNL A   1      43.268  35.616  36.880  1.00  0.00    -0.200 F 
ATOM     96  C   UNL A   1      43.935  36.621  34.851  1.00  0.00     0.200 A 
ATOM     97  F   UNL A   1      44.576  37.591  32.794  1.00  0.00    -0.200 F 
ATOM     98  F   UNL A   1      44.379  37.698  35.513  1.00  0.00    -0.200 F 
ENDBRANCH  65  88
ENDBRANCH  39  40
ENDBRANCH  32  34
ENDBRANCH  31  32
ENDBRANCH  30  31
ENDBRANCH  29  30
ENDBRANCH  28  29
ENDBRANCH  27  28
ENDBRANCH  26  27
ENDBRANCH  25  26
ENDBRANCH   1  25
TORSDOF 23
ENDMDL
MODEL 3
REMARK VINA RESULT:     -10.4      5.737     11.255
REMARK SMILES C[C@H](C(=O)OCCOCCOCCOCCOC(=O)c1ccc(-c2c3nc(c(-c4c(F)c(F)c(F)c(F)c4F)c4ccc([nH]4)c(-c4c(F)c(F)c(F)c(F)c4F)c4nc(c(-c5c(F)c(F)c(F)c(F)c5F)c5ccc2[nH]5)C=C4)C=C3)cc1)c1cccc(C(=O)c2ccccc2)c1
REMARK SMILES IDX 10 1 9 2 8 3 7 4 6 5 5 6 3 7 4 8 2 9 1 10 83 11 84 12 96 13
REMARK SMILES IDX 85 14 87 15 86 16 88 17 89 18 90 19 91 20 95 21 92 22 94 23
REMARK SMILES IDX 93 24 11 25 12 26 13 27 14 28 15 29 16 30 17 31 18 32 19 33
REMARK SMILES IDX 20 34 21 35 82 36 22 37 81 38 23 39 24 40 25 41 75 42 26 43
REMARK SMILES IDX 80 44 74 45 76 46 27 47 79 48 73 49 72 50 28 52 60 53 40 54
REMARK SMILES IDX 59 55 41 56 44 57 58 58 77 59 42 60 43 61 57 63 78 64 45 65
REMARK SMILES IDX 29 66 30 67 38 68 31 69 32 70 36 71 39 72 33 73 34 74 37 75
REMARK SMILES IDX 35 76 61 77 62 78 70 79 63 80 64 81 68 82 71 83 65 84 66 85
REMARK SMILES IDX 69 86 67 87 46 88 47 89 55 90 48 91 49 92 53 93 56 94 50 95
REMARK SMILES IDX 51 96 54 97 52 98
REMARK H PARENT 76 51 44 62
REMARK Flexibility Score: inf
ROOT
ATOM      1  C   UNL A   1      32.867  36.418  30.513  1.00  0.00     0.188 C 
ENDROOT
BRANCH   1   2
ATOM      2  C   UNL A   1      33.439  35.474  29.443  1.00  0.00     0.188 C 
BRANCH   2   3
ATOM      3  O   UNL A   1      32.485  34.735  28.715  1.00  0.00    -0.376 OA
BRANCH   3   4
ATOM      4  C   UNL A   1      32.848  33.962  27.587  1.00  0.00     0.202 C 
BRANCH   4   5
ATOM      5  C   UNL A   1      32.734  32.423  27.482  1.00  0.00     0.261 C 
BRANCH   5   6
ATOM      6  O   UNL A   1      33.678  31.635  28.232  1.00  0.00    -0.463 OA
BRANCH   6   7
ATOM      7  C   UNL A   1      34.908  31.435  27.713  1.00  0.00     0.313 C 
ATOM      8  O   UNL A   1      35.809  32.263  27.823  1.00  0.00    -0.252 OA
BRANCH   7   9
ATOM      9  C   UNL A   1      35.127  30.076  27.010  1.00  0.00     0.126 C 
ATOM     10  C   UNL A   1      36.080  29.272  27.907  1.00  0.00     0.025 C 
BRANCH   9  11
ATOM     11  C   UNL A   1      33.929  29.243  26.496  1.00  0.00    -0.033 A 
ATOM     12  C   UNL A   1      33.524  28.105  27.216  1.00  0.00     0.004 A 
ATOM     13  C   UNL A   1      33.161  29.585  25.344  1.00  0.00     0.016 A 
ATOM     14  C   UNL A   1      32.452  27.314  26.783  1.00  0.00     0.001 A 
ATOM     15  C   UNL A   1      32.137  28.747  24.850  1.00  0.00     0.023 A 
ATOM     16  C   UNL A   1      31.776  27.621  25.600  1.00  0.00     0.012 A 
BRANCH  15  17
ATOM     17  C   UNL A   1      31.411  28.968  23.556  1.00  0.00     0.193 C 
ATOM     18  O   UNL A   1      32.081  28.978  22.520  1.00  0.00    -0.289 OA
BRANCH  17  19
ATOM     19  C   UNL A   1      29.943  29.240  23.423  1.00  0.00     0.022 A 
ATOM     20  C   UNL A   1      29.077  28.143  23.273  1.00  0.00     0.012 A 
ATOM     21  C   UNL A   1      29.396  30.523  23.333  1.00  0.00     0.012 A 
ATOM     22  C   UNL A   1      27.707  28.330  23.057  1.00  0.00     0.001 A 
ATOM     23  C   UNL A   1      28.028  30.713  23.105  1.00  0.00     0.001 A 
ATOM     24  C   UNL A   1      27.183  29.617  22.969  1.00  0.00     0.000 A 
ENDBRANCH  17  19
ENDBRANCH  15  17
ENDBRANCH   9  11
ENDBRANCH   7   9
ENDBRANCH   6   7
ENDBRANCH   5   6
ENDBRANCH   4   5
ENDBRANCH   3   4
ENDBRANCH   2   3
ENDBRANCH   1   2
BRANCH   1  25
ATOM     25  O   UNL A   1      33.721  36.909  31.516  1.00  0.00    -0.377 OA
BRANCH  25  26
ATOM     26  C   UNL A   1      33.480  36.367  32.786  1.00  0.00     0.188 C 
BRANCH  26  27
ATOM     27  C   UNL A   1      33.881  34.893  32.868  1.00  0.00     0.188 C 
BRANCH  27  28
ATOM     28  O   UNL A   1      34.424  34.298  34.040  1.00  0.00    -0.376 OA
BRANCH  28  29
ATOM     29  C   UNL A   1      35.778  34.454  34.435  1.00  0.00     0.202 C 
BRANCH  29  30
ATOM     30  C   UNL A   1      36.874  33.422  34.117  1.00  0.00     0.261 C 
BRANCH  30  31
ATOM     31  O   UNL A   1      36.447  32.071  33.954  1.00  0.00    -0.460 OA
BRANCH  31  32
ATOM     32  C   UNL A   1      36.225  31.691  32.681  1.00  0.00     0.338 C 
ATOM     33  O   UNL A   1      35.166  31.693  32.070  1.00  0.00    -0.246 OA
BRANCH  32  34
ATOM     34  C   UNL A   1      37.529  31.446  32.050  1.00  0.00     0.060 A 
ATOM     35  C   UNL A   1      37.681  31.840  30.715  1.00  0.00     0.016 A 
ATOM     36  C   UNL A   1      38.588  30.863  32.752  1.00  0.00     0.016 A 
ATOM     37  C   UNL A   1      38.893  31.658  30.072  1.00  0.00     0.010 A 
ATOM     38  C   UNL A   1      39.791  30.622  32.086  1.00  0.00     0.010 A 
ATOM     39  C   UNL A   1      39.928  30.996  30.738  1.00  0.00    -0.014 A 
BRANCH  39  40
ATOM     40  C   UNL A   1      41.030  30.465  29.916  1.00  0.00     0.031 A 
ATOM     41  C   UNL A   1      42.196  31.376  29.657  1.00  0.00     0.074 A 
ATOM     42  C   UNL A   1      41.032  29.187  29.508  1.00  0.00     0.049 A 
ATOM     43  N   UNL A   1      43.299  31.148  28.996  1.00  0.00    -0.248 NA
ATOM     44  C   UNL A   1      42.108  32.728  30.236  1.00  0.00     0.031 C 
ATOM     45  C   UNL A   1      39.979  28.212  29.784  1.00  0.00     0.029 A 
ATOM     46  N   UNL A   1      41.961  28.490  28.781  1.00  0.00    -0.354 N 
ATOM     47  C   UNL A   1      44.029  32.327  29.074  1.00  0.00     0.074 A 
ATOM     48  C   UNL A   1      43.240  33.275  29.825  1.00  0.00     0.031 C 
ATOM     49  C   UNL A   1      40.318  27.038  29.222  1.00  0.00     0.029 A 
ATOM     50  C   UNL A   1      41.592  27.195  28.523  1.00  0.00     0.049 A 
ATOM     51  H   UNL A   1      42.810  28.882  28.474  1.00  0.00     0.167 HD
ATOM     52  C   UNL A   1      45.254  32.586  28.565  1.00  0.00     0.037 A 
ATOM     53  C   UNL A   1      42.214  26.259  27.781  1.00  0.00     0.037 A 
ATOM     54  C   UNL A   1      46.018  31.628  27.813  1.00  0.00     0.049 A 
ATOM     55  C   UNL A   1      43.535  26.606  27.143  1.00  0.00     0.074 A 
ATOM     56  C   UNL A   1      47.270  31.775  27.247  1.00  0.00     0.029 A 
ATOM     57  N   UNL A   1      45.587  30.342  27.514  1.00  0.00    -0.354 N 
ATOM     58  N   UNL A   1      44.231  27.716  27.226  1.00  0.00    -0.248 NA
ATOM     59  C   UNL A   1      44.159  25.571  26.310  1.00  0.00     0.031 C 
ATOM     60  C   UNL A   1      47.566  30.603  26.546  1.00  0.00     0.029 A 
ATOM     61  C   UNL A   1      46.534  29.696  26.739  1.00  0.00     0.049 A 
ATOM     62  H   UNL A   1      44.734  29.949  27.809  1.00  0.00     0.167 HD
ATOM     63  C   UNL A   1      45.386  27.502  26.486  1.00  0.00     0.074 A 
ATOM     64  C   UNL A   1      45.303  26.150  25.973  1.00  0.00     0.031 C 
ATOM     65  C   UNL A   1      46.425  28.344  26.251  1.00  0.00     0.037 A 
BRANCH  52  66
ATOM     66  C   UNL A   1      45.807  33.968  28.757  1.00  0.00     0.064 A 
ATOM     67  C   UNL A   1      45.564  35.003  27.841  1.00  0.00     0.173 A 
ATOM     68  C   UNL A   1      46.590  34.261  29.883  1.00  0.00     0.173 A 
ATOM     69  F   UNL A   1      44.842  34.771  26.735  1.00  0.00    -0.203 F 
ATOM     70  C   UNL A   1      46.106  36.272  28.033  1.00  0.00     0.198 A 
ATOM     71  C   UNL A   1      47.101  35.539  30.090  1.00  0.00     0.198 A 
ATOM     72  F   UNL A   1      46.858  33.308  30.788  1.00  0.00    -0.203 F 
ATOM     73  F   UNL A   1      45.906  37.231  27.118  1.00  0.00    -0.200 F 
ATOM     74  C   UNL A   1      46.866  36.542  29.161  1.00  0.00     0.200 A 
ATOM     75  F   UNL A   1      47.827  35.800  31.187  1.00  0.00    -0.200 F 
ATOM     76  F   UNL A   1      47.381  37.765  29.349  1.00  0.00    -0.200 F 
ENDBRANCH  52  66
BRANCH  53  77
ATOM     77  C   UNL A   1      41.592  24.922  27.587  1.00  0.00     0.064 A 
ATOM     78  C   UNL A   1      40.467  24.754  26.770  1.00  0.00     0.173 A 
ATOM     79  C   UNL A   1      42.100  23.785  28.235  1.00  0.00     0.173 A 
ATOM     80  F   UNL A   1      39.930  25.812  26.144  1.00  0.00    -0.203 F 
ATOM     81  C   UNL A   1      39.860  23.507  26.625  1.00  0.00     0.198 A 
ATOM     82  C   UNL A   1      41.513  22.532  28.064  1.00  0.00     0.198 A 
ATOM     83  F   UNL A   1      43.176  23.887  29.030  1.00  0.00    -0.203 F 
ATOM     84  F   UNL A   1      38.755  23.385  25.877  1.00  0.00    -0.200 F 
ATOM     85  C   UNL A   1      40.387  22.397  27.267  1.00  0.00     0.200 A 
ATOM     86  F   UNL A   1      42.036  21.461  28.673  1.00  0.00    -0.200 F 
ATOM     87  F   UNL A   1      39.806  21.198  27.123  1.00  0.00    -0.200 F 
ENDBRANCH  53  77
BRANCH  65  88
ATOM     88  C   UNL A   1      47.573  27.810  25.442  1.00  0.00     0.064 A 
ATOM     89  C   UNL A   1      47.554  27.807  24.040  1.00  0.00     0.173 A 
ATOM     90  C   UNL A   1      48.728  27.337  26.084  1.00  0.00     0.173 A 
ATOM     91  F   UNL A   1      46.469  28.237  23.378  1.00  0.00    -0.203 F 
ATOM     92  C   UNL A   1      48.636  27.321  23.312  1.00  0.00     0.198 A 
ATOM     93  C   UNL A   1      49.824  26.889  25.353  1.00  0.00     0.198 A 
ATOM     94  F   UNL A   1      48.803  27.329  27.425  1.00  0.00    -0.203 F 
ATOM     95  F   UNL A   1      48.574  27.275  21.974  1.00  0.00    -0.200 F 
ATOM     96  C   UNL A   1      49.772  26.872  23.968  1.00  0.00     0.200 A 
ATOM     97  F   UNL A   1      50.928  26.475  25.989  1.00  0.00    -0.200 F 
ATOM     98  F   UNL A   1      50.817  26.414  23.265  1.00  0.00    -0.200 F 
ENDBRANCH  65  88
ENDBRANCH  39  40
ENDBRANCH  32  34
ENDBRANCH  31  32
ENDBRANCH  30  31
ENDBRANCH  29  30
ENDBRANCH  28  29
ENDBRANCH  27  28
ENDBRANCH  26  27
ENDBRANCH  25  26
ENDBRANCH   1  25
TORSDOF 23
ENDMDL
