MODEL 1
REMARK VINA RESULT:      -8.0      0.000      0.000
REMARK SMILES Cc1c(CC(=O)N2CCC(C(=O)OCCOCCOCCOCCOC(=O)c3ccc(-c4c5nc(c(-c6c(F)c(F)c(F)c(F)c6F)c6ccc([nH]6)c(-c6c(F)c(F)c(F)c(F)c6F)c6nc(c(-c7c(F)c(F)c(F)c(F)c7F)c7ccc4[nH]7)C=C6)C=C5)cc3)(c3ccccc3)CC2)c(=O)oc2c(C)c(O)ccc12
REMARK SMILES IDX 18 1 17 2 16 3 15 4 14 5 13 6 11 7 12 8 10 9 5 10 6 11 7 12
REMARK SMILES IDX 8 13 98 14 9 15 97 16 4 17 3 18 1 19 2 20 109 21 99 22
REMARK SMILES IDX 102 23 108 24 100 25 101 26 103 27 107 28 104 29 105 30
REMARK SMILES IDX 106 31 91 33 92 34 96 35 93 36 95 37 94 38 19 39 20 40 21 41
REMARK SMILES IDX 22 42 23 43 24 44 25 45 26 46 27 47 28 48 29 49 90 50 30 51
REMARK SMILES IDX 89 52 31 53 32 54 33 55 83 56 34 57 88 58 82 59 84 60 35 61
REMARK SMILES IDX 87 62 81 63 80 64 36 66 68 67 48 68 67 69 49 70 52 71 66 72
REMARK SMILES IDX 85 73 50 74 51 75 65 77 86 78 53 79 37 80 38 81 46 82 39 83
REMARK SMILES IDX 40 84 44 85 47 86 41 87 42 88 45 89 43 90 69 91 70 92 78 93
REMARK SMILES IDX 71 94 72 95 76 96 79 97 73 98 74 99 77 100 75 101 54 102
REMARK SMILES IDX 55 103 63 104 56 105 57 106 61 107 64 108 58 109 59 110
REMARK SMILES IDX 62 111 60 112
REMARK H PARENT 106 32 84 65 52 76
REMARK Flexibility Score: inf
ROOT
ATOM      1  C   UNL A   1      34.997  33.496  33.993  1.00  0.00     0.188 C 
ENDROOT
BRANCH   1   2
ATOM      2  C   UNL A   1      35.969  33.898  35.103  1.00  0.00     0.188 C 
BRANCH   2   3
ATOM      3  O   UNL A   1      36.494  32.915  35.975  1.00  0.00    -0.376 OA
BRANCH   3   4
ATOM      4  C   UNL A   1      37.652  33.188  36.749  1.00  0.00     0.202 C 
BRANCH   4   5
ATOM      5  C   UNL A   1      37.628  33.510  38.262  1.00  0.00     0.261 C 
BRANCH   5   6
ATOM      6  O   UNL A   1      38.195  32.545  39.169  1.00  0.00    -0.463 OA
BRANCH   6   7
ATOM      7  C   UNL A   1      37.369  32.008  40.103  1.00  0.00     0.316 C 
ATOM      8  O   UNL A   1      36.226  31.639  39.844  1.00  0.00    -0.251 OA
BRANCH   7   9
ATOM      9  C   UNL A   1      37.977  31.925  41.552  1.00  0.00     0.096 C 
ATOM     10  C   UNL A   1      42.005  30.921  42.932  1.00  0.00     0.227 C 
ATOM     11  O   UNL A   1      42.255  29.709  42.979  1.00  0.00    -0.275 OA
ATOM     12  N   UNL A   1      40.710  31.380  42.696  1.00  0.00    -0.342 N 
ATOM     13  C   UNL A   1      39.635  30.445  42.956  1.00  0.00     0.121 C 
ATOM     14  C   UNL A   1      40.281  32.754  42.461  1.00  0.00     0.121 C 
ATOM     15  C   UNL A   1      38.501  30.511  41.945  1.00  0.00     0.045 C 
ATOM     16  C   UNL A   1      39.193  32.865  41.405  1.00  0.00     0.045 C 
BRANCH  10  17
ATOM     17  C   UNL A   1      43.142  31.891  43.272  1.00  0.00     0.143 C 
BRANCH  17  18
ATOM     18  C   UNL A   1      44.097  32.203  42.154  1.00  0.00     0.051 A 
ATOM     19  C   UNL A   1      45.390  30.079  42.440  1.00  0.00     0.046 C 
ATOM     20  C   UNL A   1      45.041  31.348  41.703  1.00  0.00    -0.029 A 
ATOM     21  C   UNL A   1      45.664  31.621  40.394  1.00  0.00     0.021 A 
ATOM     22  C   UNL A   1      43.805  33.493  41.470  1.00  0.00     0.340 A 
ATOM     23  C   UNL A   1      45.386  32.828  39.747  1.00  0.00     0.145 A 
ATOM     24  C   UNL A   1      46.461  30.696  39.709  1.00  0.00     0.016 A 
ATOM     25  O   UNL A   1      42.926  34.254  41.858  1.00  0.00    -0.246 OA
ATOM     26  O   UNL A   1      44.538  33.781  40.341  1.00  0.00    -0.422 OA
ATOM     27  C   UNL A   1      45.882  33.152  38.471  1.00  0.00     0.034 A 
ATOM     28  C   UNL A   1      46.969  30.987  38.438  1.00  0.00     0.047 A 
ATOM     29  C   UNL A   1      45.501  34.453  37.823  1.00  0.00     0.052 C 
ATOM     30  C   UNL A   1      46.679  32.207  37.830  1.00  0.00     0.122 A 
BRANCH  30  31
ATOM     31  O   UNL A   1      47.167  32.482  36.586  1.00  0.00    -0.508 OA
ATOM     32  H   UNL A   1      47.190  31.812  35.932  1.00  0.00     0.293 HD
ENDBRANCH  30  31
ENDBRANCH  17  18
ENDBRANCH  10  17
BRANCH   9  33
ATOM     33  C   UNL A   1      36.930  32.396  42.608  1.00  0.00    -0.031 A 
ATOM     34  C   UNL A   1      36.068  31.491  43.257  1.00  0.00     0.005 A 
ATOM     35  C   UNL A   1      36.844  33.731  43.037  1.00  0.00     0.005 A 
ATOM     36  C   UNL A   1      35.242  31.867  44.321  1.00  0.00     0.000 A 
ATOM     37  C   UNL A   1      35.994  34.124  44.077  1.00  0.00     0.000 A 
ATOM     38  C   UNL A   1      35.209  33.188  44.738  1.00  0.00     0.000 A 
ENDBRANCH   9  33
ENDBRANCH   7   9
ENDBRANCH   6   7
ENDBRANCH   5   6
ENDBRANCH   4   5
ENDBRANCH   3   4
ENDBRANCH   2   3
ENDBRANCH   1   2
BRANCH   1  39
ATOM     39  O   UNL A   1      34.109  34.514  33.587  1.00  0.00    -0.377 OA
BRANCH  39  40
ATOM     40  C   UNL A   1      34.698  35.765  33.273  1.00  0.00     0.188 C 
BRANCH  40  41
ATOM     41  C   UNL A   1      33.779  36.909  32.799  1.00  0.00     0.188 C 
BRANCH  41  42
ATOM     42  O   UNL A   1      33.734  37.078  31.387  1.00  0.00    -0.376 OA
BRANCH  42  43
ATOM     43  C   UNL A   1      32.631  36.548  30.663  1.00  0.00     0.202 C 
BRANCH  43  44
ATOM     44  C   UNL A   1      32.903  35.928  29.282  1.00  0.00     0.261 C 
BRANCH  44  45
ATOM     45  O   UNL A   1      32.766  34.502  29.170  1.00  0.00    -0.460 OA
BRANCH  45  46
ATOM     46  C   UNL A   1      33.641  33.825  28.400  1.00  0.00     0.338 C 
ATOM     47  O   UNL A   1      33.566  33.608  27.204  1.00  0.00    -0.246 OA
BRANCH  46  48
ATOM     48  C   UNL A   1      34.835  33.564  29.228  1.00  0.00     0.060 A 
ATOM     49  C   UNL A   1      36.068  34.100  28.832  1.00  0.00     0.016 A 
ATOM     50  C   UNL A   1      34.734  32.810  30.399  1.00  0.00     0.016 A 
ATOM     51  C   UNL A   1      37.209  33.869  29.596  1.00  0.00     0.010 A 
ATOM     52  C   UNL A   1      35.887  32.532  31.136  1.00  0.00     0.010 A 
ATOM     53  C   UNL A   1      37.131  33.031  30.715  1.00  0.00    -0.014 A 
BRANCH  53  54
ATOM     54  C   UNL A   1      38.379  32.440  31.248  1.00  0.00     0.031 A 
ATOM     55  C   UNL A   1      38.874  31.177  30.601  1.00  0.00     0.074 A 
ATOM     56  C   UNL A   1      39.068  33.011  32.249  1.00  0.00     0.049 A 
ATOM     57  N   UNL A   1      39.919  30.446  30.888  1.00  0.00    -0.248 NA
ATOM     58  C   UNL A   1      38.080  30.673  29.466  1.00  0.00     0.031 C 
ATOM     59  C   UNL A   1      38.719  34.265  32.909  1.00  0.00     0.029 A 
ATOM     60  N   UNL A   1      40.212  32.597  32.884  1.00  0.00    -0.354 N 
ATOM     61  C   UNL A   1      39.911  29.408  29.968  1.00  0.00     0.074 A 
ATOM     62  C   UNL A   1      38.743  29.578  29.133  1.00  0.00     0.031 C 
ATOM     63  C   UNL A   1      39.626  34.514  33.871  1.00  0.00     0.029 A 
ATOM     64  C   UNL A   1      40.599  33.421  33.910  1.00  0.00     0.049 A 
ATOM     65  H   UNL A   1      40.707  31.786  32.627  1.00  0.00     0.167 HD
ATOM     66  C   UNL A   1      40.805  28.404  29.823  1.00  0.00     0.037 A 
ATOM     67  C   UNL A   1      41.614  33.290  34.789  1.00  0.00     0.037 A 
ATOM     68  C   UNL A   1      41.948  28.221  30.674  1.00  0.00     0.049 A 
ATOM     69  C   UNL A   1      42.532  32.098  34.685  1.00  0.00     0.074 A 
ATOM     70  C   UNL A   1      42.913  27.232  30.618  1.00  0.00     0.029 A 
ATOM     71  N   UNL A   1      42.271  29.040  31.746  1.00  0.00    -0.354 N 
ATOM     72  N   UNL A   1      42.535  31.129  33.801  1.00  0.00    -0.248 NA
ATOM     73  C   UNL A   1      43.588  31.981  35.701  1.00  0.00     0.031 C 
ATOM     74  C   UNL A   1      43.785  27.417  31.694  1.00  0.00     0.029 A 
ATOM     75  C   UNL A   1      43.402  28.558  32.382  1.00  0.00     0.049 A 
ATOM     76  H   UNL A   1      41.770  29.844  32.014  1.00  0.00     0.167 HD
ATOM     77  C   UNL A   1      43.600  30.303  34.139  1.00  0.00     0.074 A 
ATOM     78  C   UNL A   1      44.231  30.893  35.301  1.00  0.00     0.031 C 
ATOM     79  C   UNL A   1      44.018  29.160  33.539  1.00  0.00     0.037 A 
BRANCH  66  80
ATOM     80  C   UNL A   1      40.561  27.413  28.726  1.00  0.00     0.064 A 
ATOM     81  C   UNL A   1      39.620  26.379  28.864  1.00  0.00     0.173 A 
ATOM     82  C   UNL A   1      41.256  27.511  27.511  1.00  0.00     0.173 A 
ATOM     83  F   UNL A   1      38.947  26.228  30.014  1.00  0.00    -0.203 F 
ATOM     84  C   UNL A   1      39.398  25.472  27.831  1.00  0.00     0.198 A 
ATOM     85  C   UNL A   1      41.008  26.620  26.471  1.00  0.00     0.198 A 
ATOM     86  F   UNL A   1      42.168  28.477  27.331  1.00  0.00    -0.203 F 
ATOM     87  F   UNL A   1      38.530  24.466  28.002  1.00  0.00    -0.200 F 
ATOM     88  C   UNL A   1      40.086  25.599  26.634  1.00  0.00     0.200 A 
ATOM     89  F   UNL A   1      41.666  26.750  25.310  1.00  0.00    -0.200 F 
ATOM     90  F   UNL A   1      39.862  24.731  25.638  1.00  0.00    -0.200 F 
ENDBRANCH  66  80
BRANCH  67  91
ATOM     91  C   UNL A   1      41.812  34.321  35.840  1.00  0.00     0.064 A 
ATOM     92  C   UNL A   1      41.384  34.102  37.155  1.00  0.00     0.173 A 
ATOM     93  C   UNL A   1      42.454  35.538  35.558  1.00  0.00     0.173 A 
ATOM     94  F   UNL A   1      40.742  32.967  37.469  1.00  0.00    -0.203 F 
ATOM     95  C   UNL A   1      41.588  35.058  38.150  1.00  0.00     0.198 A 
ATOM     96  C   UNL A   1      42.682  36.481  36.557  1.00  0.00     0.198 A 
ATOM     97  F   UNL A   1      42.877  35.801  34.313  1.00  0.00    -0.203 F 
ATOM     98  F   UNL A   1      41.146  34.832  39.393  1.00  0.00    -0.200 F 
ATOM     99  C   UNL A   1      42.247  36.242  37.852  1.00  0.00     0.200 A 
ATOM    100  F   UNL A   1      43.331  37.618  36.269  1.00  0.00    -0.200 F 
ATOM    101  F   UNL A   1      42.462  37.151  38.813  1.00  0.00    -0.200 F 
ENDBRANCH  67  91
BRANCH  79 102
ATOM    102  C   UNL A   1      45.223  28.466  34.110  1.00  0.00     0.064 A 
ATOM    103  C   UNL A   1      45.100  27.470  35.088  1.00  0.00     0.173 A 
ATOM    104  C   UNL A   1      46.504  28.735  33.602  1.00  0.00     0.173 A 
ATOM    105  F   UNL A   1      43.900  27.182  35.612  1.00  0.00    -0.203 F 
ATOM    106  C   UNL A   1      46.218  26.776  35.546  1.00  0.00     0.198 A 
ATOM    107  C   UNL A   1      47.613  28.017  34.038  1.00  0.00     0.198 A 
ATOM    108  F   UNL A   1      46.674  29.670  32.657  1.00  0.00    -0.203 F 
ATOM    109  F   UNL A   1      46.081  25.849  36.505  1.00  0.00    -0.200 F 
ATOM    110  C   UNL A   1      47.470  27.041  35.013  1.00  0.00     0.200 A 
ATOM    111  F   UNL A   1      48.819  28.260  33.507  1.00  0.00    -0.200 F 
ATOM    112  F   UNL A   1      48.539  26.355  35.439  1.00  0.00    -0.200 F 
ENDBRANCH  79 102
ENDBRANCH  53  54
ENDBRANCH  46  48
ENDBRANCH  45  46
ENDBRANCH  44  45
ENDBRANCH  43  44
ENDBRANCH  42  43
ENDBRANCH  41  42
ENDBRANCH  40  41
ENDBRANCH  39  40
ENDBRANCH   1  39
TORSDOF 24
ENDMDL
MODEL 2
REMARK VINA RESULT:      -7.6      3.078      8.010
REMARK SMILES Cc1c(CC(=O)N2CCC(C(=O)OCCOCCOCCOCCOC(=O)c3ccc(-c4c5nc(c(-c6c(F)c(F)c(F)c(F)c6F)c6ccc([nH]6)c(-c6c(F)c(F)c(F)c(F)c6F)c6nc(c(-c7c(F)c(F)c(F)c(F)c7F)c7ccc4[nH]7)C=C6)C=C5)cc3)(c3ccccc3)CC2)c(=O)oc2c(C)c(O)ccc12
REMARK SMILES IDX 18 1 17 2 16 3 15 4 14 5 13 6 11 7 12 8 10 9 5 10 6 11 7 12
REMARK SMILES IDX 8 13 98 14 9 15 97 16 4 17 3 18 1 19 2 20 109 21 99 22
REMARK SMILES IDX 102 23 108 24 100 25 101 26 103 27 107 28 104 29 105 30
REMARK SMILES IDX 106 31 91 33 92 34 96 35 93 36 95 37 94 38 19 39 20 40 21 41
REMARK SMILES IDX 22 42 23 43 24 44 25 45 26 46 27 47 28 48 29 49 90 50 30 51
REMARK SMILES IDX 89 52 31 53 32 54 33 55 83 56 34 57 88 58 82 59 84 60 35 61
REMARK SMILES IDX 87 62 81 63 80 64 36 66 68 67 48 68 67 69 49 70 52 71 66 72
REMARK SMILES IDX 85 73 50 74 51 75 65 77 86 78 53 79 37 80 38 81 46 82 39 83
REMARK SMILES IDX 40 84 44 85 47 86 41 87 42 88 45 89 43 90 69 91 70 92 78 93
REMARK SMILES IDX 71 94 72 95 76 96 79 97 73 98 74 99 77 100 75 101 54 102
REMARK SMILES IDX 55 103 63 104 56 105 57 106 61 107 64 108 58 109 59 110
REMARK SMILES IDX 62 111 60 112
REMARK H PARENT 106 32 84 65 52 76
REMARK Flexibility Score: inf
ROOT
ATOM      1  C   UNL A   1      34.726  33.461  33.629  1.00  0.00     0.188 C 
ENDROOT
BRANCH   1   2
ATOM      2  C   UNL A   1      35.935  33.963  34.421  1.00  0.00     0.188 C 
BRANCH   2   3
ATOM      3  O   UNL A   1      35.974  33.807  35.827  1.00  0.00    -0.376 OA
BRANCH   3   4
ATOM      4  C   UNL A   1      37.026  33.074  36.437  1.00  0.00     0.202 C 
BRANCH   4   5
ATOM      5  C   UNL A   1      38.224  33.722  37.171  1.00  0.00     0.261 C 
BRANCH   5   6
ATOM      6  O   UNL A   1      38.118  33.924  38.593  1.00  0.00    -0.463 OA
BRANCH   6   7
ATOM      7  C   UNL A   1      38.201  32.826  39.386  1.00  0.00     0.316 C 
ATOM      8  O   UNL A   1      37.884  31.703  38.998  1.00  0.00    -0.251 OA
BRANCH   7   9
ATOM      9  C   UNL A   1      38.703  33.104  40.851  1.00  0.00     0.096 C 
ATOM     10  C   UNL A   1      40.924  36.472  42.543  1.00  0.00     0.227 C 
ATOM     11  O   UNL A   1      42.147  36.442  42.348  1.00  0.00    -0.275 OA
ATOM     12  N   UNL A   1      40.120  35.377  42.230  1.00  0.00    -0.342 N 
ATOM     13  C   UNL A   1      40.787  34.098  42.108  1.00  0.00     0.121 C 
ATOM     14  C   UNL A   1      38.663  35.307  42.253  1.00  0.00     0.121 C 
ATOM     15  C   UNL A   1      40.251  33.226  40.984  1.00  0.00     0.045 C 
ATOM     16  C   UNL A   1      38.087  34.498  41.102  1.00  0.00     0.045 C 
BRANCH  10  17
ATOM     17  C   UNL A   1      40.352  37.700  43.258  1.00  0.00     0.143 C 
BRANCH  17  18
ATOM     18  C   UNL A   1      40.814  39.035  42.745  1.00  0.00     0.051 A 
ATOM     19  C   UNL A   1      39.510  38.857  40.615  1.00  0.00     0.046 C 
ATOM     20  C   UNL A   1      40.357  39.610  41.611  1.00  0.00    -0.029 A 
ATOM     21  C   UNL A   1      40.612  41.049  41.404  1.00  0.00     0.021 A 
ATOM     22  C   UNL A   1      41.713  39.753  43.690  1.00  0.00     0.340 A 
ATOM     23  C   UNL A   1      41.450  41.725  42.295  1.00  0.00     0.145 A 
ATOM     24  C   UNL A   1      39.988  41.809  40.408  1.00  0.00     0.016 A 
ATOM     25  O   UNL A   1      42.100  39.244  44.737  1.00  0.00    -0.246 OA
ATOM     26  O   UNL A   1      42.059  41.045  43.364  1.00  0.00    -0.422 OA
ATOM     27  C   UNL A   1      41.702  43.107  42.218  1.00  0.00     0.034 A 
ATOM     28  C   UNL A   1      40.217  43.186  40.305  1.00  0.00     0.047 A 
ATOM     29  C   UNL A   1      42.581  43.770  43.240  1.00  0.00     0.052 C 
ATOM     30  C   UNL A   1      41.069  43.823  41.204  1.00  0.00     0.122 A 
BRANCH  30  31
ATOM     31  O   UNL A   1      41.282  45.168  41.107  1.00  0.00    -0.508 OA
ATOM     32  H   UNL A   1      40.573  45.739  40.885  1.00  0.00     0.293 HD
ENDBRANCH  30  31
ENDBRANCH  17  18
ENDBRANCH  10  17
BRANCH   9  33
ATOM     33  C   UNL A   1      38.190  31.995  41.821  1.00  0.00    -0.031 A 
ATOM     34  C   UNL A   1      39.012  30.928  42.233  1.00  0.00     0.005 A 
ATOM     35  C   UNL A   1      36.915  32.041  42.406  1.00  0.00     0.005 A 
ATOM     36  C   UNL A   1      38.628  30.021  43.226  1.00  0.00     0.000 A 
ATOM     37  C   UNL A   1      36.508  31.116  43.375  1.00  0.00     0.000 A 
ATOM     38  C   UNL A   1      37.374  30.119  43.805  1.00  0.00     0.000 A 
ENDBRANCH   9  33
ENDBRANCH   7   9
ENDBRANCH   6   7
ENDBRANCH   5   6
ENDBRANCH   4   5
ENDBRANCH   3   4
ENDBRANCH   2   3
ENDBRANCH   1   2
BRANCH   1  39
ATOM     39  O   UNL A   1      33.811  34.464  33.247  1.00  0.00    -0.377 OA
BRANCH  39  40
ATOM     40  C   UNL A   1      34.358  35.753  33.025  1.00  0.00     0.188 C 
BRANCH  40  41
ATOM     41  C   UNL A   1      33.434  36.855  32.468  1.00  0.00     0.188 C 
BRANCH  41  42
ATOM     42  O   UNL A   1      33.520  37.036  31.060  1.00  0.00    -0.376 OA
BRANCH  42  43
ATOM     43  C   UNL A   1      32.529  36.451  30.226  1.00  0.00     0.202 C 
BRANCH  43  44
ATOM     44  C   UNL A   1      32.979  35.407  29.190  1.00  0.00     0.261 C 
BRANCH  44  45
ATOM     45  O   UNL A   1      33.369  34.119  29.690  1.00  0.00    -0.460 OA
BRANCH  45  46
ATOM     46  C   UNL A   1      34.049  33.286  28.879  1.00  0.00     0.338 C 
ATOM     47  O   UNL A   1      33.739  32.919  27.759  1.00  0.00    -0.246 OA
BRANCH  46  48
ATOM     48  C   UNL A   1      35.367  33.052  29.503  1.00  0.00     0.060 A 
ATOM     49  C   UNL A   1      36.458  33.835  29.103  1.00  0.00     0.016 A 
ATOM     50  C   UNL A   1      35.519  32.078  30.492  1.00  0.00     0.016 A 
ATOM     51  C   UNL A   1      37.711  33.635  29.676  1.00  0.00     0.010 A 
ATOM     52  C   UNL A   1      36.785  31.840  31.029  1.00  0.00     0.010 A 
ATOM     53  C   UNL A   1      37.890  32.593  30.595  1.00  0.00    -0.014 A 
BRANCH  53  54
ATOM     54  C   UNL A   1      39.262  32.105  30.858  1.00  0.00     0.031 A 
ATOM     55  C   UNL A   1      40.030  32.775  31.963  1.00  0.00     0.074 A 
ATOM     56  C   UNL A   1      39.802  31.089  30.168  1.00  0.00     0.049 A 
ATOM     57  N   UNL A   1      41.250  32.559  32.380  1.00  0.00    -0.248 NA
ATOM     58  C   UNL A   1      39.319  33.833  32.702  1.00  0.00     0.031 C 
ATOM     59  C   UNL A   1      39.130  30.325  29.121  1.00  0.00     0.029 A 
ATOM     60  N   UNL A   1      41.052  30.528  30.252  1.00  0.00    -0.354 N 
ATOM     61  C   UNL A   1      41.445  33.443  33.432  1.00  0.00     0.074 A 
ATOM     62  C   UNL A   1      40.236  34.223  33.571  1.00  0.00     0.031 C 
ATOM     63  C   UNL A   1      39.984  29.399  28.647  1.00  0.00     0.029 A 
ATOM     64  C   UNL A   1      41.268  29.528  29.337  1.00  0.00     0.049 A 
ATOM     65  H   UNL A   1      41.729  30.817  30.906  1.00  0.00     0.167 HD
ATOM     66  C   UNL A   1      42.534  33.587  34.220  1.00  0.00     0.037 A 
ATOM     67  C   UNL A   1      42.384  28.817  29.080  1.00  0.00     0.037 A 
ATOM     68  C   UNL A   1      43.745  32.830  34.059  1.00  0.00     0.049 A 
ATOM     69  C   UNL A   1      43.628  29.075  29.895  1.00  0.00     0.074 A 
ATOM     70  C   UNL A   1      44.909  32.902  34.800  1.00  0.00     0.029 A 
ATOM     71  N   UNL A   1      43.949  31.871  33.078  1.00  0.00    -0.354 N 
ATOM     72  N   UNL A   1      43.804  29.897  30.902  1.00  0.00    -0.248 NA
ATOM     73  C   UNL A   1      44.829  28.306  29.536  1.00  0.00     0.031 C 
ATOM     74  C   UNL A   1      45.841  32.031  34.229  1.00  0.00     0.029 A 
ATOM     75  C   UNL A   1      45.236  31.368  33.172  1.00  0.00     0.049 A 
ATOM     76  H   UNL A   1      43.279  31.590  32.413  1.00  0.00     0.167 HD
ATOM     77  C   UNL A   1      45.121  29.729  31.310  1.00  0.00     0.074 A 
ATOM     78  C   UNL A   1      45.697  28.716  30.451  1.00  0.00     0.031 C 
ATOM     79  C   UNL A   1      45.792  30.357  32.307  1.00  0.00     0.037 A 
BRANCH  66  80
ATOM     80  C   UNL A   1      42.472  34.621  35.303  1.00  0.00     0.064 A 
ATOM     81  C   UNL A   1      42.959  35.923  35.106  1.00  0.00     0.173 A 
ATOM     82  C   UNL A   1      41.896  34.316  36.546  1.00  0.00     0.173 A 
ATOM     83  F   UNL A   1      43.539  36.258  33.944  1.00  0.00    -0.203 F 
ATOM     84  C   UNL A   1      42.886  36.875  36.119  1.00  0.00     0.198 A 
ATOM     85  C   UNL A   1      41.798  35.280  37.545  1.00  0.00     0.198 A 
ATOM     86  F   UNL A   1      41.422  33.085  36.787  1.00  0.00    -0.203 F 
ATOM     87  F   UNL A   1      43.398  38.098  35.924  1.00  0.00    -0.200 F 
ATOM     88  C   UNL A   1      42.298  36.555  37.334  1.00  0.00     0.200 A 
ATOM     89  F   UNL A   1      41.221  34.972  38.714  1.00  0.00    -0.200 F 
ATOM     90  F   UNL A   1      42.219  37.476  38.303  1.00  0.00    -0.200 F 
ENDBRANCH  66  80
BRANCH  67  91
ATOM     91  C   UNL A   1      42.370  27.791  28.006  1.00  0.00     0.064 A 
ATOM     92  C   UNL A   1      42.126  26.443  28.300  1.00  0.00     0.173 A 
ATOM     93  C   UNL A   1      42.579  28.137  26.662  1.00  0.00     0.173 A 
ATOM     94  F   UNL A   1      41.948  26.057  29.572  1.00  0.00    -0.203 F 
ATOM     95  C   UNL A   1      42.090  25.480  27.292  1.00  0.00     0.198 A 
ATOM     96  C   UNL A   1      42.516  27.179  25.652  1.00  0.00     0.198 A 
ATOM     97  F   UNL A   1      42.823  29.413  26.327  1.00  0.00    -0.203 F 
ATOM     98  F   UNL A   1      41.879  24.195  27.605  1.00  0.00    -0.200 F 
ATOM     99  C   UNL A   1      42.274  25.851  25.968  1.00  0.00     0.200 A 
ATOM    100  F   UNL A   1      42.680  27.543  24.373  1.00  0.00    -0.200 F 
ATOM    101  F   UNL A   1      42.218  24.928  24.998  1.00  0.00    -0.200 F 
ENDBRANCH  67  91
BRANCH  79 102
ATOM    102  C   UNL A   1      47.224  29.968  32.546  1.00  0.00     0.064 A 
ATOM    103  C   UNL A   1      48.283  30.663  31.945  1.00  0.00     0.173 A 
ATOM    104  C   UNL A   1      47.540  28.950  33.460  1.00  0.00     0.173 A 
ATOM    105  F   UNL A   1      48.034  31.636  31.058  1.00  0.00    -0.203 F 
ATOM    106  C   UNL A   1      49.606  30.345  32.242  1.00  0.00     0.198 A 
ATOM    107  C   UNL A   1      48.863  28.658  33.779  1.00  0.00     0.198 A 
ATOM    108  F   UNL A   1      46.564  28.263  34.072  1.00  0.00    -0.203 F 
ATOM    109  F   UNL A   1      50.603  31.001  31.632  1.00  0.00    -0.200 F 
ATOM    110  C   UNL A   1      49.895  29.353  33.166  1.00  0.00     0.200 A 
ATOM    111  F   UNL A   1      49.139  27.713  34.689  1.00  0.00    -0.200 F 
ATOM    112  F   UNL A   1      51.169  29.066  33.467  1.00  0.00    -0.200 F 
ENDBRANCH  79 102
ENDBRANCH  53  54
ENDBRANCH  46  48
ENDBRANCH  45  46
ENDBRANCH  44  45
ENDBRANCH  43  44
ENDBRANCH  42  43
ENDBRANCH  41  42
ENDBRANCH  40  41
ENDBRANCH  39  40
ENDBRANCH   1  39
TORSDOF 24
ENDMDL
MODEL 3
REMARK VINA RESULT:      -7.5      4.293     10.226
REMARK SMILES Cc1c(CC(=O)N2CCC(C(=O)OCCOCCOCCOCCOC(=O)c3ccc(-c4c5nc(c(-c6c(F)c(F)c(F)c(F)c6F)c6ccc([nH]6)c(-c6c(F)c(F)c(F)c(F)c6F)c6nc(c(-c7c(F)c(F)c(F)c(F)c7F)c7ccc4[nH]7)C=C6)C=C5)cc3)(c3ccccc3)CC2)c(=O)oc2c(C)c(O)ccc12
REMARK SMILES IDX 18 1 17 2 16 3 15 4 14 5 13 6 11 7 12 8 10 9 5 10 6 11 7 12
REMARK SMILES IDX 8 13 98 14 9 15 97 16 4 17 3 18 1 19 2 20 109 21 99 22
REMARK SMILES IDX 102 23 108 24 100 25 101 26 103 27 107 28 104 29 105 30
REMARK SMILES IDX 106 31 91 33 92 34 96 35 93 36 95 37 94 38 19 39 20 40 21 41
REMARK SMILES IDX 22 42 23 43 24 44 25 45 26 46 27 47 28 48 29 49 90 50 30 51
REMARK SMILES IDX 89 52 31 53 32 54 33 55 83 56 34 57 88 58 82 59 84 60 35 61
REMARK SMILES IDX 87 62 81 63 80 64 36 66 68 67 48 68 67 69 49 70 52 71 66 72
REMARK SMILES IDX 85 73 50 74 51 75 65 77 86 78 53 79 37 80 38 81 46 82 39 83
REMARK SMILES IDX 40 84 44 85 47 86 41 87 42 88 45 89 43 90 69 91 70 92 78 93
REMARK SMILES IDX 71 94 72 95 76 96 79 97 73 98 74 99 77 100 75 101 54 102
REMARK SMILES IDX 55 103 63 104 56 105 57 106 61 107 64 108 58 109 59 110
REMARK SMILES IDX 62 111 60 112
REMARK H PARENT 106 32 84 65 52 76
REMARK Flexibility Score: inf
ROOT
ATOM      1  C   UNL A   1      39.650  36.139  38.043  1.00  0.00     0.188 C 
ENDROOT
BRANCH   1   2
ATOM      2  C   UNL A   1      39.474  34.621  38.112  1.00  0.00     0.188 C 
BRANCH   2   3
ATOM      3  O   UNL A   1      38.183  34.064  38.267  1.00  0.00    -0.376 OA
BRANCH   3   4
ATOM      4  C   UNL A   1      37.633  33.234  37.254  1.00  0.00     0.202 C 
BRANCH   4   5
ATOM      5  C   UNL A   1      36.813  33.758  36.053  1.00  0.00     0.261 C 
BRANCH   5   6
ATOM      6  O   UNL A   1      36.894  33.033  34.810  1.00  0.00    -0.463 OA
BRANCH   6   7
ATOM      7  C   UNL A   1      37.150  33.749  33.687  1.00  0.00     0.316 C 
ATOM      8  O   UNL A   1      37.228  34.976  33.686  1.00  0.00    -0.251 OA
BRANCH   7   9
ATOM      9  C   UNL A   1      37.306  32.891  32.377  1.00  0.00     0.096 C 
ATOM     10  C   UNL A   1      40.317  29.938  31.212  1.00  0.00     0.227 C 
ATOM     11  O   UNL A   1      41.377  30.414  30.784  1.00  0.00    -0.275 OA
ATOM     12  N   UNL A   1      39.206  30.749  31.440  1.00  0.00    -0.342 N 
ATOM     13  C   UNL A   1      39.184  32.024  30.753  1.00  0.00     0.121 C 
ATOM     14  C   UNL A   1      37.949  30.377  32.079  1.00  0.00     0.121 C 
ATOM     15  C   UNL A   1      38.622  33.164  31.587  1.00  0.00     0.045 C 
ATOM     16  C   UNL A   1      37.391  31.471  32.977  1.00  0.00     0.045 C 
BRANCH  10  17
ATOM     17  C   UNL A   1      40.233  28.415  31.359  1.00  0.00     0.143 C 
BRANCH  17  18
ATOM     18  C   UNL A   1      40.480  27.619  30.108  1.00  0.00     0.051 A 
ATOM     19  C   UNL A   1      42.940  27.412  30.523  1.00  0.00     0.046 C 
ATOM     20  C   UNL A   1      41.671  27.072  29.780  1.00  0.00    -0.029 A 
ATOM     21  C   UNL A   1      41.699  26.034  28.733  1.00  0.00     0.021 A 
ATOM     22  C   UNL A   1      39.241  27.346  29.328  1.00  0.00     0.340 A 
ATOM     23  C   UNL A   1      40.536  25.771  28.005  1.00  0.00     0.145 A 
ATOM     24  C   UNL A   1      42.812  25.224  28.478  1.00  0.00     0.016 A 
ATOM     25  O   UNL A   1      38.153  27.814  29.645  1.00  0.00    -0.246 OA
ATOM     26  O   UNL A   1      39.357  26.497  28.250  1.00  0.00    -0.422 OA
ATOM     27  C   UNL A   1      40.448  24.759  27.032  1.00  0.00     0.034 A 
ATOM     28  C   UNL A   1      42.756  24.207  27.518  1.00  0.00     0.047 A 
ATOM     29  C   UNL A   1      39.147  24.509  26.322  1.00  0.00     0.052 C 
ATOM     30  C   UNL A   1      41.581  23.983  26.803  1.00  0.00     0.122 A 
BRANCH  30  31
ATOM     31  O   UNL A   1      41.527  22.984  25.874  1.00  0.00    -0.508 OA
ATOM     32  H   UNL A   1      42.201  22.334  25.846  1.00  0.00     0.293 HD
ENDBRANCH  30  31
ENDBRANCH  17  18
ENDBRANCH  10  17
BRANCH   9  33
ATOM     33  C   UNL A   1      36.085  33.114  31.432  1.00  0.00    -0.031 A 
ATOM     34  C   UNL A   1      35.297  34.280  31.496  1.00  0.00     0.005 A 
ATOM     35  C   UNL A   1      35.753  32.211  30.409  1.00  0.00     0.005 A 
ATOM     36  C   UNL A   1      34.305  34.572  30.554  1.00  0.00     0.000 A 
ATOM     37  C   UNL A   1      34.739  32.479  29.482  1.00  0.00     0.000 A 
ATOM     38  C   UNL A   1      34.029  33.671  29.539  1.00  0.00     0.000 A 
ENDBRANCH   9  33
ENDBRANCH   7   9
ENDBRANCH   6   7
ENDBRANCH   5   6
ENDBRANCH   4   5
ENDBRANCH   3   4
ENDBRANCH   2   3
ENDBRANCH   1   2
BRANCH   1  39
ATOM     39  O   UNL A   1      39.808  36.657  36.741  1.00  0.00    -0.377 OA
BRANCH  39  40
ATOM     40  C   UNL A   1      40.227  35.734  35.749  1.00  0.00     0.188 C 
BRANCH  40  41
ATOM     41  C   UNL A   1      41.490  36.063  34.929  1.00  0.00     0.188 C 
BRANCH  41  42
ATOM     42  O   UNL A   1      42.212  37.197  35.393  1.00  0.00    -0.376 OA
BRANCH  42  43
ATOM     43  C   UNL A   1      43.603  37.070  35.658  1.00  0.00     0.202 C 
BRANCH  43  44
ATOM     44  C   UNL A   1      44.043  36.809  37.108  1.00  0.00     0.261 C 
BRANCH  44  45
ATOM     45  O   UNL A   1      43.124  36.091  37.947  1.00  0.00    -0.460 OA
BRANCH  45  46
ATOM     46  C   UNL A   1      43.560  34.993  38.596  1.00  0.00     0.338 C 
ATOM     47  O   UNL A   1      43.559  34.789  39.797  1.00  0.00    -0.246 OA
BRANCH  46  48
ATOM     48  C   UNL A   1      43.850  33.970  37.572  1.00  0.00     0.060 A 
ATOM     49  C   UNL A   1      45.185  33.643  37.295  1.00  0.00     0.016 A 
ATOM     50  C   UNL A   1      42.809  33.324  36.902  1.00  0.00     0.016 A 
ATOM     51  C   UNL A   1      45.484  32.681  36.334  1.00  0.00     0.010 A 
ATOM     52  C   UNL A   1      43.109  32.399  35.900  1.00  0.00     0.010 A 
ATOM     53  C   UNL A   1      44.448  32.104  35.589  1.00  0.00    -0.014 A 
BRANCH  53  54
ATOM     54  C   UNL A   1      44.777  31.443  34.307  1.00  0.00     0.031 A 
ATOM     55  C   UNL A   1      45.012  29.959  34.339  1.00  0.00     0.074 A 
ATOM     56  C   UNL A   1      44.838  32.120  33.150  1.00  0.00     0.049 A 
ATOM     57  N   UNL A   1      45.336  29.144  33.370  1.00  0.00    -0.248 NA
ATOM     58  C   UNL A   1      44.852  29.302  35.649  1.00  0.00     0.031 C 
ATOM     59  C   UNL A   1      44.568  33.546  32.988  1.00  0.00     0.029 A 
ATOM     60  N   UNL A   1      45.152  31.686  31.887  1.00  0.00    -0.354 N 
ATOM     61  C   UNL A   1      45.409  27.886  33.950  1.00  0.00     0.074 A 
ATOM     62  C   UNL A   1      45.130  28.042  35.359  1.00  0.00     0.031 C 
ATOM     63  C   UNL A   1      44.742  33.874  31.695  1.00  0.00     0.029 A 
ATOM     64  C   UNL A   1      45.164  32.687  30.949  1.00  0.00     0.049 A 
ATOM     65  H   UNL A   1      45.350  30.745  31.674  1.00  0.00     0.167 HD
ATOM     66  C   UNL A   1      45.677  26.700  33.358  1.00  0.00     0.037 A 
ATOM     67  C   UNL A   1      45.499  32.646  29.643  1.00  0.00     0.037 A 
ATOM     68  C   UNL A   1      45.983  26.553  31.962  1.00  0.00     0.049 A 
ATOM     69  C   UNL A   1      45.909  31.332  29.027  1.00  0.00     0.074 A 
ATOM     70  C   UNL A   1      46.275  25.397  31.262  1.00  0.00     0.029 A 
ATOM     71  N   UNL A   1      46.051  27.601  31.056  1.00  0.00    -0.354 N 
ATOM     72  N   UNL A   1      45.957  30.140  29.572  1.00  0.00    -0.248 NA
ATOM     73  C   UNL A   1      46.312  31.357  27.613  1.00  0.00     0.031 C 
ATOM     74  C   UNL A   1      46.580  25.752  29.946  1.00  0.00     0.029 A 
ATOM     75  C   UNL A   1      46.415  27.122  29.809  1.00  0.00     0.049 A 
ATOM     76  H   UNL A   1      45.867  28.544  31.268  1.00  0.00     0.167 HD
ATOM     77  C   UNL A   1      46.371  29.273  28.569  1.00  0.00     0.074 A 
ATOM     78  C   UNL A   1      46.548  30.074  27.375  1.00  0.00     0.031 C 
ATOM     79  C   UNL A   1      46.585  27.935  28.630  1.00  0.00     0.037 A 
BRANCH  66  80
ATOM     80  C   UNL A   1      45.679  25.478  34.226  1.00  0.00     0.064 A 
ATOM     81  C   UNL A   1      46.847  25.033  34.866  1.00  0.00     0.173 A 
ATOM     82  C   UNL A   1      44.495  24.758  34.444  1.00  0.00     0.173 A 
ATOM     83  F   UNL A   1      48.009  25.673  34.672  1.00  0.00    -0.203 F 
ATOM     84  C   UNL A   1      46.831  23.901  35.677  1.00  0.00     0.198 A 
ATOM     85  C   UNL A   1      44.477  23.645  35.280  1.00  0.00     0.198 A 
ATOM     86  F   UNL A   1      43.354  25.138  33.852  1.00  0.00    -0.203 F 
ATOM     87  F   UNL A   1      47.966  23.468  36.240  1.00  0.00    -0.200 F 
ATOM     88  C   UNL A   1      45.645  23.215  35.890  1.00  0.00     0.200 A 
ATOM     89  F   UNL A   1      43.329  22.989  35.493  1.00  0.00    -0.200 F 
ATOM     90  F   UNL A   1      45.630  22.133  36.680  1.00  0.00    -0.200 F 
ENDBRANCH  66  80
BRANCH  67  91
ATOM     91  C   UNL A   1      45.454  33.891  28.834  1.00  0.00     0.064 A 
ATOM     92  C   UNL A   1      46.553  34.758  28.783  1.00  0.00     0.173 A 
ATOM     93  C   UNL A   1      44.321  34.231  28.077  1.00  0.00     0.173 A 
ATOM     94  F   UNL A   1      47.648  34.493  29.509  1.00  0.00    -0.203 F 
ATOM     95  C   UNL A   1      46.523  35.916  28.007  1.00  0.00     0.198 A 
ATOM     96  C   UNL A   1      44.301  35.374  27.281  1.00  0.00     0.198 A 
ATOM     97  F   UNL A   1      43.239  33.439  28.096  1.00  0.00    -0.203 F 
ATOM     98  F   UNL A   1      47.579  36.740  27.997  1.00  0.00    -0.200 F 
ATOM     99  C   UNL A   1      45.402  36.217  27.248  1.00  0.00     0.200 A 
ATOM    100  F   UNL A   1      43.221  35.654  26.538  1.00  0.00    -0.200 F 
ATOM    101  F   UNL A   1      45.382  37.319  26.486  1.00  0.00    -0.200 F 
ENDBRANCH  67  91
BRANCH  79 102
ATOM    102  C   UNL A   1      47.022  27.234  27.374  1.00  0.00     0.064 A 
ATOM    103  C   UNL A   1      48.378  27.036  27.079  1.00  0.00     0.173 A 
ATOM    104  C   UNL A   1      46.071  26.671  26.508  1.00  0.00     0.173 A 
ATOM    105  F   UNL A   1      49.325  27.561  27.869  1.00  0.00    -0.203 F 
ATOM    106  C   UNL A   1      48.766  26.310  25.955  1.00  0.00     0.198 A 
ATOM    107  C   UNL A   1      46.462  25.919  25.405  1.00  0.00     0.198 A 
ATOM    108  F   UNL A   1      44.761  26.821  26.753  1.00  0.00    -0.203 F 
ATOM    109  F   UNL A   1      50.068  26.161  25.674  1.00  0.00    -0.200 F 
ATOM    110  C   UNL A   1      47.809  25.743  25.127  1.00  0.00     0.200 A 
ATOM    111  F   UNL A   1      45.536  25.353  24.618  1.00  0.00    -0.200 F 
ATOM    112  F   UNL A   1      48.186  25.025  24.059  1.00  0.00    -0.200 F 
ENDBRANCH  79 102
ENDBRANCH  53  54
ENDBRANCH  46  48
ENDBRANCH  45  46
ENDBRANCH  44  45
ENDBRANCH  43  44
ENDBRANCH  42  43
ENDBRANCH  41  42
ENDBRANCH  40  41
ENDBRANCH  39  40
ENDBRANCH   1  39
TORSDOF 24
ENDMDL
