MODEL 1
REMARK VINA RESULT:     -11.0      0.000      0.000
REMARK SMILES CC[C@](C)(NC(=O)N1Cc2ccccc2C1)C(=O)OCCOCCOCCOCCOC(=O)c1ccc(-c2c3nc(c(-c4c(F)c(F)c(F)c(F)c4F)c4ccc([nH]4)c(-c4c(F)c(F)c(F)c(F)c4F)c4nc(c(-c5c(F)c(F)c(F)c(F)c5F)c5ccc2[nH]5)C=C4)C=C3)cc1
REMARK SMILES IDX 26 1 25 2 24 3 23 4 22 5 21 6 20 7 19 8 17 9 18 10 3 11 4 12
REMARK SMILES IDX 2 13 1 14 5 15 6 16 7 18 8 19 9 20 16 21 10 22 15 23 11 24
REMARK SMILES IDX 14 25 12 26 13 27 27 28 28 29 29 30 30 31 31 32 32 33 33 34
REMARK SMILES IDX 34 35 35 36 96 37 36 38 95 39 37 40 38 41 39 42 89 43 40 44
REMARK SMILES IDX 94 45 88 46 90 47 41 48 93 49 87 50 86 51 42 53 74 54 54 55
REMARK SMILES IDX 73 56 55 57 58 58 72 59 91 60 56 61 57 62 71 64 92 65 59 66
REMARK SMILES IDX 43 67 44 68 52 69 45 70 46 71 50 72 53 73 47 74 48 75 51 76
REMARK SMILES IDX 49 77 75 78 76 79 84 80 77 81 78 82 82 83 85 84 79 85 80 86
REMARK SMILES IDX 83 87 81 88 60 89 61 90 69 91 62 92 63 93 67 94 70 95 64 96
REMARK SMILES IDX 65 97 68 98 66 99
REMARK H PARENT 5 17 90 52 58 63
REMARK Flexibility Score: inf
ROOT
ATOM      1  C   UNL A   1      34.758  33.680  27.999  1.00  0.00     0.188 C 
ENDROOT
BRANCH   1   2
ATOM      2  O   UNL A   1      34.543  32.434  27.337  1.00  0.00    -0.377 OA
BRANCH   2   3
ATOM      3  C   UNL A   1      33.845  31.366  27.969  1.00  0.00     0.188 C 
BRANCH   3   4
ATOM      4  C   UNL A   1      33.437  30.267  26.971  1.00  0.00     0.188 C 
BRANCH   4   5
ATOM      5  O   UNL A   1      32.339  29.444  27.370  1.00  0.00    -0.376 OA
BRANCH   5   6
ATOM      6  C   UNL A   1      32.173  28.248  26.568  1.00  0.00     0.202 C 
BRANCH   6   7
ATOM      7  C   UNL A   1      33.178  27.864  25.426  1.00  0.00     0.261 C 
BRANCH   7   8
ATOM      8  O   UNL A   1      33.521  26.474  25.314  1.00  0.00    -0.462 OA
BRANCH   8   9
ATOM      9  C   UNL A   1      33.334  25.813  24.163  1.00  0.00     0.331 C 
ATOM     10  O   UNL A   1      33.525  26.320  23.065  1.00  0.00    -0.249 OA
BRANCH   9  11
ATOM     11  C   UNL A   1      32.897  24.322  24.410  1.00  0.00     0.136 C 
ATOM     12  C   UNL A   1      33.392  23.544  23.153  1.00  0.00     0.047 C 
BRANCH  11  13
ATOM     13  C   UNL A   1      31.346  24.255  24.458  1.00  0.00     0.037 C 
ATOM     14  C   UNL A   1      30.638  24.350  23.102  1.00  0.00     0.007 C 
ENDBRANCH  11  13
BRANCH  11  15
ATOM     15  N   UNL A   1      33.463  23.567  25.620  1.00  0.00    -0.322 N 
ATOM     16  C   UNL A   1      34.478  22.651  25.740  1.00  0.00     0.318 C 
ATOM     17  H   UNL A   1      33.013  23.778  26.469  1.00  0.00     0.166 HD
ATOM     18  O   UNL A   1      35.434  22.926  26.465  1.00  0.00    -0.249 OA
ATOM     19  N   UNL A   1      34.299  21.389  25.238  1.00  0.00    -0.316 N 
ATOM     20  C   UNL A   1      33.115  20.671  25.613  1.00  0.00     0.157 C 
ATOM     21  C   UNL A   1      35.365  20.426  24.961  1.00  0.00     0.157 C 
ATOM     22  C   UNL A   1      33.378  19.227  25.422  1.00  0.00    -0.023 A 
ATOM     23  C   UNL A   1      34.637  19.105  24.845  1.00  0.00    -0.023 A 
ATOM     24  C   UNL A   1      32.451  18.192  25.480  1.00  0.00     0.006 A 
ATOM     25  C   UNL A   1      34.952  17.932  24.189  1.00  0.00     0.006 A 
ATOM     26  C   UNL A   1      32.774  17.006  24.837  1.00  0.00     0.000 A 
ATOM     27  C   UNL A   1      34.002  16.892  24.165  1.00  0.00     0.000 A 
ENDBRANCH  11  15
ENDBRANCH   9  11
ENDBRANCH   8   9
ENDBRANCH   7   8
ENDBRANCH   6   7
ENDBRANCH   5   6
ENDBRANCH   4   5
ENDBRANCH   3   4
ENDBRANCH   2   3
ENDBRANCH   1   2
BRANCH   1  28
ATOM     28  C   UNL A   1      33.600  34.650  28.219  1.00  0.00     0.188 C 
BRANCH  28  29
ATOM     29  O   UNL A   1      32.882  34.561  29.444  1.00  0.00    -0.376 OA
BRANCH  29  30
ATOM     30  C   UNL A   1      33.367  35.319  30.542  1.00  0.00     0.202 C 
BRANCH  30  31
ATOM     31  C   UNL A   1      34.080  34.569  31.689  1.00  0.00     0.261 C 
BRANCH  31  32
ATOM     32  O   UNL A   1      34.528  33.223  31.400  1.00  0.00    -0.460 OA
BRANCH  32  33
ATOM     33  C   UNL A   1      35.298  32.610  32.339  1.00  0.00     0.338 C 
ATOM     34  O   UNL A   1      35.144  32.649  33.538  1.00  0.00    -0.246 OA
BRANCH  33  35
ATOM     35  C   UNL A   1      36.316  31.735  31.683  1.00  0.00     0.060 A 
ATOM     36  C   UNL A   1      36.936  30.731  32.442  1.00  0.00     0.016 A 
ATOM     37  C   UNL A   1      36.742  31.957  30.373  1.00  0.00     0.016 A 
ATOM     38  C   UNL A   1      37.990  29.968  31.911  1.00  0.00     0.010 A 
ATOM     39  C   UNL A   1      37.819  31.214  29.851  1.00  0.00     0.010 A 
ATOM     40  C   UNL A   1      38.474  30.233  30.624  1.00  0.00    -0.014 A 
BRANCH  40  41
ATOM     41  C   UNL A   1      39.765  29.649  30.138  1.00  0.00     0.031 A 
ATOM     42  C   UNL A   1      40.967  30.556  30.024  1.00  0.00     0.074 A 
ATOM     43  C   UNL A   1      39.892  28.361  29.763  1.00  0.00     0.049 A 
ATOM     44  N   UNL A   1      42.123  30.349  29.441  1.00  0.00    -0.248 NA
ATOM     45  C   UNL A   1      40.844  31.880  30.653  1.00  0.00     0.031 C 
ATOM     46  C   UNL A   1      38.861  27.335  29.881  1.00  0.00     0.029 A 
ATOM     47  N   UNL A   1      40.950  27.704  29.166  1.00  0.00    -0.354 N 
ATOM     48  C   UNL A   1      42.846  31.526  29.601  1.00  0.00     0.074 A 
ATOM     49  C   UNL A   1      42.004  32.440  30.343  1.00  0.00     0.031 C 
ATOM     50  C   UNL A   1      39.315  26.194  29.332  1.00  0.00     0.029 A 
ATOM     51  C   UNL A   1      40.651  26.420  28.775  1.00  0.00     0.049 A 
ATOM     52  H   UNL A   1      41.834  28.117  29.032  1.00  0.00     0.167 HD
ATOM     53  C   UNL A   1      44.093  31.822  29.161  1.00  0.00     0.037 A 
ATOM     54  C   UNL A   1      41.345  25.548  28.008  1.00  0.00     0.037 A 
ATOM     55  C   UNL A   1      44.950  30.915  28.443  1.00  0.00     0.049 A 
ATOM     56  C   UNL A   1      42.696  25.940  27.446  1.00  0.00     0.074 A 
ATOM     57  C   UNL A   1      46.247  31.124  28.004  1.00  0.00     0.029 A 
ATOM     58  N   UNL A   1      44.597  29.637  28.048  1.00  0.00    -0.354 N 
ATOM     59  N   UNL A   1      43.384  27.042  27.621  1.00  0.00    -0.248 NA
ATOM     60  C   UNL A   1      43.365  24.965  26.565  1.00  0.00     0.031 C 
ATOM     61  C   UNL A   1      46.651  30.002  27.277  1.00  0.00     0.029 A 
ATOM     62  C   UNL A   1      45.632  29.065  27.324  1.00  0.00     0.049 A 
ATOM     63  H   UNL A   1      43.738  29.199  28.249  1.00  0.00     0.167 HD
ATOM     64  C   UNL A   1      44.563  26.881  26.899  1.00  0.00     0.074 A 
ATOM     65  C   UNL A   1      44.515  25.567  26.302  1.00  0.00     0.031 C 
ATOM     66  C   UNL A   1      45.591  27.751  26.741  1.00  0.00     0.037 A 
BRANCH  53  67
ATOM     67  C   UNL A   1      44.614  33.211  29.395  1.00  0.00     0.064 A 
ATOM     68  C   UNL A   1      44.396  34.251  28.482  1.00  0.00     0.173 A 
ATOM     69  C   UNL A   1      45.255  33.521  30.607  1.00  0.00     0.173 A 
ATOM     70  F   UNL A   1      43.793  34.006  27.309  1.00  0.00    -0.203 F 
ATOM     71  C   UNL A   1      44.809  35.550  28.769  1.00  0.00     0.198 A 
ATOM     72  C   UNL A   1      45.640  34.825  30.901  1.00  0.00     0.198 A 
ATOM     73  F   UNL A   1      45.477  32.563  31.518  1.00  0.00    -0.203 F 
ATOM     74  F   UNL A   1      44.613  36.527  27.872  1.00  0.00    -0.200 F 
ATOM     75  C   UNL A   1      45.419  35.838  29.981  1.00  0.00     0.200 A 
ATOM     76  F   UNL A   1      46.210  35.103  32.082  1.00  0.00    -0.200 F 
ATOM     77  F   UNL A   1      45.792  37.093  30.265  1.00  0.00    -0.200 F 
ENDBRANCH  53  67
BRANCH  54  78
ATOM     78  C   UNL A   1      40.755  24.227  27.636  1.00  0.00     0.064 A 
ATOM     79  C   UNL A   1      41.279  23.026  28.136  1.00  0.00     0.173 A 
ATOM     80  C   UNL A   1      39.717  24.137  26.696  1.00  0.00     0.173 A 
ATOM     81  F   UNL A   1      42.302  23.052  29.005  1.00  0.00    -0.203 F 
ATOM     82  C   UNL A   1      40.815  21.790  27.685  1.00  0.00     0.198 A 
ATOM     83  C   UNL A   1      39.225  22.901  26.276  1.00  0.00     0.198 A 
ATOM     84  F   UNL A   1      39.189  25.250  26.166  1.00  0.00    -0.203 F 
ATOM     85  F   UNL A   1      41.391  20.661  28.119  1.00  0.00    -0.200 F 
ATOM     86  C   UNL A   1      39.784  21.729  26.760  1.00  0.00     0.200 A 
ATOM     87  F   UNL A   1      38.226  22.847  25.385  1.00  0.00    -0.200 F 
ATOM     88  F   UNL A   1      39.345  20.542  26.320  1.00  0.00    -0.200 F 
ENDBRANCH  54  78
BRANCH  66  89
ATOM     89  C   UNL A   1      46.771  27.311  25.917  1.00  0.00     0.064 A 
ATOM     90  C   UNL A   1      46.937  27.724  24.587  1.00  0.00     0.173 A 
ATOM     91  C   UNL A   1      47.784  26.521  26.486  1.00  0.00     0.173 A 
ATOM     92  F   UNL A   1      45.996  28.470  23.989  1.00  0.00    -0.203 F 
ATOM     93  C   UNL A   1      48.061  27.349  23.853  1.00  0.00     0.198 A 
ATOM     94  C   UNL A   1      48.921  26.175  25.760  1.00  0.00     0.198 A 
ATOM     95  F   UNL A   1      47.682  26.105  27.758  1.00  0.00    -0.203 F 
ATOM     96  F   UNL A   1      48.177  27.722  22.572  1.00  0.00    -0.200 F 
ATOM     97  C   UNL A   1      49.056  26.585  24.443  1.00  0.00     0.200 A 
ATOM     98  F   UNL A   1      49.890  25.452  26.339  1.00  0.00    -0.200 F 
ATOM     99  F   UNL A   1      50.143  26.238  23.741  1.00  0.00    -0.200 F 
ENDBRANCH  66  89
ENDBRANCH  40  41
ENDBRANCH  33  35
ENDBRANCH  32  33
ENDBRANCH  31  32
ENDBRANCH  30  31
ENDBRANCH  29  30
ENDBRANCH  28  29
ENDBRANCH   1  28
TORSDOF 22
ENDMDL
MODEL 2
REMARK VINA RESULT:     -10.6      3.344      9.182
REMARK SMILES CC[C@](C)(NC(=O)N1Cc2ccccc2C1)C(=O)OCCOCCOCCOCCOC(=O)c1ccc(-c2c3nc(c(-c4c(F)c(F)c(F)c(F)c4F)c4ccc([nH]4)c(-c4c(F)c(F)c(F)c(F)c4F)c4nc(c(-c5c(F)c(F)c(F)c(F)c5F)c5ccc2[nH]5)C=C4)C=C3)cc1
REMARK SMILES IDX 26 1 25 2 24 3 23 4 22 5 21 6 20 7 19 8 17 9 18 10 3 11 4 12
REMARK SMILES IDX 2 13 1 14 5 15 6 16 7 18 8 19 9 20 16 21 10 22 15 23 11 24
REMARK SMILES IDX 14 25 12 26 13 27 27 28 28 29 29 30 30 31 31 32 32 33 33 34
REMARK SMILES IDX 34 35 35 36 96 37 36 38 95 39 37 40 38 41 39 42 89 43 40 44
REMARK SMILES IDX 94 45 88 46 90 47 41 48 93 49 87 50 86 51 42 53 74 54 54 55
REMARK SMILES IDX 73 56 55 57 58 58 72 59 91 60 56 61 57 62 71 64 92 65 59 66
REMARK SMILES IDX 43 67 44 68 52 69 45 70 46 71 50 72 53 73 47 74 48 75 51 76
REMARK SMILES IDX 49 77 75 78 76 79 84 80 77 81 78 82 82 83 85 84 79 85 80 86
REMARK SMILES IDX 83 87 81 88 60 89 61 90 69 91 62 92 63 93 67 94 70 95 64 96
REMARK SMILES IDX 65 97 68 98 66 99
REMARK H PARENT 5 17 90 52 58 63
REMARK Flexibility Score: inf
ROOT
ATOM      1  C   UNL A   1      36.954  23.572  26.121  1.00  0.00     0.188 C 
ENDROOT
BRANCH   1   2
ATOM      2  O   UNL A   1      36.183  23.383  24.936  1.00  0.00    -0.377 OA
BRANCH   2   3
ATOM      3  C   UNL A   1      36.070  22.106  24.316  1.00  0.00     0.188 C 
BRANCH   3   4
ATOM      4  C   UNL A   1      35.528  21.037  25.281  1.00  0.00     0.188 C 
BRANCH   4   5
ATOM      5  O   UNL A   1      35.176  19.786  24.686  1.00  0.00    -0.376 OA
BRANCH   5   6
ATOM      6  C   UNL A   1      33.751  19.521  24.666  1.00  0.00     0.202 C 
BRANCH   6   7
ATOM      7  C   UNL A   1      32.708  20.518  25.280  1.00  0.00     0.261 C 
BRANCH   7   8
ATOM      8  O   UNL A   1      31.772  21.112  24.366  1.00  0.00    -0.462 OA
BRANCH   8   9
ATOM      9  C   UNL A   1      32.185  21.971  23.424  1.00  0.00     0.331 C 
ATOM     10  O   UNL A   1      32.462  21.625  22.282  1.00  0.00    -0.249 OA
BRANCH   9  11
ATOM     11  C   UNL A   1      32.220  23.451  23.958  1.00  0.00     0.136 C 
ATOM     12  C   UNL A   1      30.815  24.034  23.614  1.00  0.00     0.047 C 
BRANCH  11  13
ATOM     13  C   UNL A   1      33.296  24.245  23.168  1.00  0.00     0.037 C 
ATOM     14  C   UNL A   1      32.817  25.555  22.534  1.00  0.00     0.007 C 
ENDBRANCH  11  13
BRANCH  11  15
ATOM     15  N   UNL A   1      32.421  23.700  25.458  1.00  0.00    -0.322 N 
ATOM     16  C   UNL A   1      31.778  24.525  26.348  1.00  0.00     0.318 C 
ATOM     17  H   UNL A   1      33.149  23.172  25.857  1.00  0.00     0.166 HD
ATOM     18  O   UNL A   1      31.213  24.015  27.315  1.00  0.00    -0.249 OA
ATOM     19  N   UNL A   1      31.969  25.878  26.260  1.00  0.00    -0.316 N 
ATOM     20  C   UNL A   1      33.314  26.372  26.213  1.00  0.00     0.157 C 
ATOM     21  C   UNL A   1      31.114  26.898  26.868  1.00  0.00     0.157 C 
ATOM     22  C   UNL A   1      33.297  27.786  26.652  1.00  0.00    -0.023 A 
ATOM     23  C   UNL A   1      31.967  28.147  26.842  1.00  0.00    -0.023 A 
ATOM     24  C   UNL A   1      34.342  28.699  26.578  1.00  0.00     0.006 A 
ATOM     25  C   UNL A   1      31.641  29.488  26.843  1.00  0.00     0.006 A 
ATOM     26  C   UNL A   1      34.018  30.048  26.597  1.00  0.00     0.000 A 
ATOM     27  C   UNL A   1      32.672  30.436  26.692  1.00  0.00     0.000 A 
ENDBRANCH  11  15
ENDBRANCH   9  11
ENDBRANCH   8   9
ENDBRANCH   7   8
ENDBRANCH   6   7
ENDBRANCH   5   6
ENDBRANCH   4   5
ENDBRANCH   3   4
ENDBRANCH   2   3
ENDBRANCH   1   2
BRANCH   1  28
ATOM     28  C   UNL A   1      38.475  23.437  26.084  1.00  0.00     0.188 C 
BRANCH  28  29
ATOM     29  O   UNL A   1      39.049  22.243  26.602  1.00  0.00    -0.376 OA
BRANCH  29  30
ATOM     30  C   UNL A   1      39.290  21.185  25.687  1.00  0.00     0.202 C 
BRANCH  30  31
ATOM     31  C   UNL A   1      39.791  19.835  26.247  1.00  0.00     0.261 C 
BRANCH  31  32
ATOM     32  O   UNL A   1      40.855  19.186  25.511  1.00  0.00    -0.460 OA
BRANCH  32  33
ATOM     33  C   UNL A   1      42.061  19.078  26.129  1.00  0.00     0.338 C 
ATOM     34  O   UNL A   1      42.658  18.056  26.377  1.00  0.00    -0.246 OA
BRANCH  33  35
ATOM     35  C   UNL A   1      42.651  20.434  26.352  1.00  0.00     0.060 A 
ATOM     36  C   UNL A   1      42.568  21.006  27.631  1.00  0.00     0.016 A 
ATOM     37  C   UNL A   1      43.184  21.185  25.304  1.00  0.00     0.016 A 
ATOM     38  C   UNL A   1      42.989  22.327  27.861  1.00  0.00     0.010 A 
ATOM     39  C   UNL A   1      43.577  22.519  25.529  1.00  0.00     0.010 A 
ATOM     40  C   UNL A   1      43.456  23.114  26.801  1.00  0.00    -0.014 A 
BRANCH  40  41
ATOM     41  C   UNL A   1      43.637  24.594  26.947  1.00  0.00     0.031 A 
ATOM     42  C   UNL A   1      45.014  25.175  26.731  1.00  0.00     0.074 A 
ATOM     43  C   UNL A   1      42.634  25.424  27.297  1.00  0.00     0.049 A 
ATOM     44  N   UNL A   1      45.470  26.375  26.999  1.00  0.00    -0.248 NA
ATOM     45  C   UNL A   1      46.013  24.275  26.133  1.00  0.00     0.031 C 
ATOM     46  C   UNL A   1      41.236  25.045  27.467  1.00  0.00     0.029 A 
ATOM     47  N   UNL A   1      42.657  26.768  27.612  1.00  0.00    -0.354 N 
ATOM     48  C   UNL A   1      46.813  26.359  26.638  1.00  0.00     0.074 A 
ATOM     49  C   UNL A   1      47.097  25.037  26.124  1.00  0.00     0.031 C 
ATOM     50  C   UNL A   1      40.542  26.114  27.899  1.00  0.00     0.029 A 
ATOM     51  C   UNL A   1      41.456  27.243  28.088  1.00  0.00     0.049 A 
ATOM     52  H   UNL A   1      43.456  27.333  27.506  1.00  0.00     0.167 HD
ATOM     53  C   UNL A   1      47.729  27.354  26.736  1.00  0.00     0.037 A 
ATOM     54  C   UNL A   1      41.143  28.425  28.664  1.00  0.00     0.037 A 
ATOM     55  C   UNL A   1      47.455  28.681  27.223  1.00  0.00     0.049 A 
ATOM     56  C   UNL A   1      42.209  29.486  28.851  1.00  0.00     0.074 A 
ATOM     57  C   UNL A   1      48.320  29.760  27.309  1.00  0.00     0.029 A 
ATOM     58  N   UNL A   1      46.235  29.107  27.718  1.00  0.00    -0.354 N 
ATOM     59  N   UNL A   1      43.467  29.475  28.486  1.00  0.00    -0.248 NA
ATOM     60  C   UNL A   1      41.809  30.723  29.545  1.00  0.00     0.031 C 
ATOM     61  C   UNL A   1      47.644  30.816  27.926  1.00  0.00     0.029 A 
ATOM     62  C   UNL A   1      46.338  30.417  28.159  1.00  0.00     0.049 A 
ATOM     63  H   UNL A   1      45.416  28.561  27.752  1.00  0.00     0.167 HD
ATOM     64  C   UNL A   1      43.994  30.702  28.881  1.00  0.00     0.074 A 
ATOM     65  C   UNL A   1      42.918  31.446  29.492  1.00  0.00     0.031 C 
ATOM     66  C   UNL A   1      45.263  31.165  28.754  1.00  0.00     0.037 A 
BRANCH  53  67
ATOM     67  C   UNL A   1      49.148  27.048  26.352  1.00  0.00     0.064 A 
ATOM     68  C   UNL A   1      50.074  26.538  27.272  1.00  0.00     0.173 A 
ATOM     69  C   UNL A   1      49.552  27.175  25.013  1.00  0.00     0.173 A 
ATOM     70  F   UNL A   1      49.740  26.402  28.564  1.00  0.00    -0.203 F 
ATOM     71  C   UNL A   1      51.356  26.175  26.867  1.00  0.00     0.198 A 
ATOM     72  C   UNL A   1      50.824  26.784  24.606  1.00  0.00     0.198 A 
ATOM     73  F   UNL A   1      48.699  27.648  24.092  1.00  0.00    -0.203 F 
ATOM     74  F   UNL A   1      52.235  25.711  27.766  1.00  0.00    -0.200 F 
ATOM     75  C   UNL A   1      51.726  26.287  25.534  1.00  0.00     0.200 A 
ATOM     76  F   UNL A   1      51.170  26.874  23.315  1.00  0.00    -0.200 F 
ATOM     77  F   UNL A   1      52.952  25.913  25.142  1.00  0.00    -0.200 F 
ENDBRANCH  53  67
BRANCH  54  78
ATOM     78  C   UNL A   1      39.769  28.669  29.197  1.00  0.00     0.064 A 
ATOM     79  C   UNL A   1      38.793  29.324  28.431  1.00  0.00     0.173 A 
ATOM     80  C   UNL A   1      39.437  28.340  30.521  1.00  0.00     0.173 A 
ATOM     81  F   UNL A   1      39.071  29.700  27.173  1.00  0.00    -0.203 F 
ATOM     82  C   UNL A   1      37.556  29.669  28.976  1.00  0.00     0.198 A 
ATOM     83  C   UNL A   1      38.185  28.650  31.053  1.00  0.00     0.198 A 
ATOM     84  F   UNL A   1      40.336  27.733  31.310  1.00  0.00    -0.203 F 
ATOM     85  F   UNL A   1      36.675  30.366  28.245  1.00  0.00    -0.200 F 
ATOM     86  C   UNL A   1      37.252  29.327  30.284  1.00  0.00     0.200 A 
ATOM     87  F   UNL A   1      37.894  28.313  32.316  1.00  0.00    -0.200 F 
ATOM     88  F   UNL A   1      36.067  29.667  30.810  1.00  0.00    -0.200 F 
ENDBRANCH  54  78
BRANCH  66  89
ATOM     89  C   UNL A   1      45.564  32.553  29.252  1.00  0.00     0.064 A 
ATOM     90  C   UNL A   1      46.058  32.781  30.544  1.00  0.00     0.173 A 
ATOM     91  C   UNL A   1      45.421  33.662  28.403  1.00  0.00     0.173 A 
ATOM     92  F   UNL A   1      46.204  31.760  31.403  1.00  0.00    -0.203 F 
ATOM     93  C   UNL A   1      46.378  34.068  30.974  1.00  0.00     0.198 A 
ATOM     94  C   UNL A   1      45.773  34.942  28.824  1.00  0.00     0.198 A 
ATOM     95  F   UNL A   1      44.961  33.501  27.152  1.00  0.00    -0.203 F 
ATOM     96  F   UNL A   1      46.810  34.266  32.227  1.00  0.00    -0.200 F 
ATOM     97  C   UNL A   1      46.246  35.144  30.111  1.00  0.00     0.200 A 
ATOM     98  F   UNL A   1      45.662  35.978  27.981  1.00  0.00    -0.200 F 
ATOM     99  F   UNL A   1      46.570  36.378  30.520  1.00  0.00    -0.200 F 
ENDBRANCH  66  89
ENDBRANCH  40  41
ENDBRANCH  33  35
ENDBRANCH  32  33
ENDBRANCH  31  32
ENDBRANCH  30  31
ENDBRANCH  29  30
ENDBRANCH  28  29
ENDBRANCH   1  28
TORSDOF 22
ENDMDL
MODEL 3
REMARK VINA RESULT:     -10.5      1.646      7.280
REMARK SMILES CC[C@](C)(NC(=O)N1Cc2ccccc2C1)C(=O)OCCOCCOCCOCCOC(=O)c1ccc(-c2c3nc(c(-c4c(F)c(F)c(F)c(F)c4F)c4ccc([nH]4)c(-c4c(F)c(F)c(F)c(F)c4F)c4nc(c(-c5c(F)c(F)c(F)c(F)c5F)c5ccc2[nH]5)C=C4)C=C3)cc1
REMARK SMILES IDX 26 1 25 2 24 3 23 4 22 5 21 6 20 7 19 8 17 9 18 10 3 11 4 12
REMARK SMILES IDX 2 13 1 14 5 15 6 16 7 18 8 19 9 20 16 21 10 22 15 23 11 24
REMARK SMILES IDX 14 25 12 26 13 27 27 28 28 29 29 30 30 31 31 32 32 33 33 34
REMARK SMILES IDX 34 35 35 36 96 37 36 38 95 39 37 40 38 41 39 42 89 43 40 44
REMARK SMILES IDX 94 45 88 46 90 47 41 48 93 49 87 50 86 51 42 53 74 54 54 55
REMARK SMILES IDX 73 56 55 57 58 58 72 59 91 60 56 61 57 62 71 64 92 65 59 66
REMARK SMILES IDX 43 67 44 68 52 69 45 70 46 71 50 72 53 73 47 74 48 75 51 76
REMARK SMILES IDX 49 77 75 78 76 79 84 80 77 81 78 82 82 83 85 84 79 85 80 86
REMARK SMILES IDX 83 87 81 88 60 89 61 90 69 91 62 92 63 93 67 94 70 95 64 96
REMARK SMILES IDX 65 97 68 98 66 99
REMARK H PARENT 5 17 90 52 58 63
REMARK Flexibility Score: inf
ROOT
ATOM      1  C   UNL A   1      35.122  33.908  29.762  1.00  0.00     0.188 C 
ENDROOT
BRANCH   1   2
ATOM      2  O   UNL A   1      34.468  33.139  28.753  1.00  0.00    -0.377 OA
BRANCH   2   3
ATOM      3  C   UNL A   1      34.955  31.860  28.360  1.00  0.00     0.188 C 
BRANCH   3   4
ATOM      4  C   UNL A   1      33.896  31.047  27.592  1.00  0.00     0.188 C 
BRANCH   4   5
ATOM      5  O   UNL A   1      34.383  29.896  26.898  1.00  0.00    -0.376 OA
BRANCH   5   6
ATOM      6  C   UNL A   1      33.678  28.671  27.218  1.00  0.00     0.202 C 
BRANCH   6   7
ATOM      7  C   UNL A   1      32.307  28.298  26.554  1.00  0.00     0.261 C 
BRANCH   7   8
ATOM      8  O   UNL A   1      32.180  28.568  25.149  1.00  0.00    -0.462 OA
BRANCH   8   9
ATOM      9  C   UNL A   1      32.292  27.581  24.249  1.00  0.00     0.331 C 
ATOM     10  O   UNL A   1      33.363  27.058  23.965  1.00  0.00    -0.249 OA
BRANCH   9  11
ATOM     11  C   UNL A   1      30.894  27.166  23.659  1.00  0.00     0.136 C 
ATOM     12  C   UNL A   1      31.210  26.583  22.248  1.00  0.00     0.047 C 
BRANCH  11  13
ATOM     13  C   UNL A   1      30.022  28.440  23.488  1.00  0.00     0.037 C 
ATOM     14  C   UNL A   1      28.569  28.195  23.068  1.00  0.00     0.007 C 
ENDBRANCH  11  13
BRANCH  11  15
ATOM     15  N   UNL A   1      30.067  26.094  24.380  1.00  0.00    -0.322 N 
ATOM     16  C   UNL A   1      30.299  25.366  25.521  1.00  0.00     0.318 C 
ATOM     17  H   UNL A   1      29.211  25.887  23.942  1.00  0.00     0.166 HD
ATOM     18  O   UNL A   1      29.509  25.477  26.458  1.00  0.00    -0.249 OA
ATOM     19  N   UNL A   1      31.257  24.388  25.504  1.00  0.00    -0.316 N 
ATOM     20  C   UNL A   1      31.213  23.412  24.454  1.00  0.00     0.157 C 
ATOM     21  C   UNL A   1      31.872  23.780  26.685  1.00  0.00     0.157 C 
ATOM     22  C   UNL A   1      31.950  22.214  24.912  1.00  0.00    -0.023 A 
ATOM     23  C   UNL A   1      32.508  22.515  26.150  1.00  0.00    -0.023 A 
ATOM     24  C   UNL A   1      32.316  21.112  24.148  1.00  0.00     0.006 A 
ATOM     25  C   UNL A   1      33.565  21.752  26.602  1.00  0.00     0.006 A 
ATOM     26  C   UNL A   1      33.367  20.332  24.610  1.00  0.00     0.000 A 
ATOM     27  C   UNL A   1      34.009  20.674  25.811  1.00  0.00     0.000 A 
ENDBRANCH  11  15
ENDBRANCH   9  11
ENDBRANCH   8   9
ENDBRANCH   7   8
ENDBRANCH   6   7
ENDBRANCH   5   6
ENDBRANCH   4   5
ENDBRANCH   3   4
ENDBRANCH   2   3
ENDBRANCH   1   2
BRANCH   1  28
ATOM     28  C   UNL A   1      34.402  34.248  31.065  1.00  0.00     0.188 C 
BRANCH  28  29
ATOM     29  O   UNL A   1      34.178  33.195  31.995  1.00  0.00    -0.376 OA
BRANCH  29  30
ATOM     30  C   UNL A   1      34.043  33.549  33.362  1.00  0.00     0.202 C 
BRANCH  30  31
ATOM     31  C   UNL A   1      35.295  33.470  34.264  1.00  0.00     0.261 C 
BRANCH  31  32
ATOM     32  O   UNL A   1      36.557  33.232  33.597  1.00  0.00    -0.460 OA
BRANCH  32  33
ATOM     33  C   UNL A   1      37.345  32.242  34.097  1.00  0.00     0.338 C 
ATOM     34  O   UNL A   1      37.352  31.827  35.233  1.00  0.00    -0.246 OA
BRANCH  33  35
ATOM     35  C   UNL A   1      38.138  31.609  32.999  1.00  0.00     0.060 A 
ATOM     36  C   UNL A   1      39.213  30.773  33.337  1.00  0.00     0.016 A 
ATOM     37  C   UNL A   1      37.907  31.910  31.657  1.00  0.00     0.016 A 
ATOM     38  C   UNL A   1      40.069  30.258  32.347  1.00  0.00     0.010 A 
ATOM     39  C   UNL A   1      38.783  31.419  30.668  1.00  0.00     0.010 A 
ATOM     40  C   UNL A   1      39.890  30.614  31.005  1.00  0.00    -0.014 A 
BRANCH  40  41
ATOM     41  C   UNL A   1      40.937  30.326  29.973  1.00  0.00     0.031 A 
ATOM     42  C   UNL A   1      40.970  28.954  29.345  1.00  0.00     0.074 A 
ATOM     43  C   UNL A   1      41.873  31.225  29.609  1.00  0.00     0.049 A 
ATOM     44  N   UNL A   1      41.889  28.395  28.595  1.00  0.00    -0.248 NA
ATOM     45  C   UNL A   1      39.804  28.093  29.601  1.00  0.00     0.031 C 
ATOM     46  C   UNL A   1      41.939  32.612  30.056  1.00  0.00     0.029 A 
ATOM     47  N   UNL A   1      42.980  31.082  28.796  1.00  0.00    -0.354 N 
ATOM     48  C   UNL A   1      41.430  27.111  28.324  1.00  0.00     0.074 A 
ATOM     49  C   UNL A   1      40.148  26.974  28.980  1.00  0.00     0.031 C 
ATOM     50  C   UNL A   1      43.051  33.180  29.553  1.00  0.00     0.029 A 
ATOM     51  C   UNL A   1      43.805  32.183  28.790  1.00  0.00     0.049 A 
ATOM     52  H   UNL A   1      43.161  30.268  28.271  1.00  0.00     0.167 HD
ATOM     53  C   UNL A   1      42.028  26.131  27.604  1.00  0.00     0.037 A 
ATOM     54  C   UNL A   1      45.046  32.350  28.281  1.00  0.00     0.037 A 
ATOM     55  C   UNL A   1      43.292  26.261  26.927  1.00  0.00     0.049 A 
ATOM     56  C   UNL A   1      45.734  31.206  27.563  1.00  0.00     0.074 A 
ATOM     57  C   UNL A   1      43.943  25.328  26.135  1.00  0.00     0.029 A 
ATOM     58  N   UNL A   1      44.102  27.382  26.969  1.00  0.00    -0.354 N 
ATOM     59  N   UNL A   1      45.286  30.006  27.289  1.00  0.00    -0.248 NA
ATOM     60  C   UNL A   1      47.111  31.441  27.093  1.00  0.00     0.031 C 
ATOM     61  C   UNL A   1      45.181  25.857  25.762  1.00  0.00     0.029 A 
ATOM     62  C   UNL A   1      45.271  27.145  26.262  1.00  0.00     0.049 A 
ATOM     63  H   UNL A   1      43.882  28.222  27.434  1.00  0.00     0.167 HD
ATOM     64  C   UNL A   1      46.309  29.360  26.600  1.00  0.00     0.074 A 
ATOM     65  C   UNL A   1      47.393  30.304  26.473  1.00  0.00     0.031 C 
ATOM     66  C   UNL A   1      46.346  28.091  26.122  1.00  0.00     0.037 A 
BRANCH  53  67
ATOM     67  C   UNL A   1      41.353  24.792  27.535  1.00  0.00     0.064 A 
ATOM     68  C   UNL A   1      40.271  24.547  26.679  1.00  0.00     0.173 A 
ATOM     69  C   UNL A   1      41.869  23.711  28.270  1.00  0.00     0.173 A 
ATOM     70  F   UNL A   1      39.738  25.546  25.959  1.00  0.00    -0.203 F 
ATOM     71  C   UNL A   1      39.724  23.270  26.567  1.00  0.00     0.198 A 
ATOM     72  C   UNL A   1      41.339  22.432  28.134  1.00  0.00     0.198 A 
ATOM     73  F   UNL A   1      42.910  23.891  29.096  1.00  0.00    -0.203 F 
ATOM     74  F   UNL A   1      38.675  23.061  25.760  1.00  0.00    -0.200 F 
ATOM     75  C   UNL A   1      40.265  22.213  27.285  1.00  0.00     0.200 A 
ATOM     76  F   UNL A   1      41.877  21.410  28.813  1.00  0.00    -0.200 F 
ATOM     77  F   UNL A   1      39.754  20.981  27.156  1.00  0.00    -0.200 F 
ENDBRANCH  53  67
BRANCH  54  78
ATOM     78  C   UNL A   1      45.787  33.629  28.492  1.00  0.00     0.064 A 
ATOM     79  C   UNL A   1      46.555  33.847  29.646  1.00  0.00     0.173 A 
ATOM     80  C   UNL A   1      45.661  34.697  27.590  1.00  0.00     0.173 A 
ATOM     81  F   UNL A   1      46.674  32.875  30.564  1.00  0.00    -0.203 F 
ATOM     82  C   UNL A   1      47.137  35.088  29.904  1.00  0.00     0.198 A 
ATOM     83  C   UNL A   1      46.277  35.926  27.829  1.00  0.00     0.198 A 
ATOM     84  F   UNL A   1      44.922  34.557  26.479  1.00  0.00    -0.203 F 
ATOM     85  F   UNL A   1      47.796  35.290  31.054  1.00  0.00    -0.200 F 
ATOM     86  C   UNL A   1      47.003  36.124  28.993  1.00  0.00     0.200 A 
ATOM     87  F   UNL A   1      46.148  36.922  26.943  1.00  0.00    -0.200 F 
ATOM     88  F   UNL A   1      47.553  37.319  29.247  1.00  0.00    -0.200 F 
ENDBRANCH  54  78
BRANCH  66  89
ATOM     89  C   UNL A   1      47.581  27.647  25.386  1.00  0.00     0.064 A 
ATOM     90  C   UNL A   1      47.692  27.765  23.993  1.00  0.00     0.173 A 
ATOM     91  C   UNL A   1      48.694  27.158  26.090  1.00  0.00     0.173 A 
ATOM     92  F   UNL A   1      46.656  28.214  23.268  1.00  0.00    -0.203 F 
ATOM     93  C   UNL A   1      48.861  27.394  23.331  1.00  0.00     0.198 A 
ATOM     94  C   UNL A   1      49.872  26.820  25.429  1.00  0.00     0.198 A 
ATOM     95  F   UNL A   1      48.647  27.033  27.426  1.00  0.00    -0.203 F 
ATOM     96  F   UNL A   1      48.928  27.479  21.996  1.00  0.00    -0.200 F 
ATOM     97  C   UNL A   1      49.953  26.933  24.050  1.00  0.00     0.200 A 
ATOM     98  F   UNL A   1      50.932  26.392  26.129  1.00  0.00    -0.200 F 
ATOM     99  F   UNL A   1      51.081  26.592  23.414  1.00  0.00    -0.200 F 
ENDBRANCH  66  89
ENDBRANCH  40  41
ENDBRANCH  33  35
ENDBRANCH  32  33
ENDBRANCH  31  32
ENDBRANCH  30  31
ENDBRANCH  29  30
ENDBRANCH  28  29
ENDBRANCH   1  28
TORSDOF 22
ENDMDL
