MODEL 1
REMARK VINA RESULT:      -9.2      0.000      0.000
REMARK SMILES CCC(CC)(Nc1nc(Cl)nc(OC)n1)C(=O)OCCOCCOCCOCCOC(=O)c1ccc(-c2c3nc(c(-c4c(F)c(F)c(F)c(F)c4F)c4ccc([nH]4)c(-c4c(F)c(F)c(F)c(F)c4F)c4nc(c(-c5c(F)c(F)c(F)c(F)c5F)c5ccc2[nH]5)C=C4)C=C3)cc1
REMARK SMILES IDX 23 1 22 2 21 3 20 4 19 5 18 6 16 7 17 8 3 9 2 10 1 11 4 12
REMARK SMILES IDX 5 13 6 14 7 16 8 17 15 18 9 19 12 20 10 21 11 22 13 23 14 24
REMARK SMILES IDX 24 25 25 26 26 27 27 28 28 29 29 30 30 31 31 32 32 33 33 34
REMARK SMILES IDX 34 35 95 36 35 37 94 38 36 39 37 40 38 41 88 42 39 43 93 44
REMARK SMILES IDX 87 45 89 46 40 47 92 48 86 49 85 50 41 52 73 53 53 54 72 55
REMARK SMILES IDX 54 56 57 57 71 58 90 59 55 60 56 61 70 63 91 64 58 65 42 66
REMARK SMILES IDX 43 67 51 68 44 69 45 70 49 71 52 72 46 73 47 74 50 75 48 76
REMARK SMILES IDX 74 77 75 78 83 79 76 80 77 81 81 82 84 83 78 84 79 85 82 86
REMARK SMILES IDX 80 87 59 88 60 89 68 90 61 91 62 92 66 93 69 94 63 95 64 96
REMARK SMILES IDX 67 97 65 98
REMARK H PARENT 6 15 89 51 57 62
REMARK Flexibility Score: inf
ROOT
ATOM      1  C   UNL A   1      35.356  24.034  25.201  1.00  0.00     0.188 C 
ENDROOT
BRANCH   1   2
ATOM      2  C   UNL A   1      34.686  23.602  26.510  1.00  0.00     0.188 C 
BRANCH   2   3
ATOM      3  O   UNL A   1      33.367  23.074  26.434  1.00  0.00    -0.376 OA
BRANCH   3   4
ATOM      4  C   UNL A   1      32.309  23.993  26.129  1.00  0.00     0.202 C 
BRANCH   4   5
ATOM      5  C   UNL A   1      31.699  23.861  24.740  1.00  0.00     0.261 C 
BRANCH   5   6
ATOM      6  O   UNL A   1      32.077  25.005  23.948  1.00  0.00    -0.461 OA
BRANCH   6   7
ATOM      7  C   UNL A   1      31.090  25.888  23.695  1.00  0.00     0.331 C 
ATOM      8  O   UNL A   1      29.910  25.544  23.608  1.00  0.00    -0.249 OA
BRANCH   7   9
ATOM      9  C   UNL A   1      31.515  27.375  23.550  1.00  0.00     0.137 C 
BRANCH   9  10
ATOM     10  C   UNL A   1      33.054  27.422  23.264  1.00  0.00     0.037 C 
ATOM     11  C   UNL A   1      33.631  28.645  22.575  1.00  0.00     0.007 C 
ENDBRANCH   9  10
BRANCH   9  12
ATOM     12  C   UNL A   1      31.099  28.010  24.903  1.00  0.00     0.037 C 
ATOM     13  C   UNL A   1      31.956  27.675  26.110  1.00  0.00     0.007 C 
ENDBRANCH   9  12
BRANCH   9  14
ATOM     14  N   UNL A   1      30.969  28.193  22.451  1.00  0.00    -0.338 N 
ATOM     15  H   UNL A   1      31.570  28.233  21.672  1.00  0.00     0.164 HD
BRANCH  14  16
ATOM     16  C   UNL A   1      29.828  28.899  22.267  1.00  0.00     0.231 A 
ATOM     17  N   UNL A   1      29.777  29.947  21.482  1.00  0.00    -0.182 NA
ATOM     18  N   UNL A   1      28.782  28.417  22.936  1.00  0.00    -0.159 NA
ATOM     19  C   UNL A   1      28.605  30.564  21.504  1.00  0.00     0.230 A 
ATOM     20  C   UNL A   1      27.660  29.130  22.857  1.00  0.00     0.322 A 
ATOM     21  Cl  UNL A   1      28.525  31.975  20.554  1.00  0.00    -0.041 Cl
ATOM     22  N   UNL A   1      27.501  30.231  22.150  1.00  0.00    -0.164 NA
BRANCH  20  23
ATOM     23  O   UNL A   1      26.537  28.727  23.550  1.00  0.00    -0.467 OA
ATOM     24  C   UNL A   1      26.592  27.379  23.999  1.00  0.00     0.282 C 
ENDBRANCH  20  23
ENDBRANCH  14  16
ENDBRANCH   9  14
ENDBRANCH   7   9
ENDBRANCH   6   7
ENDBRANCH   5   6
ENDBRANCH   4   5
ENDBRANCH   3   4
ENDBRANCH   2   3
ENDBRANCH   1   2
BRANCH   1  25
ATOM     25  O   UNL A   1      35.887  22.997  24.389  1.00  0.00    -0.377 OA
BRANCH  25  26
ATOM     26  C   UNL A   1      37.280  22.753  24.564  1.00  0.00     0.188 C 
BRANCH  26  27
ATOM     27  C   UNL A   1      37.699  21.729  25.631  1.00  0.00     0.188 C 
BRANCH  27  28
ATOM     28  O   UNL A   1      37.687  20.350  25.288  1.00  0.00    -0.376 OA
BRANCH  28  29
ATOM     29  C   UNL A   1      38.933  19.717  25.014  1.00  0.00     0.202 C 
BRANCH  29  30
ATOM     30  C   UNL A   1      39.969  19.813  26.130  1.00  0.00     0.261 C 
BRANCH  30  31
ATOM     31  O   UNL A   1      41.065  18.914  25.874  1.00  0.00    -0.460 OA
BRANCH  31  32
ATOM     32  C   UNL A   1      42.292  19.373  26.175  1.00  0.00     0.338 C 
ATOM     33  O   UNL A   1      43.347  18.739  26.184  1.00  0.00    -0.246 OA
BRANCH  32  34
ATOM     34  C   UNL A   1      42.247  20.820  26.415  1.00  0.00     0.060 A 
ATOM     35  C   UNL A   1      42.298  21.685  25.314  1.00  0.00     0.016 A 
ATOM     36  C   UNL A   1      42.286  21.320  27.717  1.00  0.00     0.016 A 
ATOM     37  C   UNL A   1      42.430  23.060  25.513  1.00  0.00     0.010 A 
ATOM     38  C   UNL A   1      42.433  22.695  27.912  1.00  0.00     0.010 A 
ATOM     39  C   UNL A   1      42.541  23.569  26.814  1.00  0.00    -0.014 A 
BRANCH  39  40
ATOM     40  C   UNL A   1      42.897  24.989  27.050  1.00  0.00     0.031 A 
ATOM     41  C   UNL A   1      44.327  25.418  26.892  1.00  0.00     0.074 A 
ATOM     42  C   UNL A   1      41.973  25.876  27.458  1.00  0.00     0.049 A 
ATOM     43  N   UNL A   1      44.883  26.565  27.187  1.00  0.00    -0.248 NA
ATOM     44  C   UNL A   1      45.250  24.429  26.313  1.00  0.00     0.031 C 
ATOM     45  C   UNL A   1      40.548  25.602  27.572  1.00  0.00     0.029 A 
ATOM     46  N   UNL A   1      42.101  27.169  27.901  1.00  0.00    -0.354 N 
ATOM     47  C   UNL A   1      46.216  26.438  26.826  1.00  0.00     0.074 A 
ATOM     48  C   UNL A   1      46.396  25.096  26.314  1.00  0.00     0.031 C 
ATOM     49  C   UNL A   1      39.940  26.649  28.154  1.00  0.00     0.029 A 
ATOM     50  C   UNL A   1      40.942  27.671  28.444  1.00  0.00     0.049 A 
ATOM     51  H   UNL A   1      42.937  27.685  27.837  1.00  0.00     0.167 HD
ATOM     52  C   UNL A   1      47.196  27.367  26.907  1.00  0.00     0.037 A 
ATOM     53  C   UNL A   1      40.725  28.809  29.131  1.00  0.00     0.037 A 
ATOM     54  C   UNL A   1      47.007  28.701  27.412  1.00  0.00     0.049 A 
ATOM     55  C   UNL A   1      41.860  29.780  29.314  1.00  0.00     0.074 A 
ATOM     56  C   UNL A   1      47.920  29.740  27.464  1.00  0.00     0.029 A 
ATOM     57  N   UNL A   1      45.830  29.173  27.974  1.00  0.00    -0.354 N 
ATOM     58  N   UNL A   1      43.101  29.688  28.902  1.00  0.00    -0.248 NA
ATOM     59  C   UNL A   1      41.563  31.022  30.042  1.00  0.00     0.031 C 
ATOM     60  C   UNL A   1      47.315  30.820  28.114  1.00  0.00     0.029 A 
ATOM     61  C   UNL A   1      46.010  30.472  28.422  1.00  0.00     0.049 A 
ATOM     62  H   UNL A   1      44.992  28.661  28.044  1.00  0.00     0.167 HD
ATOM     63  C   UNL A   1      43.721  30.867  29.287  1.00  0.00     0.074 A 
ATOM     64  C   UNL A   1      42.719  31.666  29.961  1.00  0.00     0.031 C 
ATOM     65  C   UNL A   1      45.004  31.256  29.091  1.00  0.00     0.037 A 
BRANCH  52  66
ATOM     66  C   UNL A   1      48.571  26.979  26.459  1.00  0.00     0.064 A 
ATOM     67  C   UNL A   1      49.507  26.431  27.348  1.00  0.00     0.173 A 
ATOM     68  C   UNL A   1      48.926  27.083  25.106  1.00  0.00     0.173 A 
ATOM     69  F   UNL A   1      49.216  26.321  28.653  1.00  0.00    -0.203 F 
ATOM     70  C   UNL A   1      50.754  26.007  26.897  1.00  0.00     0.198 A 
ATOM     71  C   UNL A   1      50.165  26.638  24.656  1.00  0.00     0.198 A 
ATOM     72  F   UNL A   1      48.063  27.598  24.217  1.00  0.00    -0.203 F 
ATOM     73  F   UNL A   1      51.644  25.506  27.765  1.00  0.00    -0.200 F 
ATOM     74  C   UNL A   1      51.079  26.101  25.552  1.00  0.00     0.200 A 
ATOM     75  F   UNL A   1      50.473  26.719  23.354  1.00  0.00    -0.200 F 
ATOM     76  F   UNL A   1      52.273  25.675  25.117  1.00  0.00    -0.200 F 
ENDBRANCH  52  66
BRANCH  53  77
ATOM     77  C   UNL A   1      39.391  29.080  29.726  1.00  0.00     0.064 A 
ATOM     78  C   UNL A   1      38.386  29.723  28.992  1.00  0.00     0.173 A 
ATOM     79  C   UNL A   1      39.111  28.740  31.058  1.00  0.00     0.173 A 
ATOM     80  F   UNL A   1      38.614  30.091  27.723  1.00  0.00    -0.203 F 
ATOM     81  C   UNL A   1      37.161  30.041  29.576  1.00  0.00     0.198 A 
ATOM     82  C   UNL A   1      37.878  29.035  31.634  1.00  0.00     0.198 A 
ATOM     83  F   UNL A   1      40.042  28.128  31.806  1.00  0.00    -0.203 F 
ATOM     84  F   UNL A   1      36.238  30.709  28.871  1.00  0.00    -0.200 F 
ATOM     85  C   UNL A   1      36.907  29.696  30.895  1.00  0.00     0.200 A 
ATOM     86  F   UNL A   1      37.634  28.695  32.906  1.00  0.00    -0.200 F 
ATOM     87  F   UNL A   1      35.733  30.012  31.459  1.00  0.00    -0.200 F 
ENDBRANCH  53  77
BRANCH  65  88
ATOM     88  C   UNL A   1      45.398  32.613  29.593  1.00  0.00     0.064 A 
ATOM     89  C   UNL A   1      45.979  32.786  30.857  1.00  0.00     0.173 A 
ATOM     90  C   UNL A   1      45.240  33.746  28.780  1.00  0.00     0.173 A 
ATOM     91  F   UNL A   1      46.134  31.736  31.678  1.00  0.00    -0.203 F 
ATOM     92  C   UNL A   1      46.373  34.046  31.296  1.00  0.00     0.198 A 
ATOM     93  C   UNL A   1      45.662  35.001  29.210  1.00  0.00     0.198 A 
ATOM     94  F   UNL A   1      44.693  33.633  27.560  1.00  0.00    -0.203 F 
ATOM     95  F   UNL A   1      46.890  34.196  32.524  1.00  0.00    -0.200 F 
ATOM     96  C   UNL A   1      46.223  35.150  30.469  1.00  0.00     0.200 A 
ATOM     97  F   UNL A   1      45.529  36.063  28.405  1.00  0.00    -0.200 F 
ATOM     98  F   UNL A   1      46.615  36.361  30.889  1.00  0.00    -0.200 F 
ENDBRANCH  65  88
ENDBRANCH  39  40
ENDBRANCH  32  34
ENDBRANCH  31  32
ENDBRANCH  30  31
ENDBRANCH  29  30
ENDBRANCH  28  29
ENDBRANCH  27  28
ENDBRANCH  26  27
ENDBRANCH  25  26
ENDBRANCH   1  25
TORSDOF 25
ENDMDL
MODEL 2
REMARK VINA RESULT:      -9.1      3.974      9.017
REMARK SMILES CCC(CC)(Nc1nc(Cl)nc(OC)n1)C(=O)OCCOCCOCCOCCOC(=O)c1ccc(-c2c3nc(c(-c4c(F)c(F)c(F)c(F)c4F)c4ccc([nH]4)c(-c4c(F)c(F)c(F)c(F)c4F)c4nc(c(-c5c(F)c(F)c(F)c(F)c5F)c5ccc2[nH]5)C=C4)C=C3)cc1
REMARK SMILES IDX 23 1 22 2 21 3 20 4 19 5 18 6 16 7 17 8 3 9 2 10 1 11 4 12
REMARK SMILES IDX 5 13 6 14 7 16 8 17 15 18 9 19 12 20 10 21 11 22 13 23 14 24
REMARK SMILES IDX 24 25 25 26 26 27 27 28 28 29 29 30 30 31 31 32 32 33 33 34
REMARK SMILES IDX 34 35 95 36 35 37 94 38 36 39 37 40 38 41 88 42 39 43 93 44
REMARK SMILES IDX 87 45 89 46 40 47 92 48 86 49 85 50 41 52 73 53 53 54 72 55
REMARK SMILES IDX 54 56 57 57 71 58 90 59 55 60 56 61 70 63 91 64 58 65 42 66
REMARK SMILES IDX 43 67 51 68 44 69 45 70 49 71 52 72 46 73 47 74 50 75 48 76
REMARK SMILES IDX 74 77 75 78 83 79 76 80 77 81 81 82 84 83 78 84 79 85 82 86
REMARK SMILES IDX 80 87 59 88 60 89 68 90 61 91 62 92 66 93 69 94 63 95 64 96
REMARK SMILES IDX 67 97 65 98
REMARK H PARENT 6 15 89 51 57 62
REMARK Flexibility Score: inf
ROOT
ATOM      1  C   UNL A   1      33.737  28.045  23.759  1.00  0.00     0.188 C 
ENDROOT
BRANCH   1   2
ATOM      2  C   UNL A   1      34.280  27.171  22.624  1.00  0.00     0.188 C 
BRANCH   2   3
ATOM      3  O   UNL A   1      33.372  26.780  21.599  1.00  0.00    -0.376 OA
BRANCH   3   4
ATOM      4  C   UNL A   1      33.102  25.378  21.462  1.00  0.00     0.202 C 
BRANCH   4   5
ATOM      5  C   UNL A   1      31.953  24.841  22.305  1.00  0.00     0.261 C 
BRANCH   5   6
ATOM      6  O   UNL A   1      32.480  24.319  23.543  1.00  0.00    -0.461 OA
BRANCH   6   7
ATOM      7  C   UNL A   1      31.559  23.898  24.433  1.00  0.00     0.331 C 
ATOM      8  O   UNL A   1      30.522  23.331  24.085  1.00  0.00    -0.249 OA
BRANCH   7   9
ATOM      9  C   UNL A   1      31.888  24.141  25.932  1.00  0.00     0.137 C 
BRANCH   9  10
ATOM     10  C   UNL A   1      30.604  23.836  26.775  1.00  0.00     0.037 C 
ATOM     11  C   UNL A   1      30.082  22.412  26.820  1.00  0.00     0.007 C 
ENDBRANCH   9  10
BRANCH   9  12
ATOM     12  C   UNL A   1      32.340  25.624  25.973  1.00  0.00     0.037 C 
ATOM     13  C   UNL A   1      31.342  26.631  26.518  1.00  0.00     0.007 C 
ENDBRANCH   9  12
BRANCH   9  14
ATOM     14  N   UNL A   1      32.906  23.313  26.605  1.00  0.00    -0.338 N 
ATOM     15  H   UNL A   1      32.863  23.380  27.586  1.00  0.00     0.164 HD
BRANCH  14  16
ATOM     16  C   UNL A   1      33.888  22.481  26.182  1.00  0.00     0.231 A 
ATOM     17  N   UNL A   1      35.156  22.789  26.293  1.00  0.00    -0.182 NA
ATOM     18  N   UNL A   1      33.439  21.336  25.672  1.00  0.00    -0.159 NA
ATOM     19  C   UNL A   1      35.964  21.897  25.737  1.00  0.00     0.230 A 
ATOM     20  C   UNL A   1      34.364  20.524  25.162  1.00  0.00     0.322 A 
ATOM     21  Cl  UNL A   1      37.617  22.300  25.794  1.00  0.00    -0.041 Cl
ATOM     22  N   UNL A   1      35.662  20.747  25.159  1.00  0.00    -0.164 NA
BRANCH  20  23
ATOM     23  O   UNL A   1      33.986  19.332  24.576  1.00  0.00    -0.467 OA
ATOM     24  C   UNL A   1      32.635  19.310  24.137  1.00  0.00     0.282 C 
ENDBRANCH  20  23
ENDBRANCH  14  16
ENDBRANCH   9  14
ENDBRANCH   7   9
ENDBRANCH   6   7
ENDBRANCH   5   6
ENDBRANCH   4   5
ENDBRANCH   3   4
ENDBRANCH   2   3
ENDBRANCH   1   2
BRANCH   1  25
ATOM     25  O   UNL A   1      33.112  29.262  23.379  1.00  0.00    -0.377 OA
BRANCH  25  26
ATOM     26  C   UNL A   1      31.693  29.271  23.506  1.00  0.00     0.188 C 
BRANCH  26  27
ATOM     27  C   UNL A   1      31.097  29.702  24.855  1.00  0.00     0.188 C 
BRANCH  27  28
ATOM     28  O   UNL A   1      31.671  30.817  25.524  1.00  0.00    -0.376 OA
BRANCH  28  29
ATOM     29  C   UNL A   1      31.934  30.699  26.919  1.00  0.00     0.202 C 
BRANCH  29  30
ATOM     30  C   UNL A   1      33.143  31.482  27.420  1.00  0.00     0.261 C 
BRANCH  30  31
ATOM     31  O   UNL A   1      34.364  30.826  27.024  1.00  0.00    -0.460 OA
BRANCH  31  32
ATOM     32  C   UNL A   1      34.619  29.643  27.608  1.00  0.00     0.338 C 
ATOM     33  O   UNL A   1      33.884  28.658  27.658  1.00  0.00    -0.246 OA
BRANCH  32  34
ATOM     34  C   UNL A   1      35.991  29.620  28.129  1.00  0.00     0.060 A 
ATOM     35  C   UNL A   1      37.051  29.853  27.241  1.00  0.00     0.016 A 
ATOM     36  C   UNL A   1      36.238  29.246  29.450  1.00  0.00     0.016 A 
ATOM     37  C   UNL A   1      38.368  29.671  27.665  1.00  0.00     0.010 A 
ATOM     38  C   UNL A   1      37.556  29.050  29.866  1.00  0.00     0.010 A 
ATOM     39  C   UNL A   1      38.626  29.227  28.969  1.00  0.00    -0.014 A 
BRANCH  39  40
ATOM     40  C   UNL A   1      39.991  28.818  29.379  1.00  0.00     0.031 A 
ATOM     41  C   UNL A   1      40.869  29.811  30.083  1.00  0.00     0.074 A 
ATOM     42  C   UNL A   1      40.468  27.598  29.077  1.00  0.00     0.049 A 
ATOM     43  N   UNL A   1      42.136  29.717  30.399  1.00  0.00    -0.248 NA
ATOM     44  C   UNL A   1      40.235  31.072  30.498  1.00  0.00     0.031 C 
ATOM     45  C   UNL A   1      39.692  26.526  28.470  1.00  0.00     0.029 A 
ATOM     46  N   UNL A   1      41.732  27.072  29.193  1.00  0.00    -0.354 N 
ATOM     47  C   UNL A   1      42.447  30.900  31.052  1.00  0.00     0.074 A 
ATOM     48  C   UNL A   1      41.248  31.710  31.067  1.00  0.00     0.031 C 
ATOM     49  C   UNL A   1      40.510  25.506  28.163  1.00  0.00     0.029 A 
ATOM     50  C   UNL A   1      41.870  25.857  28.564  1.00  0.00     0.049 A 
ATOM     51  H   UNL A   1      42.464  27.519  29.676  1.00  0.00     0.167 HD
ATOM     52  C   UNL A   1      43.629  31.266  31.598  1.00  0.00     0.037 A 
ATOM     53  C   UNL A   1      42.975  25.131  28.309  1.00  0.00     0.037 A 
ATOM     54  C   UNL A   1      44.815  30.453  31.583  1.00  0.00     0.049 A 
ATOM     55  C   UNL A   1      44.303  25.615  28.824  1.00  0.00     0.074 A 
ATOM     56  C   UNL A   1      46.040  30.703  32.177  1.00  0.00     0.029 A 
ATOM     57  N   UNL A   1      44.932  29.239  30.922  1.00  0.00    -0.354 N 
ATOM     58  N   UNL A   1      44.579  26.699  29.509  1.00  0.00    -0.248 NA
ATOM     59  C   UNL A   1      45.474  24.770  28.547  1.00  0.00     0.031 C 
ATOM     60  C   UNL A   1      46.916  29.673  31.822  1.00  0.00     0.029 A 
ATOM     61  C   UNL A   1      46.224  28.755  31.049  1.00  0.00     0.049 A 
ATOM     62  H   UNL A   1      44.204  28.789  30.434  1.00  0.00     0.167 HD
ATOM     63  C   UNL A   1      45.939  26.648  29.775  1.00  0.00     0.074 A 
ATOM     64  C   UNL A   1      46.436  25.424  29.184  1.00  0.00     0.031 C 
ATOM     65  C   UNL A   1      46.705  27.534  30.456  1.00  0.00     0.037 A 
BRANCH  52  66
ATOM     66  C   UNL A   1      43.715  32.614  32.246  1.00  0.00     0.064 A 
ATOM     67  C   UNL A   1      43.985  33.772  31.502  1.00  0.00     0.173 A 
ATOM     68  C   UNL A   1      43.446  32.756  33.615  1.00  0.00     0.173 A 
ATOM     69  F   UNL A   1      44.259  33.685  30.192  1.00  0.00    -0.203 F 
ATOM     70  C   UNL A   1      43.987  35.025  32.109  1.00  0.00     0.198 A 
ATOM     71  C   UNL A   1      43.428  34.012  34.214  1.00  0.00     0.198 A 
ATOM     72  F   UNL A   1      43.180  31.678  34.368  1.00  0.00    -0.203 F 
ATOM     73  F   UNL A   1      44.268  36.118  31.386  1.00  0.00    -0.200 F 
ATOM     74  C   UNL A   1      43.700  35.145  33.461  1.00  0.00     0.200 A 
ATOM     75  F   UNL A   1      43.139  34.127  35.517  1.00  0.00    -0.200 F 
ATOM     76  F   UNL A   1      43.684  36.354  34.039  1.00  0.00    -0.200 F 
ENDBRANCH  52  66
BRANCH  53  77
ATOM     77  C   UNL A   1      42.882  23.889  27.500  1.00  0.00     0.064 A 
ATOM     78  C   UNL A   1      42.521  22.667  28.084  1.00  0.00     0.173 A 
ATOM     79  C   UNL A   1      43.198  23.891  26.132  1.00  0.00     0.173 A 
ATOM     80  F   UNL A   1      42.237  22.609  29.392  1.00  0.00    -0.203 F 
ATOM     81  C   UNL A   1      42.507  21.490  27.338  1.00  0.00     0.198 A 
ATOM     82  C   UNL A   1      43.157  22.719  25.381  1.00  0.00     0.198 A 
ATOM     83  F   UNL A   1      43.555  25.033  25.526  1.00  0.00    -0.203 F 
ATOM     84  F   UNL A   1      42.216  20.326  27.933  1.00  0.00    -0.200 F 
ATOM     85  C   UNL A   1      42.822  21.516  25.987  1.00  0.00     0.200 A 
ATOM     86  F   UNL A   1      43.457  22.749  24.076  1.00  0.00    -0.200 F 
ATOM     87  F   UNL A   1      42.819  20.383  25.273  1.00  0.00    -0.200 F 
ENDBRANCH  53  77
BRANCH  65  88
ATOM     88  C   UNL A   1      48.159  27.207  30.618  1.00  0.00     0.064 A 
ATOM     89  C   UNL A   1      49.126  27.709  29.736  1.00  0.00     0.173 A 
ATOM     90  C   UNL A   1      48.596  26.424  31.698  1.00  0.00     0.173 A 
ATOM     91  F   UNL A   1      48.755  28.447  28.678  1.00  0.00    -0.203 F 
ATOM     92  C   UNL A   1      50.476  27.427  29.919  1.00  0.00     0.198 A 
ATOM     93  C   UNL A   1      49.950  26.168  31.896  1.00  0.00     0.198 A 
ATOM     94  F   UNL A   1      47.711  25.923  32.573  1.00  0.00    -0.203 F 
ATOM     95  F   UNL A   1      51.380  27.884  29.042  1.00  0.00    -0.200 F 
ATOM     96  C   UNL A   1      50.888  26.665  31.003  1.00  0.00     0.200 A 
ATOM     97  F   UNL A   1      50.347  25.444  32.950  1.00  0.00    -0.200 F 
ATOM     98  F   UNL A   1      52.190  26.405  31.185  1.00  0.00    -0.200 F 
ENDBRANCH  65  88
ENDBRANCH  39  40
ENDBRANCH  32  34
ENDBRANCH  31  32
ENDBRANCH  30  31
ENDBRANCH  29  30
ENDBRANCH  28  29
ENDBRANCH  27  28
ENDBRANCH  26  27
ENDBRANCH  25  26
ENDBRANCH   1  25
TORSDOF 25
ENDMDL
MODEL 3
REMARK VINA RESULT:      -8.8      1.088      1.989
REMARK SMILES CCC(CC)(Nc1nc(Cl)nc(OC)n1)C(=O)OCCOCCOCCOCCOC(=O)c1ccc(-c2c3nc(c(-c4c(F)c(F)c(F)c(F)c4F)c4ccc([nH]4)c(-c4c(F)c(F)c(F)c(F)c4F)c4nc(c(-c5c(F)c(F)c(F)c(F)c5F)c5ccc2[nH]5)C=C4)C=C3)cc1
REMARK SMILES IDX 23 1 22 2 21 3 20 4 19 5 18 6 16 7 17 8 3 9 2 10 1 11 4 12
REMARK SMILES IDX 5 13 6 14 7 16 8 17 15 18 9 19 12 20 10 21 11 22 13 23 14 24
REMARK SMILES IDX 24 25 25 26 26 27 27 28 28 29 29 30 30 31 31 32 32 33 33 34
REMARK SMILES IDX 34 35 95 36 35 37 94 38 36 39 37 40 38 41 88 42 39 43 93 44
REMARK SMILES IDX 87 45 89 46 40 47 92 48 86 49 85 50 41 52 73 53 53 54 72 55
REMARK SMILES IDX 54 56 57 57 71 58 90 59 55 60 56 61 70 63 91 64 58 65 42 66
REMARK SMILES IDX 43 67 51 68 44 69 45 70 49 71 52 72 46 73 47 74 50 75 48 76
REMARK SMILES IDX 74 77 75 78 83 79 76 80 77 81 81 82 84 83 78 84 79 85 82 86
REMARK SMILES IDX 80 87 59 88 60 89 68 90 61 91 62 92 66 93 69 94 63 95 64 96
REMARK SMILES IDX 67 97 65 98
REMARK H PARENT 6 15 89 51 57 62
REMARK Flexibility Score: inf
ROOT
ATOM      1  C   UNL A   1      35.338  23.540  24.214  1.00  0.00     0.188 C 
ENDROOT
BRANCH   1   2
ATOM      2  C   UNL A   1      35.113  24.035  25.647  1.00  0.00     0.188 C 
BRANCH   2   3
ATOM      3  O   UNL A   1      34.351  23.207  26.520  1.00  0.00    -0.376 OA
BRANCH   3   4
ATOM      4  C   UNL A   1      32.986  23.582  26.753  1.00  0.00     0.202 C 
BRANCH   4   5
ATOM      5  C   UNL A   1      31.947  22.851  25.914  1.00  0.00     0.261 C 
BRANCH   5   6
ATOM      6  O   UNL A   1      31.466  23.737  24.882  1.00  0.00    -0.461 OA
BRANCH   6   7
ATOM      7  C   UNL A   1      30.915  24.888  25.317  1.00  0.00     0.331 C 
ATOM      8  O   UNL A   1      30.119  24.919  26.257  1.00  0.00    -0.249 OA
BRANCH   7   9
ATOM      9  C   UNL A   1      31.361  26.185  24.587  1.00  0.00     0.137 C 
BRANCH   9  10
ATOM     10  C   UNL A   1      32.485  25.813  23.562  1.00  0.00     0.037 C 
ATOM     11  C   UNL A   1      32.112  25.644  22.101  1.00  0.00     0.007 C 
ENDBRANCH   9  10
BRANCH   9  12
ATOM     12  C   UNL A   1      31.831  27.111  25.740  1.00  0.00     0.037 C 
ATOM     13  C   UNL A   1      33.318  27.408  25.818  1.00  0.00     0.007 C 
ENDBRANCH   9  12
BRANCH   9  14
ATOM     14  N   UNL A   1      30.401  26.923  23.745  1.00  0.00    -0.338 N 
ATOM     15  H   UNL A   1      29.814  26.326  23.227  1.00  0.00     0.164 HD
BRANCH  14  16
ATOM     16  C   UNL A   1      30.142  28.233  23.520  1.00  0.00     0.231 A 
ATOM     17  N   UNL A   1      30.488  29.166  24.371  1.00  0.00    -0.182 NA
ATOM     18  N   UNL A   1      29.530  28.469  22.361  1.00  0.00    -0.159 NA
ATOM     19  C   UNL A   1      30.065  30.375  24.028  1.00  0.00     0.230 A 
ATOM     20  C   UNL A   1      29.174  29.733  22.138  1.00  0.00     0.322 A 
ATOM     21  Cl  UNL A   1      30.430  31.603  25.149  1.00  0.00    -0.041 Cl
ATOM     22  N   UNL A   1      29.413  30.750  22.941  1.00  0.00    -0.164 NA
BRANCH  20  23
ATOM     23  O   UNL A   1      28.500  30.064  20.980  1.00  0.00    -0.467 OA
ATOM     24  C   UNL A   1      28.091  31.424  20.922  1.00  0.00     0.282 C 
ENDBRANCH  20  23
ENDBRANCH  14  16
ENDBRANCH   9  14
ENDBRANCH   7   9
ENDBRANCH   6   7
ENDBRANCH   5   6
ENDBRANCH   4   5
ENDBRANCH   3   4
ENDBRANCH   2   3
ENDBRANCH   1   2
BRANCH   1  25
ATOM     25  O   UNL A   1      35.783  22.200  24.069  1.00  0.00    -0.377 OA
BRANCH  25  26
ATOM     26  C   UNL A   1      37.189  22.018  24.215  1.00  0.00     0.188 C 
BRANCH  26  27
ATOM     27  C   UNL A   1      37.697  21.378  25.516  1.00  0.00     0.188 C 
BRANCH  27  28
ATOM     28  O   UNL A   1      37.967  19.982  25.524  1.00  0.00    -0.376 OA
BRANCH  28  29
ATOM     29  C   UNL A   1      39.275  19.551  25.162  1.00  0.00     0.202 C 
BRANCH  29  30
ATOM     30  C   UNL A   1      40.341  19.735  26.238  1.00  0.00     0.261 C 
BRANCH  30  31
ATOM     31  O   UNL A   1      41.424  18.808  26.032  1.00  0.00    -0.460 OA
BRANCH  31  32
ATOM     32  C   UNL A   1      42.660  19.335  26.004  1.00  0.00     0.338 C 
ATOM     33  O   UNL A   1      43.715  18.758  25.747  1.00  0.00    -0.246 OA
BRANCH  32  34
ATOM     34  C   UNL A   1      42.599  20.783  26.236  1.00  0.00     0.060 A 
ATOM     35  C   UNL A   1      42.718  21.645  25.138  1.00  0.00     0.016 A 
ATOM     36  C   UNL A   1      42.554  21.288  27.536  1.00  0.00     0.016 A 
ATOM     37  C   UNL A   1      42.835  23.021  25.341  1.00  0.00     0.010 A 
ATOM     38  C   UNL A   1      42.686  22.664  27.736  1.00  0.00     0.010 A 
ATOM     39  C   UNL A   1      42.862  23.534  26.644  1.00  0.00    -0.014 A 
BRANCH  39  40
ATOM     40  C   UNL A   1      43.201  24.956  26.898  1.00  0.00     0.031 A 
ATOM     41  C   UNL A   1      44.630  25.398  26.774  1.00  0.00     0.074 A 
ATOM     42  C   UNL A   1      42.261  25.831  27.292  1.00  0.00     0.049 A 
ATOM     43  N   UNL A   1      45.170  26.547  27.089  1.00  0.00    -0.248 NA
ATOM     44  C   UNL A   1      45.574  24.421  26.209  1.00  0.00     0.031 C 
ATOM     45  C   UNL A   1      40.836  25.544  27.372  1.00  0.00     0.029 A 
ATOM     46  N   UNL A   1      42.368  27.123  27.746  1.00  0.00    -0.354 N 
ATOM     47  C   UNL A   1      46.511  26.434  26.756  1.00  0.00     0.074 A 
ATOM     48  C   UNL A   1      46.714  25.097  26.240  1.00  0.00     0.031 C 
ATOM     49  C   UNL A   1      40.207  26.583  27.948  1.00  0.00     0.029 A 
ATOM     50  C   UNL A   1      41.193  27.611  28.267  1.00  0.00     0.049 A 
ATOM     51  H   UNL A   1      43.201  27.646  27.704  1.00  0.00     0.167 HD
ATOM     52  C   UNL A   1      47.481  27.371  26.866  1.00  0.00     0.037 A 
ATOM     53  C   UNL A   1      40.952  28.742  28.957  1.00  0.00     0.037 A 
ATOM     54  C   UNL A   1      47.270  28.699  27.376  1.00  0.00     0.049 A 
ATOM     55  C   UNL A   1      42.073  29.721  29.172  1.00  0.00     0.074 A 
ATOM     56  C   UNL A   1      48.172  29.746  27.454  1.00  0.00     0.029 A 
ATOM     57  N   UNL A   1      46.077  29.158  27.915  1.00  0.00    -0.354 N 
ATOM     58  N   UNL A   1      43.324  29.642  28.787  1.00  0.00    -0.248 NA
ATOM     59  C   UNL A   1      41.750  30.956  29.901  1.00  0.00     0.031 C 
ATOM     60  C   UNL A   1      47.544  30.816  28.098  1.00  0.00     0.029 A 
ATOM     61  C   UNL A   1      46.236  30.455  28.376  1.00  0.00     0.049 A 
ATOM     62  H   UNL A   1      45.242  28.638  27.963  1.00  0.00     0.167 HD
ATOM     63  C   UNL A   1      43.925  30.824  29.193  1.00  0.00     0.074 A 
ATOM     64  C   UNL A   1      42.902  31.610  29.850  1.00  0.00     0.031 C 
ATOM     65  C   UNL A   1      45.209  31.225  29.028  1.00  0.00     0.037 A 
BRANCH  52  66
ATOM     66  C   UNL A   1      48.869  26.997  26.444  1.00  0.00     0.064 A 
ATOM     67  C   UNL A   1      49.323  27.210  25.135  1.00  0.00     0.173 A 
ATOM     68  C   UNL A   1      49.779  26.494  27.385  1.00  0.00     0.173 A 
ATOM     69  F   UNL A   1      48.485  27.679  24.197  1.00  0.00    -0.203 F 
ATOM     70  C   UNL A   1      50.639  26.925  24.781  1.00  0.00     0.198 A 
ATOM     71  C   UNL A   1      51.099  26.231  27.034  1.00  0.00     0.198 A 
ATOM     72  F   UNL A   1      49.392  26.277  28.652  1.00  0.00    -0.203 F 
ATOM     73  F   UNL A   1      51.048  27.115  23.519  1.00  0.00    -0.200 F 
ATOM     74  C   UNL A   1      51.528  26.445  25.732  1.00  0.00     0.200 A 
ATOM     75  F   UNL A   1      51.960  25.779  27.956  1.00  0.00    -0.200 F 
ATOM     76  F   UNL A   1      52.799  26.190  25.393  1.00  0.00    -0.200 F 
ENDBRANCH  52  66
BRANCH  53  77
ATOM     77  C   UNL A   1      39.603  28.997  29.525  1.00  0.00     0.064 A 
ATOM     78  C   UNL A   1      39.275  28.598  30.827  1.00  0.00     0.173 A 
ATOM     79  C   UNL A   1      38.599  29.606  28.757  1.00  0.00     0.173 A 
ATOM     80  F   UNL A   1      40.193  27.988  31.591  1.00  0.00    -0.203 F 
ATOM     81  C   UNL A   1      37.987  28.772  31.330  1.00  0.00     0.198 A 
ATOM     82  C   UNL A   1      37.319  29.804  29.269  1.00  0.00     0.198 A 
ATOM     83  F   UNL A   1      38.859  30.002  27.501  1.00  0.00    -0.203 F 
ATOM     84  F   UNL A   1      37.684  28.329  32.557  1.00  0.00    -0.200 F 
ATOM     85  C   UNL A   1      37.011  29.377  30.552  1.00  0.00     0.200 A 
ATOM     86  F   UNL A   1      36.380  30.393  28.517  1.00  0.00    -0.200 F 
ATOM     87  F   UNL A   1      35.770  29.534  31.033  1.00  0.00    -0.200 F 
ENDBRANCH  53  77
BRANCH  65  88
ATOM     88  C   UNL A   1      45.580  32.582  29.548  1.00  0.00     0.064 A 
ATOM     89  C   UNL A   1      46.119  32.752  30.830  1.00  0.00     0.173 A 
ATOM     90  C   UNL A   1      45.443  33.718  28.735  1.00  0.00     0.173 A 
ATOM     91  F   UNL A   1      46.252  31.700  31.652  1.00  0.00    -0.203 F 
ATOM     92  C   UNL A   1      46.492  34.013  31.287  1.00  0.00     0.198 A 
ATOM     93  C   UNL A   1      45.845  34.973  29.183  1.00  0.00     0.198 A 
ATOM     94  F   UNL A   1      44.937  33.607  27.497  1.00  0.00    -0.203 F 
ATOM     95  F   UNL A   1      46.968  34.160  32.531  1.00  0.00    -0.200 F 
ATOM     96  C   UNL A   1      46.365  35.120  30.460  1.00  0.00     0.200 A 
ATOM     97  F   UNL A   1      45.734  36.037  28.378  1.00  0.00    -0.200 F 
ATOM     98  F   UNL A   1      46.737  36.331  30.897  1.00  0.00    -0.200 F 
ENDBRANCH  65  88
ENDBRANCH  39  40
ENDBRANCH  32  34
ENDBRANCH  31  32
ENDBRANCH  30  31
ENDBRANCH  29  30
ENDBRANCH  28  29
ENDBRANCH  27  28
ENDBRANCH  26  27
ENDBRANCH  25  26
ENDBRANCH   1  25
TORSDOF 25
ENDMDL
