MODEL 1
REMARK VINA RESULT:     -10.1      0.000      0.000
REMARK SMILES CCc1nc(C)c(C(=O)OCCOCCOCCOCCOC(=O)c2ccc(-c3c4nc(c(-c5c(F)c(F)c(F)c(F)c5F)c5ccc([nH]5)c(-c5c(F)c(F)c(F)c(F)c5F)c5nc(c(-c6c(F)c(F)c(F)c(F)c6F)c6ccc3[nH]6)C=C5)C=C4)cc2)c(SCc2cnc(Cl)s2)n1
REMARK SMILES IDX 15 1 14 2 13 3 12 4 11 5 10 6 8 7 9 8 7 9 3 10 4 11 97 12
REMARK SMILES IDX 5 13 88 14 6 15 2 16 1 17 89 18 90 19 91 20 92 21 96 22
REMARK SMILES IDX 93 23 94 24 95 25 16 26 17 27 18 28 19 29 20 30 21 31 22 32
REMARK SMILES IDX 23 33 24 34 25 35 26 36 87 37 27 38 86 39 28 40 29 41 30 42
REMARK SMILES IDX 80 43 31 44 85 45 79 46 81 47 32 48 84 49 78 50 77 51 33 53
REMARK SMILES IDX 65 54 45 55 64 56 46 57 49 58 63 59 82 60 47 61 48 62 62 64
REMARK SMILES IDX 83 65 50 66 34 67 35 68 43 69 36 70 37 71 41 72 44 73 38 74
REMARK SMILES IDX 39 75 42 76 40 77 66 78 67 79 75 80 68 81 69 82 73 83 76 84
REMARK SMILES IDX 70 85 71 86 74 87 72 88 51 89 52 90 60 91 53 92 54 93 58 94
REMARK SMILES IDX 61 95 55 96 56 97 59 98 57 99
REMARK H PARENT 81 52 49 63
REMARK Flexibility Score: inf
ROOT
ATOM      1  C   UNL A   1      38.042  21.796  25.799  1.00  0.00     0.188 C 
ENDROOT
BRANCH   1   2
ATOM      2  C   UNL A   1      37.221  22.166  24.552  1.00  0.00     0.188 C 
BRANCH   2   3
ATOM      3  O   UNL A   1      36.146  23.062  24.799  1.00  0.00    -0.376 OA
BRANCH   3   4
ATOM      4  C   UNL A   1      35.831  23.425  26.135  1.00  0.00     0.202 C 
BRANCH   4   5
ATOM      5  C   UNL A   1      34.417  23.167  26.652  1.00  0.00     0.261 C 
BRANCH   5   6
ATOM      6  O   UNL A   1      33.623  24.359  26.590  1.00  0.00    -0.460 OA
BRANCH   6   7
ATOM      7  C   UNL A   1      32.284  24.311  26.649  1.00  0.00     0.342 C 
ATOM      8  O   UNL A   1      31.594  23.723  27.463  1.00  0.00    -0.246 OA
BRANCH   7   9
ATOM      9  C   UNL A   1      31.807  25.023  25.467  1.00  0.00     0.113 A 
ATOM     10  C   UNL A   1      31.062  26.587  23.374  1.00  0.00     0.129 A 
ATOM     11  N   UNL A   1      31.045  27.139  24.591  1.00  0.00    -0.237 NA
ATOM     12  N   UNL A   1      31.361  25.301  23.152  1.00  0.00    -0.226 NA
ATOM     13  C   UNL A   1      31.409  26.357  25.630  1.00  0.00     0.057 A 
ATOM     14  C   UNL A   1      31.760  24.510  24.180  1.00  0.00     0.115 A 
ATOM     15  C   UNL A   1      31.424  27.067  26.957  1.00  0.00     0.068 C 
BRANCH  10  16
ATOM     16  C   UNL A   1      30.902  27.511  22.197  1.00  0.00     0.074 C 
ATOM     17  C   UNL A   1      30.087  28.763  22.490  1.00  0.00     0.012 C 
ENDBRANCH  10  16
BRANCH  14  18
ATOM     18  S   UNL A   1      32.304  22.976  23.462  1.00  0.00    -0.100 SA
BRANCH  18  19
ATOM     19  C   UNL A   1      31.826  21.569  24.502  1.00  0.00     0.125 C 
BRANCH  19  20
ATOM     20  C   UNL A   1      32.557  20.297  24.226  1.00  0.00     0.036 A 
ATOM     21  C   UNL A   1      32.205  19.275  23.361  1.00  0.00     0.129 A 
ATOM     22  S   UNL A   1      34.102  19.914  24.897  1.00  0.00    -0.107 S 
ATOM     23  N   UNL A   1      32.983  18.136  23.413  1.00  0.00    -0.233 NA
ATOM     24  C   UNL A   1      33.976  18.359  24.240  1.00  0.00     0.183 A 
ATOM     25  Cl  UNL A   1      35.149  17.174  24.631  1.00  0.00    -0.051 Cl
ENDBRANCH  19  20
ENDBRANCH  18  19
ENDBRANCH  14  18
ENDBRANCH   7   9
ENDBRANCH   6   7
ENDBRANCH   5   6
ENDBRANCH   4   5
ENDBRANCH   3   4
ENDBRANCH   2   3
ENDBRANCH   1   2
BRANCH   1  26
ATOM     26  O   UNL A   1      39.450  21.803  25.664  1.00  0.00    -0.377 OA
BRANCH  26  27
ATOM     27  C   UNL A   1      40.233  21.055  26.590  1.00  0.00     0.188 C 
BRANCH  27  28
ATOM     28  C   UNL A   1      41.015  19.784  26.178  1.00  0.00     0.188 C 
BRANCH  28  29
ATOM     29  O   UNL A   1      42.175  19.500  26.951  1.00  0.00    -0.376 OA
BRANCH  29  30
ATOM     30  C   UNL A   1      42.830  18.273  26.661  1.00  0.00     0.202 C 
BRANCH  30  31
ATOM     31  C   UNL A   1      43.422  18.243  25.249  1.00  0.00     0.261 C 
BRANCH  31  32
ATOM     32  O   UNL A   1      44.840  18.458  25.200  1.00  0.00    -0.460 OA
BRANCH  32  33
ATOM     33  C   UNL A   1      45.298  19.297  24.246  1.00  0.00     0.338 C 
ATOM     34  O   UNL A   1      45.733  19.006  23.147  1.00  0.00    -0.246 OA
BRANCH  33  35
ATOM     35  C   UNL A   1      45.003  20.673  24.687  1.00  0.00     0.060 A 
ATOM     36  C   UNL A   1      44.607  21.620  23.732  1.00  0.00     0.016 A 
ATOM     37  C   UNL A   1      45.079  21.010  26.040  1.00  0.00     0.016 A 
ATOM     38  C   UNL A   1      44.327  22.928  24.126  1.00  0.00     0.010 A 
ATOM     39  C   UNL A   1      44.832  22.324  26.430  1.00  0.00     0.010 A 
ATOM     40  C   UNL A   1      44.499  23.294  25.469  1.00  0.00    -0.014 A 
BRANCH  40  41
ATOM     41  C   UNL A   1      44.644  24.720  25.832  1.00  0.00     0.031 A 
ATOM     42  C   UNL A   1      46.018  25.317  25.711  1.00  0.00     0.074 A 
ATOM     43  C   UNL A   1      43.615  25.447  26.299  1.00  0.00     0.049 A 
ATOM     44  N   UNL A   1      46.454  26.493  26.081  1.00  0.00    -0.248 NA
ATOM     45  C   UNL A   1      47.047  24.460  25.094  1.00  0.00     0.031 C 
ATOM     46  C   UNL A   1      42.237  24.987  26.424  1.00  0.00     0.029 A 
ATOM     47  N   UNL A   1      43.591  26.734  26.778  1.00  0.00    -0.354 N 
ATOM     48  C   UNL A   1      47.801  26.510  25.748  1.00  0.00     0.074 A 
ATOM     49  C   UNL A   1      48.121  25.229  25.164  1.00  0.00     0.031 C 
ATOM     50  C   UNL A   1      41.499  25.972  26.970  1.00  0.00     0.029 A 
ATOM     51  C   UNL A   1      42.364  27.114  27.262  1.00  0.00     0.049 A 
ATOM     52  H   UNL A   1      44.377  27.325  26.774  1.00  0.00     0.167 HD
ATOM     53  C   UNL A   1      48.697  27.509  25.918  1.00  0.00     0.037 A 
ATOM     54  C   UNL A   1      42.001  28.247  27.896  1.00  0.00     0.037 A 
ATOM     55  C   UNL A   1      48.384  28.771  26.522  1.00  0.00     0.049 A 
ATOM     56  C   UNL A   1      43.035  29.320  28.141  1.00  0.00     0.074 A 
ATOM     57  C   UNL A   1      49.219  29.847  26.756  1.00  0.00     0.029 A 
ATOM     58  N   UNL A   1      47.129  29.120  26.999  1.00  0.00    -0.354 N 
ATOM     59  N   UNL A   1      44.304  29.341  27.808  1.00  0.00    -0.248 NA
ATOM     60  C   UNL A   1      42.588  30.525  28.855  1.00  0.00     0.031 C 
ATOM     61  C   UNL A   1      48.478  30.836  27.411  1.00  0.00     0.029 A 
ATOM     62  C   UNL A   1      47.170  30.393  27.539  1.00  0.00     0.049 A 
ATOM     63  H   UNL A   1      46.330  28.548  26.958  1.00  0.00     0.167 HD
ATOM     64  C   UNL A   1      44.793  30.569  28.234  1.00  0.00     0.074 A 
ATOM     65  C   UNL A   1      43.687  31.267  28.855  1.00  0.00     0.031 C 
ATOM     66  C   UNL A   1      46.044  31.077  28.120  1.00  0.00     0.037 A 
BRANCH  53  67
ATOM     67  C   UNL A   1      50.102  27.249  25.473  1.00  0.00     0.064 A 
ATOM     68  C   UNL A   1      50.484  27.392  24.130  1.00  0.00     0.173 A 
ATOM     69  C   UNL A   1      51.078  26.851  26.398  1.00  0.00     0.173 A 
ATOM     70  F   UNL A   1      49.579  27.744  23.205  1.00  0.00    -0.203 F 
ATOM     71  C   UNL A   1      51.789  27.125  23.727  1.00  0.00     0.198 A 
ATOM     72  C   UNL A   1      52.387  26.610  25.995  1.00  0.00     0.198 A 
ATOM     73  F   UNL A   1      50.759  26.693  27.691  1.00  0.00    -0.203 F 
ATOM     74  F   UNL A   1      52.121  27.222  22.433  1.00  0.00    -0.200 F 
ATOM     75  C   UNL A   1      52.741  26.741  24.661  1.00  0.00     0.200 A 
ATOM     76  F   UNL A   1      53.307  26.241  26.899  1.00  0.00    -0.200 F 
ATOM     77  F   UNL A   1      53.998  26.485  24.271  1.00  0.00    -0.200 F 
ENDBRANCH  53  67
BRANCH  54  78
ATOM     78  C   UNL A   1      40.602  28.430  28.359  1.00  0.00     0.064 A 
ATOM     79  C   UNL A   1      39.637  29.017  27.529  1.00  0.00     0.173 A 
ATOM     80  C   UNL A   1      40.206  28.051  29.651  1.00  0.00     0.173 A 
ATOM     81  F   UNL A   1      39.975  29.423  26.296  1.00  0.00    -0.203 F 
ATOM     82  C   UNL A   1      38.336  29.235  27.978  1.00  0.00     0.198 A 
ATOM     83  C   UNL A   1      38.897  28.246  30.090  1.00  0.00     0.198 A 
ATOM     84  F   UNL A   1      41.091  27.490  30.487  1.00  0.00    -0.203 F 
ATOM     85  F   UNL A   1      37.447  29.842  27.179  1.00  0.00    -0.200 F 
ATOM     86  C   UNL A   1      37.965  28.846  29.256  1.00  0.00     0.200 A 
ATOM     87  F   UNL A   1      38.542  27.861  31.324  1.00  0.00    -0.200 F 
ATOM     88  F   UNL A   1      36.715  29.057  29.688  1.00  0.00    -0.200 F 
ENDBRANCH  54  78
BRANCH  66  89
ATOM     89  C   UNL A   1      46.280  32.474  28.610  1.00  0.00     0.064 A 
ATOM     90  C   UNL A   1      46.776  32.730  29.895  1.00  0.00     0.173 A 
ATOM     91  C   UNL A   1      46.094  33.562  27.744  1.00  0.00     0.173 A 
ATOM     92  F   UNL A   1      46.961  31.721  30.761  1.00  0.00    -0.203 F 
ATOM     93  C   UNL A   1      47.071  34.029  30.299  1.00  0.00     0.198 A 
ATOM     94  C   UNL A   1      46.413  34.856  28.142  1.00  0.00     0.198 A 
ATOM     95  F   UNL A   1      45.631  33.364  26.500  1.00  0.00    -0.203 F 
ATOM     96  F   UNL A   1      47.524  34.257  31.539  1.00  0.00    -0.200 F 
ATOM     97  C   UNL A   1      46.900  35.089  29.419  1.00  0.00     0.200 A 
ATOM     98  F   UNL A   1      46.261  35.876  27.287  1.00  0.00    -0.200 F 
ATOM     99  F   UNL A   1      47.203  36.336  29.804  1.00  0.00    -0.200 F 
ENDBRANCH  66  89
ENDBRANCH  40  41
ENDBRANCH  33  35
ENDBRANCH  32  33
ENDBRANCH  31  32
ENDBRANCH  30  31
ENDBRANCH  29  30
ENDBRANCH  28  29
ENDBRANCH  27  28
ENDBRANCH  26  27
ENDBRANCH   1  26
TORSDOF 24
ENDMDL
MODEL 2
REMARK VINA RESULT:     -10.1      5.008      7.366
REMARK SMILES CCc1nc(C)c(C(=O)OCCOCCOCCOCCOC(=O)c2ccc(-c3c4nc(c(-c5c(F)c(F)c(F)c(F)c5F)c5ccc([nH]5)c(-c5c(F)c(F)c(F)c(F)c5F)c5nc(c(-c6c(F)c(F)c(F)c(F)c6F)c6ccc3[nH]6)C=C5)C=C4)cc2)c(SCc2cnc(Cl)s2)n1
REMARK SMILES IDX 15 1 14 2 13 3 12 4 11 5 10 6 8 7 9 8 7 9 3 10 4 11 97 12
REMARK SMILES IDX 5 13 88 14 6 15 2 16 1 17 89 18 90 19 91 20 92 21 96 22
REMARK SMILES IDX 93 23 94 24 95 25 16 26 17 27 18 28 19 29 20 30 21 31 22 32
REMARK SMILES IDX 23 33 24 34 25 35 26 36 87 37 27 38 86 39 28 40 29 41 30 42
REMARK SMILES IDX 80 43 31 44 85 45 79 46 81 47 32 48 84 49 78 50 77 51 33 53
REMARK SMILES IDX 65 54 45 55 64 56 46 57 49 58 63 59 82 60 47 61 48 62 62 64
REMARK SMILES IDX 83 65 50 66 34 67 35 68 43 69 36 70 37 71 41 72 44 73 38 74
REMARK SMILES IDX 39 75 42 76 40 77 66 78 67 79 75 80 68 81 69 82 73 83 76 84
REMARK SMILES IDX 70 85 71 86 74 87 72 88 51 89 52 90 60 91 53 92 54 93 58 94
REMARK SMILES IDX 61 95 55 96 56 97 59 98 57 99
REMARK H PARENT 81 52 49 63
REMARK Flexibility Score: inf
ROOT
ATOM      1  C   UNL A   1      37.675  23.617  26.137  1.00  0.00     0.188 C 
ENDROOT
BRANCH   1   2
ATOM      2  C   UNL A   1      36.639  22.649  25.542  1.00  0.00     0.188 C 
BRANCH   2   3
ATOM      3  O   UNL A   1      35.288  23.066  25.688  1.00  0.00    -0.376 OA
BRANCH   3   4
ATOM      4  C   UNL A   1      34.957  24.435  25.508  1.00  0.00     0.202 C 
BRANCH   4   5
ATOM      5  C   UNL A   1      34.820  24.976  24.086  1.00  0.00     0.261 C 
BRANCH   5   6
ATOM      6  O   UNL A   1      33.484  25.433  23.838  1.00  0.00    -0.460 OA
BRANCH   6   7
ATOM      7  C   UNL A   1      33.088  25.802  22.612  1.00  0.00     0.342 C 
ATOM      8  O   UNL A   1      33.508  25.402  21.539  1.00  0.00    -0.246 OA
BRANCH   7   9
ATOM      9  C   UNL A   1      32.115  26.872  22.811  1.00  0.00     0.113 A 
ATOM     10  C   UNL A   1      30.441  29.007  22.961  1.00  0.00     0.129 A 
ATOM     11  N   UNL A   1      31.738  29.256  22.760  1.00  0.00    -0.237 NA
ATOM     12  N   UNL A   1      29.947  27.777  23.154  1.00  0.00    -0.226 NA
ATOM     13  C   UNL A   1      32.569  28.193  22.694  1.00  0.00     0.057 A 
ATOM     14  C   UNL A   1      30.762  26.696  23.058  1.00  0.00     0.115 A 
ATOM     15  C   UNL A   1      34.002  28.551  22.404  1.00  0.00     0.068 C 
BRANCH  10  16
ATOM     16  C   UNL A   1      29.485  30.156  22.787  1.00  0.00     0.074 C 
ATOM     17  C   UNL A   1      28.127  29.762  22.222  1.00  0.00     0.012 C 
ENDBRANCH  10  16
BRANCH  14  18
ATOM     18  S   UNL A   1      29.713  25.260  23.119  1.00  0.00    -0.100 SA
BRANCH  18  19
ATOM     19  C   UNL A   1      30.680  23.769  23.480  1.00  0.00     0.125 C 
BRANCH  19  20
ATOM     20  C   UNL A   1      31.054  23.586  24.914  1.00  0.00     0.036 A 
ATOM     21  C   UNL A   1      30.780  24.420  25.986  1.00  0.00     0.129 A 
ATOM     22  S   UNL A   1      31.842  22.178  25.528  1.00  0.00    -0.107 S 
ATOM     23  N   UNL A   1      31.379  24.090  27.185  1.00  0.00    -0.233 NA
ATOM     24  C   UNL A   1      32.008  22.951  27.025  1.00  0.00     0.183 A 
ATOM     25  Cl  UNL A   1      32.931  22.213  28.265  1.00  0.00    -0.051 Cl
ENDBRANCH  19  20
ENDBRANCH  18  19
ENDBRANCH  14  18
ENDBRANCH   7   9
ENDBRANCH   6   7
ENDBRANCH   5   6
ENDBRANCH   4   5
ENDBRANCH   3   4
ENDBRANCH   2   3
ENDBRANCH   1   2
BRANCH   1  26
ATOM     26  O   UNL A   1      38.944  23.080  26.456  1.00  0.00    -0.377 OA
BRANCH  26  27
ATOM     27  C   UNL A   1      39.186  21.698  26.213  1.00  0.00     0.188 C 
BRANCH  27  28
ATOM     28  C   UNL A   1      40.595  21.147  25.884  1.00  0.00     0.188 C 
BRANCH  28  29
ATOM     29  O   UNL A   1      41.202  20.363  26.904  1.00  0.00    -0.376 OA
BRANCH  29  30
ATOM     30  C   UNL A   1      42.621  20.288  26.869  1.00  0.00     0.202 C 
BRANCH  30  31
ATOM     31  C   UNL A   1      43.233  21.235  25.834  1.00  0.00     0.261 C 
BRANCH  31  32
ATOM     32  O   UNL A   1      43.750  22.456  26.384  1.00  0.00    -0.460 OA
BRANCH  32  33
ATOM     33  C   UNL A   1      43.704  23.550  25.594  1.00  0.00     0.338 C 
ATOM     34  O   UNL A   1      43.991  23.628  24.414  1.00  0.00    -0.246 OA
BRANCH  33  35
ATOM     35  C   UNL A   1      43.050  24.624  26.364  1.00  0.00     0.060 A 
ATOM     36  C   UNL A   1      43.547  25.932  26.261  1.00  0.00     0.016 A 
ATOM     37  C   UNL A   1      41.929  24.346  27.151  1.00  0.00     0.016 A 
ATOM     38  C   UNL A   1      42.946  26.962  26.983  1.00  0.00     0.010 A 
ATOM     39  C   UNL A   1      41.350  25.367  27.898  1.00  0.00     0.010 A 
ATOM     40  C   UNL A   1      41.884  26.667  27.850  1.00  0.00    -0.014 A 
BRANCH  40  41
ATOM     41  C   UNL A   1      41.529  27.612  28.930  1.00  0.00     0.031 A 
ATOM     42  C   UNL A   1      42.340  27.538  30.193  1.00  0.00     0.074 A 
ATOM     43  C   UNL A   1      40.498  28.467  28.822  1.00  0.00     0.049 A 
ATOM     44  N   UNL A   1      42.166  28.151  31.335  1.00  0.00    -0.248 NA
ATOM     45  C   UNL A   1      43.507  26.637  30.165  1.00  0.00     0.031 C 
ATOM     46  C   UNL A   1      39.668  28.652  27.637  1.00  0.00     0.029 A 
ATOM     47  N   UNL A   1      39.967  29.329  29.749  1.00  0.00    -0.354 N 
ATOM     48  C   UNL A   1      43.193  27.704  32.155  1.00  0.00     0.074 A 
ATOM     49  C   UNL A   1      43.977  26.759  31.395  1.00  0.00     0.031 C 
ATOM     50  C   UNL A   1      38.710  29.556  27.915  1.00  0.00     0.029 A 
ATOM     51  C   UNL A   1      38.845  29.984  29.307  1.00  0.00     0.049 A 
ATOM     52  H   UNL A   1      40.353  29.463  30.645  1.00  0.00     0.167 HD
ATOM     53  C   UNL A   1      43.459  28.051  33.435  1.00  0.00     0.037 A 
ATOM     54  C   UNL A   1      38.011  30.809  29.971  1.00  0.00     0.037 A 
ATOM     55  C   UNL A   1      42.664  28.970  34.197  1.00  0.00     0.049 A 
ATOM     56  C   UNL A   1      38.285  31.126  31.423  1.00  0.00     0.074 A 
ATOM     57  C   UNL A   1      42.836  29.380  35.506  1.00  0.00     0.029 A 
ATOM     58  N   UNL A   1      41.537  29.615  33.714  1.00  0.00    -0.354 N 
ATOM     59  N   UNL A   1      39.267  30.716  32.189  1.00  0.00    -0.248 NA
ATOM     60  C   UNL A   1      37.330  32.014  32.102  1.00  0.00     0.031 C 
ATOM     61  C   UNL A   1      41.787  30.247  35.829  1.00  0.00     0.029 A 
ATOM     62  C   UNL A   1      40.992  30.412  34.705  1.00  0.00     0.049 A 
ATOM     63  H   UNL A   1      41.177  29.520  32.803  1.00  0.00     0.167 HD
ATOM     64  C   UNL A   1      39.072  31.325  33.422  1.00  0.00     0.074 A 
ATOM     65  C   UNL A   1      37.875  32.131  33.306  1.00  0.00     0.031 C 
ATOM     66  C   UNL A   1      39.818  31.231  34.550  1.00  0.00     0.037 A 
BRANCH  53  67
ATOM     67  C   UNL A   1      44.637  27.398  34.089  1.00  0.00     0.064 A 
ATOM     68  C   UNL A   1      44.503  26.210  34.823  1.00  0.00     0.173 A 
ATOM     69  C   UNL A   1      45.914  27.968  33.982  1.00  0.00     0.173 A 
ATOM     70  F   UNL A   1      43.296  25.644  34.975  1.00  0.00    -0.203 F 
ATOM     71  C   UNL A   1      45.603  25.627  35.445  1.00  0.00     0.198 A 
ATOM     72  C   UNL A   1      47.016  27.368  34.583  1.00  0.00     0.198 A 
ATOM     73  F   UNL A   1      46.091  29.108  33.297  1.00  0.00    -0.203 F 
ATOM     74  F   UNL A   1      45.444  24.519  36.181  1.00  0.00    -0.200 F 
ATOM     75  C   UNL A   1      46.859  26.203  35.319  1.00  0.00     0.200 A 
ATOM     76  F   UNL A   1      48.230  27.923  34.459  1.00  0.00    -0.200 F 
ATOM     77  F   UNL A   1      47.917  25.639  35.917  1.00  0.00    -0.200 F 
ENDBRANCH  53  67
BRANCH  54  78
ATOM     78  C   UNL A   1      36.828  31.389  29.284  1.00  0.00     0.064 A 
ATOM     79  C   UNL A   1      35.739  30.586  28.919  1.00  0.00     0.173 A 
ATOM     80  C   UNL A   1      36.773  32.751  28.951  1.00  0.00     0.173 A 
ATOM     81  F   UNL A   1      35.758  29.272  29.190  1.00  0.00    -0.203 F 
ATOM     82  C   UNL A   1      34.651  31.116  28.230  1.00  0.00     0.198 A 
ATOM     83  C   UNL A   1      35.672  33.286  28.285  1.00  0.00     0.198 A 
ATOM     84  F   UNL A   1      37.791  33.563  29.273  1.00  0.00    -0.203 F 
ATOM     85  F   UNL A   1      33.645  30.315  27.852  1.00  0.00    -0.200 F 
ATOM     86  C   UNL A   1      34.615  32.467  27.918  1.00  0.00     0.200 A 
ATOM     87  F   UNL A   1      35.639  34.594  27.992  1.00  0.00    -0.200 F 
ATOM     88  F   UNL A   1      33.569  32.977  27.255  1.00  0.00    -0.200 F 
ENDBRANCH  54  78
BRANCH  66  89
ATOM     89  C   UNL A   1      39.412  32.062  35.729  1.00  0.00     0.064 A 
ATOM     90  C   UNL A   1      39.868  33.377  35.896  1.00  0.00     0.173 A 
ATOM     91  C   UNL A   1      38.480  31.563  36.652  1.00  0.00     0.173 A 
ATOM     92  F   UNL A   1      40.766  33.893  35.044  1.00  0.00    -0.203 F 
ATOM     93  C   UNL A   1      39.409  34.161  36.951  1.00  0.00     0.198 A 
ATOM     94  C   UNL A   1      38.006  32.358  37.691  1.00  0.00     0.198 A 
ATOM     95  F   UNL A   1      38.008  30.313  36.527  1.00  0.00    -0.203 F 
ATOM     96  F   UNL A   1      39.873  35.408  37.107  1.00  0.00    -0.200 F 
ATOM     97  C   UNL A   1      38.472  33.655  37.840  1.00  0.00     0.200 A 
ATOM     98  F   UNL A   1      37.090  31.873  38.540  1.00  0.00    -0.200 F 
ATOM     99  F   UNL A   1      38.018  34.419  38.843  1.00  0.00    -0.200 F 
ENDBRANCH  66  89
ENDBRANCH  40  41
ENDBRANCH  33  35
ENDBRANCH  32  33
ENDBRANCH  31  32
ENDBRANCH  30  31
ENDBRANCH  29  30
ENDBRANCH  28  29
ENDBRANCH  27  28
ENDBRANCH  26  27
ENDBRANCH   1  26
TORSDOF 24
ENDMDL
MODEL 3
REMARK VINA RESULT:     -10.1      6.871     12.543
REMARK SMILES CCc1nc(C)c(C(=O)OCCOCCOCCOCCOC(=O)c2ccc(-c3c4nc(c(-c5c(F)c(F)c(F)c(F)c5F)c5ccc([nH]5)c(-c5c(F)c(F)c(F)c(F)c5F)c5nc(c(-c6c(F)c(F)c(F)c(F)c6F)c6ccc3[nH]6)C=C5)C=C4)cc2)c(SCc2cnc(Cl)s2)n1
REMARK SMILES IDX 15 1 14 2 13 3 12 4 11 5 10 6 8 7 9 8 7 9 3 10 4 11 97 12
REMARK SMILES IDX 5 13 88 14 6 15 2 16 1 17 89 18 90 19 91 20 92 21 96 22
REMARK SMILES IDX 93 23 94 24 95 25 16 26 17 27 18 28 19 29 20 30 21 31 22 32
REMARK SMILES IDX 23 33 24 34 25 35 26 36 87 37 27 38 86 39 28 40 29 41 30 42
REMARK SMILES IDX 80 43 31 44 85 45 79 46 81 47 32 48 84 49 78 50 77 51 33 53
REMARK SMILES IDX 65 54 45 55 64 56 46 57 49 58 63 59 82 60 47 61 48 62 62 64
REMARK SMILES IDX 83 65 50 66 34 67 35 68 43 69 36 70 37 71 41 72 44 73 38 74
REMARK SMILES IDX 39 75 42 76 40 77 66 78 67 79 75 80 68 81 69 82 73 83 76 84
REMARK SMILES IDX 70 85 71 86 74 87 72 88 51 89 52 90 60 91 53 92 54 93 58 94
REMARK SMILES IDX 61 95 55 96 56 97 59 98 57 99
REMARK H PARENT 81 52 49 63
REMARK Flexibility Score: inf
ROOT
ATOM      1  C   UNL A   1      33.711  30.102  27.036  1.00  0.00     0.188 C 
ENDROOT
BRANCH   1   2
ATOM      2  C   UNL A   1      34.480  28.804  26.737  1.00  0.00     0.188 C 
BRANCH   2   3
ATOM      3  O   UNL A   1      33.661  27.650  26.609  1.00  0.00    -0.376 OA
BRANCH   3   4
ATOM      4  C   UNL A   1      32.266  27.752  26.850  1.00  0.00     0.202 C 
BRANCH   4   5
ATOM      5  C   UNL A   1      31.374  26.556  26.522  1.00  0.00     0.261 C 
BRANCH   5   6
ATOM      6  O   UNL A   1      32.162  25.401  26.207  1.00  0.00    -0.460 OA
BRANCH   6   7
ATOM      7  C   UNL A   1      31.730  24.163  26.488  1.00  0.00     0.342 C 
ATOM      8  O   UNL A   1      30.743  23.844  27.129  1.00  0.00    -0.246 OA
BRANCH   7   9
ATOM      9  C   UNL A   1      32.746  23.256  25.961  1.00  0.00     0.113 A 
ATOM     10  C   UNL A   1      34.547  21.376  25.187  1.00  0.00     0.129 A 
ATOM     11  N   UNL A   1      34.355  21.539  26.499  1.00  0.00    -0.237 NA
ATOM     12  N   UNL A   1      33.952  22.129  24.254  1.00  0.00    -0.226 NA
ATOM     13  C   UNL A   1      33.464  22.480  26.881  1.00  0.00     0.057 A 
ATOM     14  C   UNL A   1      33.030  23.057  24.618  1.00  0.00     0.115 A 
ATOM     15  C   UNL A   1      33.256  22.561  28.369  1.00  0.00     0.068 C 
BRANCH  10  16
ATOM     16  C   UNL A   1      35.341  20.173  24.753  1.00  0.00     0.074 C 
ATOM     17  C   UNL A   1      36.838  20.286  25.002  1.00  0.00     0.012 C 
ENDBRANCH  10  16
BRANCH  14  18
ATOM     18  S   UNL A   1      32.292  23.659  23.116  1.00  0.00    -0.100 SA
BRANCH  18  19
ATOM     19  C   UNL A   1      33.279  25.006  22.407  1.00  0.00     0.125 C 
BRANCH  19  20
ATOM     20  C   UNL A   1      32.776  26.382  22.696  1.00  0.00     0.036 A 
ATOM     21  C   UNL A   1      33.511  27.529  22.948  1.00  0.00     0.129 A 
ATOM     22  S   UNL A   1      31.106  26.820  22.661  1.00  0.00    -0.107 S 
ATOM     23  N   UNL A   1      32.792  28.640  23.342  1.00  0.00    -0.233 NA
ATOM     24  C   UNL A   1      31.516  28.344  23.276  1.00  0.00     0.183 A 
ATOM     25  Cl  UNL A   1      30.279  29.436  23.734  1.00  0.00    -0.051 Cl
ENDBRANCH  19  20
ENDBRANCH  18  19
ENDBRANCH  14  18
ENDBRANCH   7   9
ENDBRANCH   6   7
ENDBRANCH   5   6
ENDBRANCH   4   5
ENDBRANCH   3   4
ENDBRANCH   2   3
ENDBRANCH   1   2
BRANCH   1  26
ATOM     26  O   UNL A   1      34.479  31.281  27.188  1.00  0.00    -0.377 OA
BRANCH  26  27
ATOM     27  C   UNL A   1      34.921  31.650  28.490  1.00  0.00     0.188 C 
BRANCH  27  28
ATOM     28  C   UNL A   1      34.858  33.108  29.006  1.00  0.00     0.188 C 
BRANCH  28  29
ATOM     29  O   UNL A   1      34.029  33.988  28.257  1.00  0.00    -0.376 OA
BRANCH  29  30
ATOM     30  C   UNL A   1      34.166  35.372  28.552  1.00  0.00     0.202 C 
BRANCH  30  31
ATOM     31  C   UNL A   1      32.956  35.934  29.304  1.00  0.00     0.261 C 
BRANCH  31  32
ATOM     32  O   UNL A   1      32.525  35.129  30.411  1.00  0.00    -0.460 OA
BRANCH  32  33
ATOM     33  C   UNL A   1      32.623  35.679  31.641  1.00  0.00     0.338 C 
ATOM     34  O   UNL A   1      31.856  36.462  32.169  1.00  0.00    -0.246 OA
BRANCH  33  35
ATOM     35  C   UNL A   1      33.741  35.013  32.335  1.00  0.00     0.060 A 
ATOM     36  C   UNL A   1      35.003  35.626  32.332  1.00  0.00     0.016 A 
ATOM     37  C   UNL A   1      33.531  33.812  33.017  1.00  0.00     0.016 A 
ATOM     38  C   UNL A   1      36.074  35.011  32.980  1.00  0.00     0.010 A 
ATOM     39  C   UNL A   1      34.608  33.181  33.634  1.00  0.00     0.010 A 
ATOM     40  C   UNL A   1      35.889  33.757  33.579  1.00  0.00    -0.014 A 
BRANCH  40  41
ATOM     41  C   UNL A   1      37.058  32.898  33.870  1.00  0.00     0.031 A 
ATOM     42  C   UNL A   1      37.804  33.175  35.145  1.00  0.00     0.074 A 
ATOM     43  C   UNL A   1      37.475  31.946  33.019  1.00  0.00     0.049 A 
ATOM     44  N   UNL A   1      38.927  32.669  35.581  1.00  0.00    -0.248 NA
ATOM     45  C   UNL A   1      37.201  34.171  36.049  1.00  0.00     0.031 C 
ATOM     46  C   UNL A   1      36.811  31.567  31.776  1.00  0.00     0.029 A 
ATOM     47  N   UNL A   1      38.584  31.139  33.075  1.00  0.00    -0.354 N 
ATOM     48  C   UNL A   1      39.163  33.288  36.801  1.00  0.00     0.074 A 
ATOM     49  C   UNL A   1      38.084  34.219  37.032  1.00  0.00     0.031 C 
ATOM     50  C   UNL A   1      37.541  30.612  31.170  1.00  0.00     0.029 A 
ATOM     51  C   UNL A   1      38.737  30.343  31.967  1.00  0.00     0.049 A 
ATOM     52  H   UNL A   1      39.209  31.133  33.835  1.00  0.00     0.167 HD
ATOM     53  C   UNL A   1      40.196  33.100  37.654  1.00  0.00     0.037 A 
ATOM     54  C   UNL A   1      39.749  29.517  31.633  1.00  0.00     0.037 A 
ATOM     55  C   UNL A   1      41.281  32.195  37.411  1.00  0.00     0.049 A 
ATOM     56  C   UNL A   1      40.928  29.377  32.567  1.00  0.00     0.074 A 
ATOM     57  C   UNL A   1      42.385  31.938  38.202  1.00  0.00     0.029 A 
ATOM     58  N   UNL A   1      41.400  31.404  36.279  1.00  0.00    -0.354 N 
ATOM     59  N   UNL A   1      41.139  29.951  33.728  1.00  0.00    -0.248 NA
ATOM     60  C   UNL A   1      42.011  28.479  32.140  1.00  0.00     0.031 C 
ATOM     61  C   UNL A   1      43.194  31.016  37.529  1.00  0.00     0.029 A 
ATOM     62  C   UNL A   1      42.568  30.665  36.343  1.00  0.00     0.049 A 
ATOM     63  H   UNL A   1      40.751  31.371  35.540  1.00  0.00     0.167 HD
ATOM     64  C   UNL A   1      42.352  29.455  34.186  1.00  0.00     0.074 A 
ATOM     65  C   UNL A   1      42.837  28.536  33.177  1.00  0.00     0.031 C 
ATOM     66  C   UNL A   1      43.008  29.732  35.339  1.00  0.00     0.037 A 
BRANCH  53  67
ATOM     67  C   UNL A   1      40.205  33.920  38.906  1.00  0.00     0.064 A 
ATOM     68  C   UNL A   1      40.896  35.139  38.979  1.00  0.00     0.173 A 
ATOM     69  C   UNL A   1      39.517  33.482  40.048  1.00  0.00     0.173 A 
ATOM     70  F   UNL A   1      41.591  35.584  37.921  1.00  0.00    -0.203 F 
ATOM     71  C   UNL A   1      40.915  35.880  40.156  1.00  0.00     0.198 A 
ATOM     72  C   UNL A   1      39.517  34.239  41.215  1.00  0.00     0.198 A 
ATOM     73  F   UNL A   1      38.849  32.320  40.029  1.00  0.00    -0.203 F 
ATOM     74  F   UNL A   1      41.621  37.017  40.218  1.00  0.00    -0.200 F 
ATOM     75  C   UNL A   1      40.220  35.433  41.271  1.00  0.00     0.200 A 
ATOM     76  F   UNL A   1      38.843  33.807  42.291  1.00  0.00    -0.200 F 
ATOM     77  F   UNL A   1      40.239  36.148  42.404  1.00  0.00    -0.200 F 
ENDBRANCH  53  67
BRANCH  54  78
ATOM     78  C   UNL A   1      39.709  28.765  30.353  1.00  0.00     0.064 A 
ATOM     79  C   UNL A   1      39.231  27.448  30.304  1.00  0.00     0.173 A 
ATOM     80  C   UNL A   1      40.175  29.334  29.157  1.00  0.00     0.173 A 
ATOM     81  F   UNL A   1      38.803  26.851  31.426  1.00  0.00    -0.203 F 
ATOM     82  C   UNL A   1      39.239  26.722  29.115  1.00  0.00     0.198 A 
ATOM     83  C   UNL A   1      40.157  28.615  27.963  1.00  0.00     0.198 A 
ATOM     84  F   UNL A   1      40.647  30.588  29.151  1.00  0.00    -0.203 F 
ATOM     85  F   UNL A   1      38.820  25.449  29.106  1.00  0.00    -0.200 F 
ATOM     86  C   UNL A   1      39.697  27.307  27.944  1.00  0.00     0.200 A 
ATOM     87  F   UNL A   1      40.596  29.188  26.833  1.00  0.00    -0.200 F 
ATOM     88  F   UNL A   1      39.705  26.609  26.801  1.00  0.00    -0.200 F 
ENDBRANCH  54  78
BRANCH  66  89
ATOM     89  C   UNL A   1      44.282  28.991  35.616  1.00  0.00     0.064 A 
ATOM     90  C   UNL A   1      45.531  29.515  35.257  1.00  0.00     0.173 A 
ATOM     91  C   UNL A   1      44.251  27.785  36.333  1.00  0.00     0.173 A 
ATOM     92  F   UNL A   1      45.609  30.660  34.562  1.00  0.00    -0.203 F 
ATOM     93  C   UNL A   1      46.706  28.852  35.602  1.00  0.00     0.198 A 
ATOM     94  C   UNL A   1      45.428  27.139  36.696  1.00  0.00     0.198 A 
ATOM     95  F   UNL A   1      43.078  27.251  36.706  1.00  0.00    -0.203 F 
ATOM     96  F   UNL A   1      47.891  29.357  35.231  1.00  0.00    -0.200 F 
ATOM     97  C   UNL A   1      46.654  27.672  36.329  1.00  0.00     0.200 A 
ATOM     98  F   UNL A   1      45.377  26.007  37.411  1.00  0.00    -0.200 F 
ATOM     99  F   UNL A   1      47.788  27.047  36.676  1.00  0.00    -0.200 F 
ENDBRANCH  66  89
ENDBRANCH  40  41
ENDBRANCH  33  35
ENDBRANCH  32  33
ENDBRANCH  31  32
ENDBRANCH  30  31
ENDBRANCH  29  30
ENDBRANCH  28  29
ENDBRANCH  27  28
ENDBRANCH  26  27
ENDBRANCH   1  26
TORSDOF 24
ENDMDL
