MODEL 1
REMARK VINA RESULT:     -11.1      0.000      0.000
REMARK SMILES Cc1cc(N2CCO[C@@H](C)C2)cc(C(=O)OCCOCCOCCOCCOC(=O)c2ccc(-c3c4nc(c(-c5c(F)c(F)c(F)c(F)c5F)c5ccc([nH]5)c(-c5c(F)c(F)c(F)c(F)c5F)c5nc(c(-c6c(F)c(F)c(F)c(F)c6F)c6ccc3[nH]6)C=C5)C=C4)cc2)c1N
REMARK SMILES IDX 23 1 22 2 21 3 20 4 19 5 18 6 17 7 16 8 14 9 15 10 13 11
REMARK SMILES IDX 1 12 2 13 3 14 94 15 4 16 12 17 95 18 5 21 6 22 11 23 7 24
REMARK SMILES IDX 9 25 8 26 10 27 24 28 25 29 26 30 27 31 28 32 29 33 30 34
REMARK SMILES IDX 31 35 32 36 93 37 33 38 92 39 34 40 35 41 36 42 86 43 37 44
REMARK SMILES IDX 91 45 85 46 87 47 38 48 90 49 84 50 83 51 39 53 71 54 51 55
REMARK SMILES IDX 70 56 52 57 55 58 69 59 88 60 53 61 54 62 68 64 89 65 56 66
REMARK SMILES IDX 40 67 41 68 49 69 42 70 43 71 47 72 50 73 44 74 45 75 48 76
REMARK SMILES IDX 46 77 72 78 73 79 81 80 74 81 75 82 79 83 82 84 76 85 77 86
REMARK SMILES IDX 80 87 78 88 57 89 58 90 66 91 59 92 60 93 64 94 67 95 61 96
REMARK SMILES IDX 62 97 65 98 63 99
REMARK H PARENT 95 19 95 20 87 52 55 63
REMARK Flexibility Score: inf
ROOT
ATOM      1  C   UNL A   1      42.549  18.552  26.094  1.00  0.00     0.188 C 
ENDROOT
BRANCH   1   2
ATOM      2  O   UNL A   1      42.281  19.243  27.306  1.00  0.00    -0.377 OA
BRANCH   2   3
ATOM      3  C   UNL A   1      41.159  20.117  27.396  1.00  0.00     0.188 C 
BRANCH   3   4
ATOM      4  C   UNL A   1      40.346  20.528  26.144  1.00  0.00     0.188 C 
BRANCH   4   5
ATOM      5  O   UNL A   1      40.116  21.922  26.014  1.00  0.00    -0.376 OA
BRANCH   5   6
ATOM      6  C   UNL A   1      38.812  22.410  26.263  1.00  0.00     0.202 C 
BRANCH   6   7
ATOM      7  C   UNL A   1      37.758  22.150  25.178  1.00  0.00     0.261 C 
BRANCH   7   8
ATOM      8  O   UNL A   1      36.794  23.193  24.988  1.00  0.00    -0.460 OA
BRANCH   8   9
ATOM      9  C   UNL A   1      36.148  23.225  23.798  1.00  0.00     0.340 C 
ATOM     10  O   UNL A   1      36.611  22.880  22.722  1.00  0.00    -0.246 OA
BRANCH   9  11
ATOM     11  C   UNL A   1      34.719  23.560  24.042  1.00  0.00     0.085 A 
ATOM     12  C   UNL A   1      31.530  22.019  25.459  1.00  0.00     0.047 C 
ATOM     13  C   UNL A   1      32.534  22.981  24.881  1.00  0.00    -0.025 A 
ATOM     14  C   UNL A   1      32.121  24.305  24.630  1.00  0.00     0.031 A 
ATOM     15  C   UNL A   1      33.855  22.594  24.599  1.00  0.00     0.049 A 
ATOM     16  C   UNL A   1      32.964  25.272  24.070  1.00  0.00     0.038 A 
ATOM     17  C   UNL A   1      34.271  24.869  23.778  1.00  0.00     0.043 A 
BRANCH  15  18
ATOM     18  N   UNL A   1      34.329  21.357  25.038  1.00  0.00    -0.398 N 
ATOM     19  H   UNL A   1      35.291  21.155  24.996  1.00  0.00     0.156 HD
ATOM     20  H   UNL A   1      33.701  20.686  25.390  1.00  0.00     0.156 HD
ENDBRANCH  15  18
BRANCH  16  21
ATOM     21  N   UNL A   1      32.540  26.558  23.819  1.00  0.00    -0.367 N 
ATOM     22  C   UNL A   1      31.356  26.831  22.994  1.00  0.00     0.145 C 
ATOM     23  C   UNL A   1      33.063  27.745  24.512  1.00  0.00     0.148 C 
ATOM     24  C   UNL A   1      30.284  27.507  23.865  1.00  0.00     0.182 C 
ATOM     25  C   UNL A   1      31.948  28.462  25.307  1.00  0.00     0.134 C 
ATOM     26  O   UNL A   1      30.774  28.698  24.503  1.00  0.00    -0.375 OA
ATOM     27  C   UNL A   1      31.588  27.757  26.612  1.00  0.00     0.040 C 
ENDBRANCH  16  21
ENDBRANCH   9  11
ENDBRANCH   8   9
ENDBRANCH   7   8
ENDBRANCH   6   7
ENDBRANCH   5   6
ENDBRANCH   4   5
ENDBRANCH   3   4
ENDBRANCH   2   3
ENDBRANCH   1   2
BRANCH   1  28
ATOM     28  C   UNL A   1      43.938  18.697  25.435  1.00  0.00     0.188 C 
BRANCH  28  29
ATOM     29  O   UNL A   1      43.980  19.650  24.389  1.00  0.00    -0.376 OA
BRANCH  29  30
ATOM     30  C   UNL A   1      44.661  20.869  24.617  1.00  0.00     0.202 C 
BRANCH  30  31
ATOM     31  C   UNL A   1      44.191  21.780  25.760  1.00  0.00     0.261 C 
BRANCH  31  32
ATOM     32  O   UNL A   1      43.310  22.858  25.413  1.00  0.00    -0.460 OA
BRANCH  32  33
ATOM     33  C   UNL A   1      43.853  24.074  25.199  1.00  0.00     0.338 C 
ATOM     34  O   UNL A   1      44.632  24.393  24.315  1.00  0.00    -0.246 OA
BRANCH  33  35
ATOM     35  C   UNL A   1      43.186  25.019  26.119  1.00  0.00     0.060 A 
ATOM     36  C   UNL A   1      43.616  26.353  26.166  1.00  0.00     0.016 A 
ATOM     37  C   UNL A   1      42.121  24.591  26.913  1.00  0.00     0.016 A 
ATOM     38  C   UNL A   1      42.996  27.256  27.030  1.00  0.00     0.010 A 
ATOM     39  C   UNL A   1      41.519  25.488  27.798  1.00  0.00     0.010 A 
ATOM     40  C   UNL A   1      41.977  26.816  27.883  1.00  0.00    -0.014 A 
BRANCH  40  41
ATOM     41  C   UNL A   1      41.531  27.677  29.005  1.00  0.00     0.031 A 
ATOM     42  C   UNL A   1      42.281  27.588  30.305  1.00  0.00     0.074 A 
ATOM     43  C   UNL A   1      40.499  28.528  28.874  1.00  0.00     0.049 A 
ATOM     44  N   UNL A   1      42.046  28.180  31.447  1.00  0.00    -0.248 NA
ATOM     45  C   UNL A   1      43.458  26.704  30.317  1.00  0.00     0.031 C 
ATOM     46  C   UNL A   1      39.724  28.736  27.653  1.00  0.00     0.029 A 
ATOM     47  N   UNL A   1      39.919  29.369  29.791  1.00  0.00    -0.354 N 
ATOM     48  C   UNL A   1      43.038  27.737  32.311  1.00  0.00     0.074 A 
ATOM     49  C   UNL A   1      43.857  26.799  31.575  1.00  0.00     0.031 C 
ATOM     50  C   UNL A   1      38.755  29.635  27.903  1.00  0.00     0.029 A 
ATOM     51  C   UNL A   1      38.820  30.035  29.307  1.00  0.00     0.049 A 
ATOM     52  H   UNL A   1      40.259  29.483  30.709  1.00  0.00     0.167 HD
ATOM     53  C   UNL A   1      43.253  28.089  33.600  1.00  0.00     0.037 A 
ATOM     54  C   UNL A   1      37.952  30.851  29.940  1.00  0.00     0.037 A 
ATOM     55  C   UNL A   1      42.431  29.017  34.330  1.00  0.00     0.049 A 
ATOM     56  C   UNL A   1      38.164  31.161  31.403  1.00  0.00     0.074 A 
ATOM     57  C   UNL A   1      42.568  29.446  35.638  1.00  0.00     0.029 A 
ATOM     58  N   UNL A   1      41.309  29.650  33.816  1.00  0.00    -0.354 N 
ATOM     59  N   UNL A   1      39.115  30.757  32.210  1.00  0.00    -0.248 NA
ATOM     60  C   UNL A   1      37.177  32.045  32.041  1.00  0.00     0.031 C 
ATOM     61  C   UNL A   1      41.494  30.292  35.935  1.00  0.00     0.029 A 
ATOM     62  C   UNL A   1      40.728  30.447  34.790  1.00  0.00     0.049 A 
ATOM     63  H   UNL A   1      40.976  29.550  32.895  1.00  0.00     0.167 HD
ATOM     64  C   UNL A   1      38.864  31.362  33.434  1.00  0.00     0.074 A 
ATOM     65  C   UNL A   1      37.678  32.174  33.262  1.00  0.00     0.031 C 
ATOM     66  C   UNL A   1      39.553  31.258  34.598  1.00  0.00     0.037 A 
BRANCH  53  67
ATOM     67  C   UNL A   1      44.408  27.444  34.313  1.00  0.00     0.064 A 
ATOM     68  C   UNL A   1      45.679  28.038  34.350  1.00  0.00     0.173 A 
ATOM     69  C   UNL A   1      44.231  26.230  34.994  1.00  0.00     0.173 A 
ATOM     70  F   UNL A   1      45.906  29.190  33.702  1.00  0.00    -0.203 F 
ATOM     71  C   UNL A   1      46.735  27.427  35.021  1.00  0.00     0.198 A 
ATOM     72  C   UNL A   1      45.281  25.640  35.691  1.00  0.00     0.198 A 
ATOM     73  F   UNL A   1      43.036  25.620  34.990  1.00  0.00    -0.203 F 
ATOM     74  F   UNL A   1      47.953  27.987  35.001  1.00  0.00    -0.200 F 
ATOM     75  C   UNL A   1      46.534  26.235  35.698  1.00  0.00     0.200 A 
ATOM     76  F   UNL A   1      45.080  24.495  36.358  1.00  0.00    -0.200 F 
ATOM     77  F   UNL A   1      47.549  25.653  36.353  1.00  0.00    -0.200 F 
ENDBRANCH  53  67
BRANCH  54  78
ATOM     78  C   UNL A   1      36.789  31.417  29.207  1.00  0.00     0.064 A 
ATOM     79  C   UNL A   1      36.733  32.777  28.869  1.00  0.00     0.173 A 
ATOM     80  C   UNL A   1      35.689  30.617  28.859  1.00  0.00     0.173 A 
ATOM     81  F   UNL A   1      37.747  33.591  29.202  1.00  0.00    -0.203 F 
ATOM     82  C   UNL A   1      35.616  33.319  28.236  1.00  0.00     0.198 A 
ATOM     83  C   UNL A   1      34.587  31.153  28.196  1.00  0.00     0.198 A 
ATOM     84  F   UNL A   1      35.686  29.310  29.163  1.00  0.00    -0.203 F 
ATOM     85  F   UNL A   1      35.567  34.632  27.978  1.00  0.00    -0.200 F 
ATOM     86  C   UNL A   1      34.547  32.504  27.895  1.00  0.00     0.200 A 
ATOM     87  F   UNL A   1      33.561  30.360  27.857  1.00  0.00    -0.200 F 
ATOM     88  F   UNL A   1      33.472  33.026  27.286  1.00  0.00    -0.200 F 
ENDBRANCH  54  78
BRANCH  66  89
ATOM     89  C   UNL A   1      39.075  32.077  35.766  1.00  0.00     0.064 A 
ATOM     90  C   UNL A   1      38.245  31.539  36.760  1.00  0.00     0.173 A 
ATOM     91  C   UNL A   1      39.494  33.409  35.914  1.00  0.00     0.173 A 
ATOM     92  F   UNL A   1      37.805  30.275  36.662  1.00  0.00    -0.203 F 
ATOM     93  C   UNL A   1      37.827  32.312  37.841  1.00  0.00     0.198 A 
ATOM     94  C   UNL A   1      39.105  34.168  37.015  1.00  0.00     0.198 A 
ATOM     95  F   UNL A   1      40.297  33.972  34.998  1.00  0.00    -0.203 F 
ATOM     96  F   UNL A   1      36.990  31.793  38.749  1.00  0.00    -0.200 F 
ATOM     97  C   UNL A   1      38.265  33.622  37.972  1.00  0.00     0.200 A 
ATOM     98  F   UNL A   1      39.545  35.426  37.148  1.00  0.00    -0.200 F 
ATOM     99  F   UNL A   1      37.869  34.360  39.018  1.00  0.00    -0.200 F 
ENDBRANCH  66  89
ENDBRANCH  40  41
ENDBRANCH  33  35
ENDBRANCH  32  33
ENDBRANCH  31  32
ENDBRANCH  30  31
ENDBRANCH  29  30
ENDBRANCH  28  29
ENDBRANCH   1  28
TORSDOF 22
ENDMDL
MODEL 2
REMARK VINA RESULT:     -10.3      4.483      7.278
REMARK SMILES Cc1cc(N2CCO[C@@H](C)C2)cc(C(=O)OCCOCCOCCOCCOC(=O)c2ccc(-c3c4nc(c(-c5c(F)c(F)c(F)c(F)c5F)c5ccc([nH]5)c(-c5c(F)c(F)c(F)c(F)c5F)c5nc(c(-c6c(F)c(F)c(F)c(F)c6F)c6ccc3[nH]6)C=C5)C=C4)cc2)c1N
REMARK SMILES IDX 23 1 22 2 21 3 20 4 19 5 18 6 17 7 16 8 14 9 15 10 13 11
REMARK SMILES IDX 1 12 2 13 3 14 94 15 4 16 12 17 95 18 5 21 6 22 11 23 7 24
REMARK SMILES IDX 9 25 8 26 10 27 24 28 25 29 26 30 27 31 28 32 29 33 30 34
REMARK SMILES IDX 31 35 32 36 93 37 33 38 92 39 34 40 35 41 36 42 86 43 37 44
REMARK SMILES IDX 91 45 85 46 87 47 38 48 90 49 84 50 83 51 39 53 71 54 51 55
REMARK SMILES IDX 70 56 52 57 55 58 69 59 88 60 53 61 54 62 68 64 89 65 56 66
REMARK SMILES IDX 40 67 41 68 49 69 42 70 43 71 47 72 50 73 44 74 45 75 48 76
REMARK SMILES IDX 46 77 72 78 73 79 81 80 74 81 75 82 79 83 82 84 76 85 77 86
REMARK SMILES IDX 80 87 78 88 57 89 58 90 66 91 59 92 60 93 64 94 67 95 61 96
REMARK SMILES IDX 62 97 65 98 63 99
REMARK H PARENT 95 19 95 20 87 52 55 63
REMARK Flexibility Score: inf
ROOT
ATOM      1  C   UNL A   1      37.027  22.558  23.478  1.00  0.00     0.188 C 
ENDROOT
BRANCH   1   2
ATOM      2  O   UNL A   1      36.060  23.323  22.772  1.00  0.00    -0.377 OA
BRANCH   2   3
ATOM      3  C   UNL A   1      34.671  23.122  23.019  1.00  0.00     0.188 C 
BRANCH   3   4
ATOM      4  C   UNL A   1      33.810  24.194  23.729  1.00  0.00     0.188 C 
BRANCH   4   5
ATOM      5  O   UNL A   1      33.655  24.005  25.126  1.00  0.00    -0.376 OA
BRANCH   5   6
ATOM      6  C   UNL A   1      32.714  23.049  25.572  1.00  0.00     0.202 C 
BRANCH   6   7
ATOM      7  C   UNL A   1      31.393  22.965  24.795  1.00  0.00     0.261 C 
BRANCH   7   8
ATOM      8  O   UNL A   1      30.703  24.208  24.611  1.00  0.00    -0.460 OA
BRANCH   8   9
ATOM      9  C   UNL A   1      30.606  25.025  25.688  1.00  0.00     0.340 C 
ATOM     10  O   UNL A   1      30.477  24.667  26.848  1.00  0.00    -0.246 OA
BRANCH   9  11
ATOM     11  C   UNL A   1      30.886  26.419  25.252  1.00  0.00     0.085 A 
ATOM     12  C   UNL A   1      33.476  29.185  25.692  1.00  0.00     0.047 C 
ATOM     13  C   UNL A   1      32.291  28.379  25.231  1.00  0.00    -0.025 A 
ATOM     14  C   UNL A   1      31.435  28.944  24.265  1.00  0.00     0.031 A 
ATOM     15  C   UNL A   1      32.030  27.092  25.729  1.00  0.00     0.049 A 
ATOM     16  C   UNL A   1      30.291  28.294  23.786  1.00  0.00     0.038 A 
ATOM     17  C   UNL A   1      30.034  27.020  24.304  1.00  0.00     0.043 A 
BRANCH  15  18
ATOM     18  N   UNL A   1      32.980  26.443  26.520  1.00  0.00    -0.398 N 
ATOM     19  H   UNL A   1      32.855  25.498  26.765  1.00  0.00     0.156 HD
ATOM     20  H   UNL A   1      33.776  26.931  26.833  1.00  0.00     0.156 HD
ENDBRANCH  15  18
BRANCH  16  21
ATOM     21  N   UNL A   1      29.458  28.867  22.852  1.00  0.00    -0.367 N 
ATOM     22  C   UNL A   1      28.054  28.456  22.717  1.00  0.00     0.145 C 
ATOM     23  C   UNL A   1      29.798  30.069  22.076  1.00  0.00     0.148 C 
ATOM     24  C   UNL A   1      27.148  29.647  23.073  1.00  0.00     0.182 C 
ATOM     25  C   UNL A   1      28.818  31.224  22.379  1.00  0.00     0.134 C 
ATOM     26  O   UNL A   1      27.441  30.809  22.279  1.00  0.00    -0.375 OA
ATOM     27  C   UNL A   1      29.090  31.910  23.716  1.00  0.00     0.040 C 
ENDBRANCH  16  21
ENDBRANCH   9  11
ENDBRANCH   8   9
ENDBRANCH   7   8
ENDBRANCH   6   7
ENDBRANCH   5   6
ENDBRANCH   4   5
ENDBRANCH   3   4
ENDBRANCH   2   3
ENDBRANCH   1   2
BRANCH   1  28
ATOM     28  C   UNL A   1      36.631  21.890  24.813  1.00  0.00     0.188 C 
BRANCH  28  29
ATOM     29  O   UNL A   1      37.706  21.251  25.476  1.00  0.00    -0.376 OA
BRANCH  29  30
ATOM     30  C   UNL A   1      38.104  19.969  25.028  1.00  0.00     0.202 C 
BRANCH  30  31
ATOM     31  C   UNL A   1      39.418  19.372  25.554  1.00  0.00     0.261 C 
BRANCH  31  32
ATOM     32  O   UNL A   1      39.949  19.932  26.764  1.00  0.00    -0.460 OA
BRANCH  32  33
ATOM     33  C   UNL A   1      41.270  20.201  26.809  1.00  0.00     0.338 C 
ATOM     34  O   UNL A   1      42.188  19.461  26.498  1.00  0.00    -0.246 OA
BRANCH  33  35
ATOM     35  C   UNL A   1      41.413  21.637  27.128  1.00  0.00     0.060 A 
ATOM     36  C   UNL A   1      40.845  22.592  26.274  1.00  0.00     0.016 A 
ATOM     37  C   UNL A   1      42.087  22.034  28.285  1.00  0.00     0.016 A 
ATOM     38  C   UNL A   1      40.973  23.951  26.561  1.00  0.00     0.010 A 
ATOM     39  C   UNL A   1      42.238  23.395  28.558  1.00  0.00     0.010 A 
ATOM     40  C   UNL A   1      41.710  24.359  27.680  1.00  0.00    -0.014 A 
BRANCH  40  41
ATOM     41  C   UNL A   1      42.109  25.781  27.822  1.00  0.00     0.031 A 
ATOM     42  C   UNL A   1      43.439  26.201  27.260  1.00  0.00     0.074 A 
ATOM     43  C   UNL A   1      41.309  26.681  28.418  1.00  0.00     0.049 A 
ATOM     44  N   UNL A   1      44.041  27.360  27.318  1.00  0.00    -0.248 NA
ATOM     45  C   UNL A   1      44.194  25.165  26.536  1.00  0.00     0.031 C 
ATOM     46  C   UNL A   1      39.981  26.405  28.960  1.00  0.00     0.029 A 
ATOM     47  N   UNL A   1      41.510  28.014  28.677  1.00  0.00    -0.354 N 
ATOM     48  C   UNL A   1      45.244  27.192  26.645  1.00  0.00     0.074 A 
ATOM     49  C   UNL A   1      45.306  25.811  26.219  1.00  0.00     0.031 C 
ATOM     50  C   UNL A   1      39.492  27.533  29.506  1.00  0.00     0.029 A 
ATOM     51  C   UNL A   1      40.487  28.597  29.383  1.00  0.00     0.049 A 
ATOM     52  H   UNL A   1      42.312  28.505  28.383  1.00  0.00     0.167 HD
ATOM     53  C   UNL A   1      46.207  28.111  26.396  1.00  0.00     0.037 A 
ATOM     54  C   UNL A   1      40.385  29.840  29.895  1.00  0.00     0.037 A 
ATOM     55  C   UNL A   1      46.145  29.481  26.830  1.00  0.00     0.049 A 
ATOM     56  C   UNL A   1      41.512  30.822  29.679  1.00  0.00     0.074 A 
ATOM     57  C   UNL A   1      47.064  30.493  26.623  1.00  0.00     0.029 A 
ATOM     58  N   UNL A   1      45.105  30.028  27.568  1.00  0.00    -0.354 N 
ATOM     59  N   UNL A   1      42.637  30.666  29.025  1.00  0.00    -0.248 NA
ATOM     60  C   UNL A   1      41.349  32.158  30.273  1.00  0.00     0.031 C 
ATOM     61  C   UNL A   1      46.612  31.637  27.289  1.00  0.00     0.029 A 
ATOM     62  C   UNL A   1      45.375  31.359  27.849  1.00  0.00     0.049 A 
ATOM     63  H   UNL A   1      44.296  29.544  27.849  1.00  0.00     0.167 HD
ATOM     64  C   UNL A   1      43.298  31.886  29.097  1.00  0.00     0.074 A 
ATOM     65  C   UNL A   1      42.440  32.779  29.847  1.00  0.00     0.031 C 
ATOM     66  C   UNL A   1      44.505  32.237  28.588  1.00  0.00     0.037 A 
BRANCH  53  67
ATOM     67  C   UNL A   1      47.425  27.654  25.646  1.00  0.00     0.064 A 
ATOM     68  C   UNL A   1      47.491  27.701  24.245  1.00  0.00     0.173 A 
ATOM     69  C   UNL A   1      48.553  27.191  26.341  1.00  0.00     0.173 A 
ATOM     70  F   UNL A   1      46.435  28.119  23.532  1.00  0.00    -0.203 F 
ATOM     71  C   UNL A   1      48.632  27.278  23.568  1.00  0.00     0.198 A 
ATOM     72  C   UNL A   1      49.703  26.801  25.661  1.00  0.00     0.198 A 
ATOM     73  F   UNL A   1      48.543  27.126  27.681  1.00  0.00    -0.203 F 
ATOM     74  F   UNL A   1      48.655  27.284  22.228  1.00  0.00    -0.200 F 
ATOM     75  C   UNL A   1      49.740  26.837  24.276  1.00  0.00     0.200 A 
ATOM     76  F   UNL A   1      50.778  26.390  26.348  1.00  0.00    -0.200 F 
ATOM     77  F   UNL A   1      50.841  26.441  23.623  1.00  0.00    -0.200 F 
ENDBRANCH  53  67
BRANCH  54  78
ATOM     78  C   UNL A   1      39.185  30.227  30.684  1.00  0.00     0.064 A 
ATOM     79  C   UNL A   1      39.094  29.948  32.056  1.00  0.00     0.173 A 
ATOM     80  C   UNL A   1      38.086  30.853  30.076  1.00  0.00     0.173 A 
ATOM     81  F   UNL A   1      40.106  29.327  32.680  1.00  0.00    -0.203 F 
ATOM     82  C   UNL A   1      37.945  30.255  32.781  1.00  0.00     0.198 A 
ATOM     83  C   UNL A   1      36.950  31.190  30.809  1.00  0.00     0.198 A 
ATOM     84  F   UNL A   1      38.116  31.139  28.765  1.00  0.00    -0.203 F 
ATOM     85  F   UNL A   1      37.864  29.924  34.076  1.00  0.00    -0.200 F 
ATOM     86  C   UNL A   1      36.876  30.882  32.157  1.00  0.00     0.200 A 
ATOM     87  F   UNL A   1      35.925  31.807  30.205  1.00  0.00    -0.200 F 
ATOM     88  F   UNL A   1      35.770  31.178  32.856  1.00  0.00    -0.200 F 
ENDBRANCH  54  78
BRANCH  66  89
ATOM     89  C   UNL A   1      44.953  33.660  28.779  1.00  0.00     0.064 A 
ATOM     90  C   UNL A   1      44.561  34.686  27.907  1.00  0.00     0.173 A 
ATOM     91  C   UNL A   1      45.753  34.008  29.881  1.00  0.00     0.173 A 
ATOM     92  F   UNL A   1      43.807  34.408  26.833  1.00  0.00    -0.203 F 
ATOM     93  C   UNL A   1      44.976  36.000  28.113  1.00  0.00     0.198 A 
ATOM     94  C   UNL A   1      46.136  35.327  30.104  1.00  0.00     0.198 A 
ATOM     95  F   UNL A   1      46.150  33.068  30.752  1.00  0.00    -0.203 F 
ATOM     96  F   UNL A   1      44.634  36.954  27.236  1.00  0.00    -0.200 F 
ATOM     97  C   UNL A   1      45.756  36.321  29.215  1.00  0.00     0.200 A 
ATOM     98  F   UNL A   1      46.872  35.637  31.179  1.00  0.00    -0.200 F 
ATOM     99  F   UNL A   1      46.146  37.587  29.416  1.00  0.00    -0.200 F 
ENDBRANCH  66  89
ENDBRANCH  40  41
ENDBRANCH  33  35
ENDBRANCH  32  33
ENDBRANCH  31  32
ENDBRANCH  30  31
ENDBRANCH  29  30
ENDBRANCH  28  29
ENDBRANCH   1  28
TORSDOF 22
ENDMDL
MODEL 3
REMARK VINA RESULT:     -10.2      4.497      7.322
REMARK SMILES Cc1cc(N2CCO[C@@H](C)C2)cc(C(=O)OCCOCCOCCOCCOC(=O)c2ccc(-c3c4nc(c(-c5c(F)c(F)c(F)c(F)c5F)c5ccc([nH]5)c(-c5c(F)c(F)c(F)c(F)c5F)c5nc(c(-c6c(F)c(F)c(F)c(F)c6F)c6ccc3[nH]6)C=C5)C=C4)cc2)c1N
REMARK SMILES IDX 23 1 22 2 21 3 20 4 19 5 18 6 17 7 16 8 14 9 15 10 13 11
REMARK SMILES IDX 1 12 2 13 3 14 94 15 4 16 12 17 95 18 5 21 6 22 11 23 7 24
REMARK SMILES IDX 9 25 8 26 10 27 24 28 25 29 26 30 27 31 28 32 29 33 30 34
REMARK SMILES IDX 31 35 32 36 93 37 33 38 92 39 34 40 35 41 36 42 86 43 37 44
REMARK SMILES IDX 91 45 85 46 87 47 38 48 90 49 84 50 83 51 39 53 71 54 51 55
REMARK SMILES IDX 70 56 52 57 55 58 69 59 88 60 53 61 54 62 68 64 89 65 56 66
REMARK SMILES IDX 40 67 41 68 49 69 42 70 43 71 47 72 50 73 44 74 45 75 48 76
REMARK SMILES IDX 46 77 72 78 73 79 81 80 74 81 75 82 79 83 82 84 76 85 77 86
REMARK SMILES IDX 80 87 78 88 57 89 58 90 66 91 59 92 60 93 64 94 67 95 61 96
REMARK SMILES IDX 62 97 65 98 63 99
REMARK H PARENT 95 19 95 20 87 52 55 63
REMARK Flexibility Score: inf
ROOT
ATOM      1  C   UNL A   1      36.921  22.378  23.438  1.00  0.00     0.188 C 
ENDROOT
BRANCH   1   2
ATOM      2  O   UNL A   1      36.029  23.314  22.850  1.00  0.00    -0.377 OA
BRANCH   2   3
ATOM      3  C   UNL A   1      34.627  23.206  23.080  1.00  0.00     0.188 C 
BRANCH   3   4
ATOM      4  C   UNL A   1      33.729  24.458  23.225  1.00  0.00     0.188 C 
BRANCH   4   5
ATOM      5  O   UNL A   1      33.474  24.856  24.563  1.00  0.00    -0.376 OA
BRANCH   5   6
ATOM      6  C   UNL A   1      32.747  23.974  25.396  1.00  0.00     0.202 C 
BRANCH   6   7
ATOM      7  C   UNL A   1      31.456  23.382  24.816  1.00  0.00     0.261 C 
BRANCH   7   8
ATOM      8  O   UNL A   1      30.481  24.336  24.375  1.00  0.00    -0.460 OA
BRANCH   8   9
ATOM      9  C   UNL A   1      29.999  25.199  25.301  1.00  0.00     0.340 C 
ATOM     10  O   UNL A   1      29.750  24.933  26.466  1.00  0.00    -0.246 OA
BRANCH   9  11
ATOM     11  C   UNL A   1      30.014  26.571  24.724  1.00  0.00     0.085 A 
ATOM     12  C   UNL A   1      27.910  28.867  22.522  1.00  0.00     0.047 C 
ATOM     13  C   UNL A   1      28.980  28.323  23.431  1.00  0.00    -0.025 A 
ATOM     14  C   UNL A   1      30.020  29.187  23.829  1.00  0.00     0.031 A 
ATOM     15  C   UNL A   1      28.959  26.996  23.890  1.00  0.00     0.049 A 
ATOM     16  C   UNL A   1      31.078  28.779  24.649  1.00  0.00     0.038 A 
ATOM     17  C   UNL A   1      31.054  27.450  25.084  1.00  0.00     0.043 A 
BRANCH  15  18
ATOM     18  N   UNL A   1      27.831  26.201  23.677  1.00  0.00    -0.398 N 
ATOM     19  H   UNL A   1      26.931  26.575  23.815  1.00  0.00     0.156 HD
ATOM     20  H   UNL A   1      27.937  25.266  23.388  1.00  0.00     0.156 HD
ENDBRANCH  15  18
BRANCH  16  21
ATOM     21  N   UNL A   1      32.094  29.633  25.017  1.00  0.00    -0.367 N 
ATOM     22  C   UNL A   1      31.857  30.765  25.922  1.00  0.00     0.145 C 
ATOM     23  C   UNL A   1      33.517  29.381  24.745  1.00  0.00     0.148 C 
ATOM     24  C   UNL A   1      32.660  30.547  27.216  1.00  0.00     0.182 C 
ATOM     25  C   UNL A   1      34.321  29.258  26.059  1.00  0.00     0.134 C 
ATOM     26  O   UNL A   1      34.061  30.354  26.960  1.00  0.00    -0.375 OA
ATOM     27  C   UNL A   1      34.132  27.914  26.759  1.00  0.00     0.040 C 
ENDBRANCH  16  21
ENDBRANCH   9  11
ENDBRANCH   8   9
ENDBRANCH   7   8
ENDBRANCH   6   7
ENDBRANCH   5   6
ENDBRANCH   4   5
ENDBRANCH   3   4
ENDBRANCH   2   3
ENDBRANCH   1   2
BRANCH   1  28
ATOM     28  C   UNL A   1      36.458  21.566  24.668  1.00  0.00     0.188 C 
BRANCH  28  29
ATOM     29  O   UNL A   1      37.519  21.119  25.492  1.00  0.00    -0.376 OA
BRANCH  29  30
ATOM     30  C   UNL A   1      38.143  19.888  25.175  1.00  0.00     0.202 C 
BRANCH  30  31
ATOM     31  C   UNL A   1      39.592  19.652  25.625  1.00  0.00     0.261 C 
BRANCH  31  32
ATOM     32  O   UNL A   1      39.972  20.186  26.902  1.00  0.00    -0.460 OA
BRANCH  32  33
ATOM     33  C   UNL A   1      41.283  20.413  27.127  1.00  0.00     0.338 C 
ATOM     34  O   UNL A   1      42.208  19.633  26.971  1.00  0.00    -0.246 OA
BRANCH  33  35
ATOM     35  C   UNL A   1      41.433  21.853  27.421  1.00  0.00     0.060 A 
ATOM     36  C   UNL A   1      40.827  22.795  26.577  1.00  0.00     0.016 A 
ATOM     37  C   UNL A   1      42.149  22.269  28.545  1.00  0.00     0.016 A 
ATOM     38  C   UNL A   1      40.960  24.158  26.841  1.00  0.00     0.010 A 
ATOM     39  C   UNL A   1      42.306  23.634  28.794  1.00  0.00     0.010 A 
ATOM     40  C   UNL A   1      41.739  24.584  27.924  1.00  0.00    -0.014 A 
BRANCH  40  41
ATOM     41  C   UNL A   1      42.137  26.009  28.031  1.00  0.00     0.031 A 
ATOM     42  C   UNL A   1      43.463  26.417  27.453  1.00  0.00     0.074 A 
ATOM     43  C   UNL A   1      41.339  26.922  28.611  1.00  0.00     0.049 A 
ATOM     44  N   UNL A   1      44.064  27.578  27.480  1.00  0.00    -0.248 NA
ATOM     45  C   UNL A   1      44.216  25.366  26.749  1.00  0.00     0.031 C 
ATOM     46  C   UNL A   1      40.015  26.657  29.167  1.00  0.00     0.029 A 
ATOM     47  N   UNL A   1      41.540  28.261  28.838  1.00  0.00    -0.354 N 
ATOM     48  C   UNL A   1      45.264  27.396  26.805  1.00  0.00     0.074 A 
ATOM     49  C   UNL A   1      45.325  26.006  26.411  1.00  0.00     0.031 C 
ATOM     50  C   UNL A   1      39.528  27.797  29.689  1.00  0.00     0.029 A 
ATOM     51  C   UNL A   1      40.520  28.859  29.537  1.00  0.00     0.049 A 
ATOM     52  H   UNL A   1      42.340  28.746  28.529  1.00  0.00     0.167 HD
ATOM     53  C   UNL A   1      46.224  28.310  26.530  1.00  0.00     0.037 A 
ATOM     54  C   UNL A   1      40.420  30.113  30.021  1.00  0.00     0.037 A 
ATOM     55  C   UNL A   1      46.163  29.690  26.932  1.00  0.00     0.049 A 
ATOM     56  C   UNL A   1      41.544  31.091  29.776  1.00  0.00     0.074 A 
ATOM     57  C   UNL A   1      47.080  30.698  26.698  1.00  0.00     0.029 A 
ATOM     58  N   UNL A   1      45.127  30.252  27.664  1.00  0.00    -0.354 N 
ATOM     59  N   UNL A   1      42.666  30.921  29.120  1.00  0.00    -0.248 NA
ATOM     60  C   UNL A   1      41.383  32.439  30.340  1.00  0.00     0.031 C 
ATOM     61  C   UNL A   1      46.630  31.856  27.339  1.00  0.00     0.029 A 
ATOM     62  C   UNL A   1      45.397  31.589  27.913  1.00  0.00     0.049 A 
ATOM     63  H   UNL A   1      44.320  29.774  27.961  1.00  0.00     0.167 HD
ATOM     64  C   UNL A   1      43.326  32.143  29.160  1.00  0.00     0.074 A 
ATOM     65  C   UNL A   1      42.472  33.052  29.894  1.00  0.00     0.031 C 
ATOM     66  C   UNL A   1      44.530  32.484  28.636  1.00  0.00     0.037 A 
BRANCH  53  67
ATOM     67  C   UNL A   1      47.439  27.837  25.784  1.00  0.00     0.064 A 
ATOM     68  C   UNL A   1      48.598  27.415  26.452  1.00  0.00     0.173 A 
ATOM     69  C   UNL A   1      47.430  27.776  24.382  1.00  0.00     0.173 A 
ATOM     70  F   UNL A   1      48.665  27.468  27.790  1.00  0.00    -0.203 F 
ATOM     71  C   UNL A   1      49.712  26.974  25.743  1.00  0.00     0.198 A 
ATOM     72  C   UNL A   1      48.534  27.303  23.679  1.00  0.00     0.198 A 
ATOM     73  F   UNL A   1      46.347  28.168  23.694  1.00  0.00    -0.203 F 
ATOM     74  F   UNL A   1      50.827  26.623  26.399  1.00  0.00    -0.200 F 
ATOM     75  C   UNL A   1      49.677  26.910  24.358  1.00  0.00     0.200 A 
ATOM     76  F   UNL A   1      48.491  27.228  22.341  1.00  0.00    -0.200 F 
ATOM     77  F   UNL A   1      50.746  26.475  23.677  1.00  0.00    -0.200 F 
ENDBRANCH  53  67
BRANCH  54  78
ATOM     78  C   UNL A   1      39.224  30.517  30.808  1.00  0.00     0.064 A 
ATOM     79  C   UNL A   1      39.153  30.295  32.191  1.00  0.00     0.173 A 
ATOM     80  C   UNL A   1      38.109  31.100  30.187  1.00  0.00     0.173 A 
ATOM     81  F   UNL A   1      40.182  29.715  32.829  1.00  0.00    -0.203 F 
ATOM     82  C   UNL A   1      38.008  30.617  32.916  1.00  0.00     0.198 A 
ATOM     83  C   UNL A   1      36.977  31.453  30.918  1.00  0.00     0.198 A 
ATOM     84  F   UNL A   1      38.119  31.330  28.865  1.00  0.00    -0.203 F 
ATOM     85  F   UNL A   1      37.947  30.340  34.225  1.00  0.00    -0.200 F 
ATOM     86  C   UNL A   1      36.923  31.202  32.280  1.00  0.00     0.200 A 
ATOM     87  F   UNL A   1      35.936  32.029  30.302  1.00  0.00    -0.200 F 
ATOM     88  F   UNL A   1      35.822  31.512  32.979  1.00  0.00    -0.200 F 
ENDBRANCH  54  78
BRANCH  66  89
ATOM     89  C   UNL A   1      44.978  33.911  28.792  1.00  0.00     0.064 A 
ATOM     90  C   UNL A   1      44.624  34.905  27.869  1.00  0.00     0.173 A 
ATOM     91  C   UNL A   1      45.736  34.296  29.911  1.00  0.00     0.173 A 
ATOM     92  F   UNL A   1      43.911  34.591  26.777  1.00  0.00    -0.203 F 
ATOM     93  C   UNL A   1      45.038  36.224  28.042  1.00  0.00     0.198 A 
ATOM     94  C   UNL A   1      46.117  35.622  30.100  1.00  0.00     0.198 A 
ATOM     95  F   UNL A   1      46.094  33.388  30.831  1.00  0.00    -0.203 F 
ATOM     96  F   UNL A   1      44.734  37.147  27.119  1.00  0.00    -0.200 F 
ATOM     97  C   UNL A   1      45.776  36.583  29.161  1.00  0.00     0.200 A 
ATOM     98  F   UNL A   1      46.812  35.968  31.191  1.00  0.00    -0.200 F 
ATOM     99  F   UNL A   1      46.164  37.854  29.330  1.00  0.00    -0.200 F 
ENDBRANCH  66  89
ENDBRANCH  40  41
ENDBRANCH  33  35
ENDBRANCH  32  33
ENDBRANCH  31  32
ENDBRANCH  30  31
ENDBRANCH  29  30
ENDBRANCH  28  29
ENDBRANCH   1  28
TORSDOF 22
ENDMDL
