MODEL 1
REMARK VINA RESULT:     -11.7      0.000      0.000
REMARK SMILES Cc1ccc(-c2cc(Cl)cc3c2O[C@H](C(F)(F)F)C(C(=O)OCCOCCOCCOCCOC(=O)c2ccc(-c4c5nc(c(-c6c(F)c(F)c(F)c(F)c6F)c6ccc([nH]6)c(-c6c(F)c(F)c(F)c(F)c6F)c6nc(c(-c7c(F)c(F)c(F)c(F)c7F)c7ccc4[nH]7)C=C6)C=C5)cc2)=C3)cc1F
REMARK SMILES IDX 29 1 28 2 27 3 26 4 25 5 24 6 23 7 22 8 20 9 21 10 19 11
REMARK SMILES IDX 6 12 7 13 12 14 8 15 11 16 13 17 9 18 10 19 100 20 14 21
REMARK SMILES IDX 5 22 1 23 2 24 3 25 102 26 4 27 101 28 103 29 15 30 16 31
REMARK SMILES IDX 17 32 18 33 30 34 31 35 32 36 33 37 34 38 35 39 36 40 37 41
REMARK SMILES IDX 38 42 99 43 39 44 98 45 40 46 41 47 42 48 92 49 43 50 97 51
REMARK SMILES IDX 91 52 93 53 44 54 96 55 90 56 89 57 45 59 77 60 57 61 76 62
REMARK SMILES IDX 58 63 61 64 75 65 94 66 59 67 60 68 74 70 95 71 62 72 46 73
REMARK SMILES IDX 47 74 55 75 48 76 49 77 53 78 56 79 50 80 51 81 54 82 52 83
REMARK SMILES IDX 78 84 79 85 87 86 80 87 81 88 85 89 88 90 82 91 83 92 86 93
REMARK SMILES IDX 84 94 63 95 64 96 72 97 65 98 66 99 70 100 73 101 67 102
REMARK SMILES IDX 68 103 71 104 69 105
REMARK H PARENT 93 58 61 69
REMARK Flexibility Score: inf
ROOT
ATOM      1  C   UNL A   1      37.612  29.830  29.094  1.00  0.00     0.188 C 
ENDROOT
BRANCH   1   2
ATOM      2  O   UNL A   1      38.211  28.251  29.017  1.00  0.00    -0.377 OA
BRANCH   2   3
ATOM      3  C   UNL A   1      39.411  27.231  27.740  1.00  0.00     0.188 C 
BRANCH   3   4
ATOM      4  C   UNL A   1      39.960  25.453  28.098  1.00  0.00     0.188 C 
BRANCH   4   5
ATOM      5  O   UNL A   1      40.911  24.450  27.525  1.00  0.00    -0.376 OA
BRANCH   5   6
ATOM      6  C   UNL A   1      41.019  22.991  27.454  1.00  0.00     0.202 C 
BRANCH   6   7
ATOM      7  C   UNL A   1      40.341  22.203  26.241  1.00  0.00     0.261 C 
BRANCH   7   8
ATOM      8  O   UNL A   1      39.319  21.258  26.667  1.00  0.00    -0.460 OA
BRANCH   8   9
ATOM      9  C   UNL A   1      38.817  20.535  25.652  1.00  0.00     0.338 C 
ATOM     10  O   UNL A   1      39.397  19.580  25.153  1.00  0.00    -0.246 OA
BRANCH   9  11
ATOM     11  C   UNL A   1      37.389  20.862  25.373  1.00  0.00     0.087 C 
ATOM     12  C   UNL A   1      33.176  21.027  24.904  1.00  0.00     0.026 A 
ATOM     13  C   UNL A   1      32.572  19.881  24.335  1.00  0.00     0.033 A 
ATOM     14  C   UNL A   1      34.556  20.945  25.213  1.00  0.00     0.135 A 
ATOM     15  C   UNL A   1      33.283  18.700  24.138  1.00  0.00     0.042 A 
ATOM     16  C   UNL A   1      35.279  19.790  24.886  1.00  0.00     0.019 A 
ATOM     17  O   UNL A   1      35.171  21.954  25.914  1.00  0.00    -0.475 OA
ATOM     18  Cl  UNL A   1      32.508  17.319  23.471  1.00  0.00    -0.084 Cl
ATOM     19  C   UNL A   1      34.634  18.646  24.426  1.00  0.00     0.032 A 
ATOM     20  C   UNL A   1      36.723  19.756  25.002  1.00  0.00     0.027 C 
ATOM     21  C   UNL A   1      36.635  22.113  25.786  1.00  0.00     0.316 C 
BRANCH  12  22
ATOM     22  C   UNL A   1      32.351  22.257  25.027  1.00  0.00    -0.012 A 
ATOM     23  C   UNL A   1      30.142  25.949  25.695  1.00  0.00     0.047 C 
ATOM     24  C   UNL A   1      30.918  24.689  25.453  1.00  0.00    -0.015 A 
ATOM     25  C   UNL A   1      31.987  24.646  24.558  1.00  0.00     0.007 A 
ATOM     26  C   UNL A   1      30.581  23.517  26.130  1.00  0.00     0.126 A 
ATOM     27  C   UNL A   1      32.690  23.448  24.348  1.00  0.00     0.009 A 
ATOM     28  C   UNL A   1      31.280  22.324  25.930  1.00  0.00     0.048 A 
ATOM     29  F   UNL A   1      29.573  23.531  27.015  1.00  0.00    -0.207 F 
ENDBRANCH  12  22
BRANCH  21  30
ATOM     30  C   UNL A   1      36.850  23.349  24.923  1.00  0.00     0.430 C 
ATOM     31  F   UNL A   1      37.892  24.077  25.405  1.00  0.00    -0.167 F 
ATOM     32  F   UNL A   1      37.158  23.026  23.650  1.00  0.00    -0.167 F 
ATOM     33  F   UNL A   1      35.772  24.158  24.916  1.00  0.00    -0.167 F 
ENDBRANCH  21  30
ENDBRANCH   9  11
ENDBRANCH   8   9
ENDBRANCH   7   8
ENDBRANCH   6   7
ENDBRANCH   5   6
ENDBRANCH   4   5
ENDBRANCH   3   4
ENDBRANCH   2   3
ENDBRANCH   1   2
BRANCH   1  34
ATOM     34  C   UNL A   1      36.231  30.570  28.939  1.00  0.00     0.188 C 
BRANCH  34  35
ATOM     35  O   UNL A   1      36.096  31.947  29.027  1.00  0.00    -0.376 OA
BRANCH  35  36
ATOM     36  C   UNL A   1      37.247  32.772  29.054  1.00  0.00     0.202 C 
BRANCH  36  37
ATOM     37  C   UNL A   1      37.599  33.770  30.195  1.00  0.00     0.261 C 
BRANCH  37  38
ATOM     38  O   UNL A   1      38.906  33.701  30.808  1.00  0.00    -0.460 OA
BRANCH  38  39
ATOM     39  C   UNL A   1      39.052  32.922  31.924  1.00  0.00     0.338 C 
ATOM     40  O   UNL A   1      38.368  32.992  32.932  1.00  0.00    -0.246 OA
BRANCH  39  41
ATOM     41  C   UNL A   1      39.812  31.682  31.519  1.00  0.00     0.060 A 
ATOM     42  C   UNL A   1      39.487  30.398  31.997  1.00  0.00     0.016 A 
ATOM     43  C   UNL A   1      41.106  31.932  31.022  1.00  0.00     0.016 A 
ATOM     44  C   UNL A   1      40.496  29.413  32.112  1.00  0.00     0.010 A 
ATOM     45  C   UNL A   1      42.117  31.003  31.234  1.00  0.00     0.010 A 
ATOM     46  C   UNL A   1      41.833  29.768  31.839  1.00  0.00    -0.014 A 
BRANCH  46  47
ATOM     47  C   UNL A   1      43.008  28.912  32.054  1.00  0.00     0.031 A 
ATOM     48  C   UNL A   1      43.080  27.809  31.100  1.00  0.00     0.074 A 
ATOM     49  C   UNL A   1      44.047  29.194  32.886  1.00  0.00     0.049 A 
ATOM     50  N   UNL A   1      43.715  26.712  31.278  1.00  0.00    -0.248 NA
ATOM     51  C   UNL A   1      42.386  27.872  29.815  1.00  0.00     0.031 C 
ATOM     52  C   UNL A   1      45.386  28.624  33.048  1.00  0.00     0.029 A 
ATOM     53  N   UNL A   1      44.029  30.012  33.998  1.00  0.00    -0.354 N 
ATOM     54  C   UNL A   1      43.938  26.232  30.009  1.00  0.00     0.074 A 
ATOM     55  C   UNL A   1      42.914  26.822  29.190  1.00  0.00     0.031 C 
ATOM     56  C   UNL A   1      45.762  28.713  34.346  1.00  0.00     0.029 A 
ATOM     57  C   UNL A   1      44.624  29.284  35.039  1.00  0.00     0.049 A 
ATOM     58  H   UNL A   1      43.671  30.927  34.049  1.00  0.00     0.167 HD
ATOM     59  C   UNL A   1      45.142  25.642  29.761  1.00  0.00     0.037 A 
ATOM     60  C   UNL A   1      43.829  28.771  36.023  1.00  0.00     0.037 A 
ATOM     61  C   UNL A   1      45.949  25.591  30.984  1.00  0.00     0.049 A 
ATOM     62  C   UNL A   1      44.039  27.267  36.058  1.00  0.00     0.074 A 
ATOM     63  C   UNL A   1      47.073  26.260  31.442  1.00  0.00     0.029 A 
ATOM     64  N   UNL A   1      45.399  24.989  32.098  1.00  0.00    -0.354 N 
ATOM     65  N   UNL A   1      44.383  26.607  34.974  1.00  0.00    -0.248 NA
ATOM     66  C   UNL A   1      44.074  26.392  37.233  1.00  0.00     0.031 C 
ATOM     67  C   UNL A   1      47.212  25.999  32.838  1.00  0.00     0.029 A 
ATOM     68  C   UNL A   1      46.129  25.235  33.233  1.00  0.00     0.049 A 
ATOM     69  H   UNL A   1      44.577  24.446  32.080  1.00  0.00     0.167 HD
ATOM     70  C   UNL A   1      44.902  25.390  35.317  1.00  0.00     0.074 A 
ATOM     71  C   UNL A   1      44.526  25.234  36.709  1.00  0.00     0.031 C 
ATOM     72  C   UNL A   1      45.676  24.642  34.472  1.00  0.00     0.037 A 
BRANCH  59  73
ATOM     73  C   UNL A   1      45.708  25.358  28.393  1.00  0.00     0.064 A 
ATOM     74  C   UNL A   1      45.630  24.057  27.851  1.00  0.00     0.173 A 
ATOM     75  C   UNL A   1      46.307  26.310  27.547  1.00  0.00     0.173 A 
ATOM     76  F   UNL A   1      45.036  23.050  28.500  1.00  0.00    -0.203 F 
ATOM     77  C   UNL A   1      46.144  23.726  26.599  1.00  0.00     0.198 A 
ATOM     78  C   UNL A   1      46.854  25.972  26.304  1.00  0.00     0.198 A 
ATOM     79  F   UNL A   1      46.331  27.611  27.848  1.00  0.00    -0.203 F 
ATOM     80  F   UNL A   1      46.020  22.471  26.147  1.00  0.00    -0.200 F 
ATOM     81  C   UNL A   1      46.766  24.681  25.828  1.00  0.00     0.200 A 
ATOM     82  F   UNL A   1      47.446  26.918  25.563  1.00  0.00    -0.200 F 
ATOM     83  F   UNL A   1      47.251  24.366  24.622  1.00  0.00    -0.200 F 
ENDBRANCH  59  73
BRANCH  60  84
ATOM     84  C   UNL A   1      42.643  29.708  36.251  1.00  0.00     0.064 A 
ATOM     85  C   UNL A   1      43.100  31.190  37.149  1.00  0.00     0.173 A 
ATOM     86  C   UNL A   1      41.057  29.633  35.624  1.00  0.00     0.173 A 
ATOM     87  F   UNL A   1      44.131  30.872  37.847  1.00  0.00    -0.203 F 
ATOM     88  C   UNL A   1      41.923  32.673  37.361  1.00  0.00     0.198 A 
ATOM     89  C   UNL A   1      39.901  30.956  35.769  1.00  0.00     0.198 A 
ATOM     90  F   UNL A   1      40.700  28.524  34.953  1.00  0.00    -0.203 F 
ATOM     91  F   UNL A   1      42.125  33.681  38.212  1.00  0.00    -0.200 F 
ATOM     92  C   UNL A   1      40.290  32.490  36.592  1.00  0.00     0.200 A 
ATOM     93  F   UNL A   1      38.748  30.842  35.087  1.00  0.00    -0.200 F 
ATOM     94  F   UNL A   1      39.376  33.465  36.616  1.00  0.00    -0.200 F 
ENDBRANCH  60  84
BRANCH  72  95
ATOM     95  C   UNL A   1      46.021  23.208  34.712  1.00  0.00     0.064 A 
ATOM     96  C   UNL A   1      45.070  22.196  34.822  1.00  0.00     0.173 A 
ATOM     97  C   UNL A   1      47.377  22.810  34.796  1.00  0.00     0.173 A 
ATOM     98  F   UNL A   1      43.769  22.487  34.957  1.00  0.00    -0.203 F 
ATOM     99  C   UNL A   1      45.449  20.856  34.791  1.00  0.00     0.198 A 
ATOM    100  C   UNL A   1      47.753  21.478  34.834  1.00  0.00     0.198 A 
ATOM    101  F   UNL A   1      48.388  23.689  34.797  1.00  0.00    -0.203 F 
ATOM    102  F   UNL A   1      44.508  19.905  34.747  1.00  0.00    -0.200 F 
ATOM    103  C   UNL A   1      46.789  20.499  34.770  1.00  0.00     0.200 A 
ATOM    104  F   UNL A   1      49.055  21.160  34.883  1.00  0.00    -0.200 F 
ATOM    105  F   UNL A   1      47.151  19.214  34.682  1.00  0.00    -0.200 F 
ENDBRANCH  72  95
ENDBRANCH  46  47
ENDBRANCH  39  41
ENDBRANCH  38  39
ENDBRANCH  37  38
ENDBRANCH  36  37
ENDBRANCH  35  36
ENDBRANCH  34  35
ENDBRANCH   1  34
TORSDOF 22
ENDMDL
MODEL 2
REMARK VINA RESULT:     -11.2      4.565     10.681
REMARK SMILES Cc1ccc(-c2cc(Cl)cc3c2O[C@H](C(F)(F)F)C(C(=O)OCCOCCOCCOCCOC(=O)c2ccc(-c4c5nc(c(-c6c(F)c(F)c(F)c(F)c6F)c6ccc([nH]6)c(-c6c(F)c(F)c(F)c(F)c6F)c6nc(c(-c7c(F)c(F)c(F)c(F)c7F)c7ccc4[nH]7)C=C6)C=C5)cc2)=C3)cc1F
REMARK SMILES IDX 29 1 28 2 27 3 26 4 25 5 24 6 23 7 22 8 20 9 21 10 19 11
REMARK SMILES IDX 6 12 7 13 12 14 8 15 11 16 13 17 9 18 10 19 100 20 14 21
REMARK SMILES IDX 5 22 1 23 2 24 3 25 102 26 4 27 101 28 103 29 15 30 16 31
REMARK SMILES IDX 17 32 18 33 30 34 31 35 32 36 33 37 34 38 35 39 36 40 37 41
REMARK SMILES IDX 38 42 99 43 39 44 98 45 40 46 41 47 42 48 92 49 43 50 97 51
REMARK SMILES IDX 91 52 93 53 44 54 96 55 90 56 89 57 45 59 77 60 57 61 76 62
REMARK SMILES IDX 58 63 61 64 75 65 94 66 59 67 60 68 74 70 95 71 62 72 46 73
REMARK SMILES IDX 47 74 55 75 48 76 49 77 53 78 56 79 50 80 51 81 54 82 52 83
REMARK SMILES IDX 78 84 79 85 87 86 80 87 81 88 85 89 88 90 82 91 83 92 86 93
REMARK SMILES IDX 84 94 63 95 64 96 72 97 65 98 66 99 70 100 73 101 67 102
REMARK SMILES IDX 68 103 71 104 69 105
REMARK H PARENT 93 58 61 69
REMARK Flexibility Score: inf
ROOT
ATOM      1  C   UNL A   1      38.497  28.054  28.540  1.00  0.00     0.188 C 
ENDROOT
BRANCH   1   2
ATOM      2  O   UNL A   1      37.420  29.164  27.858  1.00  0.00    -0.377 OA
BRANCH   2   3
ATOM      3  C   UNL A   1      35.514  29.739  28.242  1.00  0.00     0.188 C 
BRANCH   3   4
ATOM      4  C   UNL A   1      34.055  29.099  27.216  1.00  0.00     0.188 C 
BRANCH   4   5
ATOM      5  O   UNL A   1      32.851  29.662  26.528  1.00  0.00    -0.376 OA
BRANCH   5   6
ATOM      6  C   UNL A   1      32.347  29.760  25.157  1.00  0.00     0.202 C 
BRANCH   6   7
ATOM      7  C   UNL A   1      31.136  28.832  24.688  1.00  0.00     0.261 C 
BRANCH   7   8
ATOM      8  O   UNL A   1      31.546  27.476  24.348  1.00  0.00    -0.460 OA
BRANCH   8   9
ATOM      9  C   UNL A   1      31.457  26.626  25.384  1.00  0.00     0.338 C 
ATOM     10  O   UNL A   1      30.681  26.779  26.317  1.00  0.00    -0.246 OA
BRANCH   9  11
ATOM     11  C   UNL A   1      32.216  25.364  25.150  1.00  0.00     0.087 C 
ATOM     12  C   UNL A   1      34.768  21.975  25.203  1.00  0.00     0.026 A 
ATOM     13  C   UNL A   1      36.133  22.234  25.471  1.00  0.00     0.033 A 
ATOM     14  C   UNL A   1      33.867  23.062  25.328  1.00  0.00     0.135 A 
ATOM     15  C   UNL A   1      36.572  23.485  25.896  1.00  0.00     0.042 A 
ATOM     16  C   UNL A   1      34.351  24.341  25.631  1.00  0.00     0.019 A 
ATOM     17  O   UNL A   1      32.512  22.852  25.244  1.00  0.00    -0.475 OA
ATOM     18  Cl  UNL A   1      38.234  23.753  26.239  1.00  0.00    -0.084 Cl
ATOM     19  C   UNL A   1      35.681  24.539  25.991  1.00  0.00     0.032 A 
ATOM     20  C   UNL A   1      33.486  25.502  25.563  1.00  0.00     0.027 C 
ATOM     21  C   UNL A   1      31.643  23.986  24.866  1.00  0.00     0.316 C 
BRANCH  12  22
ATOM     22  C   UNL A   1      34.402  20.623  24.705  1.00  0.00    -0.012 A 
ATOM     23  C   UNL A   1      33.213  16.585  23.599  1.00  0.00     0.047 C 
ATOM     24  C   UNL A   1      33.601  17.983  23.976  1.00  0.00    -0.015 A 
ATOM     25  C   UNL A   1      32.742  19.063  23.773  1.00  0.00     0.007 A 
ATOM     26  C   UNL A   1      34.849  18.233  24.547  1.00  0.00     0.126 A 
ATOM     27  C   UNL A   1      33.139  20.362  24.131  1.00  0.00     0.009 A 
ATOM     28  C   UNL A   1      35.247  19.523  24.909  1.00  0.00     0.048 A 
ATOM     29  F   UNL A   1      35.689  17.213  24.776  1.00  0.00    -0.207 F 
ENDBRANCH  12  22
BRANCH  21  30
ATOM     30  C   UNL A   1      31.202  23.719  23.434  1.00  0.00     0.430 C 
ATOM     31  F   UNL A   1      31.237  22.384  23.179  1.00  0.00    -0.167 F 
ATOM     32  F   UNL A   1      29.934  24.123  23.215  1.00  0.00    -0.167 F 
ATOM     33  F   UNL A   1      32.008  24.314  22.534  1.00  0.00    -0.167 F 
ENDBRANCH  21  30
ENDBRANCH   9  11
ENDBRANCH   8   9
ENDBRANCH   7   8
ENDBRANCH   6   7
ENDBRANCH   5   6
ENDBRANCH   4   5
ENDBRANCH   3   4
ENDBRANCH   2   3
ENDBRANCH   1   2
BRANCH   1  34
ATOM     34  C   UNL A   1      39.583  27.023  28.057  1.00  0.00     0.188 C 
BRANCH  34  35
ATOM     35  O   UNL A   1      40.416  27.254  26.972  1.00  0.00    -0.376 OA
BRANCH  35  36
ATOM     36  C   UNL A   1      40.910  26.164  26.214  1.00  0.00     0.202 C 
BRANCH  36  37
ATOM     37  C   UNL A   1      41.673  24.943  26.805  1.00  0.00     0.261 C 
BRANCH  37  38
ATOM     38  O   UNL A   1      42.532  25.142  27.951  1.00  0.00    -0.460 OA
BRANCH  38  39
ATOM     39  C   UNL A   1      43.854  25.413  27.724  1.00  0.00     0.338 C 
ATOM     40  O   UNL A   1      44.472  25.133  26.710  1.00  0.00    -0.246 OA
BRANCH  39  41
ATOM     41  C   UNL A   1      44.261  26.521  28.665  1.00  0.00     0.060 A 
ATOM     42  C   UNL A   1      43.823  26.586  30.002  1.00  0.00     0.016 A 
ATOM     43  C   UNL A   1      44.711  27.691  28.023  1.00  0.00     0.016 A 
ATOM     44  C   UNL A   1      43.698  27.841  30.642  1.00  0.00     0.010 A 
ATOM     45  C   UNL A   1      44.487  28.930  28.612  1.00  0.00     0.010 A 
ATOM     46  C   UNL A   1      43.920  29.016  29.894  1.00  0.00    -0.014 A 
BRANCH  46  47
ATOM     47  C   UNL A   1      43.685  30.389  30.364  1.00  0.00     0.031 A 
ATOM     48  C   UNL A   1      42.316  30.837  30.124  1.00  0.00     0.074 A 
ATOM     49  C   UNL A   1      44.541  31.116  31.131  1.00  0.00     0.049 A 
ATOM     50  N   UNL A   1      41.936  32.055  30.040  1.00  0.00    -0.248 NA
ATOM     51  C   UNL A   1      41.227  29.878  29.936  1.00  0.00     0.031 C 
ATOM     52  C   UNL A   1      44.395  32.357  31.895  1.00  0.00     0.029 A 
ATOM     53  N   UNL A   1      45.909  30.966  31.229  1.00  0.00    -0.354 N 
ATOM     54  C   UNL A   1      40.591  32.020  30.324  1.00  0.00     0.074 A 
ATOM     55  C   UNL A   1      40.168  30.682  30.007  1.00  0.00     0.031 C 
ATOM     56  C   UNL A   1      45.572  33.028  31.896  1.00  0.00     0.029 A 
ATOM     57  C   UNL A   1      46.464  32.244  31.064  1.00  0.00     0.049 A 
ATOM     58  H   UNL A   1      46.400  30.127  31.385  1.00  0.00     0.167 HD
ATOM     59  C   UNL A   1      40.079  33.033  31.078  1.00  0.00     0.037 A 
ATOM     60  C   UNL A   1      47.084  32.547  29.888  1.00  0.00     0.037 A 
ATOM     61  C   UNL A   1      41.118  34.021  31.381  1.00  0.00     0.049 A 
ATOM     62  C   UNL A   1      46.387  33.757  29.288  1.00  0.00     0.074 A 
ATOM     63  C   UNL A   1      41.833  34.373  32.516  1.00  0.00     0.029 A 
ATOM     64  N   UNL A   1      41.808  34.582  30.323  1.00  0.00    -0.354 N 
ATOM     65  N   UNL A   1      45.116  33.992  29.531  1.00  0.00    -0.248 NA
ATOM     66  C   UNL A   1      46.992  34.871  28.556  1.00  0.00     0.031 C 
ATOM     67  C   UNL A   1      42.928  35.197  32.118  1.00  0.00     0.029 A 
ATOM     68  C   UNL A   1      42.914  35.279  30.738  1.00  0.00     0.049 A 
ATOM     69  H   UNL A   1      41.536  34.490  29.381  1.00  0.00     0.167 HD
ATOM     70  C   UNL A   1      44.823  35.296  29.246  1.00  0.00     0.074 A 
ATOM     71  C   UNL A   1      45.970  35.749  28.482  1.00  0.00     0.031 C 
ATOM     72  C   UNL A   1      43.715  35.938  29.731  1.00  0.00     0.037 A 
BRANCH  59  73
ATOM     73  C   UNL A   1      38.739  33.014  31.769  1.00  0.00     0.064 A 
ATOM     74  C   UNL A   1      37.586  33.464  31.091  1.00  0.00     0.173 A 
ATOM     75  C   UNL A   1      38.504  32.542  33.074  1.00  0.00     0.173 A 
ATOM     76  F   UNL A   1      37.627  33.887  29.822  1.00  0.00    -0.203 F 
ATOM     77  C   UNL A   1      36.322  33.483  31.676  1.00  0.00     0.198 A 
ATOM     78  C   UNL A   1      37.241  32.593  33.675  1.00  0.00     0.198 A 
ATOM     79  F   UNL A   1      39.459  31.951  33.798  1.00  0.00    -0.203 F 
ATOM     80  F   UNL A   1      35.273  33.912  30.962  1.00  0.00    -0.200 F 
ATOM     81  C   UNL A   1      36.150  33.057  32.973  1.00  0.00     0.200 A 
ATOM     82  F   UNL A   1      37.091  32.163  34.935  1.00  0.00    -0.200 F 
ATOM     83  F   UNL A   1      34.934  33.067  33.532  1.00  0.00    -0.200 F 
ENDBRANCH  59  73
BRANCH  60  84
ATOM     84  C   UNL A   1      47.747  31.288  29.329  1.00  0.00     0.064 A 
ATOM     85  C   UNL A   1      47.075  30.803  27.740  1.00  0.00     0.173 A 
ATOM     86  C   UNL A   1      49.114  30.433  29.893  1.00  0.00     0.173 A 
ATOM     87  F   UNL A   1      45.877  31.267  27.712  1.00  0.00    -0.203 F 
ATOM     88  C   UNL A   1      47.859  29.446  26.658  1.00  0.00     0.198 A 
ATOM     89  C   UNL A   1      49.908  29.165  28.961  1.00  0.00     0.198 A 
ATOM     90  F   UNL A   1      49.624  30.784  31.086  1.00  0.00    -0.203 F 
ATOM     91  F   UNL A   1      47.269  28.890  25.599  1.00  0.00    -0.200 F 
ATOM     92  C   UNL A   1      49.344  28.660  27.345  1.00  0.00     0.200 A 
ATOM     93  F   UNL A   1      51.072  28.690  29.437  1.00  0.00    -0.200 F 
ATOM     94  F   UNL A   1      50.030  27.726  26.680  1.00  0.00    -0.200 F 
ENDBRANCH  60  84
BRANCH  72  95
ATOM     95  C   UNL A   1      43.230  37.256  29.222  1.00  0.00     0.064 A 
ATOM     96  C   UNL A   1      43.539  38.474  29.822  1.00  0.00     0.173 A 
ATOM     97  C   UNL A   1      42.446  37.315  28.044  1.00  0.00     0.173 A 
ATOM     98  F   UNL A   1      44.099  38.519  31.039  1.00  0.00    -0.203 F 
ATOM     99  C   UNL A   1      43.277  39.677  29.169  1.00  0.00     0.198 A 
ATOM    100  C   UNL A   1      42.127  38.514  27.430  1.00  0.00     0.198 A 
ATOM    101  F   UNL A   1      42.001  36.217  27.418  1.00  0.00    -0.203 F 
ATOM    102  F   UNL A   1      43.718  40.825  29.698  1.00  0.00    -0.200 F 
ATOM    103  C   UNL A   1      42.595  39.694  27.961  1.00  0.00     0.200 A 
ATOM    104  F   UNL A   1      41.407  38.507  26.299  1.00  0.00    -0.200 F 
ATOM    105  F   UNL A   1      42.394  40.844  27.308  1.00  0.00    -0.200 F 
ENDBRANCH  72  95
ENDBRANCH  46  47
ENDBRANCH  39  41
ENDBRANCH  38  39
ENDBRANCH  37  38
ENDBRANCH  36  37
ENDBRANCH  35  36
ENDBRANCH  34  35
ENDBRANCH   1  34
TORSDOF 22
ENDMDL
MODEL 3
REMARK VINA RESULT:     -11.1      4.953      9.651
REMARK SMILES Cc1ccc(-c2cc(Cl)cc3c2O[C@H](C(F)(F)F)C(C(=O)OCCOCCOCCOCCOC(=O)c2ccc(-c4c5nc(c(-c6c(F)c(F)c(F)c(F)c6F)c6ccc([nH]6)c(-c6c(F)c(F)c(F)c(F)c6F)c6nc(c(-c7c(F)c(F)c(F)c(F)c7F)c7ccc4[nH]7)C=C6)C=C5)cc2)=C3)cc1F
REMARK SMILES IDX 29 1 28 2 27 3 26 4 25 5 24 6 23 7 22 8 20 9 21 10 19 11
REMARK SMILES IDX 6 12 7 13 12 14 8 15 11 16 13 17 9 18 10 19 100 20 14 21
REMARK SMILES IDX 5 22 1 23 2 24 3 25 102 26 4 27 101 28 103 29 15 30 16 31
REMARK SMILES IDX 17 32 18 33 30 34 31 35 32 36 33 37 34 38 35 39 36 40 37 41
REMARK SMILES IDX 38 42 99 43 39 44 98 45 40 46 41 47 42 48 92 49 43 50 97 51
REMARK SMILES IDX 91 52 93 53 44 54 96 55 90 56 89 57 45 59 77 60 57 61 76 62
REMARK SMILES IDX 58 63 61 64 75 65 94 66 59 67 60 68 74 70 95 71 62 72 46 73
REMARK SMILES IDX 47 74 55 75 48 76 49 77 53 78 56 79 50 80 51 81 54 82 52 83
REMARK SMILES IDX 78 84 79 85 87 86 80 87 81 88 85 89 88 90 82 91 83 92 86 93
REMARK SMILES IDX 84 94 63 95 64 96 72 97 65 98 66 99 70 100 73 101 67 102
REMARK SMILES IDX 68 103 71 104 69 105
REMARK H PARENT 93 58 61 69
REMARK Flexibility Score: inf
ROOT
ATOM      1  C   UNL A   1      37.464  32.352  34.719  1.00  0.00     0.188 C 
ENDROOT
BRANCH   1   2
ATOM      2  O   UNL A   1      35.874  32.926  34.743  1.00  0.00    -0.377 OA
BRANCH   2   3
ATOM      3  C   UNL A   1      34.512  33.442  33.333  1.00  0.00     0.188 C 
BRANCH   3   4
ATOM      4  C   UNL A   1      34.660  32.845  31.540  1.00  0.00     0.188 C 
BRANCH   4   5
ATOM      5  O   UNL A   1      34.495  33.412  30.165  1.00  0.00    -0.376 OA
BRANCH   5   6
ATOM      6  C   UNL A   1      35.236  33.400  28.903  1.00  0.00     0.202 C 
BRANCH   6   7
ATOM      7  C   UNL A   1      34.724  32.498  27.689  1.00  0.00     0.261 C 
BRANCH   7   8
ATOM      8  O   UNL A   1      33.604  31.636  28.043  1.00  0.00    -0.460 OA
BRANCH   8   9
ATOM      9  C   UNL A   1      32.502  31.883  27.316  1.00  0.00     0.338 C 
ATOM     10  O   UNL A   1      31.984  32.989  27.231  1.00  0.00    -0.246 OA
BRANCH   9  11
ATOM     11  C   UNL A   1      32.132  30.737  26.437  1.00  0.00     0.087 C 
ATOM     12  C   UNL A   1      30.918  28.076  23.363  1.00  0.00     0.026 A 
ATOM     13  C   UNL A   1      29.721  28.415  22.691  1.00  0.00     0.033 A 
ATOM     14  C   UNL A   1      31.430  29.020  24.288  1.00  0.00     0.135 A 
ATOM     15  C   UNL A   1      29.097  29.646  22.879  1.00  0.00     0.042 A 
ATOM     16  C   UNL A   1      30.716  30.195  24.557  1.00  0.00     0.019 A 
ATOM     17  O   UNL A   1      32.667  28.835  24.855  1.00  0.00    -0.475 OA
ATOM     18  Cl  UNL A   1      27.660  30.033  22.022  1.00  0.00    -0.084 Cl
ATOM     19  C   UNL A   1      29.600  30.545  23.801  1.00  0.00     0.032 A 
ATOM     20  C   UNL A   1      31.106  31.075  25.640  1.00  0.00     0.027 C 
ATOM     21  C   UNL A   1      32.962  29.500  26.142  1.00  0.00     0.316 C 
BRANCH  12  22
ATOM     22  C   UNL A   1      31.482  26.720  23.137  1.00  0.00    -0.012 A 
ATOM     23  C   UNL A   1      32.882  22.708  22.192  1.00  0.00     0.047 C 
ATOM     24  C   UNL A   1      32.414  24.098  22.502  1.00  0.00    -0.015 A 
ATOM     25  C   UNL A   1      33.053  25.222  21.977  1.00  0.00     0.007 A 
ATOM     26  C   UNL A   1      31.313  24.297  23.334  1.00  0.00     0.126 A 
ATOM     27  C   UNL A   1      32.594  26.511  22.293  1.00  0.00     0.009 A 
ATOM     28  C   UNL A   1      30.848  25.577  23.646  1.00  0.00     0.048 A 
ATOM     29  F   UNL A   1      30.662  23.237  23.835  1.00  0.00    -0.207 F 
ENDBRANCH  12  22
BRANCH  21  30
ATOM     30  C   UNL A   1      32.939  28.403  27.198  1.00  0.00     0.430 C 
ATOM     31  F   UNL A   1      33.395  27.238  26.666  1.00  0.00    -0.167 F 
ATOM     32  F   UNL A   1      33.741  28.693  28.242  1.00  0.00    -0.167 F 
ATOM     33  F   UNL A   1      31.695  28.166  27.659  1.00  0.00    -0.167 F 
ENDBRANCH  21  30
ENDBRANCH   9  11
ENDBRANCH   8   9
ENDBRANCH   7   8
ENDBRANCH   6   7
ENDBRANCH   5   6
ENDBRANCH   4   5
ENDBRANCH   3   4
ENDBRANCH   2   3
ENDBRANCH   1   2
BRANCH   1  34
ATOM     34  C   UNL A   1      38.219  30.980  34.875  1.00  0.00     0.188 C 
BRANCH  34  35
ATOM     35  O   UNL A   1      38.899  30.367  33.833  1.00  0.00    -0.376 OA
BRANCH  35  36
ATOM     36  C   UNL A   1      38.302  29.290  33.134  1.00  0.00     0.202 C 
BRANCH  36  37
ATOM     37  C   UNL A   1      37.937  29.305  31.621  1.00  0.00     0.261 C 
BRANCH  37  38
ATOM     38  O   UNL A   1      38.981  29.546  30.651  1.00  0.00    -0.460 OA
BRANCH  38  39
ATOM     39  C   UNL A   1      39.708  28.474  30.209  1.00  0.00     0.338 C 
ATOM     40  O   UNL A   1      39.259  27.367  29.960  1.00  0.00    -0.246 OA
BRANCH  39  41
ATOM     41  C   UNL A   1      40.988  29.006  29.612  1.00  0.00     0.060 A 
ATOM     42  C   UNL A   1      41.277  28.931  28.235  1.00  0.00     0.016 A 
ATOM     43  C   UNL A   1      42.041  29.154  30.536  1.00  0.00     0.016 A 
ATOM     44  C   UNL A   1      42.621  28.857  27.801  1.00  0.00     0.010 A 
ATOM     45  C   UNL A   1      43.354  28.974  30.119  1.00  0.00     0.010 A 
ATOM     46  C   UNL A   1      43.648  28.758  28.763  1.00  0.00    -0.014 A 
BRANCH  46  47
ATOM     47  C   UNL A   1      45.070  28.524  28.478  1.00  0.00     0.031 A 
ATOM     48  C   UNL A   1      45.741  29.713  27.962  1.00  0.00     0.074 A 
ATOM     49  C   UNL A   1      45.774  27.416  28.837  1.00  0.00     0.049 A 
ATOM     50  N   UNL A   1      46.813  29.718  27.263  1.00  0.00    -0.248 NA
ATOM     51  C   UNL A   1      45.204  31.052  28.204  1.00  0.00     0.031 C 
ATOM     52  C   UNL A   1      47.204  27.106  28.878  1.00  0.00     0.029 A 
ATOM     53  N   UNL A   1      45.275  26.153  29.083  1.00  0.00    -0.354 N 
ATOM     54  C   UNL A   1      47.338  30.976  27.443  1.00  0.00     0.074 A 
ATOM     55  C   UNL A   1      46.222  31.810  27.802  1.00  0.00     0.031 C 
ATOM     56  C   UNL A   1      47.389  25.789  28.620  1.00  0.00     0.029 A 
ATOM     57  C   UNL A   1      46.068  25.261  28.343  1.00  0.00     0.049 A 
ATOM     58  H   UNL A   1      44.515  25.922  29.663  1.00  0.00     0.167 HD
ATOM     59  C   UNL A   1      48.692  31.083  27.564  1.00  0.00     0.037 A 
ATOM     60  C   UNL A   1      45.550  24.701  27.212  1.00  0.00     0.037 A 
ATOM     61  C   UNL A   1      49.325  29.771  27.404  1.00  0.00     0.049 A 
ATOM     62  C   UNL A   1      46.461  25.063  26.051  1.00  0.00     0.074 A 
ATOM     63  C   UNL A   1      49.945  28.873  28.259  1.00  0.00     0.029 A 
ATOM     64  N   UNL A   1      49.054  29.057  26.253  1.00  0.00    -0.354 N 
ATOM     65  N   UNL A   1      47.164  26.174  26.065  1.00  0.00    -0.248 NA
ATOM     66  C   UNL A   1      46.826  24.230  24.903  1.00  0.00     0.031 C 
ATOM     67  C   UNL A   1      50.086  27.628  27.576  1.00  0.00     0.029 A 
ATOM     68  C   UNL A   1      49.484  27.757  26.337  1.00  0.00     0.049 A 
ATOM     69  H   UNL A   1      48.604  29.437  25.464  1.00  0.00     0.167 HD
ATOM     70  C   UNL A   1      48.180  26.091  25.155  1.00  0.00     0.074 A 
ATOM     71  C   UNL A   1      47.823  24.945  24.341  1.00  0.00     0.031 C 
ATOM     72  C   UNL A   1      49.283  26.902  25.189  1.00  0.00     0.037 A 
BRANCH  59  73
ATOM     73  C   UNL A   1      49.427  32.290  28.088  1.00  0.00     0.064 A 
ATOM     74  C   UNL A   1      49.826  32.344  29.441  1.00  0.00     0.173 A 
ATOM     75  C   UNL A   1      49.803  33.410  27.322  1.00  0.00     0.173 A 
ATOM     76  F   UNL A   1      49.602  31.334  30.289  1.00  0.00    -0.203 F 
ATOM     77  C   UNL A   1      50.498  33.434  29.990  1.00  0.00     0.198 A 
ATOM     78  C   UNL A   1      50.447  34.520  27.880  1.00  0.00     0.198 A 
ATOM     79  F   UNL A   1      49.629  33.455  25.998  1.00  0.00    -0.203 F 
ATOM     80  F   UNL A   1      50.856  33.404  31.281  1.00  0.00    -0.200 F 
ATOM     81  C   UNL A   1      50.800  34.528  29.212  1.00  0.00     0.200 A 
ATOM     82  F   UNL A   1      50.743  35.572  27.105  1.00  0.00    -0.200 F 
ATOM     83  F   UNL A   1      51.453  35.571  29.738  1.00  0.00    -0.200 F 
ENDBRANCH  59  73
BRANCH  60  84
ATOM     84  C   UNL A   1      44.045  24.505  27.391  1.00  0.00     0.064 A 
ATOM     85  C   UNL A   1      43.079  25.568  26.320  1.00  0.00     0.173 A 
ATOM     86  C   UNL A   1      43.198  23.324  28.289  1.00  0.00     0.173 A 
ATOM     87  F   UNL A   1      43.822  26.589  26.080  1.00  0.00    -0.203 F 
ATOM     88  C   UNL A   1      41.195  25.382  26.106  1.00  0.00     0.198 A 
ATOM     89  C   UNL A   1      41.458  23.077  28.153  1.00  0.00     0.198 A 
ATOM     90  F   UNL A   1      43.910  22.523  29.100  1.00  0.00    -0.203 F 
ATOM     91  F   UNL A   1      40.410  26.286  25.519  1.00  0.00    -0.200 F 
ATOM     92  C   UNL A   1      40.428  24.048  27.067  1.00  0.00     0.200 A 
ATOM     93  F   UNL A   1      40.939  22.007  28.780  1.00  0.00    -0.200 F 
ATOM     94  F   UNL A   1      39.125  23.766  26.983  1.00  0.00    -0.200 F 
ENDBRANCH  60  84
BRANCH  72  95
ATOM     95  C   UNL A   1      50.261  27.020  24.066  1.00  0.00     0.064 A 
ATOM     96  C   UNL A   1      51.605  26.672  24.175  1.00  0.00     0.173 A 
ATOM     97  C   UNL A   1      49.828  27.467  22.794  1.00  0.00     0.173 A 
ATOM     98  F   UNL A   1      52.157  26.431  25.372  1.00  0.00    -0.203 F 
ATOM     99  C   UNL A   1      52.407  26.561  23.041  1.00  0.00     0.198 A 
ATOM    100  C   UNL A   1      50.646  27.421  21.678  1.00  0.00     0.198 A 
ATOM    101  F   UNL A   1      48.586  27.919  22.573  1.00  0.00    -0.203 F 
ATOM    102  F   UNL A   1      53.651  26.080  23.157  1.00  0.00    -0.200 F 
ATOM    103  C   UNL A   1      51.919  26.910  21.791  1.00  0.00     0.200 A 
ATOM    104  F   UNL A   1      50.171  27.830  20.493  1.00  0.00    -0.200 F 
ATOM    105  F   UNL A   1      52.670  26.749  20.696  1.00  0.00    -0.200 F 
ENDBRANCH  72  95
ENDBRANCH  46  47
ENDBRANCH  39  41
ENDBRANCH  38  39
ENDBRANCH  37  38
ENDBRANCH  36  37
ENDBRANCH  35  36
ENDBRANCH  34  35
ENDBRANCH   1  34
TORSDOF 22
ENDMDL
