MODEL 1
REMARK VINA RESULT:      -9.9      0.000      0.000
REMARK SMILES CCc1ccsc1CNC(=O)N1[C@H]2CC[C@@H]1[C@H](C(=O)OCCOCCOCCOCCOC(=O)c1ccc(-c3c4nc(c(-c5c(F)c(F)c(F)c(F)c5F)c5ccc([nH]5)c(-c5c(F)c(F)c(F)c(F)c5F)c5nc(c(-c6c(F)c(F)c(F)c(F)c6F)c6ccc3[nH]6)C=C5)C=C4)cc1)C2
REMARK SMILES IDX 25 1 24 2 23 3 22 4 21 5 20 6 18 7 19 8 17 9 12 10 13 11
REMARK SMILES IDX 16 12 14 13 98 14 15 15 10 16 9 17 11 19 8 20 7 21 3 22 4 23
REMARK SMILES IDX 5 24 6 25 2 26 1 27 26 28 27 29 28 30 29 31 30 32 31 33
REMARK SMILES IDX 32 34 33 35 34 36 35 37 36 38 97 39 37 40 96 41 38 42 39 43
REMARK SMILES IDX 40 44 90 45 41 46 95 47 89 48 91 49 42 50 94 51 88 52 87 53
REMARK SMILES IDX 43 55 75 56 55 57 74 58 56 59 59 60 73 61 92 62 57 63 58 64
REMARK SMILES IDX 72 66 93 67 60 68 44 69 45 70 53 71 46 72 47 73 51 74 54 75
REMARK SMILES IDX 48 76 49 77 52 78 50 79 76 80 77 81 85 82 78 83 79 84 83 85
REMARK SMILES IDX 86 86 80 87 81 88 84 89 82 90 61 91 62 92 70 93 63 94 64 95
REMARK SMILES IDX 68 96 71 97 65 98 66 99 69 100 67 101
REMARK H PARENT 9 18 91 54 59 65
REMARK Flexibility Score: inf
ROOT
ATOM      1  C   UNL A   1      34.391  31.506  27.364  1.00  0.00     0.188 C 
ENDROOT
BRANCH   1   2
ATOM      2  C   UNL A   1      34.203  29.985  27.321  1.00  0.00     0.188 C 
BRANCH   2   3
ATOM      3  O   UNL A   1      32.864  29.570  27.455  1.00  0.00    -0.376 OA
BRANCH   3   4
ATOM      4  C   UNL A   1      31.818  30.261  26.801  1.00  0.00     0.202 C 
BRANCH   4   5
ATOM      5  C   UNL A   1      31.416  30.079  25.324  1.00  0.00     0.261 C 
BRANCH   5   6
ATOM      6  O   UNL A   1      31.833  28.894  24.641  1.00  0.00    -0.463 OA
BRANCH   6   7
ATOM      7  C   UNL A   1      30.848  28.075  24.227  1.00  0.00     0.311 C 
ATOM      8  O   UNL A   1      29.872  28.451  23.582  1.00  0.00    -0.252 OA
BRANCH   7   9
ATOM      9  C   UNL A   1      31.001  26.636  24.644  1.00  0.00     0.124 C 
ATOM     10  N   UNL A   1      31.918  24.609  25.020  1.00  0.00    -0.318 N 
ATOM     11  C   UNL A   1      32.505  25.415  26.065  1.00  0.00     0.088 C 
ATOM     12  C   UNL A   1      31.890  25.583  23.942  1.00  0.00     0.101 C 
ATOM     13  C   UNL A   1      33.790  25.903  25.361  1.00  0.00     0.027 C 
ATOM     14  C   UNL A   1      31.519  26.591  26.105  1.00  0.00     0.042 C 
ATOM     15  C   UNL A   1      33.371  25.955  23.880  1.00  0.00     0.028 C 
BRANCH  10  16
ATOM     16  C   UNL A   1      31.429  23.356  24.927  1.00  0.00     0.318 C 
ATOM     17  N   UNL A   1      31.823  22.542  23.925  1.00  0.00    -0.333 N 
ATOM     18  H   UNL A   1      31.194  21.820  23.697  1.00  0.00     0.165 HD
ATOM     19  O   UNL A   1      30.655  22.896  25.768  1.00  0.00    -0.249 OA
BRANCH  17  20
ATOM     20  C   UNL A   1      33.034  22.578  23.140  1.00  0.00     0.165 C 
BRANCH  20  21
ATOM     21  C   UNL A   1      34.238  22.095  23.911  1.00  0.00     0.027 A 
ATOM     22  C   UNL A   1      34.354  20.907  24.629  1.00  0.00    -0.033 A 
ATOM     23  C   UNL A   1      35.670  20.754  25.180  1.00  0.00     0.016 A 
ATOM     24  C   UNL A   1      36.507  21.794  24.854  1.00  0.00     0.065 A 
ATOM     25  S   UNL A   1      35.729  22.951  23.876  1.00  0.00    -0.147 S 
BRANCH  22  26
ATOM     26  C   UNL A   1      33.265  19.886  24.806  1.00  0.00     0.033 C 
ATOM     27  C   UNL A   1      33.655  18.526  24.251  1.00  0.00     0.009 C 
ENDBRANCH  22  26
ENDBRANCH  20  21
ENDBRANCH  17  20
ENDBRANCH  10  16
ENDBRANCH   7   9
ENDBRANCH   6   7
ENDBRANCH   5   6
ENDBRANCH   4   5
ENDBRANCH   3   4
ENDBRANCH   2   3
ENDBRANCH   1   2
BRANCH   1  28
ATOM     28  O   UNL A   1      35.290  32.044  28.320  1.00  0.00    -0.377 OA
BRANCH  28  29
ATOM     29  C   UNL A   1      35.054  33.345  28.859  1.00  0.00     0.188 C 
BRANCH  29  30
ATOM     30  C   UNL A   1      34.155  34.377  28.140  1.00  0.00     0.188 C 
BRANCH  30  31
ATOM     31  O   UNL A   1      34.104  35.657  28.742  1.00  0.00    -0.376 OA
BRANCH  31  32
ATOM     32  C   UNL A   1      32.876  36.084  29.311  1.00  0.00     0.202 C 
BRANCH  32  33
ATOM     33  C   UNL A   1      32.904  37.297  30.252  1.00  0.00     0.261 C 
BRANCH  33  34
ATOM     34  O   UNL A   1      33.274  37.037  31.615  1.00  0.00    -0.460 OA
BRANCH  34  35
ATOM     35  C   UNL A   1      32.819  35.907  32.191  1.00  0.00     0.338 C 
ATOM     36  O   UNL A   1      31.670  35.637  32.501  1.00  0.00    -0.246 OA
BRANCH  35  37
ATOM     37  C   UNL A   1      33.944  34.954  32.239  1.00  0.00     0.060 A 
ATOM     38  C   UNL A   1      33.697  33.607  32.535  1.00  0.00     0.016 A 
ATOM     39  C   UNL A   1      35.241  35.402  31.990  1.00  0.00     0.016 A 
ATOM     40  C   UNL A   1      34.760  32.705  32.620  1.00  0.00     0.010 A 
ATOM     41  C   UNL A   1      36.304  34.506  32.100  1.00  0.00     0.010 A 
ATOM     42  C   UNL A   1      36.072  33.164  32.452  1.00  0.00    -0.014 A 
BRANCH  42  43
ATOM     43  C   UNL A   1      37.221  32.323  32.859  1.00  0.00     0.031 A 
ATOM     44  C   UNL A   1      37.893  32.644  34.164  1.00  0.00     0.074 A 
ATOM     45  C   UNL A   1      37.681  31.325  32.085  1.00  0.00     0.049 A 
ATOM     46  N   UNL A   1      39.006  32.176  34.669  1.00  0.00    -0.248 NA
ATOM     47  C   UNL A   1      37.218  33.640  35.013  1.00  0.00     0.031 C 
ATOM     48  C   UNL A   1      37.078  30.879  30.832  1.00  0.00     0.029 A 
ATOM     49  N   UNL A   1      38.783  30.520  32.237  1.00  0.00    -0.354 N 
ATOM     50  C   UNL A   1      39.171  32.832  35.882  1.00  0.00     0.074 A 
ATOM     51  C   UNL A   1      38.061  33.749  36.028  1.00  0.00     0.031 C 
ATOM     52  C   UNL A   1      37.836  29.896  30.312  1.00  0.00     0.029 A 
ATOM     53  C   UNL A   1      38.999  29.679  31.172  1.00  0.00     0.049 A 
ATOM     54  H   UNL A   1      39.363  30.544  33.031  1.00  0.00     0.167 HD
ATOM     55  C   UNL A   1      40.160  32.682  36.793  1.00  0.00     0.037 A 
ATOM     56  C   UNL A   1      40.038  28.862  30.910  1.00  0.00     0.037 A 
ATOM     57  C   UNL A   1      41.265  31.775  36.635  1.00  0.00     0.049 A 
ATOM     58  C   UNL A   1      41.182  28.783  31.894  1.00  0.00     0.074 A 
ATOM     59  C   UNL A   1      42.322  31.545  37.496  1.00  0.00     0.029 A 
ATOM     60  N   UNL A   1      41.457  30.952  35.534  1.00  0.00    -0.354 N 
ATOM     61  N   UNL A   1      41.334  29.401  33.041  1.00  0.00    -0.248 NA
ATOM     62  C   UNL A   1      42.299  27.893  31.546  1.00  0.00     0.031 C 
ATOM     63  C   UNL A   1      43.186  30.630  36.890  1.00  0.00     0.029 A 
ATOM     64  C   UNL A   1      42.629  30.230  35.685  1.00  0.00     0.049 A 
ATOM     65  H   UNL A   1      40.851  30.892  34.760  1.00  0.00     0.167 HD
ATOM     66  C   UNL A   1      42.534  28.937  33.570  1.00  0.00     0.074 A 
ATOM     67  C   UNL A   1      43.071  27.990  32.618  1.00  0.00     0.031 C 
ATOM     68  C   UNL A   1      43.131  29.262  34.744  1.00  0.00     0.037 A 
BRANCH  55  69
ATOM     69  C   UNL A   1      40.113  33.542  38.021  1.00  0.00     0.064 A 
ATOM     70  C   UNL A   1      39.286  33.232  39.111  1.00  0.00     0.173 A 
ATOM     71  C   UNL A   1      40.934  34.676  38.124  1.00  0.00     0.173 A 
ATOM     72  F   UNL A   1      38.470  32.168  39.058  1.00  0.00    -0.203 F 
ATOM     73  C   UNL A   1      39.263  34.038  40.247  1.00  0.00     0.198 A 
ATOM     74  C   UNL A   1      40.935  35.459  39.275  1.00  0.00     0.198 A 
ATOM     75  F   UNL A   1      41.746  35.017  37.112  1.00  0.00    -0.203 F 
ATOM     76  F   UNL A   1      38.429  33.749  41.254  1.00  0.00    -0.200 F 
ATOM     77  C   UNL A   1      40.095  35.144  40.331  1.00  0.00     0.200 A 
ATOM     78  F   UNL A   1      41.751  36.519  39.361  1.00  0.00    -0.200 F 
ATOM     79  F   UNL A   1      40.081  35.913  41.429  1.00  0.00    -0.200 F 
ENDBRANCH  55  69
BRANCH  56  80
ATOM     80  C   UNL A   1      40.068  28.066  29.654  1.00  0.00     0.064 A 
ATOM     81  C   UNL A   1      39.413  26.829  29.566  1.00  0.00     0.173 A 
ATOM     82  C   UNL A   1      40.781  28.503  28.527  1.00  0.00     0.173 A 
ATOM     83  F   UNL A   1      38.740  26.352  30.624  1.00  0.00    -0.203 F 
ATOM     84  C   UNL A   1      39.492  26.050  28.413  1.00  0.00     0.198 A 
ATOM     85  C   UNL A   1      40.830  27.740  27.362  1.00  0.00     0.198 A 
ATOM     86  F   UNL A   1      41.428  29.678  28.554  1.00  0.00    -0.203 F 
ATOM     87  F   UNL A   1      38.905  24.845  28.380  1.00  0.00    -0.200 F 
ATOM     88  C   UNL A   1      40.195  26.508  27.310  1.00  0.00     0.200 A 
ATOM     89  F   UNL A   1      41.499  28.193  26.293  1.00  0.00    -0.200 F 
ATOM     90  F   UNL A   1      40.270  25.760  26.201  1.00  0.00    -0.200 F 
ENDBRANCH  56  80
BRANCH  68  91
ATOM     91  C   UNL A   1      44.389  28.532  35.120  1.00  0.00     0.064 A 
ATOM     92  C   UNL A   1      44.367  27.296  35.781  1.00  0.00     0.173 A 
ATOM     93  C   UNL A   1      45.638  29.047  34.731  1.00  0.00     0.173 A 
ATOM     94  F   UNL A   1      43.202  26.766  36.183  1.00  0.00    -0.203 F 
ATOM     95  C   UNL A   1      45.548  26.611  36.055  1.00  0.00     0.198 A 
ATOM     96  C   UNL A   1      46.813  28.343  34.976  1.00  0.00     0.198 A 
ATOM     97  F   UNL A   1      45.714  30.221  34.088  1.00  0.00    -0.203 F 
ATOM     98  F   UNL A   1      45.507  25.450  36.722  1.00  0.00    -0.200 F 
ATOM     99  C   UNL A   1      46.768  27.129  35.642  1.00  0.00     0.200 A 
ATOM    100  F   UNL A   1      47.987  28.836  34.558  1.00  0.00    -0.200 F 
ATOM    101  F   UNL A   1      47.901  26.457  35.887  1.00  0.00    -0.200 F 
ENDBRANCH  68  91
ENDBRANCH  42  43
ENDBRANCH  35  37
ENDBRANCH  34  35
ENDBRANCH  33  34
ENDBRANCH  32  33
ENDBRANCH  31  32
ENDBRANCH  30  31
ENDBRANCH  29  30
ENDBRANCH  28  29
ENDBRANCH   1  28
TORSDOF 24
ENDMDL
MODEL 2
REMARK VINA RESULT:      -9.7      1.119      2.124
REMARK SMILES CCc1ccsc1CNC(=O)N1[C@H]2CC[C@@H]1[C@H](C(=O)OCCOCCOCCOCCOC(=O)c1ccc(-c3c4nc(c(-c5c(F)c(F)c(F)c(F)c5F)c5ccc([nH]5)c(-c5c(F)c(F)c(F)c(F)c5F)c5nc(c(-c6c(F)c(F)c(F)c(F)c6F)c6ccc3[nH]6)C=C5)C=C4)cc1)C2
REMARK SMILES IDX 25 1 24 2 23 3 22 4 21 5 20 6 18 7 19 8 17 9 12 10 13 11
REMARK SMILES IDX 16 12 14 13 98 14 15 15 10 16 9 17 11 19 8 20 7 21 3 22 4 23
REMARK SMILES IDX 5 24 6 25 2 26 1 27 26 28 27 29 28 30 29 31 30 32 31 33
REMARK SMILES IDX 32 34 33 35 34 36 35 37 36 38 97 39 37 40 96 41 38 42 39 43
REMARK SMILES IDX 40 44 90 45 41 46 95 47 89 48 91 49 42 50 94 51 88 52 87 53
REMARK SMILES IDX 43 55 75 56 55 57 74 58 56 59 59 60 73 61 92 62 57 63 58 64
REMARK SMILES IDX 72 66 93 67 60 68 44 69 45 70 53 71 46 72 47 73 51 74 54 75
REMARK SMILES IDX 48 76 49 77 52 78 50 79 76 80 77 81 85 82 78 83 79 84 83 85
REMARK SMILES IDX 86 86 80 87 81 88 84 89 82 90 61 91 62 92 70 93 63 94 64 95
REMARK SMILES IDX 68 96 71 97 65 98 66 99 69 100 67 101
REMARK H PARENT 9 18 91 54 59 65
REMARK Flexibility Score: inf
ROOT
ATOM      1  C   UNL A   1      34.070  31.294  27.317  1.00  0.00     0.188 C 
ENDROOT
BRANCH   1   2
ATOM      2  C   UNL A   1      33.615  29.872  27.670  1.00  0.00     0.188 C 
BRANCH   2   3
ATOM      3  O   UNL A   1      32.280  29.595  27.320  1.00  0.00    -0.376 OA
BRANCH   3   4
ATOM      4  C   UNL A   1      31.776  29.932  26.042  1.00  0.00     0.202 C 
BRANCH   4   5
ATOM      5  C   UNL A   1      32.379  29.479  24.699  1.00  0.00     0.261 C 
BRANCH   5   6
ATOM      6  O   UNL A   1      33.152  28.276  24.665  1.00  0.00    -0.463 OA
BRANCH   6   7
ATOM      7  C   UNL A   1      33.667  27.941  23.467  1.00  0.00     0.311 C 
ATOM      8  O   UNL A   1      34.375  28.686  22.794  1.00  0.00    -0.252 OA
BRANCH   7   9
ATOM      9  C   UNL A   1      33.282  26.572  22.971  1.00  0.00     0.124 C 
ATOM     10  N   UNL A   1      32.982  24.336  22.893  1.00  0.00    -0.318 N 
ATOM     11  C   UNL A   1      31.952  24.756  23.814  1.00  0.00     0.088 C 
ATOM     12  C   UNL A   1      34.041  25.257  23.269  1.00  0.00     0.101 C 
ATOM     13  C   UNL A   1      32.706  24.642  25.156  1.00  0.00     0.027 C 
ATOM     14  C   UNL A   1      31.847  26.247  23.462  1.00  0.00     0.042 C 
ATOM     15  C   UNL A   1      34.165  24.929  24.756  1.00  0.00     0.028 C 
BRANCH  10  16
ATOM     16  C   UNL A   1      33.074  23.439  21.890  1.00  0.00     0.318 C 
ATOM     17  N   UNL A   1      32.889  22.125  22.131  1.00  0.00    -0.333 N 
ATOM     18  H   UNL A   1      33.313  21.514  21.486  1.00  0.00     0.165 HD
ATOM     19  O   UNL A   1      33.278  23.785  20.726  1.00  0.00    -0.249 OA
BRANCH  17  20
ATOM     20  C   UNL A   1      32.159  21.484  23.200  1.00  0.00     0.165 C 
BRANCH  20  21
ATOM     21  C   UNL A   1      32.757  20.155  23.593  1.00  0.00     0.027 A 
ATOM     22  C   UNL A   1      33.743  19.928  24.549  1.00  0.00    -0.033 A 
ATOM     23  C   UNL A   1      34.016  18.527  24.698  1.00  0.00     0.016 A 
ATOM     24  C   UNL A   1      33.232  17.744  23.886  1.00  0.00     0.065 A 
ATOM     25  S   UNL A   1      32.155  18.677  22.952  1.00  0.00    -0.147 S 
BRANCH  22  26
ATOM     26  C   UNL A   1      34.437  20.991  25.355  1.00  0.00     0.033 C 
ATOM     27  C   UNL A   1      35.922  21.073  25.042  1.00  0.00     0.009 C 
ENDBRANCH  22  26
ENDBRANCH  20  21
ENDBRANCH  17  20
ENDBRANCH  10  16
ENDBRANCH   7   9
ENDBRANCH   6   7
ENDBRANCH   5   6
ENDBRANCH   4   5
ENDBRANCH   3   4
ENDBRANCH   2   3
ENDBRANCH   1   2
BRANCH   1  28
ATOM     28  O   UNL A   1      35.153  31.852  28.042  1.00  0.00    -0.377 OA
BRANCH  28  29
ATOM     29  C   UNL A   1      34.999  33.117  28.683  1.00  0.00     0.188 C 
BRANCH  29  30
ATOM     30  C   UNL A   1      33.979  34.168  28.183  1.00  0.00     0.188 C 
BRANCH  30  31
ATOM     31  O   UNL A   1      34.052  35.430  28.819  1.00  0.00    -0.376 OA
BRANCH  31  32
ATOM     32  C   UNL A   1      32.838  36.076  29.171  1.00  0.00     0.202 C 
BRANCH  32  33
ATOM     33  C   UNL A   1      32.915  37.282  30.119  1.00  0.00     0.261 C 
BRANCH  33  34
ATOM     34  O   UNL A   1      33.337  37.008  31.464  1.00  0.00    -0.460 OA
BRANCH  34  35
ATOM     35  C   UNL A   1      32.858  35.903  32.066  1.00  0.00     0.338 C 
ATOM     36  O   UNL A   1      31.702  35.663  32.378  1.00  0.00    -0.246 OA
BRANCH  35  37
ATOM     37  C   UNL A   1      33.963  34.930  32.143  1.00  0.00     0.060 A 
ATOM     38  C   UNL A   1      33.707  33.626  32.588  1.00  0.00     0.016 A 
ATOM     39  C   UNL A   1      35.252  35.316  31.773  1.00  0.00     0.016 A 
ATOM     40  C   UNL A   1      34.754  32.709  32.701  1.00  0.00     0.010 A 
ATOM     41  C   UNL A   1      36.300  34.407  31.909  1.00  0.00     0.010 A 
ATOM     42  C   UNL A   1      36.063  33.113  32.408  1.00  0.00    -0.014 A 
BRANCH  42  43
ATOM     43  C   UNL A   1      37.218  32.287  32.829  1.00  0.00     0.031 A 
ATOM     44  C   UNL A   1      37.874  32.620  34.140  1.00  0.00     0.074 A 
ATOM     45  C   UNL A   1      37.696  31.291  32.064  1.00  0.00     0.049 A 
ATOM     46  N   UNL A   1      38.986  32.166  34.657  1.00  0.00    -0.248 NA
ATOM     47  C   UNL A   1      37.179  33.611  34.979  1.00  0.00     0.031 C 
ATOM     48  C   UNL A   1      37.110  30.835  30.806  1.00  0.00     0.029 A 
ATOM     49  N   UNL A   1      38.806  30.499  32.228  1.00  0.00    -0.354 N 
ATOM     50  C   UNL A   1      39.133  32.828  35.869  1.00  0.00     0.074 A 
ATOM     51  C   UNL A   1      38.011  33.733  36.001  1.00  0.00     0.031 C 
ATOM     52  C   UNL A   1      37.884  29.859  30.297  1.00  0.00     0.029 A 
ATOM     53  C   UNL A   1      39.041  29.658  31.169  1.00  0.00     0.049 A 
ATOM     54  H   UNL A   1      39.378  30.533  33.028  1.00  0.00     0.167 HD
ATOM     55  C   UNL A   1      40.115  32.692  36.790  1.00  0.00     0.037 A 
ATOM     56  C   UNL A   1      40.092  28.852  30.919  1.00  0.00     0.037 A 
ATOM     57  C   UNL A   1      41.231  31.797  36.645  1.00  0.00     0.049 A 
ATOM     58  C   UNL A   1      41.227  28.788  31.914  1.00  0.00     0.074 A 
ATOM     59  C   UNL A   1      42.283  31.582  37.518  1.00  0.00     0.029 A 
ATOM     60  N   UNL A   1      41.443  30.973  35.550  1.00  0.00    -0.354 N 
ATOM     61  N   UNL A   1      41.361  29.412  33.060  1.00  0.00    -0.248 NA
ATOM     62  C   UNL A   1      42.358  27.911  31.580  1.00  0.00     0.031 C 
ATOM     63  C   UNL A   1      43.163  30.675  36.923  1.00  0.00     0.029 A 
ATOM     64  C   UNL A   1      42.621  30.265  35.714  1.00  0.00     0.049 A 
ATOM     65  H   UNL A   1      40.845  30.903  34.770  1.00  0.00     0.167 HD
ATOM     66  C   UNL A   1      42.561  28.964  33.603  1.00  0.00     0.074 A 
ATOM     67  C   UNL A   1      43.118  28.020  32.659  1.00  0.00     0.031 C 
ATOM     68  C   UNL A   1      43.143  29.299  34.781  1.00  0.00     0.037 A 
BRANCH  55  69
ATOM     69  C   UNL A   1      40.046  33.556  38.015  1.00  0.00     0.064 A 
ATOM     70  C   UNL A   1      39.225  33.230  39.105  1.00  0.00     0.173 A 
ATOM     71  C   UNL A   1      40.841  34.709  38.114  1.00  0.00     0.173 A 
ATOM     72  F   UNL A   1      38.434  32.148  39.056  1.00  0.00    -0.203 F 
ATOM     73  C   UNL A   1      39.183  34.040  40.238  1.00  0.00     0.198 A 
ATOM     74  C   UNL A   1      40.822  35.496  39.262  1.00  0.00     0.198 A 
ATOM     75  F   UNL A   1      41.645  35.065  37.102  1.00  0.00    -0.203 F 
ATOM     76  F   UNL A   1      38.354  33.736  41.245  1.00  0.00    -0.200 F 
ATOM     77  C   UNL A   1      39.988  35.166  40.319  1.00  0.00     0.200 A 
ATOM     78  F   UNL A   1      41.612  36.576  39.344  1.00  0.00    -0.200 F 
ATOM     79  F   UNL A   1      39.955  35.938  41.413  1.00  0.00    -0.200 F 
ENDBRANCH  55  69
BRANCH  56  80
ATOM     80  C   UNL A   1      40.143  28.052  29.666  1.00  0.00     0.064 A 
ATOM     81  C   UNL A   1      40.807  28.532  28.528  1.00  0.00     0.173 A 
ATOM     82  C   UNL A   1      39.501  26.807  29.566  1.00  0.00     0.173 A 
ATOM     83  F   UNL A   1      41.413  29.728  28.562  1.00  0.00    -0.203 F 
ATOM     84  C   UNL A   1      40.803  27.815  27.333  1.00  0.00     0.198 A 
ATOM     85  C   UNL A   1      39.528  26.075  28.381  1.00  0.00     0.198 A 
ATOM     86  F   UNL A   1      38.850  26.299  30.622  1.00  0.00    -0.203 F 
ATOM     87  F   UNL A   1      41.394  28.327  26.245  1.00  0.00    -0.200 F 
ATOM     88  C   UNL A   1      40.169  26.584  27.261  1.00  0.00     0.200 A 
ATOM     89  F   UNL A   1      38.926  24.879  28.320  1.00  0.00    -0.200 F 
ATOM     90  F   UNL A   1      40.166  25.895  26.113  1.00  0.00    -0.200 F 
ENDBRANCH  56  80
BRANCH  68  91
ATOM     91  C   UNL A   1      44.406  28.585  35.171  1.00  0.00     0.064 A 
ATOM     92  C   UNL A   1      45.676  29.120  34.917  1.00  0.00     0.173 A 
ATOM     93  C   UNL A   1      44.332  27.378  35.888  1.00  0.00     0.173 A 
ATOM     94  F   UNL A   1      45.803  30.263  34.226  1.00  0.00    -0.203 F 
ATOM     95  C   UNL A   1      46.827  28.466  35.353  1.00  0.00     0.198 A 
ATOM     96  C   UNL A   1      45.482  26.747  36.351  1.00  0.00     0.198 A 
ATOM     97  F   UNL A   1      43.141  26.828  36.165  1.00  0.00    -0.203 F 
ATOM     98  F   UNL A   1      48.032  28.976  35.067  1.00  0.00    -0.200 F 
ATOM     99  C   UNL A   1      46.728  27.288  36.079  1.00  0.00     0.200 A 
ATOM    100  F   UNL A   1      45.382  25.620  37.070  1.00  0.00    -0.200 F 
ATOM    101  F   UNL A   1      47.836  26.672  36.516  1.00  0.00    -0.200 F 
ENDBRANCH  68  91
ENDBRANCH  42  43
ENDBRANCH  35  37
ENDBRANCH  34  35
ENDBRANCH  33  34
ENDBRANCH  32  33
ENDBRANCH  31  32
ENDBRANCH  30  31
ENDBRANCH  29  30
ENDBRANCH  28  29
ENDBRANCH   1  28
TORSDOF 24
ENDMDL
MODEL 3
REMARK VINA RESULT:      -9.6      5.080      9.159
REMARK SMILES CCc1ccsc1CNC(=O)N1[C@H]2CC[C@@H]1[C@H](C(=O)OCCOCCOCCOCCOC(=O)c1ccc(-c3c4nc(c(-c5c(F)c(F)c(F)c(F)c5F)c5ccc([nH]5)c(-c5c(F)c(F)c(F)c(F)c5F)c5nc(c(-c6c(F)c(F)c(F)c(F)c6F)c6ccc3[nH]6)C=C5)C=C4)cc1)C2
REMARK SMILES IDX 25 1 24 2 23 3 22 4 21 5 20 6 18 7 19 8 17 9 12 10 13 11
REMARK SMILES IDX 16 12 14 13 98 14 15 15 10 16 9 17 11 19 8 20 7 21 3 22 4 23
REMARK SMILES IDX 5 24 6 25 2 26 1 27 26 28 27 29 28 30 29 31 30 32 31 33
REMARK SMILES IDX 32 34 33 35 34 36 35 37 36 38 97 39 37 40 96 41 38 42 39 43
REMARK SMILES IDX 40 44 90 45 41 46 95 47 89 48 91 49 42 50 94 51 88 52 87 53
REMARK SMILES IDX 43 55 75 56 55 57 74 58 56 59 59 60 73 61 92 62 57 63 58 64
REMARK SMILES IDX 72 66 93 67 60 68 44 69 45 70 53 71 46 72 47 73 51 74 54 75
REMARK SMILES IDX 48 76 49 77 52 78 50 79 76 80 77 81 85 82 78 83 79 84 83 85
REMARK SMILES IDX 86 86 80 87 81 88 84 89 82 90 61 91 62 92 70 93 63 94 64 95
REMARK SMILES IDX 68 96 71 97 65 98 66 99 69 100 67 101
REMARK H PARENT 9 18 91 54 59 65
REMARK Flexibility Score: inf
ROOT
ATOM      1  C   UNL A   1      33.617  35.325  29.364  1.00  0.00     0.188 C 
ENDROOT
BRANCH   1   2
ATOM      2  C   UNL A   1      34.056  33.858  29.276  1.00  0.00     0.188 C 
BRANCH   2   3
ATOM      3  O   UNL A   1      33.772  33.250  28.037  1.00  0.00    -0.376 OA
BRANCH   3   4
ATOM      4  C   UNL A   1      34.129  31.905  27.787  1.00  0.00     0.202 C 
BRANCH   4   5
ATOM      5  C   UNL A   1      33.162  30.798  27.324  1.00  0.00     0.261 C 
BRANCH   5   6
ATOM      6  O   UNL A   1      33.478  30.065  26.138  1.00  0.00    -0.463 OA
BRANCH   6   7
ATOM      7  C   UNL A   1      32.431  29.709  25.369  1.00  0.00     0.311 C 
ATOM      8  O   UNL A   1      31.352  30.296  25.369  1.00  0.00    -0.252 OA
BRANCH   7   9
ATOM      9  C   UNL A   1      32.657  28.492  24.512  1.00  0.00     0.124 C 
ATOM     10  N   UNL A   1      32.645  26.350  23.800  1.00  0.00    -0.318 N 
ATOM     11  C   UNL A   1      31.269  26.749  23.611  1.00  0.00     0.088 C 
ATOM     12  C   UNL A   1      32.943  27.063  25.031  1.00  0.00     0.101 C 
ATOM     13  C   UNL A   1      30.664  26.336  24.970  1.00  0.00     0.027 C 
ATOM     14  C   UNL A   1      31.414  28.278  23.609  1.00  0.00     0.042 C 
ATOM     15  C   UNL A   1      31.852  26.496  25.938  1.00  0.00     0.028 C 
BRANCH  10  16
ATOM     16  C   UNL A   1      33.539  25.614  23.111  1.00  0.00     0.318 C 
ATOM     17  N   UNL A   1      34.266  24.663  23.734  1.00  0.00    -0.333 N 
ATOM     18  H   UNL A   1      35.118  24.430  23.299  1.00  0.00     0.165 HD
ATOM     19  O   UNL A   1      33.690  25.744  21.895  1.00  0.00    -0.249 OA
BRANCH  17  20
ATOM     20  C   UNL A   1      33.974  23.939  24.949  1.00  0.00     0.165 C 
BRANCH  20  21
ATOM     21  C   UNL A   1      33.874  22.449  24.724  1.00  0.00     0.027 A 
ATOM     22  C   UNL A   1      34.846  21.491  24.998  1.00  0.00    -0.033 A 
ATOM     23  C   UNL A   1      34.373  20.167  24.713  1.00  0.00     0.016 A 
ATOM     24  C   UNL A   1      33.076  20.152  24.262  1.00  0.00     0.065 A 
ATOM     25  S   UNL A   1      32.411  21.719  24.190  1.00  0.00    -0.147 S 
BRANCH  22  26
ATOM     26  C   UNL A   1      36.219  21.774  25.543  1.00  0.00     0.033 C 
ATOM     27  C   UNL A   1      37.319  21.263  24.627  1.00  0.00     0.009 C 
ENDBRANCH  22  26
ENDBRANCH  20  21
ENDBRANCH  17  20
ENDBRANCH  10  16
ENDBRANCH   7   9
ENDBRANCH   6   7
ENDBRANCH   5   6
ENDBRANCH   4   5
ENDBRANCH   3   4
ENDBRANCH   2   3
ENDBRANCH   1   2
BRANCH   1  28
ATOM     28  O   UNL A   1      32.976  35.763  30.551  1.00  0.00    -0.377 OA
BRANCH  28  29
ATOM     29  C   UNL A   1      33.465  35.331  31.820  1.00  0.00     0.188 C 
BRANCH  29  30
ATOM     30  C   UNL A   1      34.404  36.212  32.677  1.00  0.00     0.188 C 
BRANCH  30  31
ATOM     31  O   UNL A   1      34.613  35.760  34.002  1.00  0.00    -0.376 OA
BRANCH  31  32
ATOM     32  C   UNL A   1      35.374  34.579  34.198  1.00  0.00     0.202 C 
BRANCH  32  33
ATOM     33  C   UNL A   1      36.579  34.340  33.277  1.00  0.00     0.261 C 
BRANCH  33  34
ATOM     34  O   UNL A   1      36.391  33.394  32.213  1.00  0.00    -0.460 OA
BRANCH  34  35
ATOM     35  C   UNL A   1      36.806  32.127  32.410  1.00  0.00     0.338 C 
ATOM     36  O   UNL A   1      36.185  31.209  32.922  1.00  0.00    -0.246 OA
BRANCH  35  37
ATOM     37  C   UNL A   1      38.111  31.983  31.739  1.00  0.00     0.060 A 
ATOM     38  C   UNL A   1      38.261  32.420  30.416  1.00  0.00     0.016 A 
ATOM     39  C   UNL A   1      39.182  31.413  32.427  1.00  0.00     0.016 A 
ATOM     40  C   UNL A   1      39.482  32.252  29.760  1.00  0.00     0.010 A 
ATOM     41  C   UNL A   1      40.394  31.223  31.763  1.00  0.00     0.010 A 
ATOM     42  C   UNL A   1      40.538  31.607  30.417  1.00  0.00    -0.014 A 
BRANCH  42  43
ATOM     43  C   UNL A   1      41.712  31.121  29.656  1.00  0.00     0.031 A 
ATOM     44  C   UNL A   1      41.667  29.714  29.127  1.00  0.00     0.074 A 
ATOM     45  C   UNL A   1      42.801  31.884  29.465  1.00  0.00     0.049 A 
ATOM     46  N   UNL A   1      42.614  28.997  28.579  1.00  0.00    -0.248 NA
ATOM     47  C   UNL A   1      40.374  29.019  29.243  1.00  0.00     0.031 C 
ATOM     48  C   UNL A   1      42.939  33.280  29.875  1.00  0.00     0.029 A 
ATOM     49  N   UNL A   1      44.011  31.578  28.892  1.00  0.00    -0.354 N 
ATOM     50  C   UNL A   1      42.036  27.765  28.302  1.00  0.00     0.074 A 
ATOM     51  C   UNL A   1      40.666  27.820  28.764  1.00  0.00     0.031 C 
ATOM     52  C   UNL A   1      44.178  33.701  29.565  1.00  0.00     0.029 A 
ATOM     53  C   UNL A   1      44.932  32.592  28.980  1.00  0.00     0.049 A 
ATOM     54  H   UNL A   1      44.200  30.713  28.462  1.00  0.00     0.167 HD
ATOM     55  C   UNL A   1      42.598  26.684  27.713  1.00  0.00     0.037 A 
ATOM     56  C   UNL A   1      46.241  32.605  28.659  1.00  0.00     0.037 A 
ATOM     57  C   UNL A   1      43.964  26.635  27.265  1.00  0.00     0.049 A 
ATOM     58  C   UNL A   1      46.875  31.355  28.095  1.00  0.00     0.074 A 
ATOM     59  C   UNL A   1      44.635  25.590  26.657  1.00  0.00     0.029 A 
ATOM     60  N   UNL A   1      44.870  27.678  27.386  1.00  0.00    -0.354 N 
ATOM     61  N   UNL A   1      46.326  30.193  27.830  1.00  0.00    -0.248 NA
ATOM     62  C   UNL A   1      48.310  31.417  27.785  1.00  0.00     0.031 C 
ATOM     63  C   UNL A   1      45.963  25.978  26.466  1.00  0.00     0.029 A 
ATOM     64  C   UNL A   1      46.102  27.293  26.885  1.00  0.00     0.049 A 
ATOM     65  H   UNL A   1      44.669  28.561  27.773  1.00  0.00     0.167 HD
ATOM     66  C   UNL A   1      47.334  29.409  27.279  1.00  0.00     0.074 A 
ATOM     67  C   UNL A   1      48.528  30.225  27.251  1.00  0.00     0.031 C 
ATOM     68  C   UNL A   1      47.272  28.131  26.830  1.00  0.00     0.037 A 
BRANCH  55  69
ATOM     69  C   UNL A   1      41.750  25.457  27.554  1.00  0.00     0.064 A 
ATOM     70  C   UNL A   1      41.958  24.307  28.330  1.00  0.00     0.173 A 
ATOM     71  C   UNL A   1      40.690  25.444  26.634  1.00  0.00     0.173 A 
ATOM     72  F   UNL A   1      42.968  24.262  29.213  1.00  0.00    -0.203 F 
ATOM     73  C   UNL A   1      41.153  23.181  28.174  1.00  0.00     0.198 A 
ATOM     74  C   UNL A   1      39.866  24.329  26.505  1.00  0.00     0.198 A 
ATOM     75  F   UNL A   1      40.445  26.517  25.868  1.00  0.00    -0.203 F 
ATOM     76  F   UNL A   1      41.403  22.078  28.890  1.00  0.00    -0.200 F 
ATOM     77  C   UNL A   1      40.102  23.197  27.269  1.00  0.00     0.200 A 
ATOM     78  F   UNL A   1      38.841  24.352  25.642  1.00  0.00    -0.200 F 
ATOM     79  F   UNL A   1      39.321  22.117  27.128  1.00  0.00    -0.200 F 
ENDBRANCH  55  69
BRANCH  56  80
ATOM     80  C   UNL A   1      47.057  33.828  28.882  1.00  0.00     0.064 A 
ATOM     81  C   UNL A   1      47.216  34.786  27.870  1.00  0.00     0.173 A 
ATOM     82  C   UNL A   1      47.724  34.052  30.097  1.00  0.00     0.173 A 
ATOM     83  F   UNL A   1      46.622  34.607  26.681  1.00  0.00    -0.203 F 
ATOM     84  C   UNL A   1      48.031  35.901  28.053  1.00  0.00     0.198 A 
ATOM     85  C   UNL A   1      48.511  35.185  30.291  1.00  0.00     0.198 A 
ATOM     86  F   UNL A   1      47.609  33.169  31.100  1.00  0.00    -0.203 F 
ATOM     87  F   UNL A   1      48.212  36.768  27.046  1.00  0.00    -0.200 F 
ATOM     88  C   UNL A   1      48.673  36.104  29.264  1.00  0.00     0.200 A 
ATOM     89  F   UNL A   1      49.119  35.384  31.469  1.00  0.00    -0.200 F 
ATOM     90  F   UNL A   1      49.456  37.177  29.440  1.00  0.00    -0.200 F 
ENDBRANCH  56  80
BRANCH  68  91
ATOM     91  C   UNL A   1      48.499  27.551  26.186  1.00  0.00     0.064 A 
ATOM     92  C   UNL A   1      49.538  26.980  26.935  1.00  0.00     0.173 A 
ATOM     93  C   UNL A   1      48.592  27.493  24.784  1.00  0.00     0.173 A 
ATOM     94  F   UNL A   1      49.504  27.019  28.275  1.00  0.00    -0.203 F 
ATOM     95  C   UNL A   1      50.631  26.389  26.305  1.00  0.00     0.198 A 
ATOM     96  C   UNL A   1      49.668  26.870  24.160  1.00  0.00     0.198 A 
ATOM     97  F   UNL A   1      47.621  28.016  24.021  1.00  0.00    -0.203 F 
ATOM     98  F   UNL A   1      51.631  25.883  27.041  1.00  0.00    -0.200 F 
ATOM     99  C   UNL A   1      50.689  26.324  24.921  1.00  0.00     0.200 A 
ATOM    100  F   UNL A   1      49.711  26.792  22.823  1.00  0.00    -0.200 F 
ATOM    101  F   UNL A   1      51.731  25.734  24.318  1.00  0.00    -0.200 F 
ENDBRANCH  68  91
ENDBRANCH  42  43
ENDBRANCH  35  37
ENDBRANCH  34  35
ENDBRANCH  33  34
ENDBRANCH  32  33
ENDBRANCH  31  32
ENDBRANCH  30  31
ENDBRANCH  29  30
ENDBRANCH  28  29
ENDBRANCH   1  28
TORSDOF 24
ENDMDL
