MODEL 1
REMARK VINA RESULT:      -8.9      0.000      0.000
REMARK SMILES CC1=C(C(=O)OCCOCCOCCOCCOC(=O)c2ccc(-c3c4nc(c(-c5c(F)c(F)c(F)c(F)c5F)c5ccc([nH]5)c(-c5c(F)c(F)c(F)c(F)c5F)c5nc(c(-c6c(F)c(F)c(F)c(F)c6F)c6ccc3[nH]6)C=C5)C=C4)cc2)N2C(=O)[C@H](NC(=O)c3cc(C(F)(F)F)nn3C)[C@@H]2SC1
REMARK SMILES IDX 11 1 10 2 9 3 8 4 7 5 6 6 4 7 5 8 3 9 1 10 2 11 103 12 84 13
REMARK SMILES IDX 102 14 85 15 101 16 86 17 87 18 88 19 89 20 90 22 91 23
REMARK SMILES IDX 92 24 99 25 93 26 98 27 100 28 94 29 95 30 96 31 97 32 12 33
REMARK SMILES IDX 13 34 14 35 15 36 16 37 17 38 18 39 19 40 20 41 21 42 22 43
REMARK SMILES IDX 83 44 23 45 82 46 24 47 25 48 26 49 76 50 27 51 81 52 75 53
REMARK SMILES IDX 77 54 28 55 80 56 74 57 73 58 29 60 61 61 41 62 60 63 42 64
REMARK SMILES IDX 45 65 59 66 78 67 43 68 44 69 58 71 79 72 46 73 30 74 31 75
REMARK SMILES IDX 39 76 32 77 33 78 37 79 40 80 34 81 35 82 38 83 36 84 62 85
REMARK SMILES IDX 63 86 71 87 64 88 65 89 69 90 72 91 66 92 67 93 70 94 68 95
REMARK SMILES IDX 47 96 48 97 56 98 49 99 50 100 54 101 57 102 51 103 52 104
REMARK SMILES IDX 55 105 53 106
REMARK H PARENT 88 21 77 59 45 70
REMARK Flexibility Score: inf
ROOT
ATOM      1  C   UNL A   1      37.046  22.565  25.135  1.00  0.00     0.188 C 
ENDROOT
BRANCH   1   2
ATOM      2  C   UNL A   1      36.306  21.519  24.274  1.00  0.00     0.188 C 
BRANCH   2   3
ATOM      3  O   UNL A   1      35.298  20.782  24.958  1.00  0.00    -0.376 OA
BRANCH   3   4
ATOM      4  C   UNL A   1      34.907  21.315  26.219  1.00  0.00     0.202 C 
BRANCH   4   5
ATOM      5  C   UNL A   1      33.456  20.989  26.574  1.00  0.00     0.261 C 
BRANCH   5   6
ATOM      6  O   UNL A   1      32.630  22.161  26.596  1.00  0.00    -0.459 OA
BRANCH   6   7
ATOM      7  C   UNL A   1      31.723  22.293  25.600  1.00  0.00     0.355 C 
ATOM      8  O   UNL A   1      30.539  22.015  25.664  1.00  0.00    -0.244 OA
BRANCH   7   9
ATOM      9  C   UNL A   1      32.392  22.937  24.419  1.00  0.00     0.131 C 
ATOM     10  C   UNL A   1      32.158  20.856  23.010  1.00  0.00     0.043 C 
ATOM     11  C   UNL A   1      32.534  22.304  23.227  1.00  0.00    -0.032 C 
ATOM     12  C   UNL A   1      33.096  22.962  21.977  1.00  0.00     0.105 C 
ATOM     13  N   UNL A   1      32.878  24.198  24.588  1.00  0.00    -0.289 N 
ATOM     14  S   UNL A   1      33.067  24.786  22.026  1.00  0.00    -0.129 SA
ATOM     15  C   UNL A   1      32.980  25.120  25.567  1.00  0.00     0.253 C 
ATOM     16  C   UNL A   1      33.797  24.839  23.670  1.00  0.00     0.181 C 
ATOM     17  O   UNL A   1      32.687  25.130  26.735  1.00  0.00    -0.272 OA
ATOM     18  C   UNL A   1      33.629  26.121  24.536  1.00  0.00     0.206 C 
BRANCH  18  19
ATOM     19  N   UNL A   1      32.700  27.174  24.053  1.00  0.00    -0.336 N 
ATOM     20  C   UNL A   1      32.339  28.351  24.657  1.00  0.00     0.270 C 
ATOM     21  H   UNL A   1      32.286  27.004  23.176  1.00  0.00     0.164 HD
ATOM     22  O   UNL A   1      31.374  28.965  24.209  1.00  0.00    -0.268 OA
BRANCH  20  23
ATOM     23  C   UNL A   1      33.095  28.808  25.794  1.00  0.00     0.126 A 
ATOM     24  C   UNL A   1      34.318  29.454  25.850  1.00  0.00     0.069 A 
ATOM     25  N   UNL A   1      32.667  28.756  27.097  1.00  0.00    -0.262 N 
ATOM     26  C   UNL A   1      34.581  29.693  27.224  1.00  0.00     0.167 A 
ATOM     27  N   UNL A   1      33.564  29.242  27.980  1.00  0.00    -0.168 NA
ATOM     28  C   UNL A   1      31.434  28.204  27.615  1.00  0.00     0.174 C 
BRANCH  26  29
ATOM     29  C   UNL A   1      35.807  30.348  27.805  1.00  0.00     0.435 C 
ATOM     30  F   UNL A   1      35.907  31.663  27.480  1.00  0.00    -0.164 F 
ATOM     31  F   UNL A   1      35.850  30.263  29.162  1.00  0.00    -0.164 F 
ATOM     32  F   UNL A   1      36.948  29.752  27.354  1.00  0.00    -0.164 F 
ENDBRANCH  26  29
ENDBRANCH  20  23
ENDBRANCH  18  19
ENDBRANCH   7   9
ENDBRANCH   6   7
ENDBRANCH   5   6
ENDBRANCH   4   5
ENDBRANCH   3   4
ENDBRANCH   2   3
ENDBRANCH   1   2
BRANCH   1  33
ATOM     33  O   UNL A   1      37.963  22.148  26.134  1.00  0.00    -0.377 OA
BRANCH  33  34
ATOM     34  C   UNL A   1      39.323  21.921  25.777  1.00  0.00     0.188 C 
BRANCH  34  35
ATOM     35  C   UNL A   1      40.361  21.528  26.850  1.00  0.00     0.188 C 
BRANCH  35  36
ATOM     36  O   UNL A   1      41.038  22.622  27.452  1.00  0.00    -0.376 OA
BRANCH  36  37
ATOM     37  C   UNL A   1      42.398  22.801  27.086  1.00  0.00     0.202 C 
BRANCH  37  38
ATOM     38  C   UNL A   1      42.615  23.697  25.861  1.00  0.00     0.261 C 
BRANCH  38  39
ATOM     39  O   UNL A   1      42.980  25.055  26.151  1.00  0.00    -0.460 OA
BRANCH  39  40
ATOM     40  C   UNL A   1      41.993  25.977  26.170  1.00  0.00     0.338 C 
ATOM     41  O   UNL A   1      41.153  26.189  25.316  1.00  0.00    -0.246 OA
BRANCH  40  42
ATOM     42  C   UNL A   1      42.006  26.598  27.506  1.00  0.00     0.060 A 
ATOM     43  C   UNL A   1      41.137  26.126  28.498  1.00  0.00     0.016 A 
ATOM     44  C   UNL A   1      42.896  27.640  27.771  1.00  0.00     0.016 A 
ATOM     45  C   UNL A   1      41.142  26.718  29.762  1.00  0.00     0.010 A 
ATOM     46  C   UNL A   1      42.886  28.244  29.026  1.00  0.00     0.010 A 
ATOM     47  C   UNL A   1      41.991  27.804  30.017  1.00  0.00    -0.014 A 
BRANCH  47  48
ATOM     48  C   UNL A   1      41.823  28.629  31.234  1.00  0.00     0.031 A 
ATOM     49  C   UNL A   1      40.666  29.586  31.279  1.00  0.00     0.074 A 
ATOM     50  C   UNL A   1      42.705  28.576  32.246  1.00  0.00     0.049 A 
ATOM     51  N   UNL A   1      40.394  30.525  32.149  1.00  0.00    -0.248 NA
ATOM     52  C   UNL A   1      39.689  29.474  30.184  1.00  0.00     0.031 C 
ATOM     53  C   UNL A   1      43.841  27.662  32.332  1.00  0.00     0.029 A 
ATOM     54  N   UNL A   1      42.793  29.336  33.386  1.00  0.00    -0.354 N 
ATOM     55  C   UNL A   1      39.225  31.123  31.697  1.00  0.00     0.074 A 
ATOM     56  C   UNL A   1      38.850  30.458  30.469  1.00  0.00     0.031 C 
ATOM     57  C   UNL A   1      44.530  27.931  33.456  1.00  0.00     0.029 A 
ATOM     58  C   UNL A   1      43.905  29.061  34.143  1.00  0.00     0.049 A 
ATOM     59  H   UNL A   1      42.122  30.011  33.638  1.00  0.00     0.167 HD
ATOM     60  C   UNL A   1      38.527  32.136  32.260  1.00  0.00     0.037 A 
ATOM     61  C   UNL A   1      44.380  29.682  35.242  1.00  0.00     0.037 A 
ATOM     62  C   UNL A   1      38.911  32.798  33.476  1.00  0.00     0.049 A 
ATOM     63  C   UNL A   1      43.626  30.859  35.809  1.00  0.00     0.074 A 
ATOM     64  C   UNL A   1      38.269  33.832  34.135  1.00  0.00     0.029 A 
ATOM     65  N   UNL A   1      40.046  32.496  34.212  1.00  0.00    -0.354 N 
ATOM     66  N   UNL A   1      42.512  31.411  35.391  1.00  0.00    -0.248 NA
ATOM     67  C   UNL A   1      44.198  31.503  37.001  1.00  0.00     0.031 C 
ATOM     68  C   UNL A   1      39.042  34.186  35.245  1.00  0.00     0.029 A 
ATOM     69  C   UNL A   1      40.135  33.337  35.309  1.00  0.00     0.049 A 
ATOM     70  H   UNL A   1      40.694  31.788  33.989  1.00  0.00     0.167 HD
ATOM     71  C   UNL A   1      42.230  32.435  36.286  1.00  0.00     0.074 A 
ATOM     72  C   UNL A   1      43.290  32.431  37.272  1.00  0.00     0.031 C 
ATOM     73  C   UNL A   1      41.184  33.298  36.294  1.00  0.00     0.037 A 
BRANCH  60  74
ATOM     74  C   UNL A   1      37.297  32.608  31.544  1.00  0.00     0.064 A 
ATOM     75  C   UNL A   1      36.010  32.339  32.033  1.00  0.00     0.173 A 
ATOM     76  C   UNL A   1      37.409  33.360  30.365  1.00  0.00     0.173 A 
ATOM     77  F   UNL A   1      35.850  31.609  33.147  1.00  0.00    -0.203 F 
ATOM     78  C   UNL A   1      34.880  32.785  31.354  1.00  0.00     0.198 A 
ATOM     79  C   UNL A   1      36.278  33.828  29.704  1.00  0.00     0.198 A 
ATOM     80  F   UNL A   1      38.617  33.644  29.855  1.00  0.00    -0.203 F 
ATOM     81  F   UNL A   1      33.659  32.475  31.812  1.00  0.00    -0.200 F 
ATOM     82  C   UNL A   1      35.014  33.535  30.195  1.00  0.00     0.200 A 
ATOM     83  F   UNL A   1      36.410  34.562  28.590  1.00  0.00    -0.200 F 
ATOM     84  F   UNL A   1      33.925  33.968  29.545  1.00  0.00    -0.200 F 
ENDBRANCH  60  74
BRANCH  61  85
ATOM     85  C   UNL A   1      45.642  29.216  35.873  1.00  0.00     0.064 A 
ATOM     86  C   UNL A   1      46.885  29.705  35.447  1.00  0.00     0.173 A 
ATOM     87  C   UNL A   1      45.636  28.257  36.896  1.00  0.00     0.173 A 
ATOM     88  F   UNL A   1      46.945  30.604  34.454  1.00  0.00    -0.203 F 
ATOM     89  C   UNL A   1      48.074  29.240  36.007  1.00  0.00     0.198 A 
ATOM     90  C   UNL A   1      46.824  27.812  37.475  1.00  0.00     0.198 A 
ATOM     91  F   UNL A   1      44.475  27.752  37.338  1.00  0.00    -0.203 F 
ATOM     92  F   UNL A   1      49.250  29.691  35.549  1.00  0.00    -0.200 F 
ATOM     93  C   UNL A   1      48.042  28.299  37.026  1.00  0.00     0.200 A 
ATOM     94  F   UNL A   1      46.787  26.911  38.465  1.00  0.00    -0.200 F 
ATOM     95  F   UNL A   1      49.184  27.853  37.565  1.00  0.00    -0.200 F 
ENDBRANCH  61  85
BRANCH  73  96
ATOM     96  C   UNL A   1      41.091  34.271  37.434  1.00  0.00     0.064 A 
ATOM     97  C   UNL A   1      41.802  35.479  37.437  1.00  0.00     0.173 A 
ATOM     98  C   UNL A   1      40.216  34.020  38.503  1.00  0.00     0.173 A 
ATOM     99  F   UNL A   1      42.660  35.760  36.445  1.00  0.00    -0.203 F 
ATOM    100  C   UNL A   1      41.651  36.394  38.476  1.00  0.00     0.198 A 
ATOM    101  C   UNL A   1      40.046  34.948  39.524  1.00  0.00     0.198 A 
ATOM    102  F   UNL A   1      39.506  32.881  38.541  1.00  0.00    -0.203 F 
ATOM    103  F   UNL A   1      42.366  37.527  38.477  1.00  0.00    -0.200 F 
ATOM    104  C   UNL A   1      40.767  36.133  39.513  1.00  0.00     0.200 A 
ATOM    105  F   UNL A   1      39.179  34.701  40.516  1.00  0.00    -0.200 F 
ATOM    106  F   UNL A   1      40.612  37.022  40.503  1.00  0.00    -0.200 F 
ENDBRANCH  73  96
ENDBRANCH  47  48
ENDBRANCH  40  42
ENDBRANCH  39  40
ENDBRANCH  38  39
ENDBRANCH  37  38
ENDBRANCH  36  37
ENDBRANCH  35  36
ENDBRANCH  34  35
ENDBRANCH  33  34
ENDBRANCH   1  33
TORSDOF 23
ENDMDL
MODEL 2
REMARK VINA RESULT:      -8.7     10.053     16.307
REMARK SMILES CC1=C(C(=O)OCCOCCOCCOCCOC(=O)c2ccc(-c3c4nc(c(-c5c(F)c(F)c(F)c(F)c5F)c5ccc([nH]5)c(-c5c(F)c(F)c(F)c(F)c5F)c5nc(c(-c6c(F)c(F)c(F)c(F)c6F)c6ccc3[nH]6)C=C5)C=C4)cc2)N2C(=O)[C@H](NC(=O)c3cc(C(F)(F)F)nn3C)[C@@H]2SC1
REMARK SMILES IDX 11 1 10 2 9 3 8 4 7 5 6 6 4 7 5 8 3 9 1 10 2 11 103 12 84 13
REMARK SMILES IDX 102 14 85 15 101 16 86 17 87 18 88 19 89 20 90 22 91 23
REMARK SMILES IDX 92 24 99 25 93 26 98 27 100 28 94 29 95 30 96 31 97 32 12 33
REMARK SMILES IDX 13 34 14 35 15 36 16 37 17 38 18 39 19 40 20 41 21 42 22 43
REMARK SMILES IDX 83 44 23 45 82 46 24 47 25 48 26 49 76 50 27 51 81 52 75 53
REMARK SMILES IDX 77 54 28 55 80 56 74 57 73 58 29 60 61 61 41 62 60 63 42 64
REMARK SMILES IDX 45 65 59 66 78 67 43 68 44 69 58 71 79 72 46 73 30 74 31 75
REMARK SMILES IDX 39 76 32 77 33 78 37 79 40 80 34 81 35 82 38 83 36 84 62 85
REMARK SMILES IDX 63 86 71 87 64 88 65 89 69 90 72 91 66 92 67 93 70 94 68 95
REMARK SMILES IDX 47 96 48 97 56 98 49 99 50 100 54 101 57 102 51 103 52 104
REMARK SMILES IDX 55 105 53 106
REMARK H PARENT 88 21 77 59 45 70
REMARK Flexibility Score: inf
ROOT
ATOM      1  C   UNL A   1      46.390  20.717  38.332  1.00  0.00     0.188 C 
ENDROOT
BRANCH   1   2
ATOM      2  C   UNL A   1      47.226  20.021  39.428  1.00  0.00     0.188 C 
BRANCH   2   3
ATOM      3  O   UNL A   1      46.864  18.669  39.692  1.00  0.00    -0.376 OA
BRANCH   3   4
ATOM      4  C   UNL A   1      46.460  18.399  41.030  1.00  0.00     0.202 C 
BRANCH   4   5
ATOM      5  C   UNL A   1      47.371  17.390  41.730  1.00  0.00     0.261 C 
BRANCH   5   6
ATOM      6  O   UNL A   1      48.037  17.961  42.865  1.00  0.00    -0.459 OA
BRANCH   6   7
ATOM      7  C   UNL A   1      47.325  18.052  44.012  1.00  0.00     0.355 C 
ATOM      8  O   UNL A   1      46.355  18.765  44.202  1.00  0.00    -0.244 OA
BRANCH   7   9
ATOM      9  C   UNL A   1      47.863  17.052  44.996  1.00  0.00     0.131 C 
ATOM     10  C   UNL A   1      49.873  18.485  45.524  1.00  0.00     0.043 C 
ATOM     11  C   UNL A   1      48.986  17.278  45.724  1.00  0.00    -0.032 C 
ATOM     12  C   UNL A   1      49.494  16.345  46.812  1.00  0.00     0.105 C 
ATOM     13  N   UNL A   1      47.184  15.879  45.128  1.00  0.00    -0.289 N 
ATOM     14  S   UNL A   1      48.231  15.192  47.447  1.00  0.00    -0.129 SA
ATOM     15  C   UNL A   1      46.107  15.268  44.593  1.00  0.00     0.253 C 
ATOM     16  C   UNL A   1      47.718  14.708  45.792  1.00  0.00     0.181 C 
ATOM     17  O   UNL A   1      45.335  15.559  43.716  1.00  0.00    -0.272 OA
ATOM     18  C   UNL A   1      46.316  14.062  45.588  1.00  0.00     0.206 C 
BRANCH  18  19
ATOM     19  N   UNL A   1      45.375  14.058  46.736  1.00  0.00    -0.336 N 
ATOM     20  C   UNL A   1      44.198  13.370  46.886  1.00  0.00     0.270 C 
ATOM     21  H   UNL A   1      45.631  14.628  47.496  1.00  0.00     0.164 HD
ATOM     22  O   UNL A   1      43.447  13.691  47.803  1.00  0.00    -0.268 OA
BRANCH  20  23
ATOM     23  C   UNL A   1      43.889  12.314  45.958  1.00  0.00     0.126 A 
ATOM     24  C   UNL A   1      43.073  12.318  44.839  1.00  0.00     0.069 A 
ATOM     25  N   UNL A   1      44.456  11.064  45.971  1.00  0.00    -0.262 N 
ATOM     26  C   UNL A   1      43.153  11.016  44.280  1.00  0.00     0.167 A 
ATOM     27  N   UNL A   1      43.994  10.250  44.998  1.00  0.00    -0.168 NA
ATOM     28  C   UNL A   1      45.411  10.521  46.913  1.00  0.00     0.174 C 
BRANCH  26  29
ATOM     29  C   UNL A   1      42.420  10.512  43.065  1.00  0.00     0.435 C 
ATOM     30  F   UNL A   1      42.301  11.454  42.093  1.00  0.00    -0.164 F 
ATOM     31  F   UNL A   1      43.021   9.428  42.506  1.00  0.00    -0.164 F 
ATOM     32  F   UNL A   1      41.151  10.121  43.379  1.00  0.00    -0.164 F 
ENDBRANCH  26  29
ENDBRANCH  20  23
ENDBRANCH  18  19
ENDBRANCH   7   9
ENDBRANCH   6   7
ENDBRANCH   5   6
ENDBRANCH   4   5
ENDBRANCH   3   4
ENDBRANCH   2   3
ENDBRANCH   1   2
BRANCH   1  33
ATOM     33  O   UNL A   1      46.714  20.534  36.963  1.00  0.00    -0.377 OA
BRANCH  33  34
ATOM     34  C   UNL A   1      48.075  20.346  36.589  1.00  0.00     0.188 C 
BRANCH  34  35
ATOM     35  C   UNL A   1      48.493  20.380  35.103  1.00  0.00     0.188 C 
BRANCH  35  36
ATOM     36  O   UNL A   1      48.264  21.619  34.449  1.00  0.00    -0.376 OA
BRANCH  36  37
ATOM     37  C   UNL A   1      48.425  22.789  35.239  1.00  0.00     0.202 C 
BRANCH  37  38
ATOM     38  C   UNL A   1      47.667  24.016  34.720  1.00  0.00     0.261 C 
BRANCH  38  39
ATOM     39  O   UNL A   1      47.743  25.182  35.555  1.00  0.00    -0.460 OA
BRANCH  39  40
ATOM     40  C   UNL A   1      46.786  25.339  36.495  1.00  0.00     0.338 C 
ATOM     41  O   UNL A   1      46.830  25.018  37.667  1.00  0.00    -0.246 OA
BRANCH  40  42
ATOM     42  C   UNL A   1      45.704  26.131  35.883  1.00  0.00     0.060 A 
ATOM     43  C   UNL A   1      44.448  25.544  35.678  1.00  0.00     0.016 A 
ATOM     44  C   UNL A   1      45.940  27.459  35.528  1.00  0.00     0.016 A 
ATOM     45  C   UNL A   1      43.424  26.289  35.090  1.00  0.00     0.010 A 
ATOM     46  C   UNL A   1      44.924  28.195  34.923  1.00  0.00     0.010 A 
ATOM     47  C   UNL A   1      43.671  27.605  34.677  1.00  0.00    -0.014 A 
BRANCH  47  48
ATOM     48  C   UNL A   1      42.713  28.321  33.805  1.00  0.00     0.031 A 
ATOM     49  C   UNL A   1      41.747  29.270  34.455  1.00  0.00     0.074 A 
ATOM     50  C   UNL A   1      42.660  28.092  32.482  1.00  0.00     0.049 A 
ATOM     51  N   UNL A   1      40.714  29.888  33.943  1.00  0.00    -0.248 NA
ATOM     52  C   UNL A   1      41.972  29.548  35.883  1.00  0.00     0.031 C 
ATOM     53  C   UNL A   1      43.569  27.226  31.736  1.00  0.00     0.029 A 
ATOM     54  N   UNL A   1      41.779  28.555  31.537  1.00  0.00    -0.354 N 
ATOM     55  C   UNL A   1      40.160  30.615  34.989  1.00  0.00     0.074 A 
ATOM     56  C   UNL A   1      40.955  30.346  36.166  1.00  0.00     0.031 C 
ATOM     57  C   UNL A   1      43.182  27.199  30.448  1.00  0.00     0.029 A 
ATOM     58  C   UNL A   1      41.976  28.012  30.292  1.00  0.00     0.049 A 
ATOM     59  H   UNL A   1      41.073  29.213  31.733  1.00  0.00     0.167 HD
ATOM     60  C   UNL A   1      39.084  31.434  34.966  1.00  0.00     0.037 A 
ATOM     61  C   UNL A   1      41.241  28.132  29.168  1.00  0.00     0.037 A 
ATOM     62  C   UNL A   1      38.293  31.689  33.793  1.00  0.00     0.049 A 
ATOM     63  C   UNL A   1      40.000  28.991  29.185  1.00  0.00     0.074 A 
ATOM     64  C   UNL A   1      37.186  32.509  33.661  1.00  0.00     0.029 A 
ATOM     65  N   UNL A   1      38.520  31.119  32.551  1.00  0.00    -0.354 N 
ATOM     66  N   UNL A   1      39.489  29.690  30.170  1.00  0.00    -0.248 NA
ATOM     67  C   UNL A   1      39.232  29.074  27.934  1.00  0.00     0.031 C 
ATOM     68  C   UNL A   1      36.716  32.397  32.349  1.00  0.00     0.029 A 
ATOM     69  C   UNL A   1      37.563  31.553  31.650  1.00  0.00     0.049 A 
ATOM     70  H   UNL A   1      39.255  30.497  32.340  1.00  0.00     0.167 HD
ATOM     71  C   UNL A   1      38.368  30.325  29.649  1.00  0.00     0.074 A 
ATOM     72  C   UNL A   1      38.271  29.928  28.260  1.00  0.00     0.031 C 
ATOM     73  C   UNL A   1      37.500  31.166  30.264  1.00  0.00     0.037 A 
BRANCH  60  74
ATOM     74  C   UNL A   1      38.684  32.085  36.256  1.00  0.00     0.064 A 
ATOM     75  C   UNL A   1      38.986  33.427  36.530  1.00  0.00     0.173 A 
ATOM     76  C   UNL A   1      37.968  31.362  37.222  1.00  0.00     0.173 A 
ATOM     77  F   UNL A   1      39.684  34.156  35.645  1.00  0.00    -0.203 F 
ATOM     78  C   UNL A   1      38.607  34.014  37.733  1.00  0.00     0.198 A 
ATOM     79  C   UNL A   1      37.566  31.960  38.411  1.00  0.00     0.198 A 
ATOM     80  F   UNL A   1      37.655  30.075  37.009  1.00  0.00    -0.203 F 
ATOM     81  F   UNL A   1      38.949  35.284  37.994  1.00  0.00    -0.200 F 
ATOM     82  C   UNL A   1      37.892  33.283  38.670  1.00  0.00     0.200 A 
ATOM     83  F   UNL A   1      36.866  31.255  39.311  1.00  0.00    -0.200 F 
ATOM     84  F   UNL A   1      37.523  33.851  39.826  1.00  0.00    -0.200 F 
ENDBRANCH  60  74
BRANCH  61  85
ATOM     85  C   UNL A   1      41.643  27.409  27.934  1.00  0.00     0.064 A 
ATOM     86  C   UNL A   1      41.094  26.159  27.617  1.00  0.00     0.173 A 
ATOM     87  C   UNL A   1      42.602  27.938  27.058  1.00  0.00     0.173 A 
ATOM     88  F   UNL A   1      40.194  25.597  28.438  1.00  0.00    -0.203 F 
ATOM     89  C   UNL A   1      41.501  25.458  26.483  1.00  0.00     0.198 A 
ATOM     90  C   UNL A   1      42.988  27.250  25.909  1.00  0.00     0.198 A 
ATOM     91  F   UNL A   1      43.163  29.130  27.315  1.00  0.00    -0.203 F 
ATOM     92  F   UNL A   1      40.993  24.244  26.230  1.00  0.00    -0.200 F 
ATOM     93  C   UNL A   1      42.443  26.008  25.626  1.00  0.00     0.200 A 
ATOM     94  F   UNL A   1      43.890  27.791  25.078  1.00  0.00    -0.200 F 
ATOM     95  F   UNL A   1      42.832  25.335  24.535  1.00  0.00    -0.200 F 
ENDBRANCH  61  85
BRANCH  73  96
ATOM     96  C   UNL A   1      36.404  31.768  29.433  1.00  0.00     0.064 A 
ATOM     97  C   UNL A   1      35.350  30.997  28.925  1.00  0.00     0.173 A 
ATOM     98  C   UNL A   1      36.374  33.154  29.207  1.00  0.00     0.173 A 
ATOM     99  F   UNL A   1      35.339  29.667  29.102  1.00  0.00    -0.203 F 
ATOM    100  C   UNL A   1      34.312  31.589  28.209  1.00  0.00     0.198 A 
ATOM    101  C   UNL A   1      35.322  33.745  28.517  1.00  0.00     0.198 A 
ATOM    102  F   UNL A   1      37.356  33.937  29.680  1.00  0.00    -0.203 F 
ATOM    103  F   UNL A   1      33.331  30.829  27.703  1.00  0.00    -0.200 F 
ATOM    104  C   UNL A   1      34.293  32.963  28.014  1.00  0.00     0.200 A 
ATOM    105  F   UNL A   1      35.298  35.074  28.345  1.00  0.00    -0.200 F 
ATOM    106  F   UNL A   1      33.285  33.531  27.340  1.00  0.00    -0.200 F 
ENDBRANCH  73  96
ENDBRANCH  47  48
ENDBRANCH  40  42
ENDBRANCH  39  40
ENDBRANCH  38  39
ENDBRANCH  37  38
ENDBRANCH  36  37
ENDBRANCH  35  36
ENDBRANCH  34  35
ENDBRANCH  33  34
ENDBRANCH   1  33
TORSDOF 23
ENDMDL
MODEL 3
REMARK VINA RESULT:      -8.4     10.501     15.885
REMARK SMILES CC1=C(C(=O)OCCOCCOCCOCCOC(=O)c2ccc(-c3c4nc(c(-c5c(F)c(F)c(F)c(F)c5F)c5ccc([nH]5)c(-c5c(F)c(F)c(F)c(F)c5F)c5nc(c(-c6c(F)c(F)c(F)c(F)c6F)c6ccc3[nH]6)C=C5)C=C4)cc2)N2C(=O)[C@H](NC(=O)c3cc(C(F)(F)F)nn3C)[C@@H]2SC1
REMARK SMILES IDX 11 1 10 2 9 3 8 4 7 5 6 6 4 7 5 8 3 9 1 10 2 11 103 12 84 13
REMARK SMILES IDX 102 14 85 15 101 16 86 17 87 18 88 19 89 20 90 22 91 23
REMARK SMILES IDX 92 24 99 25 93 26 98 27 100 28 94 29 95 30 96 31 97 32 12 33
REMARK SMILES IDX 13 34 14 35 15 36 16 37 17 38 18 39 19 40 20 41 21 42 22 43
REMARK SMILES IDX 83 44 23 45 82 46 24 47 25 48 26 49 76 50 27 51 81 52 75 53
REMARK SMILES IDX 77 54 28 55 80 56 74 57 73 58 29 60 61 61 41 62 60 63 42 64
REMARK SMILES IDX 45 65 59 66 78 67 43 68 44 69 58 71 79 72 46 73 30 74 31 75
REMARK SMILES IDX 39 76 32 77 33 78 37 79 40 80 34 81 35 82 38 83 36 84 62 85
REMARK SMILES IDX 63 86 71 87 64 88 65 89 69 90 72 91 66 92 67 93 70 94 68 95
REMARK SMILES IDX 47 96 48 97 56 98 49 99 50 100 54 101 57 102 51 103 52 104
REMARK SMILES IDX 55 105 53 106
REMARK H PARENT 88 21 77 59 45 70
REMARK Flexibility Score: inf
ROOT
ATOM      1  C   UNL A   1      49.393  18.889  43.329  1.00  0.00     0.188 C 
ENDROOT
BRANCH   1   2
ATOM      2  C   UNL A   1      49.884  18.811  44.791  1.00  0.00     0.188 C 
BRANCH   2   3
ATOM      3  O   UNL A   1      49.943  17.497  45.336  1.00  0.00    -0.376 OA
BRANCH   3   4
ATOM      4  C   UNL A   1      48.729  17.022  45.907  1.00  0.00     0.202 C 
BRANCH   4   5
ATOM      5  C   UNL A   1      48.941  15.824  46.834  1.00  0.00     0.261 C 
BRANCH   5   6
ATOM      6  O   UNL A   1      48.103  14.714  46.482  1.00  0.00    -0.459 OA
BRANCH   6   7
ATOM      7  C   UNL A   1      46.983  14.532  47.219  1.00  0.00     0.355 C 
ATOM      8  O   UNL A   1      46.553  15.288  48.073  1.00  0.00    -0.244 OA
BRANCH   7   9
ATOM      9  C   UNL A   1      46.290  13.286  46.746  1.00  0.00     0.131 C 
ATOM     10  C   UNL A   1      47.411  11.861  48.503  1.00  0.00     0.043 C 
ATOM     11  C   UNL A   1      46.439  12.088  47.368  1.00  0.00    -0.032 C 
ATOM     12  C   UNL A   1      45.665  10.835  46.993  1.00  0.00     0.105 C 
ATOM     13  N   UNL A   1      45.502  13.391  45.641  1.00  0.00    -0.289 N 
ATOM     14  S   UNL A   1      44.151  11.162  46.029  1.00  0.00    -0.129 SA
ATOM     15  C   UNL A   1      45.135  14.332  44.747  1.00  0.00     0.253 C 
ATOM     16  C   UNL A   1      45.011  12.256  44.888  1.00  0.00     0.181 C 
ATOM     17  O   UNL A   1      45.433  15.487  44.583  1.00  0.00    -0.272 OA
ATOM     18  C   UNL A   1      44.190  13.279  44.050  1.00  0.00     0.206 C 
BRANCH  18  19
ATOM     19  N   UNL A   1      42.751  13.452  44.373  1.00  0.00    -0.336 N 
ATOM     20  C   UNL A   1      41.768  14.064  43.638  1.00  0.00     0.270 C 
ATOM     21  H   UNL A   1      42.462  13.076  45.236  1.00  0.00     0.164 HD
ATOM     22  O   UNL A   1      40.700  14.318  44.188  1.00  0.00    -0.268 OA
BRANCH  20  23
ATOM     23  C   UNL A   1      42.034  14.392  42.262  1.00  0.00     0.126 A 
ATOM     24  C   UNL A   1      42.697  15.477  41.714  1.00  0.00     0.069 A 
ATOM     25  N   UNL A   1      41.734  13.589  41.189  1.00  0.00    -0.262 N 
ATOM     26  C   UNL A   1      42.691  15.283  40.309  1.00  0.00     0.167 A 
ATOM     27  N   UNL A   1      42.080  14.125  40.000  1.00  0.00    -0.168 NA
ATOM     28  C   UNL A   1      41.060  12.309  41.187  1.00  0.00     0.174 C 
BRANCH  26  29
ATOM     29  C   UNL A   1      43.266  16.209  39.270  1.00  0.00     0.435 C 
ATOM     30  F   UNL A   1      43.446  15.605  38.066  1.00  0.00    -0.164 F 
ATOM     31  F   UNL A   1      42.489  17.304  39.059  1.00  0.00    -0.164 F 
ATOM     32  F   UNL A   1      44.489  16.680  39.650  1.00  0.00    -0.164 F 
ENDBRANCH  26  29
ENDBRANCH  20  23
ENDBRANCH  18  19
ENDBRANCH   7   9
ENDBRANCH   6   7
ENDBRANCH   5   6
ENDBRANCH   4   5
ENDBRANCH   3   4
ENDBRANCH   2   3
ENDBRANCH   1   2
BRANCH   1  33
ATOM     33  O   UNL A   1      48.014  19.067  43.048  1.00  0.00    -0.377 OA
BRANCH  33  34
ATOM     34  C   UNL A   1      47.541  18.846  41.722  1.00  0.00     0.188 C 
BRANCH  34  35
ATOM     35  C   UNL A   1      48.512  18.400  40.607  1.00  0.00     0.188 C 
BRANCH  35  36
ATOM     36  O   UNL A   1      48.011  18.551  39.287  1.00  0.00    -0.376 OA
BRANCH  36  37
ATOM     37  C   UNL A   1      46.637  18.888  39.168  1.00  0.00     0.202 C 
BRANCH  37  38
ATOM     38  C   UNL A   1      46.123  18.966  37.726  1.00  0.00     0.261 C 
BRANCH  38  39
ATOM     39  O   UNL A   1      45.907  20.293  37.223  1.00  0.00    -0.460 OA
BRANCH  39  40
ATOM     40  C   UNL A   1      46.940  20.899  36.597  1.00  0.00     0.338 C 
ATOM     41  O   UNL A   1      48.106  20.554  36.576  1.00  0.00    -0.246 OA
BRANCH  40  42
ATOM     42  C   UNL A   1      46.374  21.994  35.791  1.00  0.00     0.060 A 
ATOM     43  C   UNL A   1      47.230  22.829  35.059  1.00  0.00     0.016 A 
ATOM     44  C   UNL A   1      44.992  22.179  35.753  1.00  0.00     0.016 A 
ATOM     45  C   UNL A   1      46.698  23.874  34.301  1.00  0.00     0.010 A 
ATOM     46  C   UNL A   1      44.463  23.233  35.012  1.00  0.00     0.010 A 
ATOM     47  C   UNL A   1      45.315  24.100  34.306  1.00  0.00    -0.014 A 
BRANCH  47  48
ATOM     48  C   UNL A   1      44.749  25.351  33.753  1.00  0.00     0.031 A 
ATOM     49  C   UNL A   1      44.391  25.374  32.294  1.00  0.00     0.074 A 
ATOM     50  C   UNL A   1      44.610  26.454  34.508  1.00  0.00     0.049 A 
ATOM     51  N   UNL A   1      44.036  26.381  31.539  1.00  0.00    -0.248 NA
ATOM     52  C   UNL A   1      44.456  24.083  31.590  1.00  0.00     0.031 C 
ATOM     53  C   UNL A   1      44.885  26.540  35.940  1.00  0.00     0.029 A 
ATOM     54  N   UNL A   1      44.227  27.725  34.158  1.00  0.00    -0.354 N 
ATOM     55  C   UNL A   1      43.850  25.848  30.271  1.00  0.00     0.074 A 
ATOM     56  C   UNL A   1      44.151  24.436  30.351  1.00  0.00     0.031 C 
ATOM     57  C   UNL A   1      44.686  27.807  36.344  1.00  0.00     0.029 A 
ATOM     58  C   UNL A   1      44.310  28.625  35.191  1.00  0.00     0.049 A 
ATOM     59  H   UNL A   1      43.920  27.967  33.254  1.00  0.00     0.167 HD
ATOM     60  C   UNL A   1      43.462  26.482  29.140  1.00  0.00     0.037 A 
ATOM     61  C   UNL A   1      44.137  29.963  35.190  1.00  0.00     0.037 A 
ATOM     62  C   UNL A   1      43.173  27.888  29.066  1.00  0.00     0.049 A 
ATOM     63  C   UNL A   1      43.779  30.661  33.901  1.00  0.00     0.074 A 
ATOM     64  C   UNL A   1      42.764  28.628  27.971  1.00  0.00     0.029 A 
ATOM     65  N   UNL A   1      43.272  28.769  30.132  1.00  0.00    -0.354 N 
ATOM     66  N   UNL A   1      43.587  30.152  32.708  1.00  0.00    -0.248 NA
ATOM     67  C   UNL A   1      43.617  32.121  33.959  1.00  0.00     0.031 C 
ATOM     68  C   UNL A   1      42.662  29.966  28.363  1.00  0.00     0.029 A 
ATOM     69  C   UNL A   1      42.951  30.051  29.715  1.00  0.00     0.049 A 
ATOM     70  H   UNL A   1      43.532  28.521  31.049  1.00  0.00     0.167 HD
ATOM     71  C   UNL A   1      43.244  31.218  31.886  1.00  0.00     0.074 A 
ATOM     72  C   UNL A   1      43.254  32.404  32.715  1.00  0.00     0.031 C 
ATOM     73  C   UNL A   1      42.942  31.214  30.564  1.00  0.00     0.037 A 
BRANCH  60  74
ATOM     74  C   UNL A   1      43.361  25.662  27.889  1.00  0.00     0.064 A 
ATOM     75  C   UNL A   1      44.440  25.537  27.001  1.00  0.00     0.173 A 
ATOM     76  C   UNL A   1      42.177  24.975  27.586  1.00  0.00     0.173 A 
ATOM     77  F   UNL A   1      45.588  26.189  27.237  1.00  0.00    -0.203 F 
ATOM     78  C   UNL A   1      44.327  24.772  25.843  1.00  0.00     0.198 A 
ATOM     79  C   UNL A   1      42.077  24.189  26.443  1.00  0.00     0.198 A 
ATOM     80  F   UNL A   1      41.115  25.063  28.402  1.00  0.00    -0.203 F 
ATOM     81  F   UNL A   1      45.354  24.705  24.984  1.00  0.00    -0.200 F 
ATOM     82  C   UNL A   1      43.149  24.094  25.569  1.00  0.00     0.200 A 
ATOM     83  F   UNL A   1      40.941  23.525  26.184  1.00  0.00    -0.200 F 
ATOM     84  F   UNL A   1      43.044  23.353  24.457  1.00  0.00    -0.200 F 
ENDBRANCH  60  74
BRANCH  61  85
ATOM     85  C   UNL A   1      44.318  30.738  36.445  1.00  0.00     0.064 A 
ATOM     86  C   UNL A   1      45.580  31.216  36.824  1.00  0.00     0.173 A 
ATOM     87  C   UNL A   1      43.240  30.996  37.305  1.00  0.00     0.173 A 
ATOM     88  F   UNL A   1      46.648  30.971  36.049  1.00  0.00    -0.203 F 
ATOM     89  C   UNL A   1      45.762  31.906  38.021  1.00  0.00     0.198 A 
ATOM     90  C   UNL A   1      43.417  31.710  38.488  1.00  0.00     0.198 A 
ATOM     91  F   UNL A   1      42.011  30.557  36.993  1.00  0.00    -0.203 F 
ATOM     92  F   UNL A   1      46.988  32.310  38.380  1.00  0.00    -0.200 F 
ATOM     93  C   UNL A   1      44.678  32.159  38.850  1.00  0.00     0.200 A 
ATOM     94  F   UNL A   1      42.365  31.961  39.280  1.00  0.00    -0.200 F 
ATOM     95  F   UNL A   1      44.852  32.824  39.999  1.00  0.00    -0.200 F 
ENDBRANCH  61  85
BRANCH  73  96
ATOM     96  C   UNL A   1      42.534  32.516  29.937  1.00  0.00     0.064 A 
ATOM     97  C   UNL A   1      41.269  33.079  30.155  1.00  0.00     0.173 A 
ATOM     98  C   UNL A   1      43.455  33.245  29.168  1.00  0.00     0.173 A 
ATOM     99  F   UNL A   1      40.349  32.417  30.871  1.00  0.00    -0.203 F 
ATOM    100  C   UNL A   1      40.936  34.319  29.613  1.00  0.00     0.198 A 
ATOM    101  C   UNL A   1      43.129  34.495  28.653  1.00  0.00     0.198 A 
ATOM    102  F   UNL A   1      44.682  32.752  28.939  1.00  0.00    -0.203 F 
ATOM    103  F   UNL A   1      39.710  34.824  29.804  1.00  0.00    -0.200 F 
ATOM    104  C   UNL A   1      41.869  35.029  28.871  1.00  0.00     0.200 A 
ATOM    105  F   UNL A   1      44.038  35.186  27.951  1.00  0.00    -0.200 F 
ATOM    106  F   UNL A   1      41.551  36.228  28.365  1.00  0.00    -0.200 F 
ENDBRANCH  73  96
ENDBRANCH  47  48
ENDBRANCH  40  42
ENDBRANCH  39  40
ENDBRANCH  38  39
ENDBRANCH  37  38
ENDBRANCH  36  37
ENDBRANCH  35  36
ENDBRANCH  34  35
ENDBRANCH  33  34
ENDBRANCH   1  33
TORSDOF 23
ENDMDL
