MODEL 1
REMARK VINA RESULT:     -10.0      0.000      0.000
REMARK SMILES Cc1cc(C(=O)OCCOCCOCCOCCOC(=O)c2ccc(-c3c4nc(c(-c5c(F)c(F)c(F)c(F)c5F)c5ccc([nH]5)c(-c5c(F)c(F)c(F)c(F)c5F)c5nc(c(-c6c(F)c(F)c(F)c(F)c6F)c6ccc3[nH]6)C=C5)C=C4)cc2)cc(C)c1OC[C@H]1C[N@@H+](C)CCO1
REMARK SMILES IDX 12 1 11 2 10 3 9 4 8 5 7 6 5 7 6 8 4 9 1 10 2 11 3 12 88 13
REMARK SMILES IDX 86 14 85 15 87 16 89 17 90 18 91 19 92 20 97 21 93 22 96 23
REMARK SMILES IDX 94 24 95 25 13 27 14 28 15 29 16 30 17 31 18 32 19 33 20 34
REMARK SMILES IDX 21 35 22 36 23 37 84 38 24 39 83 40 25 41 26 42 27 43 77 44
REMARK SMILES IDX 28 45 82 46 76 47 78 48 29 49 81 50 75 51 74 52 30 54 62 55
REMARK SMILES IDX 42 56 61 57 43 58 46 59 60 60 79 61 44 62 45 63 59 65 80 66
REMARK SMILES IDX 47 67 31 68 32 69 40 70 33 71 34 72 38 73 41 74 35 75 36 76
REMARK SMILES IDX 39 77 37 78 63 79 64 80 72 81 65 82 66 83 70 84 73 85 67 86
REMARK SMILES IDX 68 87 71 88 69 89 48 90 49 91 57 92 50 93 51 94 55 95 58 96
REMARK SMILES IDX 52 97 53 98 56 99 54 100
REMARK H PARENT 93 26 78 53 46 64
REMARK Flexibility Score: inf
ROOT
ATOM      1  C   UNL A   1      38.163  22.355  25.745  1.00  0.00     0.188 C 
ENDROOT
BRANCH   1   2
ATOM      2  C   UNL A   1      37.513  21.023  25.311  1.00  0.00     0.188 C 
BRANCH   2   3
ATOM      3  O   UNL A   1      36.161  21.145  24.904  1.00  0.00    -0.376 OA
BRANCH   3   4
ATOM      4  C   UNL A   1      35.224  21.631  25.847  1.00  0.00     0.202 C 
BRANCH   4   5
ATOM      5  C   UNL A   1      34.264  22.752  25.410  1.00  0.00     0.261 C 
BRANCH   5   6
ATOM      6  O   UNL A   1      33.638  22.585  24.128  1.00  0.00    -0.460 OA
BRANCH   6   7
ATOM      7  C   UNL A   1      32.286  22.602  24.108  1.00  0.00     0.338 C 
ATOM      8  O   UNL A   1      31.542  21.781  24.615  1.00  0.00    -0.246 OA
BRANCH   7   9
ATOM      9  C   UNL A   1      31.845  23.921  23.597  1.00  0.00     0.060 A 
ATOM     10  C   UNL A   1      32.500  25.692  20.393  1.00  0.00     0.048 C 
ATOM     11  C   UNL A   1      32.045  25.571  21.815  1.00  0.00    -0.008 A 
ATOM     12  C   UNL A   1      32.514  24.428  22.484  1.00  0.00     0.023 A 
ATOM     13  C   UNL A   1      31.077  26.373  22.427  1.00  0.00     0.125 A 
ATOM     14  C   UNL A   1      30.348  25.827  23.514  1.00  0.00    -0.008 A 
ATOM     15  C   UNL A   1      30.712  24.578  24.064  1.00  0.00     0.023 A 
ATOM     16  C   UNL A   1      29.093  26.481  24.039  1.00  0.00     0.048 C 
BRANCH  13  17
ATOM     17  O   UNL A   1      30.720  27.640  22.062  1.00  0.00    -0.490 OA
BRANCH  17  18
ATOM     18  C   UNL A   1      31.274  28.843  22.643  1.00  0.00     0.267 C 
BRANCH  18  19
ATOM     19  C   UNL A   1      30.429  30.141  22.645  1.00  0.00     0.210 C 
ATOM     20  C   UNL A   1      29.345  30.092  21.546  1.00  0.00     0.298 C 
ATOM     21  O   UNL A   1      29.703  30.291  23.897  1.00  0.00    -0.363 OA
ATOM     22  N   UNL A   1      28.799  31.452  21.422  1.00  0.00    -0.333 N 
ATOM     23  C   UNL A   1      28.947  31.526  23.901  1.00  0.00     0.222 C 
ATOM     24  C   UNL A   1      28.024  31.635  20.207  1.00  0.00     0.332 C 
ATOM     25  C   UNL A   1      28.044  31.722  22.655  1.00  0.00     0.290 C 
ATOM     26  H   UNL A   1      29.550  32.136  21.327  1.00  0.00     0.348 HD
ENDBRANCH  18  19
ENDBRANCH  17  18
ENDBRANCH  13  17
ENDBRANCH   7   9
ENDBRANCH   6   7
ENDBRANCH   5   6
ENDBRANCH   4   5
ENDBRANCH   3   4
ENDBRANCH   2   3
ENDBRANCH   1   2
BRANCH   1  27
ATOM     27  O   UNL A   1      39.507  22.360  26.207  1.00  0.00    -0.377 OA
BRANCH  27  28
ATOM     28  C   UNL A   1      40.200  21.129  26.382  1.00  0.00     0.188 C 
BRANCH  28  29
ATOM     29  C   UNL A   1      41.177  20.915  27.563  1.00  0.00     0.188 C 
BRANCH  29  30
ATOM     30  O   UNL A   1      42.219  19.989  27.309  1.00  0.00    -0.376 OA
BRANCH  30  31
ATOM     31  C   UNL A   1      42.174  19.277  26.085  1.00  0.00     0.202 C 
BRANCH  31  32
ATOM     32  C   UNL A   1      43.361  18.355  25.774  1.00  0.00     0.261 C 
BRANCH  32  33
ATOM     33  O   UNL A   1      44.595  19.005  25.431  1.00  0.00    -0.460 OA
BRANCH  33  34
ATOM     34  C   UNL A   1      44.611  19.767  24.318  1.00  0.00     0.338 C 
ATOM     35  O   UNL A   1      44.254  19.446  23.195  1.00  0.00    -0.246 OA
BRANCH  34  36
ATOM     36  C   UNL A   1      44.966  21.141  24.725  1.00  0.00     0.060 A 
ATOM     37  C   UNL A   1      45.347  21.389  26.051  1.00  0.00     0.016 A 
ATOM     38  C   UNL A   1      44.946  22.178  23.789  1.00  0.00     0.016 A 
ATOM     39  C   UNL A   1      45.680  22.684  26.452  1.00  0.00     0.010 A 
ATOM     40  C   UNL A   1      45.256  23.476  24.196  1.00  0.00     0.010 A 
ATOM     41  C   UNL A   1      45.593  23.741  25.536  1.00  0.00    -0.014 A 
BRANCH  41  42
ATOM     42  C   UNL A   1      45.651  25.142  26.017  1.00  0.00     0.031 A 
ATOM     43  C   UNL A   1      46.978  25.849  25.983  1.00  0.00     0.074 A 
ATOM     44  C   UNL A   1      44.557  25.780  26.466  1.00  0.00     0.049 A 
ATOM     45  N   UNL A   1      47.299  27.047  26.401  1.00  0.00    -0.248 NA
ATOM     46  C   UNL A   1      48.099  25.093  25.401  1.00  0.00     0.031 C 
ATOM     47  C   UNL A   1      43.210  25.218  26.509  1.00  0.00     0.029 A 
ATOM     48  N   UNL A   1      44.416  27.044  26.983  1.00  0.00    -0.354 N 
ATOM     49  C   UNL A   1      48.655  27.183  26.141  1.00  0.00     0.074 A 
ATOM     50  C   UNL A   1      49.106  25.936  25.564  1.00  0.00     0.031 C 
ATOM     51  C   UNL A   1      42.376  26.132  27.036  1.00  0.00     0.029 A 
ATOM     52  C   UNL A   1      43.139  27.326  27.401  1.00  0.00     0.049 A 
ATOM     53  H   UNL A   1      45.158  27.686  27.048  1.00  0.00     0.167 HD
ATOM     54  C   UNL A   1      49.453  28.256  26.357  1.00  0.00     0.037 A 
ATOM     55  C   UNL A   1      42.652  28.415  28.028  1.00  0.00     0.037 A 
ATOM     56  C   UNL A   1      49.002  29.492  26.942  1.00  0.00     0.049 A 
ATOM     57  C   UNL A   1      43.578  29.566  28.338  1.00  0.00     0.074 A 
ATOM     58  C   UNL A   1      49.724  30.646  27.186  1.00  0.00     0.029 A 
ATOM     59  N   UNL A   1      47.709  29.727  27.388  1.00  0.00    -0.354 N 
ATOM     60  N   UNL A   1      44.852  29.704  28.063  1.00  0.00    -0.248 NA
ATOM     61  C   UNL A   1      42.992  30.714  29.045  1.00  0.00     0.031 C 
ATOM     62  C   UNL A   1      48.886  31.554  27.841  1.00  0.00     0.029 A 
ATOM     63  C   UNL A   1      47.622  30.995  27.938  1.00  0.00     0.049 A 
ATOM     64  H   UNL A   1      46.963  29.087  27.322  1.00  0.00     0.167 HD
ATOM     65  C   UNL A   1      45.213  30.962  28.532  1.00  0.00     0.074 A 
ATOM     66  C   UNL A   1      44.018  31.552  29.098  1.00  0.00     0.031 C 
ATOM     67  C   UNL A   1      46.423  31.574  28.494  1.00  0.00     0.037 A 
BRANCH  54  68
ATOM     68  C   UNL A   1      50.906  28.119  25.997  1.00  0.00     0.064 A 
ATOM     69  C   UNL A   1      51.887  27.845  26.963  1.00  0.00     0.173 A 
ATOM     70  C   UNL A   1      51.320  28.255  24.664  1.00  0.00     0.173 A 
ATOM     71  F   UNL A   1      51.548  27.721  28.255  1.00  0.00    -0.203 F 
ATOM     72  C   UNL A   1      53.232  27.752  26.611  1.00  0.00     0.198 A 
ATOM     73  C   UNL A   1      52.660  28.125  24.311  1.00  0.00     0.198 A 
ATOM     74  F   UNL A   1      50.423  28.513  23.699  1.00  0.00    -0.203 F 
ATOM     75  F   UNL A   1      54.158  27.554  27.558  1.00  0.00    -0.200 F 
ATOM     76  C   UNL A   1      53.616  27.884  25.285  1.00  0.00     0.200 A 
ATOM     77  F   UNL A   1      53.027  28.238  23.027  1.00  0.00    -0.200 F 
ATOM     78  F   UNL A   1      54.910  27.791  24.948  1.00  0.00    -0.200 F 
ENDBRANCH  54  68
BRANCH  55  79
ATOM     79  C   UNL A   1      41.217  28.471  28.414  1.00  0.00     0.064 A 
ATOM     80  C   UNL A   1      40.254  29.000  27.543  1.00  0.00     0.173 A 
ATOM     81  C   UNL A   1      40.779  28.009  29.665  1.00  0.00     0.173 A 
ATOM     82  F   UNL A   1      40.625  29.481  26.348  1.00  0.00    -0.203 F 
ATOM     83  C   UNL A   1      38.913  29.081  27.915  1.00  0.00     0.198 A 
ATOM     84  C   UNL A   1      39.434  28.061  30.022  1.00  0.00     0.198 A 
ATOM     85  F   UNL A   1      41.659  27.498  30.537  1.00  0.00    -0.203 F 
ATOM     86  F   UNL A   1      38.022  29.636  27.082  1.00  0.00    -0.200 F 
ATOM     87  C   UNL A   1      38.503  28.604  29.150  1.00  0.00     0.200 A 
ATOM     88  F   UNL A   1      39.040  27.588  31.213  1.00  0.00    -0.200 F 
ATOM     89  F   UNL A   1      37.212  28.676  29.504  1.00  0.00    -0.200 F 
ENDBRANCH  55  79
BRANCH  67  90
ATOM     90  C   UNL A   1      46.512  32.973  29.040  1.00  0.00     0.064 A 
ATOM     91  C   UNL A   1      46.859  33.228  30.374  1.00  0.00     0.173 A 
ATOM     92  C   UNL A   1      46.291  34.076  28.200  1.00  0.00     0.173 A 
ATOM     93  F   UNL A   1      47.070  32.211  31.225  1.00  0.00    -0.203 F 
ATOM     94  C   UNL A   1      46.952  34.533  30.854  1.00  0.00     0.198 A 
ATOM     95  C   UNL A   1      46.419  35.378  28.673  1.00  0.00     0.198 A 
ATOM     96  F   UNL A   1      45.965  33.891  26.911  1.00  0.00    -0.203 F 
ATOM     97  F   UNL A   1      47.231  34.751  32.147  1.00  0.00    -0.200 F 
ATOM     98  C   UNL A   1      46.740  35.606  30.002  1.00  0.00     0.200 A 
ATOM     99  F   UNL A   1      46.234  36.413  27.842  1.00  0.00    -0.200 F 
ATOM    100  F   UNL A   1      46.839  36.860  30.463  1.00  0.00    -0.200 F 
ENDBRANCH  67  90
ENDBRANCH  41  42
ENDBRANCH  34  36
ENDBRANCH  33  34
ENDBRANCH  32  33
ENDBRANCH  31  32
ENDBRANCH  30  31
ENDBRANCH  29  30
ENDBRANCH  28  29
ENDBRANCH  27  28
ENDBRANCH   1  27
TORSDOF 23
ENDMDL
MODEL 2
REMARK VINA RESULT:     -10.0      5.134     10.202
REMARK SMILES Cc1cc(C(=O)OCCOCCOCCOCCOC(=O)c2ccc(-c3c4nc(c(-c5c(F)c(F)c(F)c(F)c5F)c5ccc([nH]5)c(-c5c(F)c(F)c(F)c(F)c5F)c5nc(c(-c6c(F)c(F)c(F)c(F)c6F)c6ccc3[nH]6)C=C5)C=C4)cc2)cc(C)c1OC[C@H]1C[N@@H+](C)CCO1
REMARK SMILES IDX 12 1 11 2 10 3 9 4 8 5 7 6 5 7 6 8 4 9 1 10 2 11 3 12 88 13
REMARK SMILES IDX 86 14 85 15 87 16 89 17 90 18 91 19 92 20 97 21 93 22 96 23
REMARK SMILES IDX 94 24 95 25 13 27 14 28 15 29 16 30 17 31 18 32 19 33 20 34
REMARK SMILES IDX 21 35 22 36 23 37 84 38 24 39 83 40 25 41 26 42 27 43 77 44
REMARK SMILES IDX 28 45 82 46 76 47 78 48 29 49 81 50 75 51 74 52 30 54 62 55
REMARK SMILES IDX 42 56 61 57 43 58 46 59 60 60 79 61 44 62 45 63 59 65 80 66
REMARK SMILES IDX 47 67 31 68 32 69 40 70 33 71 34 72 38 73 41 74 35 75 36 76
REMARK SMILES IDX 39 77 37 78 63 79 64 80 72 81 65 82 66 83 70 84 73 85 67 86
REMARK SMILES IDX 68 87 71 88 69 89 48 90 49 91 57 92 50 93 51 94 55 95 58 96
REMARK SMILES IDX 52 97 53 98 56 99 54 100
REMARK H PARENT 93 26 78 53 46 64
REMARK Flexibility Score: inf
ROOT
ATOM      1  C   UNL A   1      33.277  25.129  26.175  1.00  0.00     0.188 C 
ENDROOT
BRANCH   1   2
ATOM      2  C   UNL A   1      32.252  24.009  26.458  1.00  0.00     0.188 C 
BRANCH   2   3
ATOM      3  O   UNL A   1      32.821  22.716  26.558  1.00  0.00    -0.376 OA
BRANCH   3   4
ATOM      4  C   UNL A   1      33.877  22.383  25.675  1.00  0.00     0.202 C 
BRANCH   4   5
ATOM      5  C   UNL A   1      33.544  21.556  24.421  1.00  0.00     0.261 C 
BRANCH   5   6
ATOM      6  O   UNL A   1      33.198  22.303  23.244  1.00  0.00    -0.460 OA
BRANCH   6   7
ATOM      7  C   UNL A   1      34.028  23.314  22.902  1.00  0.00     0.338 C 
ATOM      8  O   UNL A   1      35.202  23.215  22.590  1.00  0.00    -0.246 OA
BRANCH   7   9
ATOM      9  C   UNL A   1      33.215  24.537  22.707  1.00  0.00     0.060 A 
ATOM     10  C   UNL A   1      29.718  25.376  23.652  1.00  0.00     0.048 C 
ATOM     11  C   UNL A   1      31.016  25.563  22.929  1.00  0.00    -0.008 A 
ATOM     12  C   UNL A   1      31.840  24.425  22.902  1.00  0.00     0.023 A 
ATOM     13  C   UNL A   1      31.522  26.785  22.475  1.00  0.00     0.125 A 
ATOM     14  C   UNL A   1      32.929  26.918  22.347  1.00  0.00    -0.008 A 
ATOM     15  C   UNL A   1      33.771  25.797  22.508  1.00  0.00     0.023 A 
ATOM     16  C   UNL A   1      33.586  28.264  22.164  1.00  0.00     0.048 C 
BRANCH  13  17
ATOM     17  O   UNL A   1      30.799  27.903  22.171  1.00  0.00    -0.490 OA
BRANCH  17  18
ATOM     18  C   UNL A   1      30.222  28.793  23.154  1.00  0.00     0.267 C 
BRANCH  18  19
ATOM     19  C   UNL A   1      29.840  30.235  22.737  1.00  0.00     0.210 C 
ATOM     20  C   UNL A   1      28.741  30.220  21.652  1.00  0.00     0.298 C 
ATOM     21  O   UNL A   1      29.267  30.969  23.855  1.00  0.00    -0.363 OA
ATOM     22  N   UNL A   1      28.654  31.585  21.110  1.00  0.00    -0.333 N 
ATOM     23  C   UNL A   1      28.949  32.326  23.464  1.00  0.00     0.222 C 
ATOM     24  C   UNL A   1      27.916  31.644  19.861  1.00  0.00     0.332 C 
ATOM     25  C   UNL A   1      28.093  32.430  22.174  1.00  0.00     0.290 C 
ATOM     26  H   UNL A   1      29.579  31.931  20.855  1.00  0.00     0.348 HD
ENDBRANCH  18  19
ENDBRANCH  17  18
ENDBRANCH  13  17
ENDBRANCH   7   9
ENDBRANCH   6   7
ENDBRANCH   5   6
ENDBRANCH   4   5
ENDBRANCH   3   4
ENDBRANCH   2   3
ENDBRANCH   1   2
BRANCH   1  27
ATOM     27  O   UNL A   1      32.820  26.449  25.917  1.00  0.00    -0.377 OA
BRANCH  27  28
ATOM     28  C   UNL A   1      31.646  26.930  26.564  1.00  0.00     0.188 C 
BRANCH  28  29
ATOM     29  C   UNL A   1      31.690  28.161  27.501  1.00  0.00     0.188 C 
BRANCH  29  30
ATOM     30  O   UNL A   1      31.187  29.356  26.930  1.00  0.00    -0.376 OA
BRANCH  30  31
ATOM     31  C   UNL A   1      32.031  30.055  26.032  1.00  0.00     0.202 C 
BRANCH  31  32
ATOM     32  C   UNL A   1      33.453  30.369  26.517  1.00  0.00     0.261 C 
BRANCH  32  33
ATOM     33  O   UNL A   1      33.554  31.159  27.712  1.00  0.00    -0.460 OA
BRANCH  33  34
ATOM     34  C   UNL A   1      34.511  32.109  27.754  1.00  0.00     0.338 C 
ATOM     35  O   UNL A   1      34.379  33.304  27.539  1.00  0.00    -0.246 OA
BRANCH  34  36
ATOM     36  C   UNL A   1      35.735  31.483  28.294  1.00  0.00     0.060 A 
ATOM     37  C   UNL A   1      35.696  30.147  28.716  1.00  0.00     0.016 A 
ATOM     38  C   UNL A   1      36.925  32.211  28.358  1.00  0.00     0.016 A 
ATOM     39  C   UNL A   1      36.843  29.545  29.234  1.00  0.00     0.010 A 
ATOM     40  C   UNL A   1      38.066  31.615  28.897  1.00  0.00     0.010 A 
ATOM     41  C   UNL A   1      38.022  30.290  29.368  1.00  0.00    -0.014 A 
BRANCH  41  42
ATOM     42  C   UNL A   1      39.143  29.759  30.180  1.00  0.00     0.031 A 
ATOM     43  C   UNL A   1      39.310  30.277  31.582  1.00  0.00     0.074 A 
ATOM     44  C   UNL A   1      39.989  28.836  29.696  1.00  0.00     0.049 A 
ATOM     45  N   UNL A   1      40.239  30.015  32.465  1.00  0.00    -0.248 NA
ATOM     46  C   UNL A   1      38.286  31.227  32.048  1.00  0.00     0.031 C 
ATOM     47  C   UNL A   1      39.907  28.227  28.371  1.00  0.00     0.029 A 
ATOM     48  N   UNL A   1      41.095  28.257  30.268  1.00  0.00    -0.354 N 
ATOM     49  C   UNL A   1      39.918  30.773  33.583  1.00  0.00     0.074 A 
ATOM     50  C   UNL A   1      38.730  31.531  33.257  1.00  0.00     0.031 C 
ATOM     51  C   UNL A   1      40.929  27.364  28.226  1.00  0.00     0.029 A 
ATOM     52  C   UNL A   1      41.756  27.391  29.433  1.00  0.00     0.049 A 
ATOM     53  H   UNL A   1      41.387  28.446  31.189  1.00  0.00     0.167 HD
ATOM     54  C   UNL A   1      40.552  30.826  34.779  1.00  0.00     0.037 A 
ATOM     55  C   UNL A   1      42.909  26.717  29.618  1.00  0.00     0.037 A 
ATOM     56  C   UNL A   1      41.739  30.076  35.095  1.00  0.00     0.049 A 
ATOM     57  C   UNL A   1      43.647  26.858  30.927  1.00  0.00     0.074 A 
ATOM     58  C   UNL A   1      42.448  30.044  36.283  1.00  0.00     0.029 A 
ATOM     59  N   UNL A   1      42.402  29.238  34.211  1.00  0.00    -0.354 N 
ATOM     60  N   UNL A   1      43.323  27.551  31.992  1.00  0.00    -0.248 NA
ATOM     61  C   UNL A   1      44.910  26.118  31.057  1.00  0.00     0.031 C 
ATOM     62  C   UNL A   1      43.576  29.238  36.095  1.00  0.00     0.029 A 
ATOM     63  C   UNL A   1      43.531  28.709  34.815  1.00  0.00     0.049 A 
ATOM     64  H   UNL A   1      42.111  29.045  33.289  1.00  0.00     0.167 HD
ATOM     65  C   UNL A   1      44.322  27.307  32.928  1.00  0.00     0.074 A 
ATOM     66  C   UNL A   1      45.256  26.390  32.307  1.00  0.00     0.031 C 
ATOM     67  C   UNL A   1      44.452  27.793  34.187  1.00  0.00     0.037 A 
BRANCH  54  68
ATOM     68  C   UNL A   1      39.992  31.759  35.815  1.00  0.00     0.064 A 
ATOM     69  C   UNL A   1      40.576  33.007  36.082  1.00  0.00     0.173 A 
ATOM     70  C   UNL A   1      38.849  31.402  36.545  1.00  0.00     0.173 A 
ATOM     71  F   UNL A   1      41.680  33.392  35.424  1.00  0.00    -0.203 F 
ATOM     72  C   UNL A   1      40.059  33.844  37.069  1.00  0.00     0.198 A 
ATOM     73  C   UNL A   1      38.313  32.257  37.505  1.00  0.00     0.198 A 
ATOM     74  F   UNL A   1      38.247  30.222  36.328  1.00  0.00    -0.203 F 
ATOM     75  F   UNL A   1      40.670  35.002  37.350  1.00  0.00    -0.200 F 
ATOM     76  C   UNL A   1      38.924  33.472  37.773  1.00  0.00     0.200 A 
ATOM     77  F   UNL A   1      37.208  31.902  38.173  1.00  0.00    -0.200 F 
ATOM     78  F   UNL A   1      38.426  34.280  38.719  1.00  0.00    -0.200 F 
ENDBRANCH  54  68
BRANCH  55  79
ATOM     79  C   UNL A   1      43.446  25.853  28.533  1.00  0.00     0.064 A 
ATOM     80  C   UNL A   1      44.266  26.383  27.526  1.00  0.00     0.173 A 
ATOM     81  C   UNL A   1      43.141  24.485  28.471  1.00  0.00     0.173 A 
ATOM     82  F   UNL A   1      44.563  27.690  27.524  1.00  0.00    -0.203 F 
ATOM     83  C   UNL A   1      44.745  25.581  26.492  1.00  0.00     0.198 A 
ATOM     84  C   UNL A   1      43.647  23.679  27.454  1.00  0.00     0.198 A 
ATOM     85  F   UNL A   1      42.357  23.929  29.405  1.00  0.00    -0.203 F 
ATOM     86  F   UNL A   1      45.487  26.123  25.516  1.00  0.00    -0.200 F 
ATOM     87  C   UNL A   1      44.443  24.228  26.461  1.00  0.00     0.200 A 
ATOM     88  F   UNL A   1      43.361  22.369  27.435  1.00  0.00    -0.200 F 
ATOM     89  F   UNL A   1      44.911  23.457  25.470  1.00  0.00    -0.200 F 
ENDBRANCH  55  79
BRANCH  67  90
ATOM     90  C   UNL A   1      45.622  27.314  35.001  1.00  0.00     0.064 A 
ATOM     91  C   UNL A   1      45.557  26.151  35.782  1.00  0.00     0.173 A 
ATOM     92  C   UNL A   1      46.843  28.006  34.961  1.00  0.00     0.173 A 
ATOM     93  F   UNL A   1      44.411  25.456  35.865  1.00  0.00    -0.203 F 
ATOM     94  C   UNL A   1      46.659  25.716  36.515  1.00  0.00     0.198 A 
ATOM     95  C   UNL A   1      47.953  27.551  35.666  1.00  0.00     0.198 A 
ATOM     96  F   UNL A   1      46.966  29.121  34.223  1.00  0.00    -0.203 F 
ATOM     97  F   UNL A   1      46.556  24.633  37.297  1.00  0.00    -0.200 F 
ATOM     98  C   UNL A   1      47.857  26.411  36.450  1.00  0.00     0.200 A 
ATOM     99  F   UNL A   1      49.115  28.212  35.586  1.00  0.00    -0.200 F 
ATOM    100  F   UNL A   1      48.919  25.987  37.149  1.00  0.00    -0.200 F 
ENDBRANCH  67  90
ENDBRANCH  41  42
ENDBRANCH  34  36
ENDBRANCH  33  34
ENDBRANCH  32  33
ENDBRANCH  31  32
ENDBRANCH  30  31
ENDBRANCH  29  30
ENDBRANCH  28  29
ENDBRANCH  27  28
ENDBRANCH   1  27
TORSDOF 23
ENDMDL
MODEL 3
REMARK VINA RESULT:      -9.8      5.357      9.291
REMARK SMILES Cc1cc(C(=O)OCCOCCOCCOCCOC(=O)c2ccc(-c3c4nc(c(-c5c(F)c(F)c(F)c(F)c5F)c5ccc([nH]5)c(-c5c(F)c(F)c(F)c(F)c5F)c5nc(c(-c6c(F)c(F)c(F)c(F)c6F)c6ccc3[nH]6)C=C5)C=C4)cc2)cc(C)c1OC[C@H]1C[N@@H+](C)CCO1
REMARK SMILES IDX 12 1 11 2 10 3 9 4 8 5 7 6 5 7 6 8 4 9 1 10 2 11 3 12 88 13
REMARK SMILES IDX 86 14 85 15 87 16 89 17 90 18 91 19 92 20 97 21 93 22 96 23
REMARK SMILES IDX 94 24 95 25 13 27 14 28 15 29 16 30 17 31 18 32 19 33 20 34
REMARK SMILES IDX 21 35 22 36 23 37 84 38 24 39 83 40 25 41 26 42 27 43 77 44
REMARK SMILES IDX 28 45 82 46 76 47 78 48 29 49 81 50 75 51 74 52 30 54 62 55
REMARK SMILES IDX 42 56 61 57 43 58 46 59 60 60 79 61 44 62 45 63 59 65 80 66
REMARK SMILES IDX 47 67 31 68 32 69 40 70 33 71 34 72 38 73 41 74 35 75 36 76
REMARK SMILES IDX 39 77 37 78 63 79 64 80 72 81 65 82 66 83 70 84 73 85 67 86
REMARK SMILES IDX 68 87 71 88 69 89 48 90 49 91 57 92 50 93 51 94 55 95 58 96
REMARK SMILES IDX 52 97 53 98 56 99 54 100
REMARK H PARENT 93 26 78 53 46 64
REMARK Flexibility Score: inf
ROOT
ATOM      1  C   UNL A   1      33.603  24.432  26.600  1.00  0.00     0.188 C 
ENDROOT
BRANCH   1   2
ATOM      2  C   UNL A   1      32.414  23.450  26.518  1.00  0.00     0.188 C 
BRANCH   2   3
ATOM      3  O   UNL A   1      32.794  22.089  26.411  1.00  0.00    -0.376 OA
BRANCH   3   4
ATOM      4  C   UNL A   1      34.028  21.790  25.785  1.00  0.00     0.202 C 
BRANCH   4   5
ATOM      5  C   UNL A   1      34.000  21.083  24.419  1.00  0.00     0.261 C 
BRANCH   5   6
ATOM      6  O   UNL A   1      33.717  21.913  23.282  1.00  0.00    -0.460 OA
BRANCH   6   7
ATOM      7  C   UNL A   1      34.476  23.023  23.138  1.00  0.00     0.338 C 
ATOM      8  O   UNL A   1      35.688  23.064  23.026  1.00  0.00    -0.246 OA
BRANCH   7   9
ATOM      9  C   UNL A   1      33.576  24.170  22.869  1.00  0.00     0.060 A 
ATOM     10  C   UNL A   1      29.946  24.681  23.491  1.00  0.00     0.048 C 
ATOM     11  C   UNL A   1      31.282  24.990  22.890  1.00  0.00    -0.008 A 
ATOM     12  C   UNL A   1      32.205  23.932  22.938  1.00  0.00     0.023 A 
ATOM     13  C   UNL A   1      31.714  26.256  22.483  1.00  0.00     0.125 A 
ATOM     14  C   UNL A   1      33.108  26.518  22.485  1.00  0.00    -0.008 A 
ATOM     15  C   UNL A   1      34.031  25.476  22.722  1.00  0.00     0.023 A 
ATOM     16  C   UNL A   1      33.655  27.919  22.362  1.00  0.00     0.048 C 
BRANCH  13  17
ATOM     17  O   UNL A   1      30.923  27.307  22.114  1.00  0.00    -0.490 OA
BRANCH  17  18
ATOM     18  C   UNL A   1      30.017  27.998  23.005  1.00  0.00     0.267 C 
BRANCH  18  19
ATOM     19  C   UNL A   1      29.111  29.120  22.442  1.00  0.00     0.210 C 
ATOM     20  C   UNL A   1      28.898  30.233  23.491  1.00  0.00     0.298 C 
ATOM     21  O   UNL A   1      29.736  29.778  21.304  1.00  0.00    -0.363 OA
ATOM     22  N   UNL A   1      27.809  31.088  22.995  1.00  0.00    -0.333 N 
ATOM     23  C   UNL A   1      28.864  30.798  20.764  1.00  0.00     0.222 C 
ATOM     24  C   UNL A   1      27.272  31.962  24.023  1.00  0.00     0.332 C 
ATOM     25  C   UNL A   1      28.330  31.802  21.820  1.00  0.00     0.290 C 
ATOM     26  H   UNL A   1      27.004  30.525  22.720  1.00  0.00     0.348 HD
ENDBRANCH  18  19
ENDBRANCH  17  18
ENDBRANCH  13  17
ENDBRANCH   7   9
ENDBRANCH   6   7
ENDBRANCH   5   6
ENDBRANCH   4   5
ENDBRANCH   3   4
ENDBRANCH   2   3
ENDBRANCH   1   2
BRANCH   1  27
ATOM     27  O   UNL A   1      33.481  25.728  26.030  1.00  0.00    -0.377 OA
BRANCH  27  28
ATOM     28  C   UNL A   1      32.330  26.518  26.307  1.00  0.00     0.188 C 
BRANCH  28  29
ATOM     29  C   UNL A   1      32.449  27.912  26.969  1.00  0.00     0.188 C 
BRANCH  29  30
ATOM     30  O   UNL A   1      31.407  28.813  26.642  1.00  0.00    -0.376 OA
BRANCH  30  31
ATOM     31  C   UNL A   1      31.693  29.823  25.690  1.00  0.00     0.202 C 
BRANCH  31  32
ATOM     32  C   UNL A   1      32.795  30.827  26.053  1.00  0.00     0.261 C 
BRANCH  32  33
ATOM     33  O   UNL A   1      32.700  31.430  27.354  1.00  0.00    -0.460 OA
BRANCH  33  34
ATOM     34  C   UNL A   1      33.512  32.473  27.620  1.00  0.00     0.338 C 
ATOM     35  O   UNL A   1      33.238  33.661  27.550  1.00  0.00    -0.246 OA
BRANCH  34  36
ATOM     36  C   UNL A   1      34.757  31.930  28.200  1.00  0.00     0.060 A 
ATOM     37  C   UNL A   1      34.747  30.653  28.778  1.00  0.00     0.016 A 
ATOM     38  C   UNL A   1      35.937  32.675  28.149  1.00  0.00     0.016 A 
ATOM     39  C   UNL A   1      35.914  30.130  29.335  1.00  0.00     0.010 A 
ATOM     40  C   UNL A   1      37.099  32.160  28.728  1.00  0.00     0.010 A 
ATOM     41  C   UNL A   1      37.085  30.900  29.352  1.00  0.00    -0.014 A 
BRANCH  41  42
ATOM     42  C   UNL A   1      38.231  30.482  30.194  1.00  0.00     0.031 A 
ATOM     43  C   UNL A   1      39.220  29.509  29.614  1.00  0.00     0.074 A 
ATOM     44  C   UNL A   1      38.402  30.958  31.438  1.00  0.00     0.049 A 
ATOM     45  N   UNL A   1      40.266  28.950  30.167  1.00  0.00    -0.248 NA
ATOM     46  C   UNL A   1      38.990  29.108  28.216  1.00  0.00     0.031 C 
ATOM     47  C   UNL A   1      37.539  31.935  32.095  1.00  0.00     0.029 A 
ATOM     48  N   UNL A   1      39.362  30.668  32.376  1.00  0.00    -0.354 N 
ATOM     49  C   UNL A   1      40.810  28.127  29.190  1.00  0.00     0.074 A 
ATOM     50  C   UNL A   1      39.962  28.231  28.024  1.00  0.00     0.031 C 
ATOM     51  C   UNL A   1      38.003  32.158  33.338  1.00  0.00     0.029 A 
ATOM     52  C   UNL A   1      39.172  31.311  33.574  1.00  0.00     0.049 A 
ATOM     53  H   UNL A   1      40.115  30.058  32.206  1.00  0.00     0.167 HD
ATOM     54  C   UNL A   1      41.924  27.359  29.258  1.00  0.00     0.037 A 
ATOM     55  C   UNL A   1      39.851  31.205  34.733  1.00  0.00     0.037 A 
ATOM     56  C   UNL A   1      42.760  27.251  30.425  1.00  0.00     0.049 A 
ATOM     57  C   UNL A   1      41.038  30.276  34.813  1.00  0.00     0.074 A 
ATOM     58  C   UNL A   1      43.920  26.516  30.591  1.00  0.00     0.029 A 
ATOM     59  N   UNL A   1      42.513  27.888  31.633  1.00  0.00    -0.354 N 
ATOM     60  N   UNL A   1      41.568  29.524  33.879  1.00  0.00    -0.248 NA
ATOM     61  C   UNL A   1      41.722  30.187  36.111  1.00  0.00     0.031 C 
ATOM     62  C   UNL A   1      44.337  26.655  31.918  1.00  0.00     0.029 A 
ATOM     63  C   UNL A   1      43.480  27.535  32.560  1.00  0.00     0.049 A 
ATOM     64  H   UNL A   1      41.762  28.501  31.805  1.00  0.00     0.167 HD
ATOM     65  C   UNL A   1      42.663  28.898  34.465  1.00  0.00     0.074 A 
ATOM     66  C   UNL A   1      42.728  29.371  35.832  1.00  0.00     0.031 C 
ATOM     67  C   UNL A   1      43.537  28.017  33.919  1.00  0.00     0.037 A 
BRANCH  54  68
ATOM     68  C   UNL A   1      42.273  26.543  28.045  1.00  0.00     0.064 A 
ATOM     69  C   UNL A   1      43.181  27.002  27.078  1.00  0.00     0.173 A 
ATOM     70  C   UNL A   1      41.697  25.278  27.854  1.00  0.00     0.173 A 
ATOM     71  F   UNL A   1      43.750  28.211  27.204  1.00  0.00    -0.203 F 
ATOM     72  C   UNL A   1      43.467  26.242  25.946  1.00  0.00     0.198 A 
ATOM     73  C   UNL A   1      42.014  24.506  26.740  1.00  0.00     0.198 A 
ATOM     74  F   UNL A   1      40.826  24.788  28.749  1.00  0.00    -0.203 F 
ATOM     75  F   UNL A   1      44.287  26.728  25.005  1.00  0.00    -0.200 F 
ATOM     76  C   UNL A   1      42.889  24.992  25.782  1.00  0.00     0.200 A 
ATOM     77  F   UNL A   1      41.466  23.292  26.590  1.00  0.00    -0.200 F 
ATOM     78  F   UNL A   1      43.169  24.261  24.694  1.00  0.00    -0.200 F 
ENDBRANCH  54  68
BRANCH  55  79
ATOM     79  C   UNL A   1      39.423  31.993  35.920  1.00  0.00     0.064 A 
ATOM     80  C   UNL A   1      38.417  31.522  36.775  1.00  0.00     0.173 A 
ATOM     81  C   UNL A   1      39.999  33.238  36.216  1.00  0.00     0.173 A 
ATOM     82  F   UNL A   1      37.815  30.352  36.520  1.00  0.00    -0.203 F 
ATOM     83  C   UNL A   1      37.993  32.273  37.870  1.00  0.00     0.198 A 
ATOM     84  C   UNL A   1      39.596  33.973  37.329  1.00  0.00     0.198 A 
ATOM     85  F   UNL A   1      40.961  33.737  35.427  1.00  0.00    -0.203 F 
ATOM     86  F   UNL A   1      36.997  31.821  38.644  1.00  0.00    -0.200 F 
ATOM     87  C   UNL A   1      38.589  33.493  38.151  1.00  0.00     0.200 A 
ATOM     88  F   UNL A   1      40.183  35.147  37.602  1.00  0.00    -0.200 F 
ATOM     89  F   UNL A   1      38.185  34.211  39.209  1.00  0.00    -0.200 F 
ENDBRANCH  55  79
BRANCH  67  90
ATOM     90  C   UNL A   1      44.669  27.533  34.783  1.00  0.00     0.064 A 
ATOM     91  C   UNL A   1      45.871  28.245  34.898  1.00  0.00     0.173 A 
ATOM     92  C   UNL A   1      44.528  26.361  35.543  1.00  0.00     0.173 A 
ATOM     93  F   UNL A   1      46.064  29.366  34.186  1.00  0.00    -0.203 F 
ATOM     94  C   UNL A   1      46.900  27.787  35.718  1.00  0.00     0.198 A 
ATOM     95  C   UNL A   1      45.544  25.924  36.389  1.00  0.00     0.198 A 
ATOM     96  F   UNL A   1      43.395  25.644  35.479  1.00  0.00    -0.203 F 
ATOM     97  F   UNL A   1      48.061  28.455  35.770  1.00  0.00    -0.200 F 
ATOM     98  C   UNL A   1      46.733  26.633  36.468  1.00  0.00     0.200 A 
ATOM     99  F   UNL A   1      45.371  24.820  37.127  1.00  0.00    -0.200 F 
ATOM    100  F   UNL A   1      47.720  26.198  37.263  1.00  0.00    -0.200 F 
ENDBRANCH  67  90
ENDBRANCH  41  42
ENDBRANCH  34  36
ENDBRANCH  33  34
ENDBRANCH  32  33
ENDBRANCH  31  32
ENDBRANCH  30  31
ENDBRANCH  29  30
ENDBRANCH  28  29
ENDBRANCH  27  28
ENDBRANCH   1  27
TORSDOF 23
ENDMDL
