MODEL 1
REMARK VINA RESULT:     -11.4      0.000      0.000
REMARK SMILES Cc1cccc2nc([C@@H]3CCCC[C@@H]3C(=O)OCCOCCOCCOCCOC(=O)c3ccc(-c4c5nc(c(-c6c(F)c(F)c(F)c(F)c6F)c6ccc([nH]6)c(-c6c(F)c(F)c(F)c(F)c6F)c6nc(c(-c7c(F)c(F)c(F)c(F)c7F)c7ccc4[nH]7)C=C6)C=C5)cc3)oc12
REMARK SMILES IDX 24 1 23 2 22 3 21 4 20 5 19 6 18 7 17 8 15 9 16 10 14 11
REMARK SMILES IDX 9 12 10 13 11 14 13 15 12 16 8 17 1 18 2 19 3 20 96 21 4 22
REMARK SMILES IDX 6 23 95 24 5 25 7 26 25 27 26 28 27 29 28 30 29 31 30 32
REMARK SMILES IDX 31 33 32 34 33 35 94 36 34 37 93 38 35 39 36 40 37 41 87 42
REMARK SMILES IDX 38 43 92 44 86 45 88 46 39 47 91 48 85 49 84 50 40 52 72 53
REMARK SMILES IDX 52 54 71 55 53 56 56 57 70 58 89 59 54 60 55 61 69 63 90 64
REMARK SMILES IDX 57 65 41 66 42 67 50 68 43 69 44 70 48 71 51 72 45 73 46 74
REMARK SMILES IDX 49 75 47 76 73 77 74 78 82 79 75 80 76 81 80 82 83 83 77 84
REMARK SMILES IDX 78 85 81 86 79 87 58 88 59 89 67 90 60 91 61 92 65 93 68 94
REMARK SMILES IDX 62 95 63 96 66 97 64 98
REMARK H PARENT 88 51 56 62
REMARK Flexibility Score: inf
ROOT
ATOM      1  C   UNL A   1      33.334  34.869  29.848  1.00  0.00     0.188 C 
ENDROOT
BRANCH   1   2
ATOM      2  O   UNL A   1      34.286  34.182  29.056  1.00  0.00    -0.377 OA
BRANCH   2   3
ATOM      3  C   UNL A   1      33.813  33.363  27.989  1.00  0.00     0.188 C 
BRANCH   3   4
ATOM      4  C   UNL A   1      34.070  31.837  27.935  1.00  0.00     0.188 C 
BRANCH   4   5
ATOM      5  O   UNL A   1      32.969  31.068  27.479  1.00  0.00    -0.376 OA
BRANCH   5   6
ATOM      6  C   UNL A   1      33.291  29.865  26.811  1.00  0.00     0.202 C 
BRANCH   6   7
ATOM      7  C   UNL A   1      32.446  28.668  27.258  1.00  0.00     0.261 C 
BRANCH   7   8
ATOM      8  O   UNL A   1      32.898  27.380  26.793  1.00  0.00    -0.463 OA
BRANCH   8   9
ATOM      9  C   UNL A   1      32.189  26.795  25.786  1.00  0.00     0.309 C 
ATOM     10  O   UNL A   1      31.220  26.074  25.970  1.00  0.00    -0.252 OA
BRANCH   9  11
ATOM     11  C   UNL A   1      32.830  27.123  24.433  1.00  0.00     0.111 C 
ATOM     12  C   UNL A   1      31.923  27.045  23.182  1.00  0.00     0.090 C 
ATOM     13  C   UNL A   1      31.361  25.632  22.994  1.00  0.00     0.014 C 
ATOM     14  C   UNL A   1      32.463  24.568  22.996  1.00  0.00     0.001 C 
ATOM     15  C   UNL A   1      33.999  26.140  24.280  1.00  0.00     0.016 C 
ATOM     16  C   UNL A   1      33.498  24.707  24.113  1.00  0.00     0.001 C 
BRANCH  12  17
ATOM     17  C   UNL A   1      30.834  28.082  23.063  1.00  0.00     0.199 A 
ATOM     18  C   UNL A   1      30.203  31.955  25.151  1.00  0.00     0.048 C 
ATOM     19  C   UNL A   1      29.486  31.226  24.058  1.00  0.00    -0.006 A 
ATOM     20  C   UNL A   1      28.379  31.830  23.422  1.00  0.00     0.007 A 
ATOM     21  C   UNL A   1      29.869  29.985  23.529  1.00  0.00     0.157 A 
ATOM     22  C   UNL A   1      27.721  31.229  22.345  1.00  0.00     0.003 A 
ATOM     23  C   UNL A   1      29.256  29.374  22.445  1.00  0.00     0.110 A 
ATOM     24  O   UNL A   1      30.885  29.152  23.937  1.00  0.00    -0.440 OA
ATOM     25  C   UNL A   1      28.160  30.000  21.834  1.00  0.00     0.032 A 
ATOM     26  N   UNL A   1      29.885  28.187  22.154  1.00  0.00    -0.213 NA
ENDBRANCH  12  17
ENDBRANCH   9  11
ENDBRANCH   8   9
ENDBRANCH   7   8
ENDBRANCH   6   7
ENDBRANCH   5   6
ENDBRANCH   4   5
ENDBRANCH   3   4
ENDBRANCH   2   3
ENDBRANCH   1   2
BRANCH   1  27
ATOM     27  C   UNL A   1      33.732  35.159  31.316  1.00  0.00     0.188 C 
BRANCH  27  28
ATOM     28  O   UNL A   1      33.323  34.195  32.272  1.00  0.00    -0.376 OA
BRANCH  28  29
ATOM     29  C   UNL A   1      34.172  33.349  33.027  1.00  0.00     0.202 C 
BRANCH  29  30
ATOM     30  C   UNL A   1      35.504  32.810  32.498  1.00  0.00     0.261 C 
BRANCH  30  31
ATOM     31  O   UNL A   1      35.380  32.060  31.316  1.00  0.00    -0.460 OA
BRANCH  31  32
ATOM     32  C   UNL A   1      36.112  30.945  31.329  1.00  0.00     0.338 C 
ATOM     33  O   UNL A   1      36.230  30.134  32.249  1.00  0.00    -0.246 OA
BRANCH  32  34
ATOM     34  C   UNL A   1      36.788  30.830  30.039  1.00  0.00     0.060 A 
ATOM     35  C   UNL A   1      36.719  29.547  29.500  1.00  0.00     0.016 A 
ATOM     36  C   UNL A   1      37.892  31.676  29.893  1.00  0.00     0.016 A 
ATOM     37  C   UNL A   1      37.916  28.943  29.266  1.00  0.00     0.010 A 
ATOM     38  C   UNL A   1      39.093  31.063  29.697  1.00  0.00     0.010 A 
ATOM     39  C   UNL A   1      39.079  29.686  29.509  1.00  0.00    -0.014 A 
BRANCH  39  40
ATOM     40  C   UNL A   1      40.314  28.962  29.483  1.00  0.00     0.031 A 
ATOM     41  C   UNL A   1      40.840  28.774  30.840  1.00  0.00     0.074 A 
ATOM     42  C   UNL A   1      40.875  28.538  28.341  1.00  0.00     0.049 A 
ATOM     43  N   UNL A   1      41.849  29.375  31.372  1.00  0.00    -0.248 NA
ATOM     44  C   UNL A   1      40.009  28.009  31.781  1.00  0.00     0.031 C 
ATOM     45  C   UNL A   1      40.309  28.464  26.993  1.00  0.00     0.029 A 
ATOM     46  N   UNL A   1      42.108  28.001  28.189  1.00  0.00    -0.354 N 
ATOM     47  C   UNL A   1      41.892  28.913  32.676  1.00  0.00     0.074 A 
ATOM     48  C   UNL A   1      40.640  28.250  32.929  1.00  0.00     0.031 C 
ATOM     49  C   UNL A   1      41.120  27.705  26.217  1.00  0.00     0.029 A 
ATOM     50  C   UNL A   1      42.313  27.367  26.976  1.00  0.00     0.049 A 
ATOM     51  H   UNL A   1      42.802  28.056  28.884  1.00  0.00     0.167 HD
ATOM     52  C   UNL A   1      43.068  28.867  33.349  1.00  0.00     0.037 A 
ATOM     53  C   UNL A   1      43.360  26.549  26.706  1.00  0.00     0.037 A 
ATOM     54  C   UNL A   1      44.040  29.757  32.769  1.00  0.00     0.049 A 
ATOM     55  C   UNL A   1      44.429  26.869  27.696  1.00  0.00     0.074 A 
ATOM     56  C   UNL A   1      44.109  31.125  32.592  1.00  0.00     0.029 A 
ATOM     57  N   UNL A   1      44.971  29.221  31.912  1.00  0.00    -0.354 N 
ATOM     58  N   UNL A   1      45.087  27.996  27.715  1.00  0.00    -0.248 NA
ATOM     59  C   UNL A   1      44.445  26.119  28.945  1.00  0.00     0.031 C 
ATOM     60  C   UNL A   1      44.747  31.310  31.330  1.00  0.00     0.029 A 
ATOM     61  C   UNL A   1      45.070  30.052  30.824  1.00  0.00     0.049 A 
ATOM     62  H   UNL A   1      45.477  28.389  32.054  1.00  0.00     0.167 HD
ATOM     63  C   UNL A   1      45.244  28.296  29.062  1.00  0.00     0.074 A 
ATOM     64  C   UNL A   1      44.904  27.065  29.769  1.00  0.00     0.031 C 
ATOM     65  C   UNL A   1      45.355  29.590  29.484  1.00  0.00     0.037 A 
BRANCH  52  66
ATOM     66  C   UNL A   1      43.428  27.730  34.264  1.00  0.00     0.064 A 
ATOM     67  C   UNL A   1      43.588  26.445  33.721  1.00  0.00     0.173 A 
ATOM     68  C   UNL A   1      43.348  27.794  35.675  1.00  0.00     0.173 A 
ATOM     69  F   UNL A   1      43.640  26.268  32.392  1.00  0.00    -0.203 F 
ATOM     70  C   UNL A   1      43.604  25.306  34.528  1.00  0.00     0.198 A 
ATOM     71  C   UNL A   1      43.428  26.662  36.479  1.00  0.00     0.198 A 
ATOM     72  F   UNL A   1      43.072  28.927  36.331  1.00  0.00    -0.203 F 
ATOM     73  F   UNL A   1      43.632  24.093  33.961  1.00  0.00    -0.200 F 
ATOM     74  C   UNL A   1      43.524  25.415  35.905  1.00  0.00     0.200 A 
ATOM     75  F   UNL A   1      43.324  26.792  37.809  1.00  0.00    -0.200 F 
ATOM     76  F   UNL A   1      43.485  24.321  36.676  1.00  0.00    -0.200 F 
ENDBRANCH  52  66
BRANCH  53  77
ATOM     77  C   UNL A   1      43.338  25.268  25.959  1.00  0.00     0.064 A 
ATOM     78  C   UNL A   1      44.396  24.932  25.098  1.00  0.00     0.173 A 
ATOM     79  C   UNL A   1      42.450  24.228  26.295  1.00  0.00     0.173 A 
ATOM     80  F   UNL A   1      45.310  25.854  24.762  1.00  0.00    -0.203 F 
ATOM     81  C   UNL A   1      44.579  23.625  24.638  1.00  0.00     0.198 A 
ATOM     82  C   UNL A   1      42.630  22.926  25.829  1.00  0.00     0.198 A 
ATOM     83  F   UNL A   1      41.449  24.425  27.165  1.00  0.00    -0.203 F 
ATOM     84  F   UNL A   1      45.644  23.327  23.879  1.00  0.00    -0.200 F 
ATOM     85  C   UNL A   1      43.705  22.621  25.014  1.00  0.00     0.200 A 
ATOM     86  F   UNL A   1      41.796  21.955  26.228  1.00  0.00    -0.200 F 
ATOM     87  F   UNL A   1      43.920  21.354  24.630  1.00  0.00    -0.200 F 
ENDBRANCH  53  77
BRANCH  65  88
ATOM     88  C   UNL A   1      45.560  30.647  28.433  1.00  0.00     0.064 A 
ATOM     89  C   UNL A   1      44.510  31.290  27.753  1.00  0.00     0.173 A 
ATOM     90  C   UNL A   1      46.857  31.128  28.218  1.00  0.00     0.173 A 
ATOM     91  F   UNL A   1      43.234  30.952  27.979  1.00  0.00    -0.203 F 
ATOM     92  C   UNL A   1      44.757  32.340  26.869  1.00  0.00     0.198 A 
ATOM     93  C   UNL A   1      47.097  32.201  27.364  1.00  0.00     0.198 A 
ATOM     94  F   UNL A   1      47.892  30.588  28.880  1.00  0.00    -0.203 F 
ATOM     95  F   UNL A   1      43.740  32.931  26.224  1.00  0.00    -0.200 F 
ATOM     96  C   UNL A   1      46.050  32.801  26.683  1.00  0.00     0.200 A 
ATOM     97  F   UNL A   1      48.344  32.674  27.225  1.00  0.00    -0.200 F 
ATOM     98  F   UNL A   1      46.285  33.840  25.870  1.00  0.00    -0.200 F 
ENDBRANCH  65  88
ENDBRANCH  39  40
ENDBRANCH  32  34
ENDBRANCH  31  32
ENDBRANCH  30  31
ENDBRANCH  29  30
ENDBRANCH  28  29
ENDBRANCH  27  28
ENDBRANCH   1  27
TORSDOF 21
ENDMDL
MODEL 2
REMARK VINA RESULT:     -11.3      3.645      9.342
REMARK SMILES Cc1cccc2nc([C@@H]3CCCC[C@@H]3C(=O)OCCOCCOCCOCCOC(=O)c3ccc(-c4c5nc(c(-c6c(F)c(F)c(F)c(F)c6F)c6ccc([nH]6)c(-c6c(F)c(F)c(F)c(F)c6F)c6nc(c(-c7c(F)c(F)c(F)c(F)c7F)c7ccc4[nH]7)C=C6)C=C5)cc3)oc12
REMARK SMILES IDX 24 1 23 2 22 3 21 4 20 5 19 6 18 7 17 8 15 9 16 10 14 11
REMARK SMILES IDX 9 12 10 13 11 14 13 15 12 16 8 17 1 18 2 19 3 20 96 21 4 22
REMARK SMILES IDX 6 23 95 24 5 25 7 26 25 27 26 28 27 29 28 30 29 31 30 32
REMARK SMILES IDX 31 33 32 34 33 35 94 36 34 37 93 38 35 39 36 40 37 41 87 42
REMARK SMILES IDX 38 43 92 44 86 45 88 46 39 47 91 48 85 49 84 50 40 52 72 53
REMARK SMILES IDX 52 54 71 55 53 56 56 57 70 58 89 59 54 60 55 61 69 63 90 64
REMARK SMILES IDX 57 65 41 66 42 67 50 68 43 69 44 70 48 71 51 72 45 73 46 74
REMARK SMILES IDX 49 75 47 76 73 77 74 78 82 79 75 80 76 81 80 82 83 83 77 84
REMARK SMILES IDX 78 85 81 86 79 87 58 88 59 89 67 90 60 91 61 92 65 93 68 94
REMARK SMILES IDX 62 95 63 96 66 97 64 98
REMARK H PARENT 88 51 56 62
REMARK Flexibility Score: inf
ROOT
ATOM      1  C   UNL A   1      40.279  21.495  26.806  1.00  0.00     0.188 C 
ENDROOT
BRANCH   1   2
ATOM      2  O   UNL A   1      39.370  21.052  25.815  1.00  0.00    -0.377 OA
BRANCH   2   3
ATOM      3  C   UNL A   1      38.158  21.781  25.634  1.00  0.00     0.188 C 
BRANCH   3   4
ATOM      4  C   UNL A   1      37.197  21.518  24.448  1.00  0.00     0.188 C 
BRANCH   4   5
ATOM      5  O   UNL A   1      36.928  22.654  23.643  1.00  0.00    -0.376 OA
BRANCH   5   6
ATOM      6  C   UNL A   1      36.208  23.696  24.270  1.00  0.00     0.202 C 
BRANCH   6   7
ATOM      7  C   UNL A   1      34.698  23.637  24.019  1.00  0.00     0.261 C 
BRANCH   7   8
ATOM      8  O   UNL A   1      33.994  24.887  24.169  1.00  0.00    -0.463 OA
BRANCH   8   9
ATOM      9  C   UNL A   1      33.414  25.415  23.054  1.00  0.00     0.309 C 
ATOM     10  O   UNL A   1      33.949  25.435  21.956  1.00  0.00    -0.252 OA
BRANCH   9  11
ATOM     11  C   UNL A   1      32.053  26.025  23.409  1.00  0.00     0.111 C 
ATOM     12  C   UNL A   1      31.771  26.306  24.904  1.00  0.00     0.090 C 
ATOM     13  C   UNL A   1      31.826  25.016  25.729  1.00  0.00     0.014 C 
ATOM     14  C   UNL A   1      30.924  23.923  25.150  1.00  0.00     0.001 C 
ATOM     15  C   UNL A   1      31.005  25.044  22.866  1.00  0.00     0.016 C 
ATOM     16  C   UNL A   1      31.030  23.726  23.638  1.00  0.00     0.001 C 
BRANCH  12  17
ATOM     17  C   UNL A   1      32.578  27.401  25.555  1.00  0.00     0.199 A 
ATOM     18  C   UNL A   1      31.527  31.568  26.692  1.00  0.00     0.048 C 
ATOM     19  C   UNL A   1      32.746  30.715  26.853  1.00  0.00    -0.006 A 
ATOM     20  C   UNL A   1      33.860  31.213  27.565  1.00  0.00     0.007 A 
ATOM     21  C   UNL A   1      32.866  29.388  26.416  1.00  0.00     0.157 A 
ATOM     22  C   UNL A   1      34.993  30.432  27.812  1.00  0.00     0.003 A 
ATOM     23  C   UNL A   1      33.964  28.579  26.667  1.00  0.00     0.110 A 
ATOM     24  O   UNL A   1      31.970  28.636  25.692  1.00  0.00    -0.440 OA
ATOM     25  C   UNL A   1      35.053  29.101  27.378  1.00  0.00     0.032 A 
ATOM     26  N   UNL A   1      33.760  27.328  26.134  1.00  0.00    -0.213 NA
ENDBRANCH  12  17
ENDBRANCH   9  11
ENDBRANCH   8   9
ENDBRANCH   7   8
ENDBRANCH   6   7
ENDBRANCH   5   6
ENDBRANCH   4   5
ENDBRANCH   3   4
ENDBRANCH   2   3
ENDBRANCH   1   2
BRANCH   1  27
ATOM     27  C   UNL A   1      41.310  20.458  27.316  1.00  0.00     0.188 C 
BRANCH  27  28
ATOM     28  O   UNL A   1      42.605  20.539  26.745  1.00  0.00    -0.376 OA
BRANCH  28  29
ATOM     29  C   UNL A   1      43.037  21.475  25.773  1.00  0.00     0.202 C 
BRANCH  29  30
ATOM     30  C   UNL A   1      44.200  22.444  26.003  1.00  0.00     0.261 C 
BRANCH  30  31
ATOM     31  O   UNL A   1      43.825  23.634  26.650  1.00  0.00    -0.460 OA
BRANCH  31  32
ATOM     32  C   UNL A   1      43.083  24.432  25.880  1.00  0.00     0.338 C 
ATOM     33  O   UNL A   1      43.360  24.866  24.761  1.00  0.00    -0.246 OA
BRANCH  32  34
ATOM     34  C   UNL A   1      41.846  24.733  26.596  1.00  0.00     0.060 A 
ATOM     35  C   UNL A   1      41.039  25.650  25.928  1.00  0.00     0.016 A 
ATOM     36  C   UNL A   1      41.959  24.668  27.989  1.00  0.00     0.016 A 
ATOM     37  C   UNL A   1      40.758  26.794  26.611  1.00  0.00     0.010 A 
ATOM     38  C   UNL A   1      41.715  25.826  28.664  1.00  0.00     0.010 A 
ATOM     39  C   UNL A   1      41.233  26.901  27.925  1.00  0.00    -0.014 A 
BRANCH  39  40
ATOM     40  C   UNL A   1      41.131  28.191  28.537  1.00  0.00     0.031 A 
ATOM     41  C   UNL A   1      42.296  29.020  28.206  1.00  0.00     0.074 A 
ATOM     42  C   UNL A   1      40.089  28.543  29.304  1.00  0.00     0.049 A 
ATOM     43  N   UNL A   1      43.267  29.343  28.991  1.00  0.00    -0.248 NA
ATOM     44  C   UNL A   1      42.521  29.325  26.785  1.00  0.00     0.031 C 
ATOM     45  C   UNL A   1      38.794  27.886  29.480  1.00  0.00     0.029 A 
ATOM     46  N   UNL A   1      39.974  29.662  30.058  1.00  0.00    -0.354 N 
ATOM     47  C   UNL A   1      44.143  30.062  28.195  1.00  0.00     0.074 A 
ATOM     48  C   UNL A   1      43.745  29.846  26.830  1.00  0.00     0.031 C 
ATOM     49  C   UNL A   1      37.949  28.740  30.108  1.00  0.00     0.029 A 
ATOM     50  C   UNL A   1      38.688  29.930  30.494  1.00  0.00     0.049 A 
ATOM     51  H   UNL A   1      40.741  30.237  30.278  1.00  0.00     0.167 HD
ATOM     52  C   UNL A   1      44.951  31.004  28.743  1.00  0.00     0.037 A 
ATOM     53  C   UNL A   1      38.293  31.109  31.035  1.00  0.00     0.037 A 
ATOM     54  C   UNL A   1      45.122  30.791  30.157  1.00  0.00     0.049 A 
ATOM     55  C   UNL A   1      39.523  31.800  31.520  1.00  0.00     0.074 A 
ATOM     56  C   UNL A   1      45.665  29.774  30.919  1.00  0.00     0.029 A 
ATOM     57  N   UNL A   1      44.348  31.531  31.017  1.00  0.00    -0.354 N 
ATOM     58  N   UNL A   1      40.245  31.379  32.523  1.00  0.00    -0.248 NA
ATOM     59  C   UNL A   1      40.205  32.699  30.599  1.00  0.00     0.031 C 
ATOM     60  C   UNL A   1      44.841  29.692  32.080  1.00  0.00     0.029 A 
ATOM     61  C   UNL A   1      43.867  30.686  31.985  1.00  0.00     0.049 A 
ATOM     62  H   UNL A   1      44.170  32.497  30.950  1.00  0.00     0.167 HD
ATOM     63  C   UNL A   1      41.559  31.616  32.144  1.00  0.00     0.074 A 
ATOM     64  C   UNL A   1      41.467  32.506  30.989  1.00  0.00     0.031 C 
ATOM     65  C   UNL A   1      42.578  30.843  32.620  1.00  0.00     0.037 A 
BRANCH  52  66
ATOM     66  C   UNL A   1      45.239  32.312  28.062  1.00  0.00     0.064 A 
ATOM     67  C   UNL A   1      44.189  33.226  27.874  1.00  0.00     0.173 A 
ATOM     68  C   UNL A   1      46.425  32.586  27.342  1.00  0.00     0.173 A 
ATOM     69  F   UNL A   1      43.007  33.040  28.481  1.00  0.00    -0.203 F 
ATOM     70  C   UNL A   1      44.300  34.296  26.986  1.00  0.00     0.198 A 
ATOM     71  C   UNL A   1      46.554  33.690  26.507  1.00  0.00     0.198 A 
ATOM     72  F   UNL A   1      47.466  31.744  27.320  1.00  0.00    -0.203 F 
ATOM     73  F   UNL A   1      43.233  35.070  26.743  1.00  0.00    -0.200 F 
ATOM     74  C   UNL A   1      45.482  34.528  26.303  1.00  0.00     0.200 A 
ATOM     75  F   UNL A   1      47.701  33.878  25.839  1.00  0.00    -0.200 F 
ATOM     76  F   UNL A   1      45.572  35.522  25.412  1.00  0.00    -0.200 F 
ENDBRANCH  52  66
BRANCH  53  77
ATOM     77  C   UNL A   1      37.028  31.841  30.784  1.00  0.00     0.064 A 
ATOM     78  C   UNL A   1      36.057  31.944  31.794  1.00  0.00     0.173 A 
ATOM     79  C   UNL A   1      36.874  32.698  29.677  1.00  0.00     0.173 A 
ATOM     80  F   UNL A   1      36.153  31.192  32.900  1.00  0.00    -0.203 F 
ATOM     81  C   UNL A   1      35.020  32.879  31.721  1.00  0.00     0.198 A 
ATOM     82  C   UNL A   1      35.834  33.625  29.603  1.00  0.00     0.198 A 
ATOM     83  F   UNL A   1      37.783  32.730  28.693  1.00  0.00    -0.203 F 
ATOM     84  F   UNL A   1      34.156  32.999  32.740  1.00  0.00    -0.200 F 
ATOM     85  C   UNL A   1      34.917  33.727  30.633  1.00  0.00     0.200 A 
ATOM     86  F   UNL A   1      35.765  34.465  28.560  1.00  0.00    -0.200 F 
ATOM     87  F   UNL A   1      33.965  34.671  30.595  1.00  0.00    -0.200 F 
ENDBRANCH  53  77
BRANCH  65  88
ATOM     88  C   UNL A   1      42.264  29.906  33.755  1.00  0.00     0.064 A 
ATOM     89  C   UNL A   1      41.759  28.605  33.580  1.00  0.00     0.173 A 
ATOM     90  C   UNL A   1      42.629  30.286  35.053  1.00  0.00     0.173 A 
ATOM     91  F   UNL A   1      41.479  28.133  32.359  1.00  0.00    -0.203 F 
ATOM     92  C   UNL A   1      41.592  27.742  34.663  1.00  0.00     0.198 A 
ATOM     93  C   UNL A   1      42.496  29.411  36.127  1.00  0.00     0.198 A 
ATOM     94  F   UNL A   1      43.166  31.497  35.271  1.00  0.00    -0.203 F 
ATOM     95  F   UNL A   1      41.099  26.510  34.474  1.00  0.00    -0.200 F 
ATOM     96  C   UNL A   1      41.970  28.143  35.935  1.00  0.00     0.200 A 
ATOM     97  F   UNL A   1      42.908  29.786  37.345  1.00  0.00    -0.200 F 
ATOM     98  F   UNL A   1      41.854  27.300  36.970  1.00  0.00    -0.200 F 
ENDBRANCH  65  88
ENDBRANCH  39  40
ENDBRANCH  32  34
ENDBRANCH  31  32
ENDBRANCH  30  31
ENDBRANCH  29  30
ENDBRANCH  28  29
ENDBRANCH  27  28
ENDBRANCH   1  27
TORSDOF 21
ENDMDL
MODEL 3
REMARK VINA RESULT:     -11.0      1.523      3.493
REMARK SMILES Cc1cccc2nc([C@@H]3CCCC[C@@H]3C(=O)OCCOCCOCCOCCOC(=O)c3ccc(-c4c5nc(c(-c6c(F)c(F)c(F)c(F)c6F)c6ccc([nH]6)c(-c6c(F)c(F)c(F)c(F)c6F)c6nc(c(-c7c(F)c(F)c(F)c(F)c7F)c7ccc4[nH]7)C=C6)C=C5)cc3)oc12
REMARK SMILES IDX 24 1 23 2 22 3 21 4 20 5 19 6 18 7 17 8 15 9 16 10 14 11
REMARK SMILES IDX 9 12 10 13 11 14 13 15 12 16 8 17 1 18 2 19 3 20 96 21 4 22
REMARK SMILES IDX 6 23 95 24 5 25 7 26 25 27 26 28 27 29 28 30 29 31 30 32
REMARK SMILES IDX 31 33 32 34 33 35 94 36 34 37 93 38 35 39 36 40 37 41 87 42
REMARK SMILES IDX 38 43 92 44 86 45 88 46 39 47 91 48 85 49 84 50 40 52 72 53
REMARK SMILES IDX 52 54 71 55 53 56 56 57 70 58 89 59 54 60 55 61 69 63 90 64
REMARK SMILES IDX 57 65 41 66 42 67 50 68 43 69 44 70 48 71 51 72 45 73 46 74
REMARK SMILES IDX 49 75 47 76 73 77 74 78 82 79 75 80 76 81 80 82 83 83 77 84
REMARK SMILES IDX 78 85 81 86 79 87 58 88 59 89 67 90 60 91 61 92 65 93 68 94
REMARK SMILES IDX 62 95 63 96 66 97 64 98
REMARK H PARENT 88 51 56 62
REMARK Flexibility Score: inf
ROOT
ATOM      1  C   UNL A   1      33.285  35.159  29.688  1.00  0.00     0.188 C 
ENDROOT
BRANCH   1   2
ATOM      2  O   UNL A   1      34.424  34.751  28.953  1.00  0.00    -0.377 OA
BRANCH   2   3
ATOM      3  C   UNL A   1      34.273  33.707  27.994  1.00  0.00     0.188 C 
BRANCH   3   4
ATOM      4  C   UNL A   1      34.416  32.210  28.364  1.00  0.00     0.188 C 
BRANCH   4   5
ATOM      5  O   UNL A   1      33.630  31.330  27.577  1.00  0.00    -0.376 OA
BRANCH   5   6
ATOM      6  C   UNL A   1      34.239  30.103  27.230  1.00  0.00     0.202 C 
BRANCH   6   7
ATOM      7  C   UNL A   1      33.239  28.975  26.960  1.00  0.00     0.261 C 
BRANCH   7   8
ATOM      8  O   UNL A   1      33.794  27.779  26.374  1.00  0.00    -0.463 OA
BRANCH   8   9
ATOM      9  C   UNL A   1      33.416  27.476  25.099  1.00  0.00     0.309 C 
ATOM     10  O   UNL A   1      33.833  28.061  24.112  1.00  0.00    -0.252 OA
BRANCH   9  11
ATOM     11  C   UNL A   1      32.361  26.364  25.115  1.00  0.00     0.111 C 
ATOM     12  C   UNL A   1      32.558  25.187  24.131  1.00  0.00     0.090 C 
ATOM     13  C   UNL A   1      32.561  25.675  22.678  1.00  0.00     0.014 C 
ATOM     14  C   UNL A   1      31.327  26.522  22.352  1.00  0.00     0.001 C 
ATOM     15  C   UNL A   1      31.024  27.058  24.822  1.00  0.00     0.016 C 
ATOM     16  C   UNL A   1      30.978  27.589  23.390  1.00  0.00     0.001 C 
BRANCH  12  17
ATOM     17  C   UNL A   1      33.722  24.265  24.395  1.00  0.00     0.199 A 
ATOM     18  C   UNL A   1      33.937  19.857  24.926  1.00  0.00     0.048 C 
ATOM     19  C   UNL A   1      34.951  20.956  24.878  1.00  0.00    -0.006 A 
ATOM     20  C   UNL A   1      36.327  20.643  24.945  1.00  0.00     0.007 A 
ATOM     21  C   UNL A   1      34.661  22.315  24.689  1.00  0.00     0.157 A 
ATOM     22  C   UNL A   1      37.318  21.621  24.827  1.00  0.00     0.003 A 
ATOM     23  C   UNL A   1      35.620  23.306  24.542  1.00  0.00     0.110 A 
ATOM     24  O   UNL A   1      33.432  22.928  24.602  1.00  0.00    -0.440 OA
ATOM     25  C   UNL A   1      36.977  22.962  24.610  1.00  0.00     0.032 A 
ATOM     26  N   UNL A   1      35.013  24.523  24.341  1.00  0.00    -0.213 NA
ENDBRANCH  12  17
ENDBRANCH   9  11
ENDBRANCH   8   9
ENDBRANCH   7   8
ENDBRANCH   6   7
ENDBRANCH   5   6
ENDBRANCH   4   5
ENDBRANCH   3   4
ENDBRANCH   2   3
ENDBRANCH   1   2
BRANCH   1  27
ATOM     27  C   UNL A   1      33.512  35.524  31.176  1.00  0.00     0.188 C 
BRANCH  27  28
ATOM     28  O   UNL A   1      33.193  34.514  32.118  1.00  0.00    -0.376 OA
BRANCH  28  29
ATOM     29  C   UNL A   1      34.102  33.848  32.975  1.00  0.00     0.202 C 
BRANCH  29  30
ATOM     30  C   UNL A   1      35.478  33.358  32.518  1.00  0.00     0.261 C 
BRANCH  30  31
ATOM     31  O   UNL A   1      35.423  32.309  31.584  1.00  0.00    -0.460 OA
BRANCH  31  32
ATOM     32  C   UNL A   1      36.399  31.415  31.748  1.00  0.00     0.338 C 
ATOM     33  O   UNL A   1      36.860  30.992  32.810  1.00  0.00    -0.246 OA
BRANCH  32  34
ATOM     34  C   UNL A   1      36.864  31.001  30.427  1.00  0.00     0.060 A 
ATOM     35  C   UNL A   1      36.668  29.644  30.180  1.00  0.00     0.016 A 
ATOM     36  C   UNL A   1      37.961  31.726  29.951  1.00  0.00     0.016 A 
ATOM     37  C   UNL A   1      37.793  28.927  29.907  1.00  0.00     0.010 A 
ATOM     38  C   UNL A   1      39.095  31.009  29.716  1.00  0.00     0.010 A 
ATOM     39  C   UNL A   1      39.005  29.626  29.822  1.00  0.00    -0.014 A 
BRANCH  39  40
ATOM     40  C   UNL A   1      40.195  28.833  29.768  1.00  0.00     0.031 A 
ATOM     41  C   UNL A   1      40.769  28.658  31.107  1.00  0.00     0.074 A 
ATOM     42  C   UNL A   1      40.681  28.341  28.619  1.00  0.00     0.049 A 
ATOM     43  N   UNL A   1      41.832  29.216  31.576  1.00  0.00    -0.248 NA
ATOM     44  C   UNL A   1      39.938  27.972  32.109  1.00  0.00     0.031 C 
ATOM     45  C   UNL A   1      40.053  28.257  27.300  1.00  0.00     0.029 A 
ATOM     46  N   UNL A   1      41.874  27.729  28.435  1.00  0.00    -0.354 N 
ATOM     47  C   UNL A   1      41.906  28.794  32.892  1.00  0.00     0.074 A 
ATOM     48  C   UNL A   1      40.631  28.213  33.220  1.00  0.00     0.031 C 
ATOM     49  C   UNL A   1      40.786  27.427  26.517  1.00  0.00     0.029 A 
ATOM     50  C   UNL A   1      41.990  27.046  27.236  1.00  0.00     0.049 A 
ATOM     51  H   UNL A   1      42.600  27.766  29.098  1.00  0.00     0.167 HD
ATOM     52  C   UNL A   1      43.107  28.703  33.517  1.00  0.00     0.037 A 
ATOM     53  C   UNL A   1      42.976  26.161  26.951  1.00  0.00     0.037 A 
ATOM     54  C   UNL A   1      44.100  29.517  32.866  1.00  0.00     0.049 A 
ATOM     55  C   UNL A   1      44.104  26.450  27.883  1.00  0.00     0.074 A 
ATOM     56  C   UNL A   1      44.237  30.873  32.639  1.00  0.00     0.029 A 
ATOM     57  N   UNL A   1      44.961  28.902  31.990  1.00  0.00    -0.354 N 
ATOM     58  N   UNL A   1      44.825  27.538  27.836  1.00  0.00    -0.248 NA
ATOM     59  C   UNL A   1      44.133  25.741  29.155  1.00  0.00     0.031 C 
ATOM     60  C   UNL A   1      44.829  30.980  31.346  1.00  0.00     0.029 A 
ATOM     61  C   UNL A   1      45.058  29.689  30.870  1.00  0.00     0.049 A 
ATOM     62  H   UNL A   1      45.426  28.047  32.139  1.00  0.00     0.167 HD
ATOM     63  C   UNL A   1      45.057  27.872  29.164  1.00  0.00     0.074 A 
ATOM     64  C   UNL A   1      44.679  26.685  29.926  1.00  0.00     0.031 C 
ATOM     65  C   UNL A   1      45.258  29.170  29.537  1.00  0.00     0.037 A 
BRANCH  52  66
ATOM     66  C   UNL A   1      43.442  27.577  34.455  1.00  0.00     0.064 A 
ATOM     67  C   UNL A   1      43.588  26.281  33.935  1.00  0.00     0.173 A 
ATOM     68  C   UNL A   1      43.350  27.666  35.863  1.00  0.00     0.173 A 
ATOM     69  F   UNL A   1      43.649  26.080  32.610  1.00  0.00    -0.203 F 
ATOM     70  C   UNL A   1      43.581  25.156  34.761  1.00  0.00     0.198 A 
ATOM     71  C   UNL A   1      43.406  26.548  36.688  1.00  0.00     0.198 A 
ATOM     72  F   UNL A   1      43.084  28.815  36.497  1.00  0.00    -0.203 F 
ATOM     73  F   UNL A   1      43.597  23.932  34.215  1.00  0.00    -0.200 F 
ATOM     74  C   UNL A   1      43.490  25.290  36.135  1.00  0.00     0.200 A 
ATOM     75  F   UNL A   1      43.292  26.702  38.014  1.00  0.00    -0.200 F 
ATOM     76  F   UNL A   1      43.429  24.210  36.924  1.00  0.00    -0.200 F 
ENDBRANCH  52  66
BRANCH  53  77
ATOM     77  C   UNL A   1      42.851  24.861  26.250  1.00  0.00     0.064 A 
ATOM     78  C   UNL A   1      43.707  24.546  25.182  1.00  0.00     0.173 A 
ATOM     79  C   UNL A   1      42.108  23.794  26.793  1.00  0.00     0.173 A 
ATOM     80  F   UNL A   1      44.480  25.495  24.635  1.00  0.00    -0.203 F 
ATOM     81  C   UNL A   1      43.845  23.235  24.716  1.00  0.00     0.198 A 
ATOM     82  C   UNL A   1      42.242  22.488  26.321  1.00  0.00     0.198 A 
ATOM     83  F   UNL A   1      41.315  23.973  27.859  1.00  0.00    -0.203 F 
ATOM     84  F   UNL A   1      44.729  22.961  23.745  1.00  0.00    -0.200 F 
ATOM     85  C   UNL A   1      43.123  22.205  25.294  1.00  0.00     0.200 A 
ATOM     86  F   UNL A   1      41.562  21.495  26.912  1.00  0.00    -0.200 F 
ATOM     87  F   UNL A   1      43.307  20.939  24.894  1.00  0.00    -0.200 F 
ENDBRANCH  53  77
BRANCH  65  88
ATOM     88  C   UNL A   1      45.476  30.179  28.443  1.00  0.00     0.064 A 
ATOM     89  C   UNL A   1      44.434  30.845  27.772  1.00  0.00     0.173 A 
ATOM     90  C   UNL A   1      46.785  30.594  28.170  1.00  0.00     0.173 A 
ATOM     91  F   UNL A   1      43.152  30.573  28.048  1.00  0.00    -0.203 F 
ATOM     92  C   UNL A   1      44.698  31.851  26.844  1.00  0.00     0.198 A 
ATOM     93  C   UNL A   1      47.045  31.624  27.271  1.00  0.00     0.198 A 
ATOM     94  F   UNL A   1      47.816  30.031  28.820  1.00  0.00    -0.203 F 
ATOM     95  F   UNL A   1      43.689  32.465  26.209  1.00  0.00    -0.200 F 
ATOM     96  C   UNL A   1      46.004  32.247  26.601  1.00  0.00     0.200 A 
ATOM     97  F   UNL A   1      48.306  32.035  27.077  1.00  0.00    -0.200 F 
ATOM     98  F   UNL A   1      46.258  33.246  25.744  1.00  0.00    -0.200 F 
ENDBRANCH  65  88
ENDBRANCH  39  40
ENDBRANCH  32  34
ENDBRANCH  31  32
ENDBRANCH  30  31
ENDBRANCH  29  30
ENDBRANCH  28  29
ENDBRANCH  27  28
ENDBRANCH   1  27
TORSDOF 21
ENDMDL
