MODEL 1
REMARK VINA RESULT:      -9.7      0.000      0.000
REMARK SMILES O=C(C[N@@H+]1CCC[C@@H]1c1ccccc1Cl)OCCOCCOCCOCCOC(=O)c1ccc(-c2c3nc(c(-c4c(F)c(F)c(F)c(F)c4F)c4ccc([nH]4)c(-c4c(F)c(F)c(F)c(F)c4F)c4nc(c(-c5c(F)c(F)c(F)c(F)c5F)c5ccc2[nH]5)C=C4)C=C3)cc1
REMARK SMILES IDX 22 1 21 2 20 3 19 4 18 5 17 6 16 7 2 8 1 9 3 10 4 11 5 12
REMARK SMILES IDX 8 13 6 15 7 16 9 17 10 18 14 19 11 20 13 21 15 22 12 23
REMARK SMILES IDX 23 24 24 25 25 26 26 27 27 28 28 29 29 30 30 31 31 32 32 33
REMARK SMILES IDX 93 34 33 35 92 36 34 37 35 38 36 39 86 40 37 41 91 42 85 43
REMARK SMILES IDX 87 44 38 45 90 46 84 47 83 48 39 50 71 51 51 52 70 53 52 54
REMARK SMILES IDX 55 55 69 56 88 57 53 58 54 59 68 61 89 62 56 63 40 64 41 65
REMARK SMILES IDX 49 66 42 67 43 68 47 69 50 70 44 71 45 72 48 73 46 74 72 75
REMARK SMILES IDX 73 76 81 77 74 78 75 79 79 80 82 81 76 82 77 83 80 84 78 85
REMARK SMILES IDX 57 86 58 87 66 88 59 89 60 90 64 91 67 92 61 93 62 94 65 95
REMARK SMILES IDX 63 96
REMARK H PARENT 4 14 87 49 55 60
REMARK Flexibility Score: inf
ROOT
ATOM      1  O   UNL A   1      34.187  32.103  28.189  1.00  0.00    -0.377 OA
ENDROOT
BRANCH   1   2
ATOM      2  C   UNL A   1      34.597  30.754  28.030  1.00  0.00     0.188 C 
BRANCH   2   3
ATOM      3  C   UNL A   1      33.897  30.078  26.867  1.00  0.00     0.188 C 
BRANCH   3   4
ATOM      4  O   UNL A   1      33.527  28.717  27.043  1.00  0.00    -0.376 OA
BRANCH   4   5
ATOM      5  C   UNL A   1      32.246  28.346  27.518  1.00  0.00     0.202 C 
BRANCH   5   6
ATOM      6  C   UNL A   1      31.373  27.438  26.660  1.00  0.00     0.261 C 
BRANCH   6   7
ATOM      7  O   UNL A   1      31.518  26.036  26.892  1.00  0.00    -0.459 OA
BRANCH   7   8
ATOM      8  C   UNL A   1      30.868  25.115  26.130  1.00  0.00     0.361 C 
ATOM      9  O   UNL A   1      29.813  24.630  26.535  1.00  0.00    -0.245 OA
BRANCH   8  10
ATOM     10  C   UNL A   1      31.552  24.591  24.860  1.00  0.00     0.387 C 
BRANCH  10  11
ATOM     11  N   UNL A   1      33.009  24.684  24.938  1.00  0.00    -0.319 N 
ATOM     12  C   UNL A   1      33.460  25.802  24.084  1.00  0.00     0.263 C 
ATOM     13  C   UNL A   1      33.851  23.522  24.518  1.00  0.00     0.217 C 
ATOM     14  H   UNL A   1      33.150  24.777  25.944  1.00  0.00     0.349 HD
ATOM     15  C   UNL A   1      33.721  25.146  22.742  1.00  0.00     0.068 C 
ATOM     16  C   UNL A   1      34.414  23.857  23.130  1.00  0.00     0.076 C 
BRANCH  13  17
ATOM     17  C   UNL A   1      33.389  22.071  24.597  1.00  0.00     0.028 A 
ATOM     18  C   UNL A   1      32.853  21.406  23.476  1.00  0.00     0.011 A 
ATOM     19  C   UNL A   1      33.620  21.279  25.746  1.00  0.00     0.050 A 
ATOM     20  C   UNL A   1      32.476  20.057  23.525  1.00  0.00     0.001 A 
ATOM     21  C   UNL A   1      33.277  19.918  25.781  1.00  0.00     0.021 A 
ATOM     22  Cl  UNL A   1      34.390  21.894  27.172  1.00  0.00    -0.084 Cl
ATOM     23  C   UNL A   1      32.689  19.312  24.677  1.00  0.00     0.002 A 
ENDBRANCH  13  17
ENDBRANCH  10  11
ENDBRANCH   8  10
ENDBRANCH   7   8
ENDBRANCH   6   7
ENDBRANCH   5   6
ENDBRANCH   4   5
ENDBRANCH   3   4
ENDBRANCH   2   3
ENDBRANCH   1   2
BRANCH   1  24
ATOM     24  C   UNL A   1      35.221  33.068  28.070  1.00  0.00     0.188 C 
BRANCH  24  25
ATOM     25  C   UNL A   1      34.992  34.444  28.740  1.00  0.00     0.188 C 
BRANCH  25  26
ATOM     26  O   UNL A   1      34.779  35.638  27.992  1.00  0.00    -0.376 OA
BRANCH  26  27
ATOM     27  C   UNL A   1      33.867  36.605  28.478  1.00  0.00     0.202 C 
BRANCH  27  28
ATOM     28  C   UNL A   1      32.926  35.984  29.515  1.00  0.00     0.261 C 
BRANCH  28  29
ATOM     29  O   UNL A   1      33.275  36.349  30.859  1.00  0.00    -0.460 OA
BRANCH  29  30
ATOM     30  C   UNL A   1      32.762  35.555  31.844  1.00  0.00     0.338 C 
ATOM     31  O   UNL A   1      31.605  35.341  32.106  1.00  0.00    -0.246 OA
BRANCH  30  32
ATOM     32  C   UNL A   1      33.899  34.829  32.468  1.00  0.00     0.060 A 
ATOM     33  C   UNL A   1      35.190  35.373  32.360  1.00  0.00     0.016 A 
ATOM     34  C   UNL A   1      33.674  33.691  33.247  1.00  0.00     0.016 A 
ATOM     35  C   UNL A   1      36.264  34.764  33.013  1.00  0.00     0.010 A 
ATOM     36  C   UNL A   1      34.746  33.072  33.883  1.00  0.00     0.010 A 
ATOM     37  C   UNL A   1      36.047  33.583  33.735  1.00  0.00    -0.014 A 
BRANCH  37  38
ATOM     38  C   UNL A   1      37.171  32.685  34.074  1.00  0.00     0.031 A 
ATOM     39  C   UNL A   1      37.902  32.984  35.351  1.00  0.00     0.074 A 
ATOM     40  C   UNL A   1      37.599  31.730  33.233  1.00  0.00     0.049 A 
ATOM     41  N   UNL A   1      39.047  32.533  35.785  1.00  0.00    -0.248 NA
ATOM     42  C   UNL A   1      37.257  33.962  36.243  1.00  0.00     0.031 C 
ATOM     43  C   UNL A   1      36.949  31.349  31.983  1.00  0.00     0.029 A 
ATOM     44  N   UNL A   1      38.719  30.938  33.294  1.00  0.00    -0.354 N 
ATOM     45  C   UNL A   1      39.271  33.195  36.985  1.00  0.00     0.074 A 
ATOM     46  C   UNL A   1      38.157  34.089  37.202  1.00  0.00     0.031 C 
ATOM     47  C   UNL A   1      37.708  30.422  31.367  1.00  0.00     0.029 A 
ATOM     48  C   UNL A   1      38.912  30.184  32.164  1.00  0.00     0.049 A 
ATOM     49  H   UNL A   1      39.323  30.915  34.070  1.00  0.00     0.167 HD
ATOM     50  C   UNL A   1      40.321  33.072  37.828  1.00  0.00     0.037 A 
ATOM     51  C   UNL A   1      39.967  29.428  31.801  1.00  0.00     0.037 A 
ATOM     52  C   UNL A   1      41.431  32.192  37.585  1.00  0.00     0.049 A 
ATOM     53  C   UNL A   1      41.150  29.329  32.732  1.00  0.00     0.074 A 
ATOM     54  C   UNL A   1      42.539  31.959  38.375  1.00  0.00     0.029 A 
ATOM     55  N   UNL A   1      41.573  31.411  36.445  1.00  0.00    -0.354 N 
ATOM     56  N   UNL A   1      41.348  29.925  33.885  1.00  0.00    -0.248 NA
ATOM     57  C   UNL A   1      42.254  28.455  32.314  1.00  0.00     0.031 C 
ATOM     58  C   UNL A   1      43.380  31.076  37.688  1.00  0.00     0.029 A 
ATOM     59  C   UNL A   1      42.765  30.712  36.499  1.00  0.00     0.049 A 
ATOM     60  H   UNL A   1      40.922  31.362  35.708  1.00  0.00     0.167 HD
ATOM     61  C   UNL A   1      42.580  29.479  34.343  1.00  0.00     0.074 A 
ATOM     62  C   UNL A   1      43.087  28.560  33.343  1.00  0.00     0.031 C 
ATOM     63  C   UNL A   1      43.234  29.794  35.490  1.00  0.00     0.037 A 
BRANCH  50  64
ATOM     64  C   UNL A   1      40.328  33.952  39.042  1.00  0.00     0.064 A 
ATOM     65  C   UNL A   1      39.730  33.555  40.250  1.00  0.00     0.173 A 
ATOM     66  C   UNL A   1      40.899  35.232  38.985  1.00  0.00     0.173 A 
ATOM     67  F   UNL A   1      39.146  32.351  40.351  1.00  0.00    -0.203 F 
ATOM     68  C   UNL A   1      39.666  34.423  41.337  1.00  0.00     0.198 A 
ATOM     69  C   UNL A   1      40.863  36.083  40.085  1.00  0.00     0.198 A 
ATOM     70  F   UNL A   1      41.479  35.663  37.855  1.00  0.00    -0.203 F 
ATOM     71  F   UNL A   1      39.023  34.050  42.452  1.00  0.00    -0.200 F 
ATOM     72  C   UNL A   1      40.235  35.684  41.255  1.00  0.00     0.200 A 
ATOM     73  F   UNL A   1      41.421  37.300  40.006  1.00  0.00    -0.200 F 
ATOM     74  F   UNL A   1      40.165  36.522  42.299  1.00  0.00    -0.200 F 
ENDBRANCH  50  64
BRANCH  51  75
ATOM     75  C   UNL A   1      39.953  28.729  30.490  1.00  0.00     0.064 A 
ATOM     76  C   UNL A   1      39.380  27.458  30.354  1.00  0.00     0.173 A 
ATOM     77  C   UNL A   1      40.481  29.332  29.337  1.00  0.00     0.173 A 
ATOM     78  F   UNL A   1      38.884  26.830  31.430  1.00  0.00    -0.203 F 
ATOM     79  C   UNL A   1      39.335  26.816  29.118  1.00  0.00     0.198 A 
ATOM     80  C   UNL A   1      40.414  28.700  28.098  1.00  0.00     0.198 A 
ATOM     81  F   UNL A   1      41.042  30.548  29.413  1.00  0.00    -0.203 F 
ATOM     82  F   UNL A   1      38.802  25.590  29.020  1.00  0.00    -0.200 F 
ATOM     83  C   UNL A   1      39.842  27.441  27.989  1.00  0.00     0.200 A 
ATOM     84  F   UNL A   1      40.893  29.314  27.007  1.00  0.00    -0.200 F 
ATOM     85  F   UNL A   1      39.782  26.831  26.797  1.00  0.00    -0.200 F 
ENDBRANCH  51  75
BRANCH  63  86
ATOM     86  C   UNL A   1      44.541  29.108  35.756  1.00  0.00     0.064 A 
ATOM     87  C   UNL A   1      44.607  27.881  36.431  1.00  0.00     0.173 A 
ATOM     88  C   UNL A   1      45.733  29.646  35.248  1.00  0.00     0.173 A 
ATOM     89  F   UNL A   1      43.496  27.331  36.944  1.00  0.00    -0.203 F 
ATOM     90  C   UNL A   1      45.824  27.223  36.596  1.00  0.00     0.198 A 
ATOM     91  C   UNL A   1      46.942  28.972  35.390  1.00  0.00     0.198 A 
ATOM     92  F   UNL A   1      45.720  30.813  34.586  1.00  0.00    -0.203 F 
ATOM     93  F   UNL A   1      45.871  26.065  37.270  1.00  0.00    -0.200 F 
ATOM     94  C   UNL A   1      46.987  27.763  36.067  1.00  0.00     0.200 A 
ATOM     95  F   UNL A   1      48.061  29.487  34.862  1.00  0.00    -0.200 F 
ATOM     96  F   UNL A   1      48.152  27.118  36.210  1.00  0.00    -0.200 F 
ENDBRANCH  63  86
ENDBRANCH  37  38
ENDBRANCH  30  32
ENDBRANCH  29  30
ENDBRANCH  28  29
ENDBRANCH  27  28
ENDBRANCH  26  27
ENDBRANCH  25  26
ENDBRANCH  24  25
ENDBRANCH   1  24
TORSDOF 22
ENDMDL
MODEL 2
REMARK VINA RESULT:      -9.4      0.763      2.106
REMARK SMILES O=C(C[N@@H+]1CCC[C@@H]1c1ccccc1Cl)OCCOCCOCCOCCOC(=O)c1ccc(-c2c3nc(c(-c4c(F)c(F)c(F)c(F)c4F)c4ccc([nH]4)c(-c4c(F)c(F)c(F)c(F)c4F)c4nc(c(-c5c(F)c(F)c(F)c(F)c5F)c5ccc2[nH]5)C=C4)C=C3)cc1
REMARK SMILES IDX 22 1 21 2 20 3 19 4 18 5 17 6 16 7 2 8 1 9 3 10 4 11 5 12
REMARK SMILES IDX 8 13 6 15 7 16 9 17 10 18 14 19 11 20 13 21 15 22 12 23
REMARK SMILES IDX 23 24 24 25 25 26 26 27 27 28 28 29 29 30 30 31 31 32 32 33
REMARK SMILES IDX 93 34 33 35 92 36 34 37 35 38 36 39 86 40 37 41 91 42 85 43
REMARK SMILES IDX 87 44 38 45 90 46 84 47 83 48 39 50 71 51 51 52 70 53 52 54
REMARK SMILES IDX 55 55 69 56 88 57 53 58 54 59 68 61 89 62 56 63 40 64 41 65
REMARK SMILES IDX 49 66 42 67 43 68 47 69 50 70 44 71 45 72 48 73 46 74 72 75
REMARK SMILES IDX 73 76 81 77 74 78 75 79 79 80 82 81 76 82 77 83 80 84 78 85
REMARK SMILES IDX 57 86 58 87 66 88 59 89 60 90 64 91 67 92 61 93 62 94 65 95
REMARK SMILES IDX 63 96
REMARK H PARENT 4 14 87 49 55 60
REMARK Flexibility Score: inf
ROOT
ATOM      1  O   UNL A   1      33.819  32.853  28.353  1.00  0.00    -0.377 OA
ENDROOT
BRANCH   1   2
ATOM      2  C   UNL A   1      34.430  31.629  28.730  1.00  0.00     0.188 C 
BRANCH   2   3
ATOM      3  C   UNL A   1      34.478  30.639  27.583  1.00  0.00     0.188 C 
BRANCH   3   4
ATOM      4  O   UNL A   1      33.349  29.792  27.418  1.00  0.00    -0.376 OA
BRANCH   4   5
ATOM      5  C   UNL A   1      32.307  30.101  26.511  1.00  0.00     0.202 C 
BRANCH   5   6
ATOM      6  C   UNL A   1      31.699  28.984  25.672  1.00  0.00     0.261 C 
BRANCH   6   7
ATOM      7  O   UNL A   1      32.111  27.659  26.011  1.00  0.00    -0.459 OA
BRANCH   7   8
ATOM      8  C   UNL A   1      31.303  26.584  25.802  1.00  0.00     0.361 C 
ATOM      9  O   UNL A   1      30.748  26.048  26.760  1.00  0.00    -0.245 OA
BRANCH   8  10
ATOM     10  C   UNL A   1      31.233  25.974  24.395  1.00  0.00     0.387 C 
BRANCH  10  11
ATOM     11  N   UNL A   1      32.516  26.045  23.697  1.00  0.00    -0.319 N 
ATOM     12  C   UNL A   1      32.370  26.930  22.524  1.00  0.00     0.263 C 
ATOM     13  C   UNL A   1      33.138  24.797  23.157  1.00  0.00     0.217 C 
ATOM     14  H   UNL A   1      33.134  26.358  24.446  1.00  0.00     0.349 HD
ATOM     15  C   UNL A   1      31.981  25.981  21.406  1.00  0.00     0.068 C 
ATOM     16  C   UNL A   1      32.893  24.796  21.642  1.00  0.00     0.076 C 
BRANCH  13  17
ATOM     17  C   UNL A   1      32.916  23.413  23.759  1.00  0.00     0.028 A 
ATOM     18  C   UNL A   1      32.362  22.360  23.003  1.00  0.00     0.011 A 
ATOM     19  C   UNL A   1      33.398  23.077  25.046  1.00  0.00     0.050 A 
ATOM     20  C   UNL A   1      32.205  21.072  23.531  1.00  0.00     0.001 A 
ATOM     21  C   UNL A   1      33.274  21.776  25.559  1.00  0.00     0.021 A 
ATOM     22  Cl  UNL A   1      34.224  24.209  26.066  1.00  0.00    -0.084 Cl
ATOM     23  C   UNL A   1      32.662  20.779  24.809  1.00  0.00     0.002 A 
ENDBRANCH  13  17
ENDBRANCH  10  11
ENDBRANCH   8  10
ENDBRANCH   7   8
ENDBRANCH   6   7
ENDBRANCH   5   6
ENDBRANCH   4   5
ENDBRANCH   3   4
ENDBRANCH   2   3
ENDBRANCH   1   2
BRANCH   1  24
ATOM     24  C   UNL A   1      34.666  33.769  27.676  1.00  0.00     0.188 C 
BRANCH  24  25
ATOM     25  C   UNL A   1      34.984  35.105  28.388  1.00  0.00     0.188 C 
BRANCH  25  26
ATOM     26  O   UNL A   1      34.473  36.358  27.938  1.00  0.00    -0.376 OA
BRANCH  26  27
ATOM     27  C   UNL A   1      33.602  37.091  28.779  1.00  0.00     0.202 C 
BRANCH  27  28
ATOM     28  C   UNL A   1      32.909  36.160  29.780  1.00  0.00     0.261 C 
BRANCH  28  29
ATOM     29  O   UNL A   1      33.167  36.531  31.142  1.00  0.00    -0.460 OA
BRANCH  29  30
ATOM     30  C   UNL A   1      32.654  35.698  32.094  1.00  0.00     0.338 C 
ATOM     31  O   UNL A   1      31.497  35.477  32.350  1.00  0.00    -0.246 OA
BRANCH  30  32
ATOM     32  C   UNL A   1      33.790  34.942  32.683  1.00  0.00     0.060 A 
ATOM     33  C   UNL A   1      35.070  35.522  32.666  1.00  0.00     0.016 A 
ATOM     34  C   UNL A   1      33.571  33.732  33.347  1.00  0.00     0.016 A 
ATOM     35  C   UNL A   1      36.139  34.879  33.294  1.00  0.00     0.010 A 
ATOM     36  C   UNL A   1      34.639  33.080  33.956  1.00  0.00     0.010 A 
ATOM     37  C   UNL A   1      35.931  33.631  33.896  1.00  0.00    -0.014 A 
BRANCH  37  38
ATOM     38  C   UNL A   1      37.066  32.731  34.187  1.00  0.00     0.031 A 
ATOM     39  C   UNL A   1      37.844  33.020  35.437  1.00  0.00     0.074 A 
ATOM     40  C   UNL A   1      37.462  31.782  33.323  1.00  0.00     0.049 A 
ATOM     41  N   UNL A   1      39.005  32.565  35.825  1.00  0.00    -0.248 NA
ATOM     42  C   UNL A   1      37.234  33.991  36.361  1.00  0.00     0.031 C 
ATOM     43  C   UNL A   1      36.766  31.411  32.095  1.00  0.00     0.029 A 
ATOM     44  N   UNL A   1      38.583  30.990  33.335  1.00  0.00    -0.354 N 
ATOM     45  C   UNL A   1      39.274  33.218  37.021  1.00  0.00     0.074 A 
ATOM     46  C   UNL A   1      38.170  34.111  37.285  1.00  0.00     0.031 C 
ATOM     47  C   UNL A   1      37.500  30.489  31.445  1.00  0.00     0.029 A 
ATOM     48  C   UNL A   1      38.733  30.244  32.193  1.00  0.00     0.049 A 
ATOM     49  H   UNL A   1      39.216  30.960  34.088  1.00  0.00     0.167 HD
ATOM     50  C   UNL A   1      40.355  33.089  37.822  1.00  0.00     0.037 A 
ATOM     51  C   UNL A   1      39.774  29.492  31.786  1.00  0.00     0.037 A 
ATOM     52  C   UNL A   1      41.454  32.211  37.532  1.00  0.00     0.049 A 
ATOM     53  C   UNL A   1      40.991  29.386  32.671  1.00  0.00     0.074 A 
ATOM     54  C   UNL A   1      42.592  31.972  38.277  1.00  0.00     0.029 A 
ATOM     55  N   UNL A   1      41.553  31.439  36.381  1.00  0.00    -0.354 N 
ATOM     56  N   UNL A   1      41.232  29.972  33.819  1.00  0.00    -0.248 NA
ATOM     57  C   UNL A   1      42.079  28.514  32.205  1.00  0.00     0.031 C 
ATOM     58  C   UNL A   1      43.406  31.094  37.553  1.00  0.00     0.029 A 
ATOM     59  C   UNL A   1      42.746  30.739  36.385  1.00  0.00     0.049 A 
ATOM     60  H   UNL A   1      40.875  31.396  35.669  1.00  0.00     0.167 HD
ATOM     61  C   UNL A   1      42.481  29.523  34.228  1.00  0.00     0.074 A 
ATOM     62  C   UNL A   1      42.949  28.611  33.203  1.00  0.00     0.031 C 
ATOM     63  C   UNL A   1      43.177  29.829  35.352  1.00  0.00     0.037 A 
BRANCH  50  64
ATOM     64  C   UNL A   1      40.408  33.960  39.042  1.00  0.00     0.064 A 
ATOM     65  C   UNL A   1      41.100  35.182  39.053  1.00  0.00     0.173 A 
ATOM     66  C   UNL A   1      39.796  33.545  40.234  1.00  0.00     0.173 A 
ATOM     67  F   UNL A   1      41.726  35.614  37.946  1.00  0.00    -0.203 F 
ATOM     68  C   UNL A   1      41.215  35.930  40.221  1.00  0.00     0.198 A 
ATOM     69  C   UNL A   1      39.883  34.313  41.391  1.00  0.00     0.198 A 
ATOM     70  F   UNL A   1      39.126  32.383  40.282  1.00  0.00    -0.203 F 
ATOM     71  F   UNL A   1      41.946  37.055  40.225  1.00  0.00    -0.200 F 
ATOM     72  C   UNL A   1      40.604  35.498  41.388  1.00  0.00     0.200 A 
ATOM     73  F   UNL A   1      39.286  33.897  42.516  1.00  0.00    -0.200 F 
ATOM     74  F   UNL A   1      40.723  36.216  42.514  1.00  0.00    -0.200 F 
ENDBRANCH  50  64
BRANCH  51  75
ATOM     75  C   UNL A   1      39.711  28.802  30.471  1.00  0.00     0.064 A 
ATOM     76  C   UNL A   1      40.134  29.440  29.298  1.00  0.00     0.173 A 
ATOM     77  C   UNL A   1      39.261  27.476  30.364  1.00  0.00     0.173 A 
ATOM     78  F   UNL A   1      40.550  30.715  29.343  1.00  0.00    -0.203 F 
ATOM     79  C   UNL A   1      40.108  28.782  28.069  1.00  0.00     0.198 A 
ATOM     80  C   UNL A   1      39.258  26.811  29.141  1.00  0.00     0.198 A 
ATOM     81  F   UNL A   1      38.844  26.819  31.457  1.00  0.00    -0.203 F 
ATOM     82  F   UNL A   1      40.496  29.424  26.958  1.00  0.00    -0.200 F 
ATOM     83  C   UNL A   1      39.681  27.465  27.993  1.00  0.00     0.200 A 
ATOM     84  F   UNL A   1      38.857  25.534  29.074  1.00  0.00    -0.200 F 
ATOM     85  F   UNL A   1      39.674  26.827  26.814  1.00  0.00    -0.200 F 
ENDBRANCH  51  75
BRANCH  63  86
ATOM     86  C   UNL A   1      44.493  29.140  35.564  1.00  0.00     0.064 A 
ATOM     87  C   UNL A   1      45.701  29.708  35.136  1.00  0.00     0.173 A 
ATOM     88  C   UNL A   1      44.548  27.939  36.286  1.00  0.00     0.173 A 
ATOM     89  F   UNL A   1      45.699  30.851  34.433  1.00  0.00    -0.203 F 
ATOM     90  C   UNL A   1      46.918  29.090  35.414  1.00  0.00     0.198 A 
ATOM     91  C   UNL A   1      45.767  27.339  36.587  1.00  0.00     0.198 A 
ATOM     92  F   UNL A   1      43.420  27.362  36.726  1.00  0.00    -0.203 F 
ATOM     93  F   UNL A   1      48.060  29.633  34.971  1.00  0.00    -0.200 F 
ATOM     94  C   UNL A   1      46.950  27.913  36.149  1.00  0.00     0.200 A 
ATOM     95  F   UNL A   1      45.797  26.212  37.312  1.00  0.00    -0.200 F 
ATOM     96  F   UNL A   1      48.123  27.331  36.432  1.00  0.00    -0.200 F 
ENDBRANCH  63  86
ENDBRANCH  37  38
ENDBRANCH  30  32
ENDBRANCH  29  30
ENDBRANCH  28  29
ENDBRANCH  27  28
ENDBRANCH  26  27
ENDBRANCH  25  26
ENDBRANCH  24  25
ENDBRANCH   1  24
TORSDOF 22
ENDMDL
MODEL 3
REMARK VINA RESULT:      -9.1      1.169      7.220
REMARK SMILES O=C(C[N@@H+]1CCC[C@@H]1c1ccccc1Cl)OCCOCCOCCOCCOC(=O)c1ccc(-c2c3nc(c(-c4c(F)c(F)c(F)c(F)c4F)c4ccc([nH]4)c(-c4c(F)c(F)c(F)c(F)c4F)c4nc(c(-c5c(F)c(F)c(F)c(F)c5F)c5ccc2[nH]5)C=C4)C=C3)cc1
REMARK SMILES IDX 22 1 21 2 20 3 19 4 18 5 17 6 16 7 2 8 1 9 3 10 4 11 5 12
REMARK SMILES IDX 8 13 6 15 7 16 9 17 10 18 14 19 11 20 13 21 15 22 12 23
REMARK SMILES IDX 23 24 24 25 25 26 26 27 27 28 28 29 29 30 30 31 31 32 32 33
REMARK SMILES IDX 93 34 33 35 92 36 34 37 35 38 36 39 86 40 37 41 91 42 85 43
REMARK SMILES IDX 87 44 38 45 90 46 84 47 83 48 39 50 71 51 51 52 70 53 52 54
REMARK SMILES IDX 55 55 69 56 88 57 53 58 54 59 68 61 89 62 56 63 40 64 41 65
REMARK SMILES IDX 49 66 42 67 43 68 47 69 50 70 44 71 45 72 48 73 46 74 72 75
REMARK SMILES IDX 73 76 81 77 74 78 75 79 79 80 82 81 76 82 77 83 80 84 78 85
REMARK SMILES IDX 57 86 58 87 66 88 59 89 60 90 64 91 67 92 61 93 62 94 65 95
REMARK SMILES IDX 63 96
REMARK H PARENT 4 14 87 49 55 60
REMARK Flexibility Score: inf
ROOT
ATOM      1  O   UNL A   1      33.705  33.005  28.316  1.00  0.00    -0.377 OA
ENDROOT
BRANCH   1   2
ATOM      2  C   UNL A   1      34.223  31.726  28.647  1.00  0.00     0.188 C 
BRANCH   2   3
ATOM      3  C   UNL A   1      34.364  30.835  27.429  1.00  0.00     0.188 C 
BRANCH   3   4
ATOM      4  O   UNL A   1      33.336  29.878  27.210  1.00  0.00    -0.376 OA
BRANCH   4   5
ATOM      5  C   UNL A   1      32.215  30.157  26.392  1.00  0.00     0.202 C 
BRANCH   5   6
ATOM      6  C   UNL A   1      31.628  29.042  25.536  1.00  0.00     0.261 C 
BRANCH   6   7
ATOM      7  O   UNL A   1      32.023  27.715  25.888  1.00  0.00    -0.459 OA
BRANCH   7   8
ATOM      8  C   UNL A   1      31.219  26.643  25.649  1.00  0.00     0.361 C 
ATOM      9  O   UNL A   1      30.667  26.078  26.591  1.00  0.00    -0.245 OA
BRANCH   8  10
ATOM     10  C   UNL A   1      31.150  26.073  24.225  1.00  0.00     0.387 C 
BRANCH  10  11
ATOM     11  N   UNL A   1      32.419  26.212  23.512  1.00  0.00    -0.319 N 
ATOM     12  C   UNL A   1      32.202  27.046  22.313  1.00  0.00     0.263 C 
ATOM     13  C   UNL A   1      33.124  24.994  23.005  1.00  0.00     0.217 C 
ATOM     14  H   UNL A   1      33.019  26.592  24.244  1.00  0.00     0.349 HD
ATOM     15  C   UNL A   1      31.872  26.037  21.230  1.00  0.00     0.068 C 
ATOM     16  C   UNL A   1      32.867  24.928  21.494  1.00  0.00     0.076 C 
BRANCH  13  17
ATOM     17  C   UNL A   1      33.005  23.619  23.653  1.00  0.00     0.028 A 
ATOM     18  C   UNL A   1      32.498  22.511  22.944  1.00  0.00     0.011 A 
ATOM     19  C   UNL A   1      33.542  23.352  24.935  1.00  0.00     0.050 A 
ATOM     20  C   UNL A   1      32.436  21.232  23.513  1.00  0.00     0.001 A 
ATOM     21  C   UNL A   1      33.514  22.063  25.488  1.00  0.00     0.021 A 
ATOM     22  Cl  UNL A   1      34.323  24.564  25.897  1.00  0.00    -0.084 Cl
ATOM     23  C   UNL A   1      32.945  21.007  24.785  1.00  0.00     0.002 A 
ENDBRANCH  13  17
ENDBRANCH  10  11
ENDBRANCH   8  10
ENDBRANCH   7   8
ENDBRANCH   6   7
ENDBRANCH   5   6
ENDBRANCH   4   5
ENDBRANCH   3   4
ENDBRANCH   2   3
ENDBRANCH   1   2
BRANCH   1  24
ATOM     24  C   UNL A   1      34.625  33.888  27.692  1.00  0.00     0.188 C 
BRANCH  24  25
ATOM     25  C   UNL A   1      34.946  35.214  28.421  1.00  0.00     0.188 C 
BRANCH  25  26
ATOM     26  O   UNL A   1      34.290  36.441  28.111  1.00  0.00    -0.376 OA
BRANCH  26  27
ATOM     27  C   UNL A   1      33.340  36.966  29.020  1.00  0.00     0.202 C 
BRANCH  27  28
ATOM     28  C   UNL A   1      32.834  35.870  29.963  1.00  0.00     0.261 C 
BRANCH  28  29
ATOM     29  O   UNL A   1      32.855  36.279  31.339  1.00  0.00    -0.460 OA
BRANCH  29  30
ATOM     30  C   UNL A   1      32.784  35.274  32.260  1.00  0.00     0.338 C 
ATOM     31  O   UNL A   1      31.806  34.823  32.802  1.00  0.00    -0.246 OA
BRANCH  30  32
ATOM     32  C   UNL A   1      34.141  34.679  32.375  1.00  0.00     0.060 A 
ATOM     33  C   UNL A   1      34.263  33.282  32.460  1.00  0.00     0.016 A 
ATOM     34  C   UNL A   1      35.280  35.484  32.282  1.00  0.00     0.016 A 
ATOM     35  C   UNL A   1      35.528  32.689  32.476  1.00  0.00     0.010 A 
ATOM     36  C   UNL A   1      36.541  34.896  32.318  1.00  0.00     0.010 A 
ATOM     37  C   UNL A   1      36.667  33.503  32.455  1.00  0.00    -0.014 A 
BRANCH  37  38
ATOM     38  C   UNL A   1      37.980  32.981  32.892  1.00  0.00     0.031 A 
ATOM     39  C   UNL A   1      38.592  31.913  32.034  1.00  0.00     0.074 A 
ATOM     40  C   UNL A   1      38.541  33.348  34.055  1.00  0.00     0.049 A 
ATOM     41  N   UNL A   1      39.595  31.114  32.279  1.00  0.00    -0.248 NA
ATOM     42  C   UNL A   1      37.951  31.697  30.725  1.00  0.00     0.031 C 
ATOM     43  C   UNL A   1      38.038  34.388  34.947  1.00  0.00     0.029 A 
ATOM     44  N   UNL A   1      39.641  32.843  34.702  1.00  0.00    -0.354 N 
ATOM     45  C   UNL A   1      39.684  30.284  31.170  1.00  0.00     0.074 A 
ATOM     46  C   UNL A   1      38.626  30.661  30.261  1.00  0.00     0.031 C 
ATOM     47  C   UNL A   1      38.805  34.415  36.053  1.00  0.00     0.029 A 
ATOM     48  C   UNL A   1      39.820  33.366  35.958  1.00  0.00     0.049 A 
ATOM     49  H   UNL A   1      40.242  32.172  34.304  1.00  0.00     0.167 HD
ATOM     50  C   UNL A   1      40.567  29.287  30.936  1.00  0.00     0.037 A 
ATOM     51  C   UNL A   1      40.678  32.999  36.930  1.00  0.00     0.037 A 
ATOM     52  C   UNL A   1      41.599  28.912  31.862  1.00  0.00     0.049 A 
ATOM     53  C   UNL A   1      41.633  31.860  36.672  1.00  0.00     0.074 A 
ATOM     54  C   UNL A   1      42.570  27.939  31.729  1.00  0.00     0.029 A 
ATOM     55  N   UNL A   1      41.775  29.493  33.112  1.00  0.00    -0.354 N 
ATOM     56  N   UNL A   1      41.743  31.099  35.609  1.00  0.00    -0.248 NA
ATOM     57  C   UNL A   1      42.581  31.530  37.745  1.00  0.00     0.031 C 
ATOM     58  C   UNL A   1      43.302  27.895  32.920  1.00  0.00     0.029 A 
ATOM     59  C   UNL A   1      42.826  28.882  33.771  1.00  0.00     0.049 A 
ATOM     60  H   UNL A   1      41.233  30.230  33.475  1.00  0.00     0.167 HD
ATOM     61  C   UNL A   1      42.786  30.220  35.871  1.00  0.00     0.074 A 
ATOM     62  C   UNL A   1      43.279  30.544  37.196  1.00  0.00     0.031 C 
ATOM     63  C   UNL A   1      43.298  29.238  35.087  1.00  0.00     0.037 A 
BRANCH  50  64
ATOM     64  C   UNL A   1      40.401  28.514  29.662  1.00  0.00     0.064 A 
ATOM     65  C   UNL A   1      39.686  27.306  29.613  1.00  0.00     0.173 A 
ATOM     66  C   UNL A   1      41.007  28.963  28.479  1.00  0.00     0.173 A 
ATOM     67  F   UNL A   1      39.109  26.818  30.722  1.00  0.00    -0.203 F 
ATOM     68  C   UNL A   1      39.623  26.557  28.441  1.00  0.00     0.198 A 
ATOM     69  C   UNL A   1      40.912  28.229  27.300  1.00  0.00     0.198 A 
ATOM     70  F   UNL A   1      41.706  30.108  28.470  1.00  0.00    -0.203 F 
ATOM     71  F   UNL A   1      38.999  25.371  28.440  1.00  0.00    -0.200 F 
ATOM     72  C   UNL A   1      40.232  27.021  27.285  1.00  0.00     0.200 A 
ATOM     73  F   UNL A   1      41.495  28.682  26.182  1.00  0.00    -0.200 F 
ATOM     74  F   UNL A   1      40.177  26.295  26.160  1.00  0.00    -0.200 F 
ENDBRANCH  50  64
BRANCH  51  75
ATOM     75  C   UNL A   1      40.652  33.707  38.237  1.00  0.00     0.064 A 
ATOM     76  C   UNL A   1      39.704  33.383  39.216  1.00  0.00     0.173 A 
ATOM     77  C   UNL A   1      41.598  34.696  38.549  1.00  0.00     0.173 A 
ATOM     78  F   UNL A   1      38.765  32.461  38.958  1.00  0.00    -0.203 F 
ATOM     79  C   UNL A   1      39.701  34.020  40.456  1.00  0.00     0.198 A 
ATOM     80  C   UNL A   1      41.609  35.316  39.796  1.00  0.00     0.198 A 
ATOM     81  F   UNL A   1      42.527  35.044  37.646  1.00  0.00    -0.203 F 
ATOM     82  F   UNL A   1      38.768  33.708  41.366  1.00  0.00    -0.200 F 
ATOM     83  C   UNL A   1      40.659  34.979  40.749  1.00  0.00     0.200 A 
ATOM     84  F   UNL A   1      42.546  36.232  40.079  1.00  0.00    -0.200 F 
ATOM     85  F   UNL A   1      40.667  35.579  41.947  1.00  0.00    -0.200 F 
ENDBRANCH  51  75
BRANCH  63  86
ATOM     86  C   UNL A   1      44.479  28.474  35.611  1.00  0.00     0.064 A 
ATOM     87  C   UNL A   1      44.325  27.295  36.353  1.00  0.00     0.173 A 
ATOM     88  C   UNL A   1      45.781  28.883  35.284  1.00  0.00     0.173 A 
ATOM     89  F   UNL A   1      43.100  26.869  36.699  1.00  0.00    -0.203 F 
ATOM     90  C   UNL A   1      45.435  26.559  36.761  1.00  0.00     0.198 A 
ATOM     91  C   UNL A   1      46.886  28.129  35.667  1.00  0.00     0.198 A 
ATOM     92  F   UNL A   1      45.979  29.998  34.566  1.00  0.00    -0.203 F 
ATOM     93  F   UNL A   1      45.269  25.451  37.496  1.00  0.00    -0.200 F 
ATOM     94  C   UNL A   1      46.712  26.971  36.408  1.00  0.00     0.200 A 
ATOM     95  F   UNL A   1      48.117  28.519  35.311  1.00  0.00    -0.200 F 
ATOM     96  F   UNL A   1      47.778  26.250  36.784  1.00  0.00    -0.200 F 
ENDBRANCH  63  86
ENDBRANCH  37  38
ENDBRANCH  30  32
ENDBRANCH  29  30
ENDBRANCH  28  29
ENDBRANCH  27  28
ENDBRANCH  26  27
ENDBRANCH  25  26
ENDBRANCH  24  25
ENDBRANCH   1  24
TORSDOF 22
ENDMDL
