MODEL 1
REMARK VINA RESULT:     -10.9      0.000      0.000
REMARK SMILES COc1ccc(-n2ccnc2C[N@@H+]2CCn3nc(C(=O)OCCOCCOCCOCCOC(=O)c4ccc(-c5c6nc(c(-c7c(F)c(F)c(F)c(F)c7F)c7ccc([nH]7)c(-c7c(F)c(F)c(F)c(F)c7F)c7nc(c(-c8c(F)c(F)c(F)c(F)c8F)c8ccc5[nH]8)C=C7)C=C6)cc4)cc3C2)cc1
REMARK SMILES IDX 26 1 25 2 24 3 23 4 22 5 21 6 19 7 20 8 18 9 13 10 14 11
REMARK SMILES IDX 101 12 15 14 100 15 16 16 99 17 17 18 12 19 11 20 7 21 8 22
REMARK SMILES IDX 9 23 10 24 6 25 3 26 4 27 103 28 5 29 102 30 2 31 1 32 27 33
REMARK SMILES IDX 28 34 29 35 30 36 31 37 32 38 33 39 34 40 35 41 36 42 37 43
REMARK SMILES IDX 98 44 38 45 97 46 39 47 40 48 41 49 91 50 42 51 96 52 90 53
REMARK SMILES IDX 92 54 43 55 95 56 89 57 88 58 44 60 76 61 56 62 75 63 57 64
REMARK SMILES IDX 60 65 74 66 93 67 58 68 59 69 73 71 94 72 61 73 45 74 46 75
REMARK SMILES IDX 54 76 47 77 48 78 52 79 55 80 49 81 50 82 53 83 51 84 77 85
REMARK SMILES IDX 78 86 86 87 79 88 80 89 84 90 87 91 81 92 82 93 85 94 83 95
REMARK SMILES IDX 62 96 63 97 71 98 64 99 65 100 69 101 72 102 66 103 67 104
REMARK SMILES IDX 70 105 68 106
REMARK H PARENT 13 13 92 59 60 70
REMARK Flexibility Score: inf
ROOT
ATOM      1  C   UNL A   1      37.960  30.303  31.296  1.00  0.00     0.188 C 
ENDROOT
BRANCH   1   2
ATOM      2  C   UNL A   1      38.818  31.250  30.461  1.00  0.00     0.188 C 
BRANCH   2   3
ATOM      3  O   UNL A   1      38.275  31.531  29.199  1.00  0.00    -0.376 OA
BRANCH   3   4
ATOM      4  C   UNL A   1      37.008  32.149  29.114  1.00  0.00     0.202 C 
BRANCH   4   5
ATOM      5  C   UNL A   1      35.654  31.386  28.901  1.00  0.00     0.261 C 
BRANCH   5   6
ATOM      6  O   UNL A   1      34.903  31.359  27.628  1.00  0.00    -0.458 OA
BRANCH   6   7
ATOM      7  C   UNL A   1      34.358  30.023  27.227  1.00  0.00     0.358 C 
ATOM      8  O   UNL A   1      34.992  29.278  28.037  1.00  0.00    -0.244 OA
BRANCH   7   9
ATOM      9  C   UNL A   1      33.082  29.513  25.656  1.00  0.00     0.170 A 
ATOM     10  N   UNL A   1      31.488  26.136  24.056  1.00  0.00    -0.322 N 
ATOM     11  C   UNL A   1      32.749  26.279  23.271  1.00  0.00     0.286 C 
ATOM     12  C   UNL A   1      30.598  27.298  23.867  1.00  0.00     0.319 C 
ATOM     13  H   UNL A   1      31.101  25.283  23.655  1.00  0.00     0.348 HD
ATOM     14  C   UNL A   1      33.122  27.700  22.779  1.00  0.00     0.206 C 
ATOM     15  C   UNL A   1      31.390  28.453  24.318  1.00  0.00     0.094 A 
ATOM     16  N   UNL A   1      32.555  28.671  23.690  1.00  0.00    -0.257 N 
ATOM     17  C   UNL A   1      31.530  29.088  25.526  1.00  0.00     0.067 A 
ATOM     18  N   UNL A   1      33.310  29.587  24.250  1.00  0.00    -0.165 NA
BRANCH  10  19
ATOM     19  C   UNL A   1      31.596  25.852  25.519  1.00  0.00     0.339 C 
BRANCH  19  20
ATOM     20  C   UNL A   1      31.023  24.600  26.113  1.00  0.00     0.168 A 
ATOM     21  N   UNL A   1      31.637  23.346  26.338  1.00  0.00    -0.299 N 
ATOM     22  C   UNL A   1      30.639  22.594  26.939  1.00  0.00     0.113 A 
ATOM     23  C   UNL A   1      29.540  23.395  27.098  1.00  0.00     0.132 A 
ATOM     24  N   UNL A   1      29.782  24.620  26.584  1.00  0.00    -0.236 NA
BRANCH  21  25
ATOM     25  C   UNL A   1      32.822  22.754  25.747  1.00  0.00     0.047 A 
ATOM     26  C   UNL A   1      36.109  21.178  25.171  1.00  0.00     0.119 A 
ATOM     27  C   UNL A   1      34.559  20.266  24.764  1.00  0.00     0.048 A 
ATOM     28  C   UNL A   1      35.992  22.943  25.709  1.00  0.00     0.048 A 
ATOM     29  C   UNL A   1      32.907  21.060  25.054  1.00  0.00     0.030 A 
ATOM     30  C   UNL A   1      34.351  23.693  25.992  1.00  0.00     0.030 A 
BRANCH  26  31
ATOM     31  O   UNL A   1      37.296  20.663  24.709  1.00  0.00    -0.497 OA
ATOM     32  C   UNL A   1      38.404  21.090  25.510  1.00  0.00     0.278 C 
ENDBRANCH  26  31
ENDBRANCH  21  25
ENDBRANCH  19  20
ENDBRANCH  10  19
ENDBRANCH   7   9
ENDBRANCH   6   7
ENDBRANCH   5   6
ENDBRANCH   4   5
ENDBRANCH   3   4
ENDBRANCH   2   3
ENDBRANCH   1   2
BRANCH   1  33
ATOM     33  O   UNL A   1      38.539  29.612  32.378  1.00  0.00    -0.377 OA
BRANCH  33  34
ATOM     34  C   UNL A   1      39.945  29.547  32.443  1.00  0.00     0.188 C 
BRANCH  34  35
ATOM     35  C   UNL A   1      40.760  29.608  33.768  1.00  0.00     0.188 C 
BRANCH  35  36
ATOM     36  O   UNL A   1      41.819  28.751  34.149  1.00  0.00    -0.376 OA
BRANCH  36  37
ATOM     37  C   UNL A   1      41.925  27.343  34.281  1.00  0.00     0.202 C 
BRANCH  37  38
ATOM     38  C   UNL A   1      42.491  26.579  35.463  1.00  0.00     0.261 C 
BRANCH  38  39
ATOM     39  O   UNL A   1      43.842  26.857  35.713  1.00  0.00    -0.460 OA
BRANCH  39  40
ATOM     40  C   UNL A   1      44.547  25.726  35.884  1.00  0.00     0.338 C 
ATOM     41  O   UNL A   1      44.498  24.958  36.830  1.00  0.00    -0.246 OA
BRANCH  40  42
ATOM     42  C   UNL A   1      45.522  25.628  34.803  1.00  0.00     0.060 A 
ATOM     43  C   UNL A   1      45.770  26.828  34.154  1.00  0.00     0.016 A 
ATOM     44  C   UNL A   1      45.698  24.381  34.188  1.00  0.00     0.016 A 
ATOM     45  C   UNL A   1      45.737  26.788  32.785  1.00  0.00     0.010 A 
ATOM     46  C   UNL A   1      45.738  24.347  32.822  1.00  0.00     0.010 A 
ATOM     47  C   UNL A   1      45.575  25.545  32.142  1.00  0.00    -0.014 A 
BRANCH  47  48
ATOM     48  C   UNL A   1      45.496  25.517  30.696  1.00  0.00     0.031 A 
ATOM     49  C   UNL A   1      46.509  26.459  30.180  1.00  0.00     0.074 A 
ATOM     50  C   UNL A   1      44.643  24.755  29.971  1.00  0.00     0.049 A 
ATOM     51  N   UNL A   1      46.262  27.671  29.819  1.00  0.00    -0.248 NA
ATOM     52  C   UNL A   1      47.940  26.192  30.406  1.00  0.00     0.031 C 
ATOM     53  C   UNL A   1      43.724  23.699  30.415  1.00  0.00     0.029 A 
ATOM     54  N   UNL A   1      44.444  24.758  28.611  1.00  0.00    -0.354 N 
ATOM     55  C   UNL A   1      47.491  28.220  29.489  1.00  0.00     0.074 A 
ATOM     56  C   UNL A   1      48.483  27.370  30.085  1.00  0.00     0.031 C 
ATOM     57  C   UNL A   1      43.258  23.007  29.343  1.00  0.00     0.029 A 
ATOM     58  C   UNL A   1      43.709  23.658  28.127  1.00  0.00     0.049 A 
ATOM     59  H   UNL A   1      44.787  25.470  28.024  1.00  0.00     0.167 HD
ATOM     60  C   UNL A   1      47.546  29.105  28.459  1.00  0.00     0.037 A 
ATOM     61  C   UNL A   1      43.482  23.362  26.815  1.00  0.00     0.037 A 
ATOM     62  C   UNL A   1      46.215  29.573  28.147  1.00  0.00     0.049 A 
ATOM     63  C   UNL A   1      43.637  24.636  26.077  1.00  0.00     0.074 A 
ATOM     64  C   UNL A   1      45.299  30.424  28.728  1.00  0.00     0.029 A 
ATOM     65  N   UNL A   1      45.513  28.695  27.362  1.00  0.00    -0.354 N 
ATOM     66  N   UNL A   1      42.805  25.631  26.208  1.00  0.00    -0.248 NA
ATOM     67  C   UNL A   1      44.959  24.973  25.577  1.00  0.00     0.031 C 
ATOM     68  C   UNL A   1      44.010  29.903  28.396  1.00  0.00     0.029 A 
ATOM     69  C   UNL A   1      44.167  28.818  27.534  1.00  0.00     0.049 A 
ATOM     70  H   UNL A   1      45.934  28.051  26.747  1.00  0.00     0.167 HD
ATOM     71  C   UNL A   1      43.622  26.745  26.258  1.00  0.00     0.074 A 
ATOM     72  C   UNL A   1      44.914  26.298  25.735  1.00  0.00     0.031 C 
ATOM     73  C   UNL A   1      43.259  27.818  27.022  1.00  0.00     0.037 A 
BRANCH  60  74
ATOM     74  C   UNL A   1      48.625  29.086  27.401  1.00  0.00     0.064 A 
ATOM     75  C   UNL A   1      48.866  27.884  26.709  1.00  0.00     0.173 A 
ATOM     76  C   UNL A   1      49.628  30.074  27.268  1.00  0.00     0.173 A 
ATOM     77  F   UNL A   1      48.000  26.863  26.797  1.00  0.00    -0.203 F 
ATOM     78  C   UNL A   1      50.042  27.672  25.983  1.00  0.00     0.198 A 
ATOM     79  C   UNL A   1      50.775  29.877  26.504  1.00  0.00     0.198 A 
ATOM     80  F   UNL A   1      49.604  31.220  27.957  1.00  0.00    -0.203 F 
ATOM     81  F   UNL A   1      50.277  26.474  25.432  1.00  0.00    -0.200 F 
ATOM     82  C   UNL A   1      50.995  28.668  25.882  1.00  0.00     0.200 A 
ATOM     83  F   UNL A   1      51.702  30.845  26.448  1.00  0.00    -0.200 F 
ATOM     84  F   UNL A   1      52.142  28.452  25.227  1.00  0.00    -0.200 F 
ENDBRANCH  60  74
BRANCH  61  85
ATOM     85  C   UNL A   1      43.492  22.063  26.080  1.00  0.00     0.064 A 
ATOM     86  C   UNL A   1      44.687  21.490  25.590  1.00  0.00     0.173 A 
ATOM     87  C   UNL A   1      42.388  21.198  26.163  1.00  0.00     0.173 A 
ATOM     88  F   UNL A   1      45.811  22.218  25.528  1.00  0.00    -0.203 F 
ATOM     89  C   UNL A   1      44.771  20.133  25.235  1.00  0.00     0.198 A 
ATOM     90  C   UNL A   1      42.475  19.844  25.818  1.00  0.00     0.198 A 
ATOM     91  F   UNL A   1      41.232  21.629  26.688  1.00  0.00    -0.203 F 
ATOM     92  F   UNL A   1      45.940  19.612  24.832  1.00  0.00    -0.200 F 
ATOM     93  C   UNL A   1      43.668  19.309  25.365  1.00  0.00     0.200 A 
ATOM     94  F   UNL A   1      41.414  19.044  25.998  1.00  0.00    -0.200 F 
ATOM     95  F   UNL A   1      43.762  17.998  25.101  1.00  0.00    -0.200 F 
ENDBRANCH  61  85
BRANCH  73  96
ATOM     96  C   UNL A   1      41.819  27.920  27.430  1.00  0.00     0.064 A 
ATOM     97  C   UNL A   1      41.269  27.382  28.607  1.00  0.00     0.173 A 
ATOM     98  C   UNL A   1      40.983  28.693  26.617  1.00  0.00     0.173 A 
ATOM     99  F   UNL A   1      42.027  26.699  29.475  1.00  0.00    -0.203 F 
ATOM    100  C   UNL A   1      39.925  27.587  28.927  1.00  0.00     0.198 A 
ATOM    101  C   UNL A   1      39.656  28.924  26.955  1.00  0.00     0.198 A 
ATOM    102  F   UNL A   1      41.474  29.265  25.506  1.00  0.00    -0.203 F 
ATOM    103  F   UNL A   1      39.410  27.059  30.047  1.00  0.00    -0.200 F 
ATOM    104  C   UNL A   1      39.122  28.361  28.103  1.00  0.00     0.200 A 
ATOM    105  F   UNL A   1      38.903  29.714  26.179  1.00  0.00    -0.200 F 
ATOM    106  F   UNL A   1      37.841  28.585  28.424  1.00  0.00    -0.200 F 
ENDBRANCH  73  96
ENDBRANCH  47  48
ENDBRANCH  40  42
ENDBRANCH  39  40
ENDBRANCH  38  39
ENDBRANCH  37  38
ENDBRANCH  36  37
ENDBRANCH  35  36
ENDBRANCH  34  35
ENDBRANCH  33  34
ENDBRANCH   1  33
TORSDOF 24
ENDMDL
MODEL 2
REMARK VINA RESULT:     -10.2      3.027      8.041
REMARK SMILES COc1ccc(-n2ccnc2C[N@@H+]2CCn3nc(C(=O)OCCOCCOCCOCCOC(=O)c4ccc(-c5c6nc(c(-c7c(F)c(F)c(F)c(F)c7F)c7ccc([nH]7)c(-c7c(F)c(F)c(F)c(F)c7F)c7nc(c(-c8c(F)c(F)c(F)c(F)c8F)c8ccc5[nH]8)C=C7)C=C6)cc4)cc3C2)cc1
REMARK SMILES IDX 26 1 25 2 24 3 23 4 22 5 21 6 19 7 20 8 18 9 13 10 14 11
REMARK SMILES IDX 101 12 15 14 100 15 16 16 99 17 17 18 12 19 11 20 7 21 8 22
REMARK SMILES IDX 9 23 10 24 6 25 3 26 4 27 103 28 5 29 102 30 2 31 1 32 27 33
REMARK SMILES IDX 28 34 29 35 30 36 31 37 32 38 33 39 34 40 35 41 36 42 37 43
REMARK SMILES IDX 98 44 38 45 97 46 39 47 40 48 41 49 91 50 42 51 96 52 90 53
REMARK SMILES IDX 92 54 43 55 95 56 89 57 88 58 44 60 76 61 56 62 75 63 57 64
REMARK SMILES IDX 60 65 74 66 93 67 58 68 59 69 73 71 94 72 61 73 45 74 46 75
REMARK SMILES IDX 54 76 47 77 48 78 52 79 55 80 49 81 50 82 53 83 51 84 77 85
REMARK SMILES IDX 78 86 86 87 79 88 80 89 84 90 87 91 81 92 82 93 85 94 83 95
REMARK SMILES IDX 62 96 63 97 71 98 64 99 65 100 69 101 72 102 66 103 67 104
REMARK SMILES IDX 70 105 68 106
REMARK H PARENT 13 13 92 59 60 70
REMARK Flexibility Score: inf
ROOT
ATOM      1  C   UNL A   1      33.911  27.576  25.534  1.00  0.00     0.188 C 
ENDROOT
BRANCH   1   2
ATOM      2  C   UNL A   1      34.413  26.187  25.150  1.00  0.00     0.188 C 
BRANCH   2   3
ATOM      3  O   UNL A   1      34.158  25.211  26.124  1.00  0.00    -0.376 OA
BRANCH   3   4
ATOM      4  C   UNL A   1      34.915  24.019  26.123  1.00  0.00     0.202 C 
BRANCH   4   5
ATOM      5  C   UNL A   1      36.390  23.897  25.605  1.00  0.00     0.261 C 
BRANCH   5   6
ATOM      6  O   UNL A   1      37.153  22.632  25.551  1.00  0.00    -0.458 OA
BRANCH   6   7
ATOM      7  C   UNL A   1      36.348  21.403  25.266  1.00  0.00     0.358 C 
ATOM      8  O   UNL A   1      37.272  20.532  25.266  1.00  0.00    -0.244 OA
BRANCH   7   9
ATOM      9  C   UNL A   1      34.323  21.206  24.798  1.00  0.00     0.170 A 
ATOM     10  N   UNL A   1      31.114  23.637  24.256  1.00  0.00    -0.322 N 
ATOM     11  C   UNL A   1      31.027  23.339  25.716  1.00  0.00     0.286 C 
ATOM     12  C   UNL A   1      31.006  22.410  23.445  1.00  0.00     0.319 C 
ATOM     13  H   UNL A   1      30.312  24.255  24.133  1.00  0.00     0.348 HD
ATOM     14  C   UNL A   1      31.279  21.876  26.158  1.00  0.00     0.206 C 
ATOM     15  C   UNL A   1      32.125  21.565  23.894  1.00  0.00     0.094 A 
ATOM     16  N   UNL A   1      32.157  21.245  25.197  1.00  0.00    -0.257 N 
ATOM     17  C   UNL A   1      33.422  21.416  23.475  1.00  0.00     0.067 A 
ATOM     18  N   UNL A   1      33.266  20.659  25.584  1.00  0.00    -0.165 NA
BRANCH  10  19
ATOM     19  C   UNL A   1      32.282  24.431  23.767  1.00  0.00     0.339 C 
BRANCH  19  20
ATOM     20  C   UNL A   1      32.295  25.029  22.392  1.00  0.00     0.168 A 
ATOM     21  N   UNL A   1      31.799  26.277  21.948  1.00  0.00    -0.299 N 
ATOM     22  C   UNL A   1      32.122  26.298  20.599  1.00  0.00     0.113 A 
ATOM     23  C   UNL A   1      32.814  25.152  20.309  1.00  0.00     0.132 A 
ATOM     24  N   UNL A   1      32.909  24.379  21.412  1.00  0.00    -0.236 NA
BRANCH  21  25
ATOM     25  C   UNL A   1      30.819  27.168  22.537  1.00  0.00     0.047 A 
ATOM     26  C   UNL A   1      28.151  29.653  23.108  1.00  0.00     0.119 A 
ATOM     27  C   UNL A   1      27.874  27.882  23.537  1.00  0.00     0.048 A 
ATOM     28  C   UNL A   1      29.831  30.186  22.550  1.00  0.00     0.048 A 
ATOM     29  C   UNL A   1      29.217  26.633  23.250  1.00  0.00     0.030 A 
ATOM     30  C   UNL A   1      31.128  28.932  22.270  1.00  0.00     0.030 A 
BRANCH  26  31
ATOM     31  O   UNL A   1      27.239  30.574  23.568  1.00  0.00    -0.497 OA
ATOM     32  C   UNL A   1      27.559  31.898  23.125  1.00  0.00     0.278 C 
ENDBRANCH  26  31
ENDBRANCH  21  25
ENDBRANCH  19  20
ENDBRANCH  10  19
ENDBRANCH   7   9
ENDBRANCH   6   7
ENDBRANCH   5   6
ENDBRANCH   4   5
ENDBRANCH   3   4
ENDBRANCH   2   3
ENDBRANCH   1   2
BRANCH   1  33
ATOM     33  O   UNL A   1      33.436  27.807  26.840  1.00  0.00    -0.377 OA
BRANCH  33  34
ATOM     34  C   UNL A   1      33.892  28.957  27.515  1.00  0.00     0.188 C 
BRANCH  34  35
ATOM     35  C   UNL A   1      33.736  30.407  26.970  1.00  0.00     0.188 C 
BRANCH  35  36
ATOM     36  O   UNL A   1      33.401  31.560  27.720  1.00  0.00    -0.376 OA
BRANCH  36  37
ATOM     37  C   UNL A   1      34.149  32.683  28.153  1.00  0.00     0.202 C 
BRANCH  37  38
ATOM     38  C   UNL A   1      34.595  32.990  29.570  1.00  0.00     0.261 C 
BRANCH  38  39
ATOM     39  O   UNL A   1      34.776  31.844  30.359  1.00  0.00    -0.460 OA
BRANCH  39  40
ATOM     40  C   UNL A   1      36.024  31.786  30.851  1.00  0.00     0.338 C 
ATOM     41  O   UNL A   1      36.415  32.189  31.933  1.00  0.00    -0.246 OA
BRANCH  40  42
ATOM     42  C   UNL A   1      36.906  31.285  29.801  1.00  0.00     0.060 A 
ATOM     43  C   UNL A   1      36.727  29.942  29.506  1.00  0.00     0.016 A 
ATOM     44  C   UNL A   1      38.117  31.955  29.586  1.00  0.00     0.016 A 
ATOM     45  C   UNL A   1      37.865  29.184  29.441  1.00  0.00     0.010 A 
ATOM     46  C   UNL A   1      39.247  31.197  29.448  1.00  0.00     0.010 A 
ATOM     47  C   UNL A   1      39.117  29.820  29.560  1.00  0.00    -0.014 A 
BRANCH  47  48
ATOM     48  C   UNL A   1      40.315  29.006  29.536  1.00  0.00     0.031 A 
ATOM     49  C   UNL A   1      40.728  28.788  30.937  1.00  0.00     0.074 A 
ATOM     50  C   UNL A   1      40.924  28.538  28.422  1.00  0.00     0.049 A 
ATOM     51  N   UNL A   1      41.631  29.477  31.547  1.00  0.00    -0.248 NA
ATOM     52  C   UNL A   1      39.861  28.018  31.846  1.00  0.00     0.031 C 
ATOM     53  C   UNL A   1      40.484  28.594  27.022  1.00  0.00     0.029 A 
ATOM     54  N   UNL A   1      42.113  27.856  28.323  1.00  0.00    -0.354 N 
ATOM     55  C   UNL A   1      41.642  29.006  32.851  1.00  0.00     0.074 A 
ATOM     56  C   UNL A   1      40.403  28.303  33.034  1.00  0.00     0.031 C 
ATOM     57  C   UNL A   1      41.252  27.772  26.260  1.00  0.00     0.029 A 
ATOM     58  C   UNL A   1      42.337  27.253  27.071  1.00  0.00     0.049 A 
ATOM     59  H   UNL A   1      42.755  27.794  29.068  1.00  0.00     0.167 HD
ATOM     60  C   UNL A   1      42.832  28.945  33.505  1.00  0.00     0.037 A 
ATOM     61  C   UNL A   1      43.373  26.421  26.756  1.00  0.00     0.037 A 
ATOM     62  C   UNL A   1      43.813  29.744  32.805  1.00  0.00     0.049 A 
ATOM     63  C   UNL A   1      44.449  26.725  27.726  1.00  0.00     0.074 A 
ATOM     64  C   UNL A   1      44.062  31.089  32.636  1.00  0.00     0.029 A 
ATOM     65  N   UNL A   1      44.363  29.089  31.732  1.00  0.00    -0.354 N 
ATOM     66  N   UNL A   1      45.092  27.859  27.732  1.00  0.00    -0.248 NA
ATOM     67  C   UNL A   1      44.471  25.974  28.970  1.00  0.00     0.031 C 
ATOM     68  C   UNL A   1      44.627  31.224  31.330  1.00  0.00     0.029 A 
ATOM     69  C   UNL A   1      44.811  29.956  30.780  1.00  0.00     0.049 A 
ATOM     70  H   UNL A   1      44.425  28.109  31.659  1.00  0.00     0.167 HD
ATOM     71  C   UNL A   1      45.195  28.179  29.073  1.00  0.00     0.074 A 
ATOM     72  C   UNL A   1      44.918  26.931  29.788  1.00  0.00     0.031 C 
ATOM     73  C   UNL A   1      45.168  29.488  29.462  1.00  0.00     0.037 A 
BRANCH  60  74
ATOM     74  C   UNL A   1      43.256  27.770  34.354  1.00  0.00     0.064 A 
ATOM     75  C   UNL A   1      43.424  26.518  33.732  1.00  0.00     0.173 A 
ATOM     76  C   UNL A   1      43.189  27.742  35.766  1.00  0.00     0.173 A 
ATOM     77  F   UNL A   1      43.460  26.421  32.395  1.00  0.00    -0.203 F 
ATOM     78  C   UNL A   1      43.469  25.329  34.466  1.00  0.00     0.198 A 
ATOM     79  C   UNL A   1      43.284  26.560  36.496  1.00  0.00     0.198 A 
ATOM     80  F   UNL A   1      42.913  28.829  36.494  1.00  0.00    -0.203 F 
ATOM     81  F   UNL A   1      43.520  24.153  33.826  1.00  0.00    -0.200 F 
ATOM     82  C   UNL A   1      43.399  25.351  35.847  1.00  0.00     0.200 A 
ATOM     83  F   UNL A   1      43.179  26.603  37.832  1.00  0.00    -0.200 F 
ATOM     84  F   UNL A   1      43.396  24.211  36.549  1.00  0.00    -0.200 F 
ENDBRANCH  60  74
BRANCH  61  85
ATOM     85  C   UNL A   1      43.421  25.165  25.951  1.00  0.00     0.064 A 
ATOM     86  C   UNL A   1      44.502  24.868  25.092  1.00  0.00     0.173 A 
ATOM     87  C   UNL A   1      42.589  24.083  26.285  1.00  0.00     0.173 A 
ATOM     88  F   UNL A   1      45.386  25.821  24.762  1.00  0.00    -0.203 F 
ATOM     89  C   UNL A   1      44.745  23.566  24.624  1.00  0.00     0.198 A 
ATOM     90  C   UNL A   1      42.838  22.784  25.826  1.00  0.00     0.198 A 
ATOM     91  F   UNL A   1      41.583  24.249  27.155  1.00  0.00    -0.203 F 
ATOM     92  F   UNL A   1      45.819  23.313  23.859  1.00  0.00    -0.200 F 
ATOM     93  C   UNL A   1      43.920  22.523  25.005  1.00  0.00     0.200 A 
ATOM     94  F   UNL A   1      42.062  21.773  26.243  1.00  0.00    -0.200 F 
ATOM     95  F   UNL A   1      44.191  21.266  24.623  1.00  0.00    -0.200 F 
ENDBRANCH  61  85
BRANCH  73  96
ATOM     96  C   UNL A   1      45.452  30.525  28.415  1.00  0.00     0.064 A 
ATOM     97  C   UNL A   1      44.487  31.135  27.594  1.00  0.00     0.173 A 
ATOM     98  C   UNL A   1      46.770  30.984  28.319  1.00  0.00     0.173 A 
ATOM     99  F   UNL A   1      43.192  30.804  27.687  1.00  0.00    -0.203 F 
ATOM    100  C   UNL A   1      44.847  32.139  26.691  1.00  0.00     0.198 A 
ATOM    101  C   UNL A   1      47.119  32.007  27.446  1.00  0.00     0.198 A 
ATOM    102  F   UNL A   1      47.719  30.464  29.114  1.00  0.00    -0.203 F 
ATOM    103  F   UNL A   1      43.919  32.705  25.907  1.00  0.00    -0.200 F 
ATOM    104  C   UNL A   1      46.161  32.575  26.623  1.00  0.00     0.200 A 
ATOM    105  F   UNL A   1      48.381  32.455  27.423  1.00  0.00    -0.200 F 
ATOM    106  F   UNL A   1      46.503  33.560  25.780  1.00  0.00    -0.200 F 
ENDBRANCH  73  96
ENDBRANCH  47  48
ENDBRANCH  40  42
ENDBRANCH  39  40
ENDBRANCH  38  39
ENDBRANCH  37  38
ENDBRANCH  36  37
ENDBRANCH  35  36
ENDBRANCH  34  35
ENDBRANCH  33  34
ENDBRANCH   1  33
TORSDOF 24
ENDMDL
MODEL 3
REMARK VINA RESULT:     -10.0      5.166     12.025
REMARK SMILES COc1ccc(-n2ccnc2C[N@@H+]2CCn3nc(C(=O)OCCOCCOCCOCCOC(=O)c4ccc(-c5c6nc(c(-c7c(F)c(F)c(F)c(F)c7F)c7ccc([nH]7)c(-c7c(F)c(F)c(F)c(F)c7F)c7nc(c(-c8c(F)c(F)c(F)c(F)c8F)c8ccc5[nH]8)C=C7)C=C6)cc4)cc3C2)cc1
REMARK SMILES IDX 26 1 25 2 24 3 23 4 22 5 21 6 19 7 20 8 18 9 13 10 14 11
REMARK SMILES IDX 101 12 15 14 100 15 16 16 99 17 17 18 12 19 11 20 7 21 8 22
REMARK SMILES IDX 9 23 10 24 6 25 3 26 4 27 103 28 5 29 102 30 2 31 1 32 27 33
REMARK SMILES IDX 28 34 29 35 30 36 31 37 32 38 33 39 34 40 35 41 36 42 37 43
REMARK SMILES IDX 98 44 38 45 97 46 39 47 40 48 41 49 91 50 42 51 96 52 90 53
REMARK SMILES IDX 92 54 43 55 95 56 89 57 88 58 44 60 76 61 56 62 75 63 57 64
REMARK SMILES IDX 60 65 74 66 93 67 58 68 59 69 73 71 94 72 61 73 45 74 46 75
REMARK SMILES IDX 54 76 47 77 48 78 52 79 55 80 49 81 50 82 53 83 51 84 77 85
REMARK SMILES IDX 78 86 86 87 79 88 80 89 84 90 87 91 81 92 82 93 85 94 83 95
REMARK SMILES IDX 62 96 63 97 71 98 64 99 65 100 69 101 72 102 66 103 67 104
REMARK SMILES IDX 70 105 68 106
REMARK H PARENT 13 13 92 59 60 70
REMARK Flexibility Score: inf
ROOT
ATOM      1  C   UNL A   1      34.257  25.680  24.993  1.00  0.00     0.188 C 
ENDROOT
BRANCH   1   2
ATOM      2  C   UNL A   1      34.184  24.455  24.086  1.00  0.00     0.188 C 
BRANCH   2   3
ATOM      3  O   UNL A   1      34.461  23.250  24.748  1.00  0.00    -0.376 OA
BRANCH   3   4
ATOM      4  C   UNL A   1      35.317  23.259  25.871  1.00  0.00     0.202 C 
BRANCH   4   5
ATOM      5  C   UNL A   1      36.812  22.786  25.859  1.00  0.00     0.261 C 
BRANCH   5   6
ATOM      6  O   UNL A   1      37.958  23.651  25.507  1.00  0.00    -0.458 OA
BRANCH   6   7
ATOM      7  C   UNL A   1      38.870  24.007  26.640  1.00  0.00     0.358 C 
ATOM      8  O   UNL A   1      38.288  25.050  27.069  1.00  0.00    -0.244 OA
BRANCH   7   9
ATOM      9  C   UNL A   1      40.686  23.154  27.217  1.00  0.00     0.170 A 
ATOM     10  N   UNL A   1      44.510  23.019  25.853  1.00  0.00    -0.322 N 
ATOM     11  C   UNL A   1      43.910  21.822  25.195  1.00  0.00     0.286 C 
ATOM     12  C   UNL A   1      44.456  22.914  27.323  1.00  0.00     0.319 C 
ATOM     13  H   UNL A   1      45.465  22.982  25.497  1.00  0.00     0.348 HD
ATOM     14  C   UNL A   1      42.981  20.929  26.056  1.00  0.00     0.206 C 
ATOM     15  C   UNL A   1      43.024  22.783  27.636  1.00  0.00     0.094 A 
ATOM     16  N   UNL A   1      42.375  21.746  27.085  1.00  0.00    -0.257 N 
ATOM     17  C   UNL A   1      42.035  23.688  27.925  1.00  0.00     0.067 A 
ATOM     18  N   UNL A   1      41.071  21.781  27.234  1.00  0.00    -0.165 NA
BRANCH  10  19
ATOM     19  C   UNL A   1      44.009  24.369  25.452  1.00  0.00     0.339 C 
BRANCH  19  20
ATOM     20  C   UNL A   1      44.918  25.561  25.428  1.00  0.00     0.168 A 
ATOM     21  N   UNL A   1      44.860  26.754  26.184  1.00  0.00    -0.299 N 
ATOM     22  C   UNL A   1      45.974  27.466  25.762  1.00  0.00     0.113 A 
ATOM     23  C   UNL A   1      46.656  26.693  24.860  1.00  0.00     0.132 A 
ATOM     24  N   UNL A   1      45.999  25.531  24.658  1.00  0.00    -0.236 NA
BRANCH  21  25
ATOM     25  C   UNL A   1      43.757  27.368  26.898  1.00  0.00     0.047 A 
ATOM     26  C   UNL A   1      40.553  28.052  28.596  1.00  0.00     0.119 A 
ATOM     27  C   UNL A   1      42.127  28.046  29.556  1.00  0.00     0.048 A 
ATOM     28  C   UNL A   1      40.626  27.878  26.757  1.00  0.00     0.048 A 
ATOM     29  C   UNL A   1      43.737  27.703  28.701  1.00  0.00     0.030 A 
ATOM     30  C   UNL A   1      42.226  27.533  25.947  1.00  0.00     0.030 A 
BRANCH  26  31
ATOM     31  O   UNL A   1      39.430  28.556  29.209  1.00  0.00    -0.497 OA
ATOM     32  C   UNL A   1      38.710  27.537  29.911  1.00  0.00     0.278 C 
ENDBRANCH  26  31
ENDBRANCH  21  25
ENDBRANCH  19  20
ENDBRANCH  10  19
ENDBRANCH   7   9
ENDBRANCH   6   7
ENDBRANCH   5   6
ENDBRANCH   4   5
ENDBRANCH   3   4
ENDBRANCH   2   3
ENDBRANCH   1   2
BRANCH   1  33
ATOM     33  O   UNL A   1      33.311  26.712  24.845  1.00  0.00    -0.377 OA
BRANCH  33  34
ATOM     34  C   UNL A   1      33.317  27.755  25.793  1.00  0.00     0.188 C 
BRANCH  34  35
ATOM     35  C   UNL A   1      33.207  29.264  25.430  1.00  0.00     0.188 C 
BRANCH  35  36
ATOM     36  O   UNL A   1      33.127  30.348  26.336  1.00  0.00    -0.376 OA
BRANCH  36  37
ATOM     37  C   UNL A   1      33.892  30.721  27.470  1.00  0.00     0.202 C 
BRANCH  37  38
ATOM     38  C   UNL A   1      34.171  32.130  27.957  1.00  0.00     0.261 C 
BRANCH  38  39
ATOM     39  O   UNL A   1      34.442  32.203  29.331  1.00  0.00    -0.460 OA
BRANCH  39  40
ATOM     40  C   UNL A   1      35.601  32.840  29.564  1.00  0.00     0.338 C 
ATOM     41  O   UNL A   1      36.426  33.205  28.743  1.00  0.00    -0.246 OA
BRANCH  40  42
ATOM     42  C   UNL A   1      35.806  32.902  31.008  1.00  0.00     0.060 A 
ATOM     43  C   UNL A   1      36.611  33.954  31.420  1.00  0.00     0.016 A 
ATOM     44  C   UNL A   1      35.671  31.717  31.742  1.00  0.00     0.016 A 
ATOM     45  C   UNL A   1      37.614  33.635  32.296  1.00  0.00     0.010 A 
ATOM     46  C   UNL A   1      36.634  31.431  32.670  1.00  0.00     0.010 A 
ATOM     47  C   UNL A   1      37.690  32.321  32.798  1.00  0.00    -0.014 A 
BRANCH  47  48
ATOM     48  C   UNL A   1      38.780  31.980  33.689  1.00  0.00     0.031 A 
ATOM     49  C   UNL A   1      38.682  32.867  34.866  1.00  0.00     0.074 A 
ATOM     50  C   UNL A   1      39.706  31.018  33.465  1.00  0.00     0.049 A 
ATOM     51  N   UNL A   1      39.360  33.952  35.020  1.00  0.00    -0.248 NA
ATOM     52  C   UNL A   1      37.519  32.766  35.764  1.00  0.00     0.031 C 
ATOM     53  C   UNL A   1      39.770  30.013  32.396  1.00  0.00     0.029 A 
ATOM     54  N   UNL A   1      40.820  30.717  34.212  1.00  0.00    -0.354 N 
ATOM     55  C   UNL A   1      38.903  34.512  36.203  1.00  0.00     0.074 A 
ATOM     56  C   UNL A   1      37.640  33.888  36.481  1.00  0.00     0.031 C 
ATOM     57  C   UNL A   1      40.706  29.074  32.696  1.00  0.00     0.029 A 
ATOM     58  C   UNL A   1      41.422  29.486  33.889  1.00  0.00     0.049 A 
ATOM     59  H   UNL A   1      41.167  31.313  34.915  1.00  0.00     0.167 HD
ATOM     60  C   UNL A   1      39.796  35.160  36.998  1.00  0.00     0.037 A 
ATOM     61  C   UNL A   1      42.458  28.901  34.559  1.00  0.00     0.037 A 
ATOM     62  C   UNL A   1      40.998  35.446  36.246  1.00  0.00     0.049 A 
ATOM     63  C   UNL A   1      43.155  29.997  35.267  1.00  0.00     0.074 A 
ATOM     64  C   UNL A   1      41.360  36.327  35.250  1.00  0.00     0.029 A 
ATOM     65  N   UNL A   1      41.843  34.369  36.165  1.00  0.00    -0.354 N 
ATOM     66  N   UNL A   1      43.818  30.929  34.643  1.00  0.00    -0.248 NA
ATOM     67  C   UNL A   1      42.715  30.321  36.614  1.00  0.00     0.031 C 
ATOM     68  C   UNL A   1      42.341  35.649  34.462  1.00  0.00     0.029 A 
ATOM     69  C   UNL A   1      42.632  34.421  35.056  1.00  0.00     0.049 A 
ATOM     70  H   UNL A   1      41.874  33.644  36.831  1.00  0.00     0.167 HD
ATOM     71  C   UNL A   1      43.478  32.089  35.314  1.00  0.00     0.074 A 
ATOM     72  C   UNL A   1      42.909  31.643  36.588  1.00  0.00     0.031 C 
ATOM     73  C   UNL A   1      43.390  33.268  34.630  1.00  0.00     0.037 A 
BRANCH  60  74
ATOM     74  C   UNL A   1      39.844  35.000  38.499  1.00  0.00     0.064 A 
ATOM     75  C   UNL A   1      39.951  33.702  39.034  1.00  0.00     0.173 A 
ATOM     76  C   UNL A   1      39.470  36.007  39.419  1.00  0.00     0.173 A 
ATOM     77  F   UNL A   1      40.261  32.664  38.243  1.00  0.00    -0.203 F 
ATOM     78  C   UNL A   1      39.657  33.427  40.372  1.00  0.00     0.198 A 
ATOM     79  C   UNL A   1      39.226  35.737  40.764  1.00  0.00     0.198 A 
ATOM     80  F   UNL A   1      39.211  37.263  39.045  1.00  0.00    -0.203 F 
ATOM     81  F   UNL A   1      39.667  32.161  40.810  1.00  0.00    -0.200 F 
ATOM     82  C   UNL A   1      39.295  34.445  41.236  1.00  0.00     0.200 A 
ATOM     83  F   UNL A   1      38.842  36.734  41.575  1.00  0.00    -0.200 F 
ATOM     84  F   UNL A   1      38.967  34.179  42.506  1.00  0.00    -0.200 F 
ENDBRANCH  60  74
BRANCH  61  85
ATOM     85  C   UNL A   1      42.709  27.480  34.941  1.00  0.00     0.064 A 
ATOM     86  C   UNL A   1      41.927  26.818  35.914  1.00  0.00     0.173 A 
ATOM     87  C   UNL A   1      43.478  26.652  34.107  1.00  0.00     0.173 A 
ATOM     88  F   UNL A   1      41.114  27.517  36.720  1.00  0.00    -0.203 F 
ATOM     89  C   UNL A   1      41.901  25.418  36.021  1.00  0.00     0.198 A 
ATOM     90  C   UNL A   1      43.444  25.256  34.208  1.00  0.00     0.198 A 
ATOM     91  F   UNL A   1      44.192  27.181  33.103  1.00  0.00    -0.203 F 
ATOM     92  F   UNL A   1      41.098  24.823  36.918  1.00  0.00    -0.200 F 
ATOM     93  C   UNL A   1      42.648  24.638  35.156  1.00  0.00     0.200 A 
ATOM     94  F   UNL A   1      44.132  24.511  33.331  1.00  0.00    -0.200 F 
ATOM     95  F   UNL A   1      42.569  23.300  35.203  1.00  0.00    -0.200 F 
ENDBRANCH  61  85
BRANCH  73  96
ATOM     96  C   UNL A   1      44.066  33.342  33.293  1.00  0.00     0.064 A 
ATOM     97  C   UNL A   1      45.447  33.510  33.089  1.00  0.00     0.173 A 
ATOM     98  C   UNL A   1      43.264  33.133  32.164  1.00  0.00     0.173 A 
ATOM     99  F   UNL A   1      46.287  33.636  34.125  1.00  0.00    -0.203 F 
ATOM    100  C   UNL A   1      45.987  33.503  31.801  1.00  0.00     0.198 A 
ATOM    101  C   UNL A   1      43.808  33.090  30.887  1.00  0.00     0.198 A 
ATOM    102  F   UNL A   1      41.947  32.922  32.311  1.00  0.00    -0.203 F 
ATOM    103  F   UNL A   1      47.304  33.675  31.621  1.00  0.00    -0.200 F 
ATOM    104  C   UNL A   1      45.167  33.288  30.703  1.00  0.00     0.200 A 
ATOM    105  F   UNL A   1      43.016  32.833  29.839  1.00  0.00    -0.200 F 
ATOM    106  F   UNL A   1      45.687  33.249  29.469  1.00  0.00    -0.200 F 
ENDBRANCH  73  96
ENDBRANCH  47  48
ENDBRANCH  40  42
ENDBRANCH  39  40
ENDBRANCH  38  39
ENDBRANCH  37  38
ENDBRANCH  36  37
ENDBRANCH  35  36
ENDBRANCH  34  35
ENDBRANCH  33  34
ENDBRANCH   1  33
TORSDOF 24
ENDMDL
