MODEL 1
REMARK VINA RESULT:     -10.9      0.000      0.000
REMARK SMILES C=C[C@@H]1[C@@H](O)C[C@H]2[C@]3(CC[C@]4(C)[C@@H]([C@H](C)CCC=C(C)C)CC[C@]24C)C[C@]13CCC(=O)OCCOCCOCCOCCOC(=O)c1ccc(-c2c3nc(c(-c4c(F)c(F)c(F)c(F)c4F)c4ccc([nH]4)c(-c4c(F)c(F)c(F)c(F)c4F)c4nc(c(-c5c(F)c(F)c(F)c(F)c5F)c5ccc2[nH]5)C=C4)C=C3)cc1
REMARK SMILES IDX 36 1 35 2 34 3 33 4 32 5 30 6 31 7 29 8 28 9 27 10 3 11 4 12
REMARK SMILES IDX 6 13 8 14 26 15 7 16 9 17 24 18 10 19 11 20 23 21 25 22
REMARK SMILES IDX 13 23 12 24 22 25 2 26 1 27 5 28 14 30 15 31 16 32 17 33
REMARK SMILES IDX 18 34 19 35 20 36 21 37 37 38 38 39 39 40 40 41 41 42 42 43
REMARK SMILES IDX 43 44 44 45 45 46 46 47 47 48 48 49 109 50 49 51 108 52
REMARK SMILES IDX 50 53 51 54 52 55 102 56 53 57 107 58 101 59 103 60 54 61
REMARK SMILES IDX 106 62 100 63 99 64 55 66 87 67 67 68 86 69 68 70 71 71
REMARK SMILES IDX 85 72 104 73 69 74 70 75 84 77 105 78 72 79 56 80 57 81
REMARK SMILES IDX 65 82 58 83 59 84 63 85 66 86 60 87 61 88 64 89 62 90 88 91
REMARK SMILES IDX 89 92 97 93 90 94 91 95 95 96 98 97 92 98 93 99 96 100
REMARK SMILES IDX 94 101 73 102 74 103 82 104 75 105 76 106 80 107 83 108
REMARK SMILES IDX 77 109 78 110 81 111 79 112
REMARK H PARENT 5 29 103 65 71 76
REMARK Flexibility Score: inf
ROOT
ATOM      1  C   UNL A   1      36.691  19.344  25.070  1.00  0.00     0.188 C 
ENDROOT
BRANCH   1   2
ATOM      2  O   UNL A   1      35.435  19.847  24.635  1.00  0.00    -0.376 OA
BRANCH   2   3
ATOM      3  C   UNL A   1      34.632  20.534  25.594  1.00  0.00     0.202 C 
BRANCH   3   4
ATOM      4  C   UNL A   1      35.331  21.528  26.524  1.00  0.00     0.261 C 
BRANCH   4   5
ATOM      5  O   UNL A   1      35.146  22.928  26.191  1.00  0.00    -0.463 OA
BRANCH   5   6
ATOM      6  C   UNL A   1      36.004  23.392  25.248  1.00  0.00     0.305 C 
ATOM      7  O   UNL A   1      37.040  23.998  25.516  1.00  0.00    -0.252 OA
BRANCH   6   8
ATOM      8  C   UNL A   1      35.652  23.131  23.796  1.00  0.00     0.123 C 
BRANCH   8   9
ATOM      9  C   UNL A   1      34.806  24.078  22.956  1.00  0.00     0.020 C 
BRANCH   9  10
ATOM     10  C   UNL A   1      33.325  24.249  23.342  1.00  0.00    -0.014 C 
ATOM     11  C   UNL A   1      32.613  22.933  23.742  1.00  0.00     0.047 C 
ATOM     12  C   UNL A   1      31.679  23.062  24.979  1.00  0.00     0.122 C 
ATOM     13  C   UNL A   1      30.981  24.408  25.126  1.00  0.00     0.037 C 
ATOM     14  C   UNL A   1      32.931  25.584  24.028  1.00  0.00    -0.019 C 
ATOM     15  C   UNL A   1      32.470  25.268  22.621  1.00  0.00     0.016 C 
ATOM     16  C   UNL A   1      31.956  25.608  25.221  1.00  0.00     0.005 C 
ATOM     17  C   UNL A   1      33.875  26.747  24.083  1.00  0.00     0.008 C 
ATOM     18  C   UNL A   1      31.212  27.028  25.396  1.00  0.00    -0.023 C 
ATOM     19  C   UNL A   1      33.028  27.966  23.853  1.00  0.00     0.008 C 
ATOM     20  C   UNL A   1      32.132  28.328  25.046  1.00  0.00    -0.024 C 
ATOM     21  C   UNL A   1      30.805  27.340  26.853  1.00  0.00     0.008 C 
ATOM     22  C   UNL A   1      29.851  26.930  24.606  1.00  0.00     0.012 C 
ATOM     23  C   UNL A   1      32.896  28.769  26.511  1.00  0.00    -0.002 C 
ATOM     24  C   UNL A   1      31.141  29.325  24.461  1.00  0.00     0.012 C 
ATOM     25  C   UNL A   1      31.723  28.408  27.458  1.00  0.00     0.005 C 
BRANCH  11  26
ATOM     26  C   UNL A   1      31.990  22.207  22.549  1.00  0.00    -0.028 C 
ATOM     27  C   UNL A   1      31.989  20.896  22.274  1.00  0.00     0.004 C 
ENDBRANCH  11  26
BRANCH  12  28
ATOM     28  O   UNL A   1      32.422  22.803  26.177  1.00  0.00    -0.392 OA
ATOM     29  H   UNL A   1      32.165  23.440  26.861  1.00  0.00     0.210 HD
ENDBRANCH  12  28
BRANCH  23  30
ATOM     30  C   UNL A   1      33.886  30.081  27.317  1.00  0.00    -0.010 C 
ATOM     31  C   UNL A   1      33.085  31.412  27.332  1.00  0.00     0.008 C 
BRANCH  30  32
ATOM     32  C   UNL A   1      35.526  30.657  27.649  1.00  0.00     0.008 C 
BRANCH  32  33
ATOM     33  C   UNL A   1      36.393  31.502  28.754  1.00  0.00     0.027 C 
BRANCH  33  34
ATOM     34  C   UNL A   1      35.903  31.760  30.163  1.00  0.00    -0.028 C 
ATOM     35  C   UNL A   1      35.037  32.701  30.627  1.00  0.00    -0.080 C 
ATOM     36  C   UNL A   1      34.598  32.649  32.074  1.00  0.00     0.039 C 
ATOM     37  C   UNL A   1      34.338  33.814  29.866  1.00  0.00     0.039 C 
ENDBRANCH  33  34
ENDBRANCH  32  33
ENDBRANCH  30  32
ENDBRANCH  23  30
ENDBRANCH   9  10
ENDBRANCH   8   9
ENDBRANCH   6   8
ENDBRANCH   5   6
ENDBRANCH   4   5
ENDBRANCH   3   4
ENDBRANCH   2   3
ENDBRANCH   1   2
BRANCH   1  38
ATOM     38  C   UNL A   1      37.942  20.093  24.616  1.00  0.00     0.188 C 
BRANCH  38  39
ATOM     39  O   UNL A   1      39.090  19.906  25.436  1.00  0.00    -0.377 OA
BRANCH  39  40
ATOM     40  C   UNL A   1      39.456  21.027  26.237  1.00  0.00     0.188 C 
BRANCH  40  41
ATOM     41  C   UNL A   1      40.859  21.604  26.008  1.00  0.00     0.188 C 
BRANCH  41  42
ATOM     42  O   UNL A   1      41.866  21.192  26.919  1.00  0.00    -0.376 OA
BRANCH  42  43
ATOM     43  C   UNL A   1      41.854  19.809  27.223  1.00  0.00     0.202 C 
BRANCH  43  44
ATOM     44  C   UNL A   1      42.661  18.949  26.277  1.00  0.00     0.261 C 
BRANCH  44  45
ATOM     45  O   UNL A   1      43.025  19.341  24.895  1.00  0.00    -0.460 OA
BRANCH  45  46
ATOM     46  C   UNL A   1      44.327  19.769  24.859  1.00  0.00     0.338 C 
ATOM     47  O   UNL A   1      45.223  18.992  25.092  1.00  0.00    -0.246 OA
BRANCH  46  48
ATOM     48  C   UNL A   1      44.892  21.142  24.764  1.00  0.00     0.060 A 
ATOM     49  C   UNL A   1      44.456  22.141  23.913  1.00  0.00     0.016 A 
ATOM     50  C   UNL A   1      45.654  21.493  25.921  1.00  0.00     0.016 A 
ATOM     51  C   UNL A   1      44.731  23.475  24.261  1.00  0.00     0.010 A 
ATOM     52  C   UNL A   1      45.719  22.791  26.356  1.00  0.00     0.010 A 
ATOM     53  C   UNL A   1      45.302  23.807  25.512  1.00  0.00    -0.014 A 
BRANCH  53  54
ATOM     54  C   UNL A   1      45.464  25.186  26.027  1.00  0.00     0.031 A 
ATOM     55  C   UNL A   1      46.823  25.848  25.943  1.00  0.00     0.074 A 
ATOM     56  C   UNL A   1      44.462  25.738  26.735  1.00  0.00     0.049 A 
ATOM     57  N   UNL A   1      47.235  26.969  26.476  1.00  0.00    -0.248 NA
ATOM     58  C   UNL A   1      47.900  25.097  25.266  1.00  0.00     0.031 C 
ATOM     59  C   UNL A   1      43.190  25.087  27.072  1.00  0.00     0.029 A 
ATOM     60  N   UNL A   1      44.357  26.972  27.317  1.00  0.00    -0.354 N 
ATOM     61  C   UNL A   1      48.607  27.006  26.253  1.00  0.00     0.074 A 
ATOM     62  C   UNL A   1      48.982  25.747  25.662  1.00  0.00     0.031 C 
ATOM     63  C   UNL A   1      42.407  25.955  27.733  1.00  0.00     0.029 A 
ATOM     64  C   UNL A   1      43.131  27.208  27.892  1.00  0.00     0.049 A 
ATOM     65  H   UNL A   1      45.090  27.629  27.324  1.00  0.00     0.167 HD
ATOM     66  C   UNL A   1      49.464  28.034  26.448  1.00  0.00     0.037 A 
ATOM     67  C   UNL A   1      42.655  28.334  28.453  1.00  0.00     0.037 A 
ATOM     68  C   UNL A   1      49.019  29.323  26.897  1.00  0.00     0.049 A 
ATOM     69  C   UNL A   1      43.561  29.537  28.464  1.00  0.00     0.074 A 
ATOM     70  C   UNL A   1      49.719  30.509  26.975  1.00  0.00     0.029 A 
ATOM     71  N   UNL A   1      47.719  29.587  27.309  1.00  0.00    -0.354 N 
ATOM     72  N   UNL A   1      44.822  29.623  28.107  1.00  0.00    -0.248 NA
ATOM     73  C   UNL A   1      42.979  30.802  28.924  1.00  0.00     0.031 C 
ATOM     74  C   UNL A   1      48.842  31.492  27.444  1.00  0.00     0.029 A 
ATOM     75  C   UNL A   1      47.589  30.923  27.627  1.00  0.00     0.049 A 
ATOM     76  H   UNL A   1      46.997  28.919  27.366  1.00  0.00     0.167 HD
ATOM     77  C   UNL A   1      45.175  30.954  28.264  1.00  0.00     0.074 A 
ATOM     78  C   UNL A   1      43.987  31.642  28.732  1.00  0.00     0.031 C 
ATOM     79  C   UNL A   1      46.370  31.560  28.054  1.00  0.00     0.037 A 
BRANCH  66  80
ATOM     80  C   UNL A   1      50.913  27.829  26.096  1.00  0.00     0.064 A 
ATOM     81  C   UNL A   1      51.876  27.519  27.074  1.00  0.00     0.173 A 
ATOM     82  C   UNL A   1      51.353  27.942  24.769  1.00  0.00     0.173 A 
ATOM     83  F   UNL A   1      51.517  27.402  28.362  1.00  0.00    -0.203 F 
ATOM     84  C   UNL A   1      53.223  27.391  26.748  1.00  0.00     0.198 A 
ATOM     85  C   UNL A   1      52.699  27.773  24.440  1.00  0.00     0.198 A 
ATOM     86  F   UNL A   1      50.484  28.226  23.789  1.00  0.00    -0.203 F 
ATOM     87  F   UNL A   1      54.126  27.176  27.715  1.00  0.00    -0.200 F 
ATOM     88  C   UNL A   1      53.634  27.512  25.431  1.00  0.00     0.200 A 
ATOM     89  F   UNL A   1      53.093  27.874  23.163  1.00  0.00    -0.200 F 
ATOM     90  F   UNL A   1      54.930  27.386  25.117  1.00  0.00    -0.200 F 
ENDBRANCH  66  80
BRANCH  67  91
ATOM     91  C   UNL A   1      41.252  28.405  28.942  1.00  0.00     0.064 A 
ATOM     92  C   UNL A   1      40.959  28.254  30.306  1.00  0.00     0.173 A 
ATOM     93  C   UNL A   1      40.177  28.625  28.070  1.00  0.00     0.173 A 
ATOM     94  F   UNL A   1      41.953  28.047  31.183  1.00  0.00    -0.203 F 
ATOM     95  C   UNL A   1      39.646  28.268  30.771  1.00  0.00     0.198 A 
ATOM     96  C   UNL A   1      38.864  28.669  28.541  1.00  0.00     0.198 A 
ATOM     97  F   UNL A   1      40.400  28.806  26.760  1.00  0.00    -0.203 F 
ATOM     98  F   UNL A   1      39.397  28.062  32.072  1.00  0.00    -0.200 F 
ATOM     99  C   UNL A   1      38.599  28.477  29.888  1.00  0.00     0.200 A 
ATOM    100  F   UNL A   1      37.856  28.893  27.687  1.00  0.00    -0.200 F 
ATOM    101  F   UNL A   1      37.336  28.484  30.334  1.00  0.00    -0.200 F 
ENDBRANCH  67  91
BRANCH  79 102
ATOM    102  C   UNL A   1      46.429  33.035  28.284  1.00  0.00     0.064 A 
ATOM    103  C   UNL A   1      46.093  33.944  27.271  1.00  0.00     0.173 A 
ATOM    104  C   UNL A   1      46.752  33.538  29.553  1.00  0.00     0.173 A 
ATOM    105  F   UNL A   1      45.791  33.502  26.041  1.00  0.00    -0.203 F 
ATOM    106  C   UNL A   1      46.096  35.311  27.517  1.00  0.00     0.198 A 
ATOM    107  C   UNL A   1      46.724  34.905  29.802  1.00  0.00     0.198 A 
ATOM    108  F   UNL A   1      47.070  32.702  30.552  1.00  0.00    -0.203 F 
ATOM    109  F   UNL A   1      45.811  36.167  26.526  1.00  0.00    -0.200 F 
ATOM    110  C   UNL A   1      46.401  35.789  28.784  1.00  0.00     0.200 A 
ATOM    111  F   UNL A   1      47.002  35.366  31.029  1.00  0.00    -0.200 F 
ATOM    112  F   UNL A   1      46.387  37.108  29.021  1.00  0.00    -0.200 F 
ENDBRANCH  79 102
ENDBRANCH  53  54
ENDBRANCH  46  48
ENDBRANCH  45  46
ENDBRANCH  44  45
ENDBRANCH  43  44
ENDBRANCH  42  43
ENDBRANCH  41  42
ENDBRANCH  40  41
ENDBRANCH  39  40
ENDBRANCH  38  39
ENDBRANCH   1  38
TORSDOF 28
ENDMDL
MODEL 2
REMARK VINA RESULT:      -9.8      2.741      5.349
REMARK SMILES C=C[C@@H]1[C@@H](O)C[C@H]2[C@]3(CC[C@]4(C)[C@@H]([C@H](C)CCC=C(C)C)CC[C@]24C)C[C@]13CCC(=O)OCCOCCOCCOCCOC(=O)c1ccc(-c2c3nc(c(-c4c(F)c(F)c(F)c(F)c4F)c4ccc([nH]4)c(-c4c(F)c(F)c(F)c(F)c4F)c4nc(c(-c5c(F)c(F)c(F)c(F)c5F)c5ccc2[nH]5)C=C4)C=C3)cc1
REMARK SMILES IDX 36 1 35 2 34 3 33 4 32 5 30 6 31 7 29 8 28 9 27 10 3 11 4 12
REMARK SMILES IDX 6 13 8 14 26 15 7 16 9 17 24 18 10 19 11 20 23 21 25 22
REMARK SMILES IDX 13 23 12 24 22 25 2 26 1 27 5 28 14 30 15 31 16 32 17 33
REMARK SMILES IDX 18 34 19 35 20 36 21 37 37 38 38 39 39 40 40 41 41 42 42 43
REMARK SMILES IDX 43 44 44 45 45 46 46 47 47 48 48 49 109 50 49 51 108 52
REMARK SMILES IDX 50 53 51 54 52 55 102 56 53 57 107 58 101 59 103 60 54 61
REMARK SMILES IDX 106 62 100 63 99 64 55 66 87 67 67 68 86 69 68 70 71 71
REMARK SMILES IDX 85 72 104 73 69 74 70 75 84 77 105 78 72 79 56 80 57 81
REMARK SMILES IDX 65 82 58 83 59 84 63 85 66 86 60 87 61 88 64 89 62 90 88 91
REMARK SMILES IDX 89 92 97 93 90 94 91 95 95 96 98 97 92 98 93 99 96 100
REMARK SMILES IDX 94 101 73 102 74 103 82 104 75 105 76 106 80 107 83 108
REMARK SMILES IDX 77 109 78 110 81 111 79 112
REMARK H PARENT 5 29 103 65 71 76
REMARK Flexibility Score: inf
ROOT
ATOM      1  C   UNL A   1      33.224  16.594  23.979  1.00  0.00     0.188 C 
ENDROOT
BRANCH   1   2
ATOM      2  O   UNL A   1      32.896  17.548  22.978  1.00  0.00    -0.376 OA
BRANCH   2   3
ATOM      3  C   UNL A   1      32.106  18.670  23.371  1.00  0.00     0.202 C 
BRANCH   3   4
ATOM      4  C   UNL A   1      32.781  19.754  24.214  1.00  0.00     0.261 C 
BRANCH   4   5
ATOM      5  O   UNL A   1      32.141  21.055  24.183  1.00  0.00    -0.463 OA
BRANCH   5   6
ATOM      6  C   UNL A   1      31.715  21.492  25.396  1.00  0.00     0.305 C 
ATOM      7  O   UNL A   1      30.541  21.768  25.641  1.00  0.00    -0.252 OA
BRANCH   6   8
ATOM      8  C   UNL A   1      32.754  21.632  26.492  1.00  0.00     0.123 C 
BRANCH   8   9
ATOM      9  C   UNL A   1      33.333  22.969  26.931  1.00  0.00     0.020 C 
BRANCH   9  10
ATOM     10  C   UNL A   1      34.034  23.832  25.866  1.00  0.00    -0.014 C 
ATOM     11  C   UNL A   1      34.999  23.047  24.943  1.00  0.00     0.047 C 
ATOM     12  C   UNL A   1      34.913  23.445  23.441  1.00  0.00     0.122 C 
ATOM     13  C   UNL A   1      34.592  24.910  23.176  1.00  0.00     0.037 C 
ATOM     14  C   UNL A   1      33.235  25.039  25.306  1.00  0.00    -0.019 C 
ATOM     15  C   UNL A   1      34.443  25.252  26.192  1.00  0.00     0.016 C 
ATOM     16  C   UNL A   1      33.254  25.378  23.802  1.00  0.00     0.005 C 
ATOM     17  C   UNL A   1      31.958  25.498  25.943  1.00  0.00     0.008 C 
ATOM     18  C   UNL A   1      32.911  26.924  23.503  1.00  0.00    -0.023 C 
ATOM     19  C   UNL A   1      32.000  26.999  25.895  1.00  0.00     0.008 C 
ATOM     20  C   UNL A   1      31.788  27.578  24.489  1.00  0.00    -0.024 C 
ATOM     21  C   UNL A   1      32.260  27.159  22.122  1.00  0.00     0.008 C 
ATOM     22  C   UNL A   1      34.286  27.693  23.440  1.00  0.00     0.012 C 
ATOM     23  C   UNL A   1      30.281  27.299  23.732  1.00  0.00    -0.002 C 
ATOM     24  C   UNL A   1      32.230  29.028  24.628  1.00  0.00     0.012 C 
ATOM     25  C   UNL A   1      30.765  27.463  22.269  1.00  0.00     0.005 C 
BRANCH  11  26
ATOM     26  C   UNL A   1      36.422  22.969  25.498  1.00  0.00    -0.028 C 
ATOM     27  C   UNL A   1      37.407  23.873  25.406  1.00  0.00     0.004 C 
ENDBRANCH  11  26
BRANCH  12  28
ATOM     28  O   UNL A   1      33.928  22.638  22.781  1.00  0.00    -0.392 OA
ATOM     29  H   UNL A   1      33.051  22.843  23.139  1.00  0.00     0.210 HD
ENDBRANCH  12  28
BRANCH  23  30
ATOM     30  C   UNL A   1      28.503  27.735  23.789  1.00  0.00    -0.010 C 
ATOM     31  C   UNL A   1      27.650  26.448  23.959  1.00  0.00     0.008 C 
BRANCH  30  32
ATOM     32  C   UNL A   1      27.281  28.895  23.252  1.00  0.00     0.008 C 
BRANCH  32  33
ATOM     33  C   UNL A   1      26.869  30.477  23.371  1.00  0.00     0.027 C 
BRANCH  33  34
ATOM     34  C   UNL A   1      27.884  31.577  23.602  1.00  0.00    -0.028 C 
ATOM     35  C   UNL A   1      28.457  32.436  22.715  1.00  0.00    -0.080 C 
ATOM     36  C   UNL A   1      29.340  33.549  23.233  1.00  0.00     0.039 C 
ATOM     37  C   UNL A   1      28.280  32.511  21.209  1.00  0.00     0.039 C 
ENDBRANCH  33  34
ENDBRANCH  32  33
ENDBRANCH  30  32
ENDBRANCH  23  30
ENDBRANCH   9  10
ENDBRANCH   8   9
ENDBRANCH   6   8
ENDBRANCH   5   6
ENDBRANCH   4   5
ENDBRANCH   3   4
ENDBRANCH   2   3
ENDBRANCH   1   2
BRANCH   1  38
ATOM     38  C   UNL A   1      34.601  16.707  24.631  1.00  0.00     0.188 C 
BRANCH  38  39
ATOM     39  O   UNL A   1      35.428  17.746  24.120  1.00  0.00    -0.377 OA
BRANCH  39  40
ATOM     40  C   UNL A   1      36.414  18.240  25.025  1.00  0.00     0.188 C 
BRANCH  40  41
ATOM     41  C   UNL A   1      37.218  19.462  24.560  1.00  0.00     0.188 C 
BRANCH  41  42
ATOM     42  O   UNL A   1      38.154  19.988  25.487  1.00  0.00    -0.376 OA
BRANCH  42  43
ATOM     43  C   UNL A   1      39.374  19.273  25.562  1.00  0.00     0.202 C 
BRANCH  43  44
ATOM     44  C   UNL A   1      40.558  20.092  26.024  1.00  0.00     0.261 C 
BRANCH  44  45
ATOM     45  O   UNL A   1      40.502  21.107  27.102  1.00  0.00    -0.460 OA
BRANCH  45  46
ATOM     46  C   UNL A   1      40.925  22.321  26.624  1.00  0.00     0.338 C 
ATOM     47  O   UNL A   1      41.848  22.372  25.845  1.00  0.00    -0.246 OA
BRANCH  46  48
ATOM     48  C   UNL A   1      40.571  23.703  27.045  1.00  0.00     0.060 A 
ATOM     49  C   UNL A   1      40.111  24.077  28.293  1.00  0.00     0.016 A 
ATOM     50  C   UNL A   1      41.143  24.691  26.185  1.00  0.00     0.016 A 
ATOM     51  C   UNL A   1      40.284  25.415  28.691  1.00  0.00     0.010 A 
ATOM     52  C   UNL A   1      41.503  25.923  26.668  1.00  0.00     0.010 A 
ATOM     53  C   UNL A   1      41.038  26.322  27.910  1.00  0.00    -0.014 A 
BRANCH  53  54
ATOM     54  C   UNL A   1      41.415  27.690  28.334  1.00  0.00     0.031 A 
ATOM     55  C   UNL A   1      42.875  28.090  28.317  1.00  0.00     0.074 A 
ATOM     56  C   UNL A   1      40.484  28.471  28.913  1.00  0.00     0.049 A 
ATOM     57  N   UNL A   1      43.447  29.163  28.799  1.00  0.00    -0.248 NA
ATOM     58  C   UNL A   1      43.840  27.104  27.790  1.00  0.00     0.031 C 
ATOM     59  C   UNL A   1      39.094  28.088  29.188  1.00  0.00     0.029 A 
ATOM     60  N   UNL A   1      40.568  29.750  29.392  1.00  0.00    -0.354 N 
ATOM     61  C   UNL A   1      44.816  28.936  28.691  1.00  0.00     0.074 A 
ATOM     62  C   UNL A   1      44.992  27.584  28.228  1.00  0.00     0.031 C 
ATOM     63  C   UNL A   1      38.440  29.136  29.715  1.00  0.00     0.029 A 
ATOM     64  C   UNL A   1      39.369  30.249  29.842  1.00  0.00     0.049 A 
ATOM     65  H   UNL A   1      41.407  30.265  29.412  1.00  0.00     0.167 HD
ATOM     66  C   UNL A   1      45.831  29.809  28.881  1.00  0.00     0.037 A 
ATOM     67  C   UNL A   1      39.070  31.487  30.277  1.00  0.00     0.037 A 
ATOM     68  C   UNL A   1      45.600  31.190  29.196  1.00  0.00     0.049 A 
ATOM     69  C   UNL A   1      40.179  32.506  30.277  1.00  0.00     0.074 A 
ATOM     70  C   UNL A   1      46.500  32.235  29.245  1.00  0.00     0.029 A 
ATOM     71  N   UNL A   1      44.345  31.716  29.476  1.00  0.00    -0.354 N 
ATOM     72  N   UNL A   1      41.456  32.336  30.021  1.00  0.00    -0.248 NA
ATOM     73  C   UNL A   1      39.809  33.890  30.592  1.00  0.00     0.031 C 
ATOM     74  C   UNL A   1      45.787  33.396  29.565  1.00  0.00     0.029 A 
ATOM     75  C   UNL A   1      44.441  33.076  29.683  1.00  0.00     0.049 A 
ATOM     76  H   UNL A   1      43.511  31.194  29.520  1.00  0.00     0.167 HD
ATOM     77  C   UNL A   1      42.036  33.591  30.111  1.00  0.00     0.074 A 
ATOM     78  C   UNL A   1      40.965  34.518  30.424  1.00  0.00     0.031 C 
ATOM     79  C   UNL A   1      43.334  33.954  29.958  1.00  0.00     0.037 A 
BRANCH  66  80
ATOM     80  C   UNL A   1      47.238  29.320  28.669  1.00  0.00     0.064 A 
ATOM     81  C   UNL A   1      47.924  28.587  29.655  1.00  0.00     0.173 A 
ATOM     82  C   UNL A   1      47.917  29.582  27.470  1.00  0.00     0.173 A 
ATOM     83  F   UNL A   1      47.329  28.307  30.825  1.00  0.00    -0.203 F 
ATOM     84  C   UNL A   1      49.246  28.190  29.473  1.00  0.00     0.198 A 
ATOM     85  C   UNL A   1      49.229  29.149  27.275  1.00  0.00     0.198 A 
ATOM     86  F   UNL A   1      47.316  30.268  26.487  1.00  0.00    -0.203 F 
ATOM     87  F   UNL A   1      49.898  27.565  30.464  1.00  0.00    -0.200 F 
ATOM     88  C   UNL A   1      49.897  28.467  28.281  1.00  0.00     0.200 A 
ATOM     89  F   UNL A   1      49.853  29.402  26.116  1.00  0.00    -0.200 F 
ATOM     90  F   UNL A   1      51.169  28.083  28.106  1.00  0.00    -0.200 F 
ENDBRANCH  66  80
BRANCH  67  91
ATOM     91  C   UNL A   1      37.674  31.849  30.640  1.00  0.00     0.064 A 
ATOM     92  C   UNL A   1      36.733  32.161  29.647  1.00  0.00     0.173 A 
ATOM     93  C   UNL A   1      37.245  31.890  31.974  1.00  0.00     0.173 A 
ATOM     94  F   UNL A   1      37.090  32.131  28.355  1.00  0.00    -0.203 F 
ATOM     95  C   UNL A   1      35.435  32.550  29.975  1.00  0.00     0.198 A 
ATOM     96  C   UNL A   1      35.937  32.251  32.300  1.00  0.00     0.198 A 
ATOM     97  F   UNL A   1      38.093  31.572  32.962  1.00  0.00    -0.203 F 
ATOM     98  F   UNL A   1      34.578  32.899  29.006  1.00  0.00    -0.200 F 
ATOM     99  C   UNL A   1      35.038  32.594  31.302  1.00  0.00     0.200 A 
ATOM    100  F   UNL A   1      35.551  32.271  33.583  1.00  0.00    -0.200 F 
ATOM    101  F   UNL A   1      33.793  32.974  31.618  1.00  0.00    -0.200 F 
ENDBRANCH  67  91
BRANCH  79 102
ATOM    102  C   UNL A   1      43.647  35.410  30.083  1.00  0.00     0.064 A 
ATOM    103  C   UNL A   1      43.941  35.989  31.324  1.00  0.00     0.173 A 
ATOM    104  C   UNL A   1      43.725  36.214  28.935  1.00  0.00     0.173 A 
ATOM    105  F   UNL A   1      43.864  35.256  32.445  1.00  0.00    -0.203 F 
ATOM    106  C   UNL A   1      44.287  37.331  31.416  1.00  0.00     0.198 A 
ATOM    107  C   UNL A   1      44.102  37.548  29.029  1.00  0.00     0.198 A 
ATOM    108  F   UNL A   1      43.461  35.697  27.727  1.00  0.00    -0.203 F 
ATOM    109  F   UNL A   1      44.526  37.877  32.616  1.00  0.00    -0.200 F 
ATOM    110  C   UNL A   1      44.377  38.106  30.268  1.00  0.00     0.200 A 
ATOM    111  F   UNL A   1      44.206  38.292  27.919  1.00  0.00    -0.200 F 
ATOM    112  F   UNL A   1      44.727  39.397  30.359  1.00  0.00    -0.200 F 
ENDBRANCH  79 102
ENDBRANCH  53  54
ENDBRANCH  46  48
ENDBRANCH  45  46
ENDBRANCH  44  45
ENDBRANCH  43  44
ENDBRANCH  42  43
ENDBRANCH  41  42
ENDBRANCH  40  41
ENDBRANCH  39  40
ENDBRANCH  38  39
ENDBRANCH   1  38
TORSDOF 28
ENDMDL
MODEL 3
REMARK VINA RESULT:      -9.5      4.326      6.685
REMARK SMILES C=C[C@@H]1[C@@H](O)C[C@H]2[C@]3(CC[C@]4(C)[C@@H]([C@H](C)CCC=C(C)C)CC[C@]24C)C[C@]13CCC(=O)OCCOCCOCCOCCOC(=O)c1ccc(-c2c3nc(c(-c4c(F)c(F)c(F)c(F)c4F)c4ccc([nH]4)c(-c4c(F)c(F)c(F)c(F)c4F)c4nc(c(-c5c(F)c(F)c(F)c(F)c5F)c5ccc2[nH]5)C=C4)C=C3)cc1
REMARK SMILES IDX 36 1 35 2 34 3 33 4 32 5 30 6 31 7 29 8 28 9 27 10 3 11 4 12
REMARK SMILES IDX 6 13 8 14 26 15 7 16 9 17 24 18 10 19 11 20 23 21 25 22
REMARK SMILES IDX 13 23 12 24 22 25 2 26 1 27 5 28 14 30 15 31 16 32 17 33
REMARK SMILES IDX 18 34 19 35 20 36 21 37 37 38 38 39 39 40 40 41 41 42 42 43
REMARK SMILES IDX 43 44 44 45 45 46 46 47 47 48 48 49 109 50 49 51 108 52
REMARK SMILES IDX 50 53 51 54 52 55 102 56 53 57 107 58 101 59 103 60 54 61
REMARK SMILES IDX 106 62 100 63 99 64 55 66 87 67 67 68 86 69 68 70 71 71
REMARK SMILES IDX 85 72 104 73 69 74 70 75 84 77 105 78 72 79 56 80 57 81
REMARK SMILES IDX 65 82 58 83 59 84 63 85 66 86 60 87 61 88 64 89 62 90 88 91
REMARK SMILES IDX 89 92 97 93 90 94 91 95 95 96 98 97 92 98 93 99 96 100
REMARK SMILES IDX 94 101 73 102 74 103 82 104 75 105 76 106 80 107 83 108
REMARK SMILES IDX 77 109 78 110 81 111 79 112
REMARK H PARENT 5 29 103 65 71 76
REMARK Flexibility Score: inf
ROOT
ATOM      1  C   UNL A   1      33.336  16.587  24.071  1.00  0.00     0.188 C 
ENDROOT
BRANCH   1   2
ATOM      2  O   UNL A   1      32.966  17.495  23.043  1.00  0.00    -0.376 OA
BRANCH   2   3
ATOM      3  C   UNL A   1      32.139  18.600  23.405  1.00  0.00     0.202 C 
BRANCH   3   4
ATOM      4  C   UNL A   1      32.760  19.700  24.269  1.00  0.00     0.261 C 
BRANCH   4   5
ATOM      5  O   UNL A   1      32.121  20.999  24.177  1.00  0.00    -0.463 OA
BRANCH   5   6
ATOM      6  C   UNL A   1      31.790  21.540  25.377  1.00  0.00     0.305 C 
ATOM      7  O   UNL A   1      30.643  21.867  25.677  1.00  0.00    -0.252 OA
BRANCH   6   8
ATOM      8  C   UNL A   1      32.904  21.732  26.388  1.00  0.00     0.123 C 
BRANCH   8   9
ATOM      9  C   UNL A   1      33.458  23.097  26.773  1.00  0.00     0.020 C 
BRANCH   9  10
ATOM     10  C   UNL A   1      34.063  23.967  25.656  1.00  0.00    -0.014 C 
ATOM     11  C   UNL A   1      34.993  23.201  24.682  1.00  0.00     0.047 C 
ATOM     12  C   UNL A   1      34.801  23.575  23.185  1.00  0.00     0.122 C 
ATOM     13  C   UNL A   1      34.418  25.027  22.924  1.00  0.00     0.037 C 
ATOM     14  C   UNL A   1      33.193  25.141  25.134  1.00  0.00    -0.019 C 
ATOM     15  C   UNL A   1      34.446  25.403  25.939  1.00  0.00     0.016 C 
ATOM     16  C   UNL A   1      33.107  25.461  23.628  1.00  0.00     0.005 C 
ATOM     17  C   UNL A   1      31.945  25.569  25.845  1.00  0.00     0.008 C 
ATOM     18  C   UNL A   1      32.696  26.991  23.334  1.00  0.00    -0.023 C 
ATOM     19  C   UNL A   1      31.935  27.070  25.778  1.00  0.00     0.008 C 
ATOM     20  C   UNL A   1      31.618  27.623  24.381  1.00  0.00    -0.024 C 
ATOM     21  C   UNL A   1      31.953  27.188  21.994  1.00  0.00     0.008 C 
ATOM     22  C   UNL A   1      34.040  27.802  23.176  1.00  0.00     0.012 C 
ATOM     23  C   UNL A   1      30.076  27.288  23.724  1.00  0.00    -0.002 C 
ATOM     24  C   UNL A   1      32.021  29.088  24.475  1.00  0.00     0.012 C 
ATOM     25  C   UNL A   1      30.462  27.447  22.231  1.00  0.00     0.005 C 
BRANCH  11  26
ATOM     26  C   UNL A   1      36.450  23.174  25.148  1.00  0.00    -0.028 C 
ATOM     27  C   UNL A   1      36.933  22.935  26.375  1.00  0.00     0.004 C 
ENDBRANCH  11  26
BRANCH  12  28
ATOM     28  O   UNL A   1      33.803  22.730  22.597  1.00  0.00    -0.392 OA
ATOM     29  H   UNL A   1      32.934  23.153  22.677  1.00  0.00     0.210 HD
ENDBRANCH  12  28
BRANCH  23  30
ATOM     30  C   UNL A   1      28.292  27.668  23.888  1.00  0.00    -0.010 C 
ATOM     31  C   UNL A   1      27.483  26.350  24.032  1.00  0.00     0.008 C 
BRANCH  30  32
ATOM     32  C   UNL A   1      27.015  28.819  23.470  1.00  0.00     0.008 C 
BRANCH  32  33
ATOM     33  C   UNL A   1      26.776  30.399  23.106  1.00  0.00     0.027 C 
BRANCH  33  34
ATOM     34  C   UNL A   1      27.799  31.476  23.402  1.00  0.00    -0.028 C 
ATOM     35  C   UNL A   1      28.310  32.440  22.589  1.00  0.00    -0.080 C 
ATOM     36  C   UNL A   1      29.220  33.495  23.179  1.00  0.00     0.039 C 
ATOM     37  C   UNL A   1      28.039  32.690  21.116  1.00  0.00     0.039 C 
ENDBRANCH  33  34
ENDBRANCH  32  33
ENDBRANCH  30  32
ENDBRANCH  23  30
ENDBRANCH   9  10
ENDBRANCH   8   9
ENDBRANCH   6   8
ENDBRANCH   5   6
ENDBRANCH   4   5
ENDBRANCH   3   4
ENDBRANCH   2   3
ENDBRANCH   1   2
BRANCH   1  38
ATOM     38  C   UNL A   1      34.665  16.837  24.782  1.00  0.00     0.188 C 
BRANCH  38  39
ATOM     39  O   UNL A   1      35.510  17.799  24.164  1.00  0.00    -0.377 OA
BRANCH  39  40
ATOM     40  C   UNL A   1      36.441  18.443  25.032  1.00  0.00     0.188 C 
BRANCH  40  41
ATOM     41  C   UNL A   1      37.335  19.518  24.402  1.00  0.00     0.188 C 
BRANCH  41  42
ATOM     42  O   UNL A   1      38.113  20.295  25.300  1.00  0.00    -0.376 OA
BRANCH  42  43
ATOM     43  C   UNL A   1      39.329  19.690  25.700  1.00  0.00     0.202 C 
BRANCH  43  44
ATOM     44  C   UNL A   1      40.359  20.651  26.251  1.00  0.00     0.261 C 
BRANCH  44  45
ATOM     45  O   UNL A   1      40.069  21.700  27.256  1.00  0.00    -0.460 OA
BRANCH  45  46
ATOM     46  C   UNL A   1      40.577  22.903  26.837  1.00  0.00     0.338 C 
ATOM     47  O   UNL A   1      41.554  22.928  26.125  1.00  0.00    -0.246 OA
BRANCH  46  48
ATOM     48  C   UNL A   1      40.255  24.291  27.263  1.00  0.00     0.060 A 
ATOM     49  C   UNL A   1      39.255  24.656  28.145  1.00  0.00     0.016 A 
ATOM     50  C   UNL A   1      41.334  25.195  27.016  1.00  0.00     0.016 A 
ATOM     51  C   UNL A   1      39.377  25.887  28.813  1.00  0.00     0.010 A 
ATOM     52  C   UNL A   1      41.550  26.275  27.832  1.00  0.00     0.010 A 
ATOM     53  C   UNL A   1      40.553  26.667  28.710  1.00  0.00    -0.014 A 
BRANCH  53  54
ATOM     54  C   UNL A   1      40.834  27.880  29.511  1.00  0.00     0.031 A 
ATOM     55  C   UNL A   1      42.134  27.968  30.284  1.00  0.00     0.074 A 
ATOM     56  C   UNL A   1      39.851  28.780  29.697  1.00  0.00     0.049 A 
ATOM     57  N   UNL A   1      42.512  28.848  31.174  1.00  0.00    -0.248 NA
ATOM     58  C   UNL A   1      43.093  26.857  30.121  1.00  0.00     0.031 C 
ATOM     59  C   UNL A   1      38.480  28.670  29.181  1.00  0.00     0.029 A 
ATOM     60  N   UNL A   1      39.843  29.963  30.384  1.00  0.00    -0.354 N 
ATOM     61  C   UNL A   1      43.698  28.353  31.707  1.00  0.00     0.074 A 
ATOM     62  C   UNL A   1      43.908  27.044  31.146  1.00  0.00     0.031 C 
ATOM     63  C   UNL A   1      37.792  29.776  29.507  1.00  0.00     0.029 A 
ATOM     64  C   UNL A   1      38.661  30.655  30.276  1.00  0.00     0.049 A 
ATOM     65  H   UNL A   1      40.612  30.287  30.907  1.00  0.00     0.167 HD
ATOM     66  C   UNL A   1      44.576  28.974  32.527  1.00  0.00     0.037 A 
ATOM     67  C   UNL A   1      38.347  31.882  30.732  1.00  0.00     0.037 A 
ATOM     68  C   UNL A   1      44.400  30.337  32.940  1.00  0.00     0.049 A 
ATOM     69  C   UNL A   1      39.421  32.644  31.463  1.00  0.00     0.074 A 
ATOM     70  C   UNL A   1      45.274  31.163  33.615  1.00  0.00     0.029 A 
ATOM     71  N   UNL A   1      43.261  31.084  32.665  1.00  0.00    -0.354 N 
ATOM     72  N   UNL A   1      40.613  32.237  31.836  1.00  0.00    -0.248 NA
ATOM     73  C   UNL A   1      39.127  34.039  31.808  1.00  0.00     0.031 C 
ATOM     74  C   UNL A   1      44.659  32.412  33.757  1.00  0.00     0.029 A 
ATOM     75  C   UNL A   1      43.415  32.369  33.142  1.00  0.00     0.049 A 
ATOM     76  H   UNL A   1      42.463  30.745  32.198  1.00  0.00     0.167 HD
ATOM     77  C   UNL A   1      41.224  33.330  32.429  1.00  0.00     0.074 A 
ATOM     78  C   UNL A   1      40.276  34.425  32.347  1.00  0.00     0.031 C 
ATOM     79  C   UNL A   1      42.450  33.428  33.000  1.00  0.00     0.037 A 
BRANCH  66  80
ATOM     80  C   UNL A   1      45.814  28.225  32.941  1.00  0.00     0.064 A 
ATOM     81  C   UNL A   1      46.967  28.199  32.137  1.00  0.00     0.173 A 
ATOM     82  C   UNL A   1      45.857  27.524  34.155  1.00  0.00     0.173 A 
ATOM     83  F   UNL A   1      46.986  28.847  30.962  1.00  0.00    -0.203 F 
ATOM     84  C   UNL A   1      48.086  27.454  32.500  1.00  0.00     0.198 A 
ATOM     85  C   UNL A   1      46.994  26.811  34.536  1.00  0.00     0.198 A 
ATOM     86  F   UNL A   1      44.793  27.518  34.973  1.00  0.00    -0.203 F 
ATOM     87  F   UNL A   1      49.138  27.383  31.673  1.00  0.00    -0.200 F 
ATOM     88  C   UNL A   1      48.102  26.765  33.702  1.00  0.00     0.200 A 
ATOM     89  F   UNL A   1      47.015  26.158  35.706  1.00  0.00    -0.200 F 
ATOM     90  F   UNL A   1      49.180  26.050  34.053  1.00  0.00    -0.200 F 
ENDBRANCH  66  80
BRANCH  67  91
ATOM     91  C   UNL A   1      37.024  32.490  30.427  1.00  0.00     0.064 A 
ATOM     92  C   UNL A   1      35.961  32.387  31.337  1.00  0.00     0.173 A 
ATOM     93  C   UNL A   1      36.789  33.184  29.233  1.00  0.00     0.173 A 
ATOM     94  F   UNL A   1      36.135  31.737  32.497  1.00  0.00    -0.203 F 
ATOM     95  C   UNL A   1      34.702  32.908  31.043  1.00  0.00     0.198 A 
ATOM     96  C   UNL A   1      35.537  33.732  28.951  1.00  0.00     0.198 A 
ATOM     97  F   UNL A   1      37.777  33.340  28.340  1.00  0.00    -0.203 F 
ATOM     98  F   UNL A   1      33.692  32.742  31.907  1.00  0.00    -0.200 F 
ATOM     99  C   UNL A   1      34.491  33.582  29.850  1.00  0.00     0.200 A 
ATOM    100  F   UNL A   1      35.343  34.401  27.807  1.00  0.00    -0.200 F 
ATOM    101  F   UNL A   1      33.281  34.077  29.564  1.00  0.00    -0.200 F 
ENDBRANCH  67  91
BRANCH  79 102
ATOM    102  C   UNL A   1      42.842  34.769  33.530  1.00  0.00     0.064 A 
ATOM    103  C   UNL A   1      42.645  35.107  34.875  1.00  0.00     0.173 A 
ATOM    104  C   UNL A   1      43.490  35.693  32.697  1.00  0.00     0.173 A 
ATOM    105  F   UNL A   1      42.017  34.255  35.700  1.00  0.00    -0.203 F 
ATOM    106  C   UNL A   1      43.068  36.336  35.367  1.00  0.00     0.198 A 
ATOM    107  C   UNL A   1      43.940  36.908  33.200  1.00  0.00     0.198 A 
ATOM    108  F   UNL A   1      43.708  35.405  31.406  1.00  0.00    -0.203 F 
ATOM    109  F   UNL A   1      42.835  36.658  36.646  1.00  0.00    -0.200 F 
ATOM    110  C   UNL A   1      43.724  37.230  34.532  1.00  0.00     0.200 A 
ATOM    111  F   UNL A   1      44.588  37.764  32.399  1.00  0.00    -0.200 F 
ATOM    112  F   UNL A   1      44.146  38.407  35.013  1.00  0.00    -0.200 F 
ENDBRANCH  79 102
ENDBRANCH  53  54
ENDBRANCH  46  48
ENDBRANCH  45  46
ENDBRANCH  44  45
ENDBRANCH  43  44
ENDBRANCH  42  43
ENDBRANCH  41  42
ENDBRANCH  40  41
ENDBRANCH  39  40
ENDBRANCH  38  39
ENDBRANCH   1  38
TORSDOF 28
ENDMDL
