MODEL 1
REMARK VINA RESULT:      -9.5      0.000      0.000
REMARK SMILES O=C(OCCOCCOCCOCCOC(=O)c1cc(OCc2ccccc2C(F)(F)F)cs1)c1ccc(-c2c3nc(c(-c4c(F)c(F)c(F)c(F)c4F)c4ccc([nH]4)c(-c4c(F)c(F)c(F)c(F)c4F)c4nc(c(-c5c(F)c(F)c(F)c(F)c5F)c5ccc2[nH]5)C=C4)C=C3)cc1
REMARK SMILES IDX 10 1 9 2 8 3 7 4 6 5 5 6 4 7 3 8 2 9 1 10 35 11 36 12 97 13
REMARK SMILES IDX 37 14 96 15 38 16 39 17 40 18 90 19 41 20 95 21 89 22 91 23
REMARK SMILES IDX 42 24 94 25 88 26 87 27 43 29 75 30 55 31 74 32 56 33 59 34
REMARK SMILES IDX 73 35 92 36 57 37 58 38 72 40 93 41 60 42 44 43 45 44 53 45
REMARK SMILES IDX 46 46 47 47 51 48 54 49 48 50 49 51 52 52 50 53 76 54 77 55
REMARK SMILES IDX 85 56 78 57 79 58 83 59 86 60 80 61 81 62 84 63 82 64 61 65
REMARK SMILES IDX 62 66 70 67 63 68 64 69 68 70 71 71 65 72 66 73 69 74 67 75
REMARK SMILES IDX 11 76 12 77 13 78 14 79 15 80 16 81 17 82 18 83 19 84 34 85
REMARK SMILES IDX 20 86 33 87 21 88 22 89 23 90 24 91 28 92 25 93 27 94 26 95
REMARK SMILES IDX 29 96 30 97 31 98 32 99
REMARK H PARENT 91 28 59 39
REMARK Flexibility Score: inf
ROOT
ATOM      1  C   UNL A   1      32.972  36.251  30.566  1.00  0.00     0.188 C 
ENDROOT
BRANCH   1   2
ATOM      2  O   UNL A   1      33.043  37.341  31.480  1.00  0.00    -0.377 OA
BRANCH   2   3
ATOM      3  C   UNL A   1      34.029  37.256  32.512  1.00  0.00     0.188 C 
BRANCH   3   4
ATOM      4  C   UNL A   1      34.627  35.863  32.724  1.00  0.00     0.188 C 
BRANCH   4   5
ATOM      5  O   UNL A   1      33.713  35.048  33.464  1.00  0.00    -0.376 OA
BRANCH   5   6
ATOM      6  C   UNL A   1      34.081  33.675  33.573  1.00  0.00     0.202 C 
BRANCH   6   7
ATOM      7  C   UNL A   1      34.425  33.022  32.233  1.00  0.00     0.261 C 
BRANCH   7   8
ATOM      8  O   UNL A   1      35.440  32.018  32.376  1.00  0.00    -0.460 OA
BRANCH   8   9
ATOM      9  C   UNL A   1      36.718  32.191  32.797  1.00  0.00     0.338 C 
ATOM     10  O   UNL A   1      36.908  32.693  33.904  1.00  0.00    -0.246 OA
BRANCH   9  11
ATOM     11  C   UNL A   1      37.919  31.758  32.017  1.00  0.00     0.060 A 
ATOM     12  C   UNL A   1      38.155  32.039  30.670  1.00  0.00     0.016 A 
ATOM     13  C   UNL A   1      38.923  31.079  32.730  1.00  0.00     0.016 A 
ATOM     14  C   UNL A   1      39.303  31.592  30.022  1.00  0.00     0.010 A 
ATOM     15  C   UNL A   1      40.099  30.662  32.100  1.00  0.00     0.010 A 
ATOM     16  C   UNL A   1      40.277  30.895  30.732  1.00  0.00    -0.014 A 
BRANCH  16  17
ATOM     17  C   UNL A   1      41.415  30.312  29.997  1.00  0.00     0.031 A 
ATOM     18  C   UNL A   1      42.652  31.141  29.840  1.00  0.00     0.074 A 
ATOM     19  C   UNL A   1      41.361  29.042  29.560  1.00  0.00     0.049 A 
ATOM     20  N   UNL A   1      43.733  30.899  29.149  1.00  0.00    -0.248 NA
ATOM     21  C   UNL A   1      42.677  32.420  30.572  1.00  0.00     0.031 C 
ATOM     22  C   UNL A   1      40.240  28.125  29.772  1.00  0.00     0.029 A 
ATOM     23  N   UNL A   1      42.273  28.300  28.857  1.00  0.00    -0.354 N 
ATOM     24  C   UNL A   1      44.546  32.010  29.329  1.00  0.00     0.074 A 
ATOM     25  C   UNL A   1      43.844  32.923  30.201  1.00  0.00     0.031 C 
ATOM     26  C   UNL A   1      40.533  26.940  29.213  1.00  0.00     0.029 A 
ATOM     27  C   UNL A   1      41.827  27.038  28.545  1.00  0.00     0.049 A 
ATOM     28  H   UNL A   1      43.161  28.637  28.601  1.00  0.00     0.167 HD
ATOM     29  C   UNL A   1      45.767  32.241  28.795  1.00  0.00     0.037 A 
ATOM     30  C   UNL A   1      42.390  26.096  27.765  1.00  0.00     0.037 A 
ATOM     31  C   UNL A   1      46.445  31.305  27.943  1.00  0.00     0.049 A 
ATOM     32  C   UNL A   1      43.713  26.411  27.117  1.00  0.00     0.074 A 
ATOM     33  C   UNL A   1      47.670  31.433  27.315  1.00  0.00     0.029 A 
ATOM     34  N   UNL A   1      45.943  30.056  27.601  1.00  0.00    -0.354 N 
ATOM     35  N   UNL A   1      44.462  27.482  27.244  1.00  0.00    -0.248 NA
ATOM     36  C   UNL A   1      44.261  25.404  26.199  1.00  0.00     0.031 C 
ATOM     37  C   UNL A   1      47.888  30.277  26.558  1.00  0.00     0.029 A 
ATOM     38  C   UNL A   1      46.820  29.412  26.749  1.00  0.00     0.049 A 
ATOM     39  H   UNL A   1      45.089  29.685  27.920  1.00  0.00     0.167 HD
ATOM     40  C   UNL A   1      45.566  27.279  26.429  1.00  0.00     0.074 A 
ATOM     41  C   UNL A   1      45.403  25.968  25.832  1.00  0.00     0.031 C 
ATOM     42  C   UNL A   1      46.616  28.101  26.184  1.00  0.00     0.037 A 
BRANCH  29  43
ATOM     43  C   UNL A   1      46.388  33.579  29.060  1.00  0.00     0.064 A 
ATOM     44  C   UNL A   1      47.247  33.801  30.145  1.00  0.00     0.173 A 
ATOM     45  C   UNL A   1      46.091  34.666  28.224  1.00  0.00     0.173 A 
ATOM     46  F   UNL A   1      47.539  32.802  30.992  1.00  0.00    -0.203 F 
ATOM     47  C   UNL A   1      47.766  35.069  30.399  1.00  0.00     0.198 A 
ATOM     48  C   UNL A   1      46.630  35.926  28.466  1.00  0.00     0.198 A 
ATOM     49  F   UNL A   1      45.268  34.508  27.177  1.00  0.00    -0.203 F 
ATOM     50  F   UNL A   1      48.541  35.272  31.474  1.00  0.00    -0.200 F 
ATOM     51  C   UNL A   1      47.460  36.129  29.559  1.00  0.00     0.200 A 
ATOM     52  F   UNL A   1      46.333  36.948  27.652  1.00  0.00    -0.200 F 
ATOM     53  F   UNL A   1      47.952  37.350  29.809  1.00  0.00    -0.200 F 
ENDBRANCH  29  43
BRANCH  30  54
ATOM     54  C   UNL A   1      41.681  24.814  27.500  1.00  0.00     0.064 A 
ATOM     55  C   UNL A   1      40.535  24.766  26.695  1.00  0.00     0.173 A 
ATOM     56  C   UNL A   1      42.126  23.608  28.065  1.00  0.00     0.173 A 
ATOM     57  F   UNL A   1      40.050  25.892  26.152  1.00  0.00    -0.203 F 
ATOM     58  C   UNL A   1      39.856  23.566  26.476  1.00  0.00     0.198 A 
ATOM     59  C   UNL A   1      41.466  22.405  27.820  1.00  0.00     0.198 A 
ATOM     60  F   UNL A   1      43.213  23.595  28.851  1.00  0.00    -0.203 F 
ATOM     61  F   UNL A   1      38.737  23.557  25.740  1.00  0.00    -0.200 F 
ATOM     62  C   UNL A   1      40.327  22.387  27.033  1.00  0.00     0.200 A 
ATOM     63  F   UNL A   1      41.933  21.268  28.352  1.00  0.00    -0.200 F 
ATOM     64  F   UNL A   1      39.676  21.235  26.820  1.00  0.00    -0.200 F 
ENDBRANCH  30  54
BRANCH  42  65
ATOM     65  C   UNL A   1      47.666  27.598  25.242  1.00  0.00     0.064 A 
ATOM     66  C   UNL A   1      47.553  27.792  23.858  1.00  0.00     0.173 A 
ATOM     67  C   UNL A   1      48.827  26.986  25.735  1.00  0.00     0.173 A 
ATOM     68  F   UNL A   1      46.452  28.360  23.344  1.00  0.00    -0.203 F 
ATOM     69  C   UNL A   1      48.564  27.378  22.998  1.00  0.00     0.198 A 
ATOM     70  C   UNL A   1      49.846  26.596  24.873  1.00  0.00     0.198 A 
ATOM     71  F   UNL A   1      48.980  26.788  27.053  1.00  0.00    -0.203 F 
ATOM     72  F   UNL A   1      48.425  27.544  21.675  1.00  0.00    -0.200 F 
ATOM     73  C   UNL A   1      49.714  26.790  23.506  1.00  0.00     0.200 A 
ATOM     74  F   UNL A   1      50.961  26.041  25.366  1.00  0.00    -0.200 F 
ATOM     75  F   UNL A   1      50.693  26.408  22.677  1.00  0.00    -0.200 F 
ENDBRANCH  42  65
ENDBRANCH  16  17
ENDBRANCH   9  11
ENDBRANCH   8   9
ENDBRANCH   7   8
ENDBRANCH   6   7
ENDBRANCH   5   6
ENDBRANCH   4   5
ENDBRANCH   3   4
ENDBRANCH   2   3
ENDBRANCH   1   2
BRANCH   1  76
ATOM     76  C   UNL A   1      33.162  36.545  29.063  1.00  0.00     0.188 C 
BRANCH  76  77
ATOM     77  O   UNL A   1      34.037  35.654  28.382  1.00  0.00    -0.376 OA
BRANCH  77  78
ATOM     78  C   UNL A   1      34.013  34.303  28.835  1.00  0.00     0.202 C 
BRANCH  78  79
ATOM     79  C   UNL A   1      32.911  33.443  28.204  1.00  0.00     0.261 C 
BRANCH  79  80
ATOM     80  O   UNL A   1      33.379  32.307  27.463  1.00  0.00    -0.459 OA
BRANCH  80  81
ATOM     81  C   UNL A   1      32.464  31.506  26.852  1.00  0.00     0.348 C 
ATOM     82  O   UNL A   1      31.331  31.852  26.545  1.00  0.00    -0.245 OA
BRANCH  81  83
ATOM     83  C   UNL A   1      33.125  30.263  26.510  1.00  0.00     0.116 A 
ATOM     84  C   UNL A   1      32.757  29.343  25.546  1.00  0.00     0.074 A 
ATOM     85  S   UNL A   1      34.440  29.691  27.445  1.00  0.00    -0.133 S 
ATOM     86  C   UNL A   1      33.511  28.141  25.619  1.00  0.00     0.131 A 
ATOM     87  C   UNL A   1      34.419  28.170  26.652  1.00  0.00     0.112 A 
BRANCH  86  88
ATOM     88  O   UNL A   1      33.376  27.019  24.867  1.00  0.00    -0.488 OA
BRANCH  88  89
ATOM     89  C   UNL A   1      32.665  25.953  25.520  1.00  0.00     0.266 C 
BRANCH  89  90
ATOM     90  C   UNL A   1      32.591  24.691  24.674  1.00  0.00     0.001 A 
ATOM     91  C   UNL A   1      33.377  24.647  23.504  1.00  0.00     0.008 A 
ATOM     92  C   UNL A   1      31.770  23.579  24.983  1.00  0.00     0.062 A 
ATOM     93  C   UNL A   1      33.395  23.521  22.680  1.00  0.00     0.000 A 
ATOM     94  C   UNL A   1      31.820  22.446  24.141  1.00  0.00     0.013 A 
ATOM     95  C   UNL A   1      32.623  22.416  23.004  1.00  0.00     0.001 A 
BRANCH  92  96
ATOM     96  C   UNL A   1      30.866  23.473  26.194  1.00  0.00     0.416 C 
ATOM     97  F   UNL A   1      30.132  22.322  26.198  1.00  0.00    -0.166 F 
ATOM     98  F   UNL A   1      31.574  23.462  27.358  1.00  0.00    -0.166 F 
ATOM     99  F   UNL A   1      29.952  24.470  26.324  1.00  0.00    -0.166 F 
ENDBRANCH  92  96
ENDBRANCH  89  90
ENDBRANCH  88  89
ENDBRANCH  86  88
ENDBRANCH  81  83
ENDBRANCH  80  81
ENDBRANCH  79  80
ENDBRANCH  78  79
ENDBRANCH  77  78
ENDBRANCH  76  77
ENDBRANCH   1  76
TORSDOF 24
ENDMDL
MODEL 2
REMARK VINA RESULT:      -9.4      7.009      9.518
REMARK SMILES O=C(OCCOCCOCCOCCOC(=O)c1cc(OCc2ccccc2C(F)(F)F)cs1)c1ccc(-c2c3nc(c(-c4c(F)c(F)c(F)c(F)c4F)c4ccc([nH]4)c(-c4c(F)c(F)c(F)c(F)c4F)c4nc(c(-c5c(F)c(F)c(F)c(F)c5F)c5ccc2[nH]5)C=C4)C=C3)cc1
REMARK SMILES IDX 10 1 9 2 8 3 7 4 6 5 5 6 4 7 3 8 2 9 1 10 35 11 36 12 97 13
REMARK SMILES IDX 37 14 96 15 38 16 39 17 40 18 90 19 41 20 95 21 89 22 91 23
REMARK SMILES IDX 42 24 94 25 88 26 87 27 43 29 75 30 55 31 74 32 56 33 59 34
REMARK SMILES IDX 73 35 92 36 57 37 58 38 72 40 93 41 60 42 44 43 45 44 53 45
REMARK SMILES IDX 46 46 47 47 51 48 54 49 48 50 49 51 52 52 50 53 76 54 77 55
REMARK SMILES IDX 85 56 78 57 79 58 83 59 86 60 80 61 81 62 84 63 82 64 61 65
REMARK SMILES IDX 62 66 70 67 63 68 64 69 68 70 71 71 65 72 66 73 69 74 67 75
REMARK SMILES IDX 11 76 12 77 13 78 14 79 15 80 16 81 17 82 18 83 19 84 34 85
REMARK SMILES IDX 20 86 33 87 21 88 22 89 23 90 24 91 28 92 25 93 27 94 26 95
REMARK SMILES IDX 29 96 30 97 31 98 32 99
REMARK H PARENT 91 28 59 39
REMARK Flexibility Score: inf
ROOT
ATOM      1  C   UNL A   1      33.261  35.782  29.792  1.00  0.00     0.188 C 
ENDROOT
BRANCH   1   2
ATOM      2  O   UNL A   1      32.765  37.011  30.312  1.00  0.00    -0.377 OA
BRANCH   2   3
ATOM      3  C   UNL A   1      33.361  37.489  31.520  1.00  0.00     0.188 C 
BRANCH   3   4
ATOM      4  C   UNL A   1      33.111  36.618  32.754  1.00  0.00     0.188 C 
BRANCH   4   5
ATOM      5  O   UNL A   1      34.336  36.426  33.470  1.00  0.00    -0.376 OA
BRANCH   5   6
ATOM      6  C   UNL A   1      35.060  35.249  33.122  1.00  0.00     0.202 C 
BRANCH   6   7
ATOM      7  C   UNL A   1      34.173  34.104  32.628  1.00  0.00     0.261 C 
BRANCH   7   8
ATOM      8  O   UNL A   1      34.950  32.989  32.168  1.00  0.00    -0.460 OA
BRANCH   8   9
ATOM      9  C   UNL A   1      36.261  32.987  31.816  1.00  0.00     0.338 C 
ATOM     10  O   UNL A   1      36.561  33.321  30.670  1.00  0.00    -0.246 OA
BRANCH   9  11
ATOM     11  C   UNL A   1      37.376  32.653  32.755  1.00  0.00     0.060 A 
ATOM     12  C   UNL A   1      38.708  33.047  32.607  1.00  0.00     0.016 A 
ATOM     13  C   UNL A   1      37.028  31.950  33.922  1.00  0.00     0.016 A 
ATOM     14  C   UNL A   1      39.683  32.687  33.532  1.00  0.00     0.010 A 
ATOM     15  C   UNL A   1      37.992  31.618  34.879  1.00  0.00     0.010 A 
ATOM     16  C   UNL A   1      39.331  31.964  34.669  1.00  0.00    -0.014 A 
BRANCH  16  17
ATOM     17  C   UNL A   1      40.398  31.476  35.562  1.00  0.00     0.031 A 
ATOM     18  C   UNL A   1      40.724  32.283  36.780  1.00  0.00     0.074 A 
ATOM     19  C   UNL A   1      40.994  30.294  35.323  1.00  0.00     0.049 A 
ATOM     20  N   UNL A   1      41.684  32.125  37.650  1.00  0.00    -0.248 NA
ATOM     21  C   UNL A   1      39.837  33.426  37.060  1.00  0.00     0.031 C 
ATOM     22  C   UNL A   1      40.657  29.387  34.225  1.00  0.00     0.029 A 
ATOM     23  N   UNL A   1      41.999  29.649  35.994  1.00  0.00    -0.354 N 
ATOM     24  C   UNL A   1      41.542  33.169  38.554  1.00  0.00     0.074 A 
ATOM     25  C   UNL A   1      40.400  33.950  38.139  1.00  0.00     0.031 C 
ATOM     26  C   UNL A   1      41.440  28.300  34.300  1.00  0.00     0.029 A 
ATOM     27  C   UNL A   1      42.379  28.467  35.405  1.00  0.00     0.049 A 
ATOM     28  H   UNL A   1      42.409  29.998  36.817  1.00  0.00     0.167 HD
ATOM     29  C   UNL A   1      42.315  33.448  39.628  1.00  0.00     0.037 A 
ATOM     30  C   UNL A   1      43.404  27.648  35.705  1.00  0.00     0.037 A 
ATOM     31  C   UNL A   1      43.436  32.643  40.025  1.00  0.00     0.049 A 
ATOM     32  C   UNL A   1      44.298  28.026  36.857  1.00  0.00     0.074 A 
ATOM     33  C   UNL A   1      44.315  32.835  41.074  1.00  0.00     0.029 A 
ATOM     34  N   UNL A   1      43.829  31.480  39.375  1.00  0.00    -0.354 N 
ATOM     35  N   UNL A   1      44.198  29.041  37.684  1.00  0.00    -0.248 NA
ATOM     36  C   UNL A   1      45.462  27.164  37.107  1.00  0.00     0.031 C 
ATOM     37  C   UNL A   1      45.267  31.811  41.031  1.00  0.00     0.029 A 
ATOM     38  C   UNL A   1      44.955  30.957  39.983  1.00  0.00     0.049 A 
ATOM     39  H   UNL A   1      43.372  31.087  38.596  1.00  0.00     0.167 HD
ATOM     40  C   UNL A   1      45.276  28.940  38.550  1.00  0.00     0.074 A 
ATOM     41  C   UNL A   1      46.005  27.747  38.166  1.00  0.00     0.031 C 
ATOM     42  C   UNL A   1      45.642  29.760  39.565  1.00  0.00     0.037 A 
BRANCH  29  43
ATOM     43  C   UNL A   1      42.011  34.708  40.382  1.00  0.00     0.064 A 
ATOM     44  C   UNL A   1      42.548  35.949  40.009  1.00  0.00     0.173 A 
ATOM     45  C   UNL A   1      41.188  34.663  41.517  1.00  0.00     0.173 A 
ATOM     46  F   UNL A   1      43.365  36.041  38.949  1.00  0.00    -0.203 F 
ATOM     47  C   UNL A   1      42.293  37.093  40.761  1.00  0.00     0.198 A 
ATOM     48  C   UNL A   1      40.915  35.812  42.253  1.00  0.00     0.198 A 
ATOM     49  F   UNL A   1      40.657  33.500  41.920  1.00  0.00    -0.203 F 
ATOM     50  F   UNL A   1      42.861  38.259  40.420  1.00  0.00    -0.200 F 
ATOM     51  C   UNL A   1      41.475  37.026  41.879  1.00  0.00     0.200 A 
ATOM     52  F   UNL A   1      40.125  35.744  43.332  1.00  0.00    -0.200 F 
ATOM     53  F   UNL A   1      41.238  38.125  42.607  1.00  0.00    -0.200 F 
ENDBRANCH  29  43
BRANCH  30  54
ATOM     54  C   UNL A   1      43.678  26.446  34.870  1.00  0.00     0.064 A 
ATOM     55  C   UNL A   1      44.468  26.523  33.715  1.00  0.00     0.173 A 
ATOM     56  C   UNL A   1      43.137  25.193  35.202  1.00  0.00     0.173 A 
ATOM     57  F   UNL A   1      44.987  27.700  33.336  1.00  0.00    -0.203 F 
ATOM     58  C   UNL A   1      44.695  25.399  32.919  1.00  0.00     0.198 A 
ATOM     59  C   UNL A   1      43.391  24.065  34.424  1.00  0.00     0.198 A 
ATOM     60  F   UNL A   1      42.367  25.061  36.292  1.00  0.00    -0.203 F 
ATOM     61  F   UNL A   1      45.415  25.513  31.795  1.00  0.00    -0.200 F 
ATOM     62  C   UNL A   1      44.163  24.171  33.279  1.00  0.00     0.200 A 
ATOM     63  F   UNL A   1      42.883  22.879  34.784  1.00  0.00    -0.200 F 
ATOM     64  F   UNL A   1      44.383  23.092  32.515  1.00  0.00    -0.200 F 
ENDBRANCH  30  54
BRANCH  42  65
ATOM     65  C   UNL A   1      46.875  29.386  40.330  1.00  0.00     0.064 A 
ATOM     66  C   UNL A   1      46.815  28.503  41.417  1.00  0.00     0.173 A 
ATOM     67  C   UNL A   1      48.131  29.857  39.925  1.00  0.00     0.173 A 
ATOM     68  F   UNL A   1      45.632  28.040  41.847  1.00  0.00    -0.203 F 
ATOM     69  C   UNL A   1      47.974  28.113  42.080  1.00  0.00     0.198 A 
ATOM     70  C   UNL A   1      49.289  29.445  40.574  1.00  0.00     0.198 A 
ATOM     71  F   UNL A   1      48.235  30.699  38.884  1.00  0.00    -0.203 F 
ATOM     72  F   UNL A   1      47.895  27.291  43.136  1.00  0.00    -0.200 F 
ATOM     73  C   UNL A   1      49.210  28.576  41.653  1.00  0.00     0.200 A 
ATOM     74  F   UNL A   1      50.484  29.882  40.152  1.00  0.00    -0.200 F 
ATOM     75  F   UNL A   1      50.326  28.185  42.282  1.00  0.00    -0.200 F 
ENDBRANCH  42  65
ENDBRANCH  16  17
ENDBRANCH   9  11
ENDBRANCH   8   9
ENDBRANCH   7   8
ENDBRANCH   6   7
ENDBRANCH   5   6
ENDBRANCH   4   5
ENDBRANCH   3   4
ENDBRANCH   2   3
ENDBRANCH   1   2
BRANCH   1  76
ATOM     76  C   UNL A   1      34.034  35.813  28.457  1.00  0.00     0.188 C 
BRANCH  76  77
ATOM     77  O   UNL A   1      34.502  34.548  28.004  1.00  0.00    -0.376 OA
BRANCH  77  78
ATOM     78  C   UNL A   1      33.539  33.498  28.011  1.00  0.00     0.202 C 
BRANCH  78  79
ATOM     79  C   UNL A   1      34.141  32.087  28.055  1.00  0.00     0.261 C 
BRANCH  79  80
ATOM     80  O   UNL A   1      33.262  31.039  27.621  1.00  0.00    -0.459 OA
BRANCH  80  81
ATOM     81  C   UNL A   1      33.803  29.850  27.244  1.00  0.00     0.348 C 
ATOM     82  O   UNL A   1      34.958  29.511  27.460  1.00  0.00    -0.245 OA
BRANCH  81  83
ATOM     83  C   UNL A   1      32.738  29.036  26.695  1.00  0.00     0.116 A 
ATOM     84  C   UNL A   1      32.161  27.908  27.247  1.00  0.00     0.074 A 
ATOM     85  S   UNL A   1      32.151  29.322  25.113  1.00  0.00    -0.133 S 
ATOM     86  C   UNL A   1      31.287  27.241  26.347  1.00  0.00     0.131 A 
ATOM     87  C   UNL A   1      31.240  27.869  25.123  1.00  0.00     0.112 A 
BRANCH  86  88
ATOM     88  O   UNL A   1      30.603  26.084  26.542  1.00  0.00    -0.488 OA
BRANCH  88  89
ATOM     89  C   UNL A   1      30.980  25.020  25.651  1.00  0.00     0.266 C 
BRANCH  89  90
ATOM     90  C   UNL A   1      32.177  24.229  26.154  1.00  0.00     0.001 A 
ATOM     91  C   UNL A   1      31.962  23.335  27.224  1.00  0.00     0.008 A 
ATOM     92  C   UNL A   1      33.486  24.355  25.628  1.00  0.00     0.062 A 
ATOM     93  C   UNL A   1      32.994  22.548  27.735  1.00  0.00     0.000 A 
ATOM     94  C   UNL A   1      34.509  23.534  26.152  1.00  0.00     0.013 A 
ATOM     95  C   UNL A   1      34.267  22.640  27.192  1.00  0.00     0.001 A 
BRANCH  92  96
ATOM     96  C   UNL A   1      33.883  25.272  24.488  1.00  0.00     0.416 C 
ATOM     97  F   UNL A   1      34.960  24.804  23.794  1.00  0.00    -0.166 F 
ATOM     98  F   UNL A   1      32.883  25.406  23.572  1.00  0.00    -0.166 F 
ATOM     99  F   UNL A   1      34.224  26.536  24.854  1.00  0.00    -0.166 F 
ENDBRANCH  92  96
ENDBRANCH  89  90
ENDBRANCH  88  89
ENDBRANCH  86  88
ENDBRANCH  81  83
ENDBRANCH  80  81
ENDBRANCH  79  80
ENDBRANCH  78  79
ENDBRANCH  77  78
ENDBRANCH  76  77
ENDBRANCH   1  76
TORSDOF 24
ENDMDL
MODEL 3
REMARK VINA RESULT:      -9.3      5.627     12.599
REMARK SMILES O=C(OCCOCCOCCOCCOC(=O)c1cc(OCc2ccccc2C(F)(F)F)cs1)c1ccc(-c2c3nc(c(-c4c(F)c(F)c(F)c(F)c4F)c4ccc([nH]4)c(-c4c(F)c(F)c(F)c(F)c4F)c4nc(c(-c5c(F)c(F)c(F)c(F)c5F)c5ccc2[nH]5)C=C4)C=C3)cc1
REMARK SMILES IDX 10 1 9 2 8 3 7 4 6 5 5 6 4 7 3 8 2 9 1 10 35 11 36 12 97 13
REMARK SMILES IDX 37 14 96 15 38 16 39 17 40 18 90 19 41 20 95 21 89 22 91 23
REMARK SMILES IDX 42 24 94 25 88 26 87 27 43 29 75 30 55 31 74 32 56 33 59 34
REMARK SMILES IDX 73 35 92 36 57 37 58 38 72 40 93 41 60 42 44 43 45 44 53 45
REMARK SMILES IDX 46 46 47 47 51 48 54 49 48 50 49 51 52 52 50 53 76 54 77 55
REMARK SMILES IDX 85 56 78 57 79 58 83 59 86 60 80 61 81 62 84 63 82 64 61 65
REMARK SMILES IDX 62 66 70 67 63 68 64 69 68 70 71 71 65 72 66 73 69 74 67 75
REMARK SMILES IDX 11 76 12 77 13 78 14 79 15 80 16 81 17 82 18 83 19 84 34 85
REMARK SMILES IDX 20 86 33 87 21 88 22 89 23 90 24 91 28 92 25 93 27 94 26 95
REMARK SMILES IDX 29 96 30 97 31 98 32 99
REMARK H PARENT 91 28 59 39
REMARK Flexibility Score: inf
ROOT
ATOM      1  C   UNL A   1      42.982  23.079  27.494  1.00  0.00     0.188 C 
ENDROOT
BRANCH   1   2
ATOM      2  O   UNL A   1      43.737  22.153  26.719  1.00  0.00    -0.377 OA
BRANCH   2   3
ATOM      3  C   UNL A   1      43.703  22.320  25.299  1.00  0.00     0.188 C 
BRANCH   3   4
ATOM      4  C   UNL A   1      44.942  21.813  24.557  1.00  0.00     0.188 C 
BRANCH   4   5
ATOM      5  O   UNL A   1      45.559  22.892  23.847  1.00  0.00    -0.376 OA
BRANCH   5   6
ATOM      6  C   UNL A   1      46.342  23.772  24.649  1.00  0.00     0.202 C 
BRANCH   6   7
ATOM      7  C   UNL A   1      45.758  25.182  24.765  1.00  0.00     0.261 C 
BRANCH   7   8
ATOM      8  O   UNL A   1      46.712  26.185  24.389  1.00  0.00    -0.460 OA
BRANCH   8   9
ATOM      9  C   UNL A   1      46.664  27.513  24.665  1.00  0.00     0.338 C 
ATOM     10  O   UNL A   1      47.081  28.304  23.820  1.00  0.00    -0.246 OA
BRANCH   9  11
ATOM     11  C   UNL A   1      46.083  28.083  25.920  1.00  0.00     0.060 A 
ATOM     12  C   UNL A   1      44.729  28.078  26.263  1.00  0.00     0.016 A 
ATOM     13  C   UNL A   1      46.994  28.593  26.862  1.00  0.00     0.016 A 
ATOM     14  C   UNL A   1      44.276  28.635  27.454  1.00  0.00     0.010 A 
ATOM     15  C   UNL A   1      46.555  29.118  28.081  1.00  0.00     0.010 A 
ATOM     16  C   UNL A   1      45.186  29.165  28.366  1.00  0.00    -0.014 A 
BRANCH  16  17
ATOM     17  C   UNL A   1      44.674  29.873  29.554  1.00  0.00     0.031 A 
ATOM     18  C   UNL A   1      44.499  29.092  30.820  1.00  0.00     0.074 A 
ATOM     19  C   UNL A   1      44.457  31.199  29.513  1.00  0.00     0.049 A 
ATOM     20  N   UNL A   1      43.968  29.456  31.955  1.00  0.00    -0.248 NA
ATOM     21  C   UNL A   1      45.002  27.707  30.805  1.00  0.00     0.031 C 
ATOM     22  C   UNL A   1      44.712  32.058  28.356  1.00  0.00     0.029 A 
ATOM     23  N   UNL A   1      43.982  32.057  30.469  1.00  0.00    -0.354 N 
ATOM     24  C   UNL A   1      44.033  28.336  32.773  1.00  0.00     0.074 A 
ATOM     25  C   UNL A   1      44.665  27.282  32.014  1.00  0.00     0.031 C 
ATOM     26  C   UNL A   1      44.394  33.324  28.672  1.00  0.00     0.029 A 
ATOM     27  C   UNL A   1      43.848  33.351  30.025  1.00  0.00     0.049 A 
ATOM     28  H   UNL A   1      43.760  31.775  31.385  1.00  0.00     0.167 HD
ATOM     29  C   UNL A   1      43.588  28.209  34.044  1.00  0.00     0.037 A 
ATOM     30  C   UNL A   1      43.298  34.416  30.637  1.00  0.00     0.037 A 
ATOM     31  C   UNL A   1      42.978  29.282  34.778  1.00  0.00     0.049 A 
ATOM     32  C   UNL A   1      42.737  34.226  32.022  1.00  0.00     0.074 A 
ATOM     33  C   UNL A   1      42.459  29.272  36.059  1.00  0.00     0.029 A 
ATOM     34  N   UNL A   1      42.807  30.567  34.281  1.00  0.00    -0.354 N 
ATOM     35  N   UNL A   1      42.751  33.154  32.780  1.00  0.00    -0.248 NA
ATOM     36  C   UNL A   1      42.061  35.380  32.631  1.00  0.00     0.031 C 
ATOM     37  C   UNL A   1      41.934  30.542  36.320  1.00  0.00     0.029 A 
ATOM     38  C   UNL A   1      42.165  31.354  35.219  1.00  0.00     0.049 A 
ATOM     39  H   UNL A   1      43.099  30.873  33.392  1.00  0.00     0.167 HD
ATOM     40  C   UNL A   1      42.094  33.502  33.951  1.00  0.00     0.074 A 
ATOM     41  C   UNL A   1      41.716  34.895  33.815  1.00  0.00     0.031 C 
ATOM     42  C   UNL A   1      41.815  32.741  35.038  1.00  0.00     0.037 A 
BRANCH  29  43
ATOM     43  C   UNL A   1      43.680  26.849  34.668  1.00  0.00     0.064 A 
ATOM     44  C   UNL A   1      44.895  26.319  35.125  1.00  0.00     0.173 A 
ATOM     45  C   UNL A   1      42.531  26.053  34.784  1.00  0.00     0.173 A 
ATOM     46  F   UNL A   1      46.028  27.028  35.010  1.00  0.00    -0.203 F 
ATOM     47  C   UNL A   1      44.960  25.030  35.650  1.00  0.00     0.198 A 
ATOM     48  C   UNL A   1      42.594  24.775  35.331  1.00  0.00     0.198 A 
ATOM     49  F   UNL A   1      41.346  26.511  34.354  1.00  0.00    -0.203 F 
ATOM     50  F   UNL A   1      46.140  24.520  36.030  1.00  0.00    -0.200 F 
ATOM     51  C   UNL A   1      43.810  24.261  35.756  1.00  0.00     0.200 A 
ATOM     52  F   UNL A   1      41.482  24.035  35.432  1.00  0.00    -0.200 F 
ATOM     53  F   UNL A   1      43.876  23.018  36.253  1.00  0.00    -0.200 F 
ENDBRANCH  29  43
BRANCH  30  54
ATOM     54  C   UNL A   1      43.188  35.720  29.926  1.00  0.00     0.064 A 
ATOM     55  C   UNL A   1      42.234  35.926  28.920  1.00  0.00     0.173 A 
ATOM     56  C   UNL A   1      44.051  36.786  30.227  1.00  0.00     0.173 A 
ATOM     57  F   UNL A   1      41.401  34.932  28.574  1.00  0.00    -0.203 F 
ATOM     58  C   UNL A   1      42.156  37.139  28.236  1.00  0.00     0.198 A 
ATOM     59  C   UNL A   1      43.952  38.008  29.565  1.00  0.00     0.198 A 
ATOM     60  F   UNL A   1      44.989  36.644  31.175  1.00  0.00    -0.203 F 
ATOM     61  F   UNL A   1      41.266  37.292  27.246  1.00  0.00    -0.200 F 
ATOM     62  C   UNL A   1      43.010  38.181  28.564  1.00  0.00     0.200 A 
ATOM     63  F   UNL A   1      44.773  39.014  29.895  1.00  0.00    -0.200 F 
ATOM     64  F   UNL A   1      42.934  39.347  27.908  1.00  0.00    -0.200 F 
ENDBRANCH  30  54
BRANCH  42  65
ATOM     65  C   UNL A   1      41.078  33.405  36.161  1.00  0.00     0.064 A 
ATOM     66  C   UNL A   1      41.761  34.124  37.153  1.00  0.00     0.173 A 
ATOM     67  C   UNL A   1      39.678  33.384  36.200  1.00  0.00     0.173 A 
ATOM     68  F   UNL A   1      43.102  34.157  37.160  1.00  0.00    -0.203 F 
ATOM     69  C   UNL A   1      41.063  34.789  38.154  1.00  0.00     0.198 A 
ATOM     70  C   UNL A   1      38.983  34.072  37.189  1.00  0.00     0.198 A 
ATOM     71  F   UNL A   1      38.984  32.715  35.266  1.00  0.00    -0.203 F 
ATOM     72  F   UNL A   1      41.733  35.446  39.112  1.00  0.00    -0.200 F 
ATOM     73  C   UNL A   1      39.675  34.772  38.167  1.00  0.00     0.200 A 
ATOM     74  F   UNL A   1      37.643  34.065  37.192  1.00  0.00    -0.200 F 
ATOM     75  F   UNL A   1      39.006  35.428  39.123  1.00  0.00    -0.200 F 
ENDBRANCH  42  65
ENDBRANCH  16  17
ENDBRANCH   9  11
ENDBRANCH   8   9
ENDBRANCH   7   8
ENDBRANCH   6   7
ENDBRANCH   5   6
ENDBRANCH   4   5
ENDBRANCH   3   4
ENDBRANCH   2   3
ENDBRANCH   1   2
BRANCH   1  76
ATOM     76  C   UNL A   1      41.572  23.466  26.998  1.00  0.00     0.188 C 
BRANCH  76  77
ATOM     77  O   UNL A   1      40.752  24.113  27.964  1.00  0.00    -0.376 OA
BRANCH  77  78
ATOM     78  C   UNL A   1      40.636  25.526  27.824  1.00  0.00     0.202 C 
BRANCH  78  79
ATOM     79  C   UNL A   1      39.453  26.143  28.581  1.00  0.00     0.261 C 
BRANCH  79  80
ATOM     80  O   UNL A   1      39.377  27.574  28.525  1.00  0.00    -0.459 OA
BRANCH  80  81
ATOM     81  C   UNL A   1      40.182  28.302  29.345  1.00  0.00     0.348 C 
ATOM     82  O   UNL A   1      41.287  28.728  29.037  1.00  0.00    -0.245 OA
BRANCH  81  83
ATOM     83  C   UNL A   1      39.435  28.592  30.552  1.00  0.00     0.116 A 
ATOM     84  C   UNL A   1      38.136  29.052  30.656  1.00  0.00     0.074 A 
ATOM     85  S   UNL A   1      40.199  28.538  32.082  1.00  0.00    -0.133 S 
ATOM     86  C   UNL A   1      37.790  29.424  31.983  1.00  0.00     0.131 A 
ATOM     87  C   UNL A   1      38.844  29.257  32.851  1.00  0.00     0.112 A 
BRANCH  86  88
ATOM     88  O   UNL A   1      36.625  29.961  32.428  1.00  0.00    -0.488 OA
BRANCH  88  89
ATOM     89  C   UNL A   1      36.673  31.383  32.636  1.00  0.00     0.266 C 
BRANCH  89  90
ATOM     90  C   UNL A   1      36.549  32.171  31.341  1.00  0.00     0.001 A 
ATOM     91  C   UNL A   1      35.375  31.989  30.580  1.00  0.00     0.008 A 
ATOM     92  C   UNL A   1      37.546  33.051  30.851  1.00  0.00     0.062 A 
ATOM     93  C   UNL A   1      35.161  32.689  29.392  1.00  0.00     0.000 A 
ATOM     94  C   UNL A   1      37.296  33.759  29.655  1.00  0.00     0.013 A 
ATOM     95  C   UNL A   1      36.118  33.582  28.934  1.00  0.00     0.001 A 
BRANCH  92  96
ATOM     96  C   UNL A   1      38.861  33.349  31.543  1.00  0.00     0.416 C 
ATOM     97  F   UNL A   1      39.694  34.108  30.774  1.00  0.00    -0.166 F 
ATOM     98  F   UNL A   1      38.680  34.054  32.696  1.00  0.00    -0.166 F 
ATOM     99  F   UNL A   1      39.596  32.259  31.885  1.00  0.00    -0.166 F 
ENDBRANCH  92  96
ENDBRANCH  89  90
ENDBRANCH  88  89
ENDBRANCH  86  88
ENDBRANCH  81  83
ENDBRANCH  80  81
ENDBRANCH  79  80
ENDBRANCH  78  79
ENDBRANCH  77  78
ENDBRANCH  76  77
ENDBRANCH   1  76
TORSDOF 24
ENDMDL
