MODEL 1
REMARK VINA RESULT:     -11.4      0.000      0.000
REMARK SMILES CC1(C)CCC[C@H]1NC(=O)N[C@@H]1COC[C@@]1(C)C(=O)OCCOCCOCCOCCOC(=O)c1ccc(-c2c3nc(c(-c4c(F)c(F)c(F)c(F)c4F)c4ccc([nH]4)c(-c4c(F)c(F)c(F)c(F)c4F)c4nc(c(-c5c(F)c(F)c(F)c(F)c5F)c5ccc2[nH]5)C=C4)C=C3)cc1
REMARK SMILES IDX 26 1 25 2 24 3 23 4 22 5 21 6 20 7 18 8 19 9 16 10 12 11
REMARK SMILES IDX 13 12 14 13 15 14 17 15 11 16 8 17 9 18 10 20 7 22 1 23 2 24
REMARK SMILES IDX 3 25 4 26 5 27 6 28 27 29 28 30 29 31 30 32 31 33 32 34
REMARK SMILES IDX 33 35 34 36 35 37 36 38 97 39 37 40 96 41 38 42 39 43 40 44
REMARK SMILES IDX 90 45 41 46 95 47 89 48 91 49 42 50 94 51 88 52 87 53 43 55
REMARK SMILES IDX 75 56 55 57 74 58 56 59 59 60 73 61 92 62 57 63 58 64 72 66
REMARK SMILES IDX 93 67 60 68 44 69 45 70 53 71 46 72 47 73 51 74 54 75 48 76
REMARK SMILES IDX 49 77 52 78 50 79 76 80 77 81 85 82 78 83 79 84 83 85 86 86
REMARK SMILES IDX 80 87 81 88 84 89 82 90 61 91 62 92 70 93 63 94 64 95 68 96
REMARK SMILES IDX 71 97 65 98 66 99 69 100 67 101
REMARK H PARENT 8 19 11 21 91 54 59 65
REMARK Flexibility Score: inf
ROOT
ATOM      1  O   UNL A   1      40.750  21.054  27.591  1.00  0.00    -0.377 OA
ENDROOT
BRANCH   1   2
ATOM      2  C   UNL A   1      40.078  21.971  26.742  1.00  0.00     0.188 C 
BRANCH   2   3
ATOM      3  C   UNL A   1      39.101  21.221  25.831  1.00  0.00     0.188 C 
BRANCH   3   4
ATOM      4  O   UNL A   1      37.766  21.730  25.822  1.00  0.00    -0.376 OA
BRANCH   4   5
ATOM      5  C   UNL A   1      37.602  23.154  25.867  1.00  0.00     0.202 C 
BRANCH   5   6
ATOM      6  C   UNL A   1      36.721  23.760  24.757  1.00  0.00     0.261 C 
BRANCH   6   7
ATOM      7  O   UNL A   1      35.755  22.793  24.313  1.00  0.00    -0.463 OA
BRANCH   7   8
ATOM      8  C   UNL A   1      34.413  23.017  24.428  1.00  0.00     0.316 C 
ATOM      9  O   UNL A   1      33.780  23.815  23.752  1.00  0.00    -0.251 OA
BRANCH   8  10
ATOM     10  C   UNL A   1      33.792  22.014  25.419  1.00  0.00     0.111 C 
ATOM     11  C   UNL A   1      32.301  21.723  25.202  1.00  0.00     0.129 C 
ATOM     12  C   UNL A   1      32.189  20.243  24.858  1.00  0.00     0.186 C 
ATOM     13  O   UNL A   1      33.453  19.634  25.112  1.00  0.00    -0.378 OA
ATOM     14  C   UNL A   1      34.450  20.657  25.138  1.00  0.00     0.181 C 
ATOM     15  C   UNL A   1      34.073  22.532  26.819  1.00  0.00     0.028 C 
BRANCH  11  16
ATOM     16  N   UNL A   1      31.350  22.156  26.252  1.00  0.00    -0.332 N 
ATOM     17  N   UNL A   1      30.802  24.493  26.306  1.00  0.00    -0.335 N 
ATOM     18  C   UNL A   1      30.716  23.230  26.724  1.00  0.00     0.315 C 
ATOM     19  H   UNL A   1      30.115  25.054  26.735  1.00  0.00     0.165 HD
ATOM     20  O   UNL A   1      29.927  23.016  27.652  1.00  0.00    -0.249 OA
ATOM     21  H   UNL A   1      31.095  21.373  26.792  1.00  0.00     0.165 HD
BRANCH  17  22
ATOM     22  C   UNL A   1      31.627  25.284  25.391  1.00  0.00     0.089 C 
ATOM     23  C   UNL A   1      29.339  26.285  24.435  1.00  0.00     0.013 C 
ATOM     24  C   UNL A   1      30.859  26.431  24.631  1.00  0.00    -0.015 C 
ATOM     25  C   UNL A   1      31.495  26.634  23.238  1.00  0.00     0.013 C 
ATOM     26  C   UNL A   1      31.107  27.661  25.516  1.00  0.00     0.008 C 
ATOM     27  C   UNL A   1      32.538  27.508  25.989  1.00  0.00     0.003 C 
ATOM     28  C   UNL A   1      32.733  26.007  26.193  1.00  0.00     0.025 C 
ENDBRANCH  17  22
ENDBRANCH  11  16
ENDBRANCH   8  10
ENDBRANCH   7   8
ENDBRANCH   6   7
ENDBRANCH   5   6
ENDBRANCH   4   5
ENDBRANCH   3   4
ENDBRANCH   2   3
ENDBRANCH   1   2
BRANCH   1  29
ATOM     29  C   UNL A   1      42.164  20.930  27.506  1.00  0.00     0.188 C 
BRANCH  29  30
ATOM     30  C   UNL A   1      42.742  20.683  26.110  1.00  0.00     0.188 C 
BRANCH  30  31
ATOM     31  O   UNL A   1      44.024  21.257  25.834  1.00  0.00    -0.376 OA
BRANCH  31  32
ATOM     32  C   UNL A   1      44.473  21.330  24.483  1.00  0.00     0.202 C 
BRANCH  32  33
ATOM     33  C   UNL A   1      44.609  22.740  23.911  1.00  0.00     0.261 C 
BRANCH  33  34
ATOM     34  O   UNL A   1      43.748  23.664  24.594  1.00  0.00    -0.460 OA
BRANCH  34  35
ATOM     35  C   UNL A   1      44.349  24.794  25.018  1.00  0.00     0.338 C 
ATOM     36  O   UNL A   1      45.464  25.208  24.713  1.00  0.00    -0.246 OA
BRANCH  35  37
ATOM     37  C   UNL A   1      43.402  25.590  25.809  1.00  0.00     0.060 A 
ATOM     38  C   UNL A   1      43.629  26.968  25.914  1.00  0.00     0.016 A 
ATOM     39  C   UNL A   1      42.375  24.974  26.528  1.00  0.00     0.016 A 
ATOM     40  C   UNL A   1      42.881  27.725  26.804  1.00  0.00     0.010 A 
ATOM     41  C   UNL A   1      41.632  25.732  27.432  1.00  0.00     0.010 A 
ATOM     42  C   UNL A   1      41.928  27.095  27.613  1.00  0.00    -0.014 A 
BRANCH  42  43
ATOM     43  C   UNL A   1      41.438  27.813  28.808  1.00  0.00     0.031 A 
ATOM     44  C   UNL A   1      42.215  27.668  30.088  1.00  0.00     0.074 A 
ATOM     45  C   UNL A   1      40.377  28.630  28.730  1.00  0.00     0.049 A 
ATOM     46  N   UNL A   1      42.000  28.208  31.258  1.00  0.00    -0.248 NA
ATOM     47  C   UNL A   1      43.399  26.792  30.038  1.00  0.00     0.031 C 
ATOM     48  C   UNL A   1      39.589  28.876  27.525  1.00  0.00     0.029 A 
ATOM     49  N   UNL A   1      39.784  29.406  29.690  1.00  0.00    -0.354 N 
ATOM     50  C   UNL A   1      43.016  27.736  32.081  1.00  0.00     0.074 A 
ATOM     51  C   UNL A   1      43.825  26.838  31.291  1.00  0.00     0.031 C 
ATOM     52  C   UNL A   1      38.609  29.747  27.819  1.00  0.00     0.029 A 
ATOM     53  C   UNL A   1      38.687  30.092  29.236  1.00  0.00     0.049 A 
ATOM     54  H   UNL A   1      40.114  29.466  30.615  1.00  0.00     0.167 HD
ATOM     55  C   UNL A   1      43.257  28.040  33.379  1.00  0.00     0.037 A 
ATOM     56  C   UNL A   1      37.838  30.896  29.904  1.00  0.00     0.037 A 
ATOM     57  C   UNL A   1      42.440  28.935  34.154  1.00  0.00     0.049 A 
ATOM     58  C   UNL A   1      38.090  31.164  31.365  1.00  0.00     0.074 A 
ATOM     59  C   UNL A   1      42.587  29.315  35.475  1.00  0.00     0.029 A 
ATOM     60  N   UNL A   1      41.313  29.586  33.671  1.00  0.00    -0.354 N 
ATOM     61  N   UNL A   1      39.060  30.730  32.135  1.00  0.00    -0.248 NA
ATOM     62  C   UNL A   1      37.134  32.046  32.048  1.00  0.00     0.031 C 
ATOM     63  C   UNL A   1      41.519  30.154  35.808  1.00  0.00     0.029 A 
ATOM     64  C   UNL A   1      40.742  30.350  34.676  1.00  0.00     0.049 A 
ATOM     65  H   UNL A   1      40.970  29.515  32.752  1.00  0.00     0.167 HD
ATOM     66  C   UNL A   1      38.851  31.311  33.380  1.00  0.00     0.074 A 
ATOM     67  C   UNL A   1      37.670  32.141  33.255  1.00  0.00     0.031 C 
ATOM     68  C   UNL A   1      39.569  31.174  34.523  1.00  0.00     0.037 A 
BRANCH  55  69
ATOM     69  C   UNL A   1      44.427  27.371  34.041  1.00  0.00     0.064 A 
ATOM     70  C   UNL A   1      45.702  27.959  34.065  1.00  0.00     0.173 A 
ATOM     71  C   UNL A   1      44.269  26.128  34.672  1.00  0.00     0.173 A 
ATOM     72  F   UNL A   1      45.913  29.137  33.459  1.00  0.00    -0.203 F 
ATOM     73  C   UNL A   1      46.778  27.314  34.669  1.00  0.00     0.198 A 
ATOM     74  C   UNL A   1      45.340  25.501  35.304  1.00  0.00     0.198 A 
ATOM     75  F   UNL A   1      43.073  25.520  34.679  1.00  0.00    -0.203 F 
ATOM     76  F   UNL A   1      47.997  27.869  34.630  1.00  0.00    -0.200 F 
ATOM     77  C   UNL A   1      46.595  26.090  35.295  1.00  0.00     0.200 A 
ATOM     78  F   UNL A   1      45.158  24.323  35.917  1.00  0.00    -0.200 F 
ATOM     79  F   UNL A   1      47.630  25.472  35.879  1.00  0.00    -0.200 F 
ENDBRANCH  55  69
BRANCH  56  80
ATOM     80  C   UNL A   1      36.678  31.501  29.200  1.00  0.00     0.064 A 
ATOM     81  C   UNL A   1      36.646  32.869  28.897  1.00  0.00     0.173 A 
ATOM     82  C   UNL A   1      35.568  30.725  28.830  1.00  0.00     0.173 A 
ATOM     83  F   UNL A   1      37.671  33.657  29.250  1.00  0.00    -0.203 F 
ATOM     84  C   UNL A   1      35.540  33.442  28.271  1.00  0.00     0.198 A 
ATOM     85  C   UNL A   1      34.478  31.293  28.176  1.00  0.00     0.198 A 
ATOM     86  F   UNL A   1      35.549  29.411  29.095  1.00  0.00    -0.203 F 
ATOM     87  F   UNL A   1      35.515  34.761  28.038  1.00  0.00    -0.200 F 
ATOM     88  C   UNL A   1      34.460  32.653  27.906  1.00  0.00     0.200 A 
ATOM     89  F   UNL A   1      33.443  30.524  27.812  1.00  0.00    -0.200 F 
ATOM     90  F   UNL A   1      33.399  33.204  27.301  1.00  0.00    -0.200 F 
ENDBRANCH  56  80
BRANCH  68  91
ATOM     91  C   UNL A   1      39.124  31.978  35.711  1.00  0.00     0.064 A 
ATOM     92  C   UNL A   1      38.278  31.444  36.693  1.00  0.00     0.173 A 
ATOM     93  C   UNL A   1      39.572  33.298  35.878  1.00  0.00     0.173 A 
ATOM     94  F   UNL A   1      37.812  30.191  36.575  1.00  0.00    -0.203 F 
ATOM     95  C   UNL A   1      37.865  32.213  37.778  1.00  0.00     0.198 A 
ATOM     96  C   UNL A   1      39.187  34.052  36.983  1.00  0.00     0.198 A 
ATOM     97  F   UNL A   1      40.393  33.855  34.974  1.00  0.00    -0.203 F 
ATOM     98  F   UNL A   1      37.006  31.702  38.670  1.00  0.00    -0.200 F 
ATOM     99  C   UNL A   1      38.324  33.513  37.925  1.00  0.00     0.200 A 
ATOM    100  F   UNL A   1      39.646  35.302  37.132  1.00  0.00    -0.200 F 
ATOM    101  F   UNL A   1      37.926  34.251  38.970  1.00  0.00    -0.200 F 
ENDBRANCH  68  91
ENDBRANCH  42  43
ENDBRANCH  35  37
ENDBRANCH  34  35
ENDBRANCH  33  34
ENDBRANCH  32  33
ENDBRANCH  31  32
ENDBRANCH  30  31
ENDBRANCH  29  30
ENDBRANCH   1  29
TORSDOF 22
ENDMDL
MODEL 2
REMARK VINA RESULT:     -10.4      1.352      2.792
REMARK SMILES CC1(C)CCC[C@H]1NC(=O)N[C@@H]1COC[C@@]1(C)C(=O)OCCOCCOCCOCCOC(=O)c1ccc(-c2c3nc(c(-c4c(F)c(F)c(F)c(F)c4F)c4ccc([nH]4)c(-c4c(F)c(F)c(F)c(F)c4F)c4nc(c(-c5c(F)c(F)c(F)c(F)c5F)c5ccc2[nH]5)C=C4)C=C3)cc1
REMARK SMILES IDX 26 1 25 2 24 3 23 4 22 5 21 6 20 7 18 8 19 9 16 10 12 11
REMARK SMILES IDX 13 12 14 13 15 14 17 15 11 16 8 17 9 18 10 20 7 22 1 23 2 24
REMARK SMILES IDX 3 25 4 26 5 27 6 28 27 29 28 30 29 31 30 32 31 33 32 34
REMARK SMILES IDX 33 35 34 36 35 37 36 38 97 39 37 40 96 41 38 42 39 43 40 44
REMARK SMILES IDX 90 45 41 46 95 47 89 48 91 49 42 50 94 51 88 52 87 53 43 55
REMARK SMILES IDX 75 56 55 57 74 58 56 59 59 60 73 61 92 62 57 63 58 64 72 66
REMARK SMILES IDX 93 67 60 68 44 69 45 70 53 71 46 72 47 73 51 74 54 75 48 76
REMARK SMILES IDX 49 77 52 78 50 79 76 80 77 81 85 82 78 83 79 84 83 85 86 86
REMARK SMILES IDX 80 87 81 88 84 89 82 90 61 91 62 92 70 93 63 94 64 95 68 96
REMARK SMILES IDX 71 97 65 98 66 99 69 100 67 101
REMARK H PARENT 8 19 11 21 91 54 59 65
REMARK Flexibility Score: inf
ROOT
ATOM      1  O   UNL A   1      37.781  23.011  25.840  1.00  0.00    -0.377 OA
ENDROOT
BRANCH   1   2
ATOM      2  C   UNL A   1      36.377  23.024  25.633  1.00  0.00     0.188 C 
BRANCH   2   3
ATOM      3  C   UNL A   1      35.798  21.630  25.889  1.00  0.00     0.188 C 
BRANCH   3   4
ATOM      4  O   UNL A   1      35.183  21.010  24.758  1.00  0.00    -0.376 OA
BRANCH   4   5
ATOM      5  C   UNL A   1      34.075  20.133  25.007  1.00  0.00     0.202 C 
BRANCH   5   6
ATOM      6  C   UNL A   1      32.767  20.485  24.270  1.00  0.00     0.261 C 
BRANCH   6   7
ATOM      7  O   UNL A   1      32.528  21.900  24.342  1.00  0.00    -0.463 OA
BRANCH   7   8
ATOM      8  C   UNL A   1      31.498  22.416  25.077  1.00  0.00     0.316 C 
ATOM      9  O   UNL A   1      30.730  21.754  25.759  1.00  0.00    -0.251 OA
BRANCH   8  10
ATOM     10  C   UNL A   1      31.542  23.955  25.041  1.00  0.00     0.111 C 
ATOM     11  C   UNL A   1      31.067  24.589  23.727  1.00  0.00     0.129 C 
ATOM     12  C   UNL A   1      29.834  25.420  24.060  1.00  0.00     0.186 C 
ATOM     13  O   UNL A   1      29.733  25.507  25.480  1.00  0.00    -0.378 OA
ATOM     14  C   UNL A   1      30.500  24.446  26.054  1.00  0.00     0.181 C 
ATOM     15  C   UNL A   1      32.959  24.374  25.395  1.00  0.00     0.028 C 
BRANCH  11  16
ATOM     16  N   UNL A   1      32.063  25.319  22.909  1.00  0.00    -0.332 N 
ATOM     17  N   UNL A   1      32.638  27.533  23.642  1.00  0.00    -0.335 N 
ATOM     18  C   UNL A   1      32.726  26.474  22.836  1.00  0.00     0.315 C 
ATOM     19  H   UNL A   1      33.347  28.187  23.443  1.00  0.00     0.165 HD
ATOM     20  O   UNL A   1      33.549  26.558  21.916  1.00  0.00    -0.249 OA
ATOM     21  H   UNL A   1      32.331  24.751  22.151  1.00  0.00     0.165 HD
BRANCH  17  22
ATOM     22  C   UNL A   1      31.785  27.999  24.738  1.00  0.00     0.089 C 
ATOM     23  C   UNL A   1      33.992  28.000  26.249  1.00  0.00     0.013 C 
ATOM     24  C   UNL A   1      32.564  28.522  26.004  1.00  0.00    -0.015 C 
ATOM     25  C   UNL A   1      31.731  28.227  27.272  1.00  0.00     0.013 C 
ATOM     26  C   UNL A   1      32.647  30.036  25.760  1.00  0.00     0.008 C 
ATOM     27  C   UNL A   1      31.313  30.396  25.141  1.00  0.00     0.003 C 
ATOM     28  C   UNL A   1      30.947  29.205  24.257  1.00  0.00     0.025 C 
ENDBRANCH  17  22
ENDBRANCH  11  16
ENDBRANCH   8  10
ENDBRANCH   7   8
ENDBRANCH   6   7
ENDBRANCH   5   6
ENDBRANCH   4   5
ENDBRANCH   3   4
ENDBRANCH   2   3
ENDBRANCH   1   2
BRANCH   1  29
ATOM     29  C   UNL A   1      38.485  21.778  25.776  1.00  0.00     0.188 C 
BRANCH  29  30
ATOM     30  C   UNL A   1      40.014  21.865  25.819  1.00  0.00     0.188 C 
BRANCH  30  31
ATOM     31  O   UNL A   1      40.648  21.453  27.035  1.00  0.00    -0.376 OA
BRANCH  31  32
ATOM     32  C   UNL A   1      41.982  20.954  26.985  1.00  0.00     0.202 C 
BRANCH  32  33
ATOM     33  C   UNL A   1      42.935  21.714  26.065  1.00  0.00     0.261 C 
BRANCH  33  34
ATOM     34  O   UNL A   1      43.294  22.987  26.624  1.00  0.00    -0.460 OA
BRANCH  34  35
ATOM     35  C   UNL A   1      43.152  24.035  25.788  1.00  0.00     0.338 C 
ATOM     36  O   UNL A   1      43.444  24.088  24.596  1.00  0.00    -0.246 OA
BRANCH  35  37
ATOM     37  C   UNL A   1      42.427  25.115  26.469  1.00  0.00     0.060 A 
ATOM     38  C   UNL A   1      43.019  26.384  26.504  1.00  0.00     0.016 A 
ATOM     39  C   UNL A   1      41.241  24.857  27.160  1.00  0.00     0.016 A 
ATOM     40  C   UNL A   1      42.469  27.381  27.298  1.00  0.00     0.010 A 
ATOM     41  C   UNL A   1      40.696  25.854  27.969  1.00  0.00     0.010 A 
ATOM     42  C   UNL A   1      41.346  27.094  28.084  1.00  0.00    -0.014 A 
BRANCH  42  43
ATOM     43  C   UNL A   1      41.022  28.006  29.201  1.00  0.00     0.031 A 
ATOM     44  C   UNL A   1      41.901  27.971  30.421  1.00  0.00     0.074 A 
ATOM     45  C   UNL A   1      40.019  28.891  29.094  1.00  0.00     0.049 A 
ATOM     46  N   UNL A   1      41.834  28.681  31.516  1.00  0.00    -0.248 NA
ATOM     47  C   UNL A   1      43.009  27.001  30.400  1.00  0.00     0.031 C 
ATOM     48  C   UNL A   1      39.143  29.037  27.934  1.00  0.00     0.029 A 
ATOM     49  N   UNL A   1      39.574  29.837  29.978  1.00  0.00    -0.354 N 
ATOM     50  C   UNL A   1      42.885  28.242  32.312  1.00  0.00     0.074 A 
ATOM     51  C   UNL A   1      43.551  27.180  31.594  1.00  0.00     0.031 C 
ATOM     52  C   UNL A   1      38.259  30.019  28.180  1.00  0.00     0.029 A 
ATOM     53  C   UNL A   1      38.492  30.545  29.522  1.00  0.00     0.049 A 
ATOM     54  H   UNL A   1      39.991  29.994  30.856  1.00  0.00     0.167 HD
ATOM     55  C   UNL A   1      43.265  28.697  33.530  1.00  0.00     0.037 A 
ATOM     56  C   UNL A   1      37.768  31.500  30.136  1.00  0.00     0.037 A 
ATOM     57  C   UNL A   1      42.590  29.755  34.233  1.00  0.00     0.049 A 
ATOM     58  C   UNL A   1      38.172  31.942  31.519  1.00  0.00     0.074 A 
ATOM     59  C   UNL A   1      42.885  30.297  35.470  1.00  0.00     0.029 A 
ATOM     60  N   UNL A   1      41.473  30.426  33.756  1.00  0.00    -0.354 N 
ATOM     61  N   UNL A   1      39.175  31.536  32.261  1.00  0.00    -0.248 NA
ATOM     62  C   UNL A   1      37.348  32.984  32.144  1.00  0.00     0.031 C 
ATOM     63  C   UNL A   1      41.915  31.259  35.766  1.00  0.00     0.029 A 
ATOM     64  C   UNL A   1      41.052  31.364  34.685  1.00  0.00     0.049 A 
ATOM     65  H   UNL A   1      41.042  30.260  32.887  1.00  0.00     0.167 HD
ATOM     66  C   UNL A   1      39.124  32.295  33.424  1.00  0.00     0.074 A 
ATOM     67  C   UNL A   1      37.999  33.197  33.278  1.00  0.00     0.031 C 
ATOM     68  C   UNL A   1      39.933  32.255  34.512  1.00  0.00     0.037 A 
BRANCH  55  69
ATOM     69  C   UNL A   1      44.441  28.028  34.183  1.00  0.00     0.064 A 
ATOM     70  C   UNL A   1      44.296  26.869  34.962  1.00  0.00     0.173 A 
ATOM     71  C   UNL A   1      45.733  28.548  34.019  1.00  0.00     0.173 A 
ATOM     72  F   UNL A   1      43.080  26.342  35.168  1.00  0.00    -0.203 F 
ATOM     73  C   UNL A   1      45.396  26.275  35.574  1.00  0.00     0.198 A 
ATOM     74  C   UNL A   1      46.835  27.932  34.605  1.00  0.00     0.198 A 
ATOM     75  F   UNL A   1      45.929  29.655  33.286  1.00  0.00    -0.203 F 
ATOM     76  F   UNL A   1      45.226  25.201  36.359  1.00  0.00    -0.200 F 
ATOM     77  C   UNL A   1      46.665  26.801  35.389  1.00  0.00     0.200 A 
ATOM     78  F   UNL A   1      48.063  28.437  34.417  1.00  0.00    -0.200 F 
ATOM     79  F   UNL A   1      47.725  26.226  35.975  1.00  0.00    -0.200 F 
ENDBRANCH  55  69
BRANCH  56  80
ATOM     80  C   UNL A   1      36.594  32.099  29.450  1.00  0.00     0.064 A 
ATOM     81  C   UNL A   1      36.577  33.453  29.089  1.00  0.00     0.173 A 
ATOM     82  C   UNL A   1      35.456  31.332  29.155  1.00  0.00     0.173 A 
ATOM     83  F   UNL A   1      37.631  34.234  29.369  1.00  0.00    -0.203 F 
ATOM     84  C   UNL A   1      35.461  34.022  28.480  1.00  0.00     0.198 A 
ATOM     85  C   UNL A   1      34.353  31.895  28.517  1.00  0.00     0.198 A 
ATOM     86  F   UNL A   1      35.421  30.031  29.478  1.00  0.00    -0.203 F 
ATOM     87  F   UNL A   1      35.452  35.331  28.191  1.00  0.00    -0.200 F 
ATOM     88  C   UNL A   1      34.352  33.242  28.189  1.00  0.00     0.200 A 
ATOM     89  F   UNL A   1      33.290  31.133  28.226  1.00  0.00    -0.200 F 
ATOM     90  F   UNL A   1      33.280  33.789  27.601  1.00  0.00    -0.200 F 
ENDBRANCH  56  80
BRANCH  68  91
ATOM     91  C   UNL A   1      39.658  33.247  35.606  1.00  0.00     0.064 A 
ATOM     92  C   UNL A   1      38.843  32.934  36.704  1.00  0.00     0.173 A 
ATOM     93  C   UNL A   1      40.240  34.524  35.564  1.00  0.00     0.173 A 
ATOM     94  F   UNL A   1      38.254  31.732  36.786  1.00  0.00    -0.203 F 
ATOM     95  C   UNL A   1      38.589  33.875  37.698  1.00  0.00     0.198 A 
ATOM     96  C   UNL A   1      40.013  35.450  36.578  1.00  0.00     0.198 A 
ATOM     97  F   UNL A   1      41.038  34.872  34.542  1.00  0.00    -0.203 F 
ATOM     98  F   UNL A   1      37.756  33.575  38.704  1.00  0.00    -0.200 F 
ATOM     99  C   UNL A   1      39.178  35.129  37.638  1.00  0.00     0.200 A 
ATOM    100  F   UNL A   1      40.598  36.654  36.527  1.00  0.00    -0.200 F 
ATOM    101  F   UNL A   1      38.933  36.033  38.596  1.00  0.00    -0.200 F 
ENDBRANCH  68  91
ENDBRANCH  42  43
ENDBRANCH  35  37
ENDBRANCH  34  35
ENDBRANCH  33  34
ENDBRANCH  32  33
ENDBRANCH  31  32
ENDBRANCH  30  31
ENDBRANCH  29  30
ENDBRANCH   1  29
TORSDOF 22
ENDMDL
MODEL 3
REMARK VINA RESULT:     -10.4      5.401     10.764
REMARK SMILES CC1(C)CCC[C@H]1NC(=O)N[C@@H]1COC[C@@]1(C)C(=O)OCCOCCOCCOCCOC(=O)c1ccc(-c2c3nc(c(-c4c(F)c(F)c(F)c(F)c4F)c4ccc([nH]4)c(-c4c(F)c(F)c(F)c(F)c4F)c4nc(c(-c5c(F)c(F)c(F)c(F)c5F)c5ccc2[nH]5)C=C4)C=C3)cc1
REMARK SMILES IDX 26 1 25 2 24 3 23 4 22 5 21 6 20 7 18 8 19 9 16 10 12 11
REMARK SMILES IDX 13 12 14 13 15 14 17 15 11 16 8 17 9 18 10 20 7 22 1 23 2 24
REMARK SMILES IDX 3 25 4 26 5 27 6 28 27 29 28 30 29 31 30 32 31 33 32 34
REMARK SMILES IDX 33 35 34 36 35 37 36 38 97 39 37 40 96 41 38 42 39 43 40 44
REMARK SMILES IDX 90 45 41 46 95 47 89 48 91 49 42 50 94 51 88 52 87 53 43 55
REMARK SMILES IDX 75 56 55 57 74 58 56 59 59 60 73 61 92 62 57 63 58 64 72 66
REMARK SMILES IDX 93 67 60 68 44 69 45 70 53 71 46 72 47 73 51 74 54 75 48 76
REMARK SMILES IDX 49 77 52 78 50 79 76 80 77 81 85 82 78 83 79 84 83 85 86 86
REMARK SMILES IDX 80 87 81 88 84 89 82 90 61 91 62 92 70 93 63 94 64 95 68 96
REMARK SMILES IDX 71 97 65 98 66 99 69 100 67 101
REMARK H PARENT 8 19 11 21 91 54 59 65
REMARK Flexibility Score: inf
ROOT
ATOM      1  O   UNL A   1      34.741  31.694  28.258  1.00  0.00    -0.377 OA
ENDROOT
BRANCH   1   2
ATOM      2  C   UNL A   1      35.896  31.066  27.720  1.00  0.00     0.188 C 
BRANCH   2   3
ATOM      3  C   UNL A   1      35.653  29.562  27.575  1.00  0.00     0.188 C 
BRANCH   3   4
ATOM      4  O   UNL A   1      34.284  29.158  27.633  1.00  0.00    -0.376 OA
BRANCH   4   5
ATOM      5  C   UNL A   1      33.636  28.840  26.393  1.00  0.00     0.202 C 
BRANCH   5   6
ATOM      6  C   UNL A   1      32.456  29.752  26.002  1.00  0.00     0.261 C 
BRANCH   6   7
ATOM      7  O   UNL A   1      32.039  29.467  24.657  1.00  0.00    -0.463 OA
BRANCH   7   8
ATOM      8  C   UNL A   1      30.760  29.704  24.239  1.00  0.00     0.316 C 
ATOM      9  O   UNL A   1      30.102  30.689  24.537  1.00  0.00    -0.251 OA
BRANCH   8  10
ATOM     10  C   UNL A   1      30.330  28.631  23.220  1.00  0.00     0.111 C 
ATOM     11  C   UNL A   1      31.030  27.274  23.370  1.00  0.00     0.129 C 
ATOM     12  C   UNL A   1      29.946  26.257  23.707  1.00  0.00     0.186 C 
ATOM     13  O   UNL A   1      28.680  26.880  23.509  1.00  0.00    -0.378 OA
ATOM     14  C   UNL A   1      28.865  28.297  23.529  1.00  0.00     0.181 C 
ATOM     15  C   UNL A   1      30.526  29.222  21.834  1.00  0.00     0.028 C 
BRANCH  11  16
ATOM     16  N   UNL A   1      31.930  26.833  22.279  1.00  0.00    -0.332 N 
ATOM     17  N   UNL A   1      33.288  24.903  22.723  1.00  0.00    -0.335 N 
ATOM     18  C   UNL A   1      32.830  25.901  21.966  1.00  0.00     0.315 C 
ATOM     19  H   UNL A   1      33.834  24.279  22.192  1.00  0.00     0.165 HD
ATOM     20  O   UNL A   1      33.274  25.955  20.813  1.00  0.00    -0.249 OA
ATOM     21  H   UNL A   1      31.827  27.445  21.514  1.00  0.00     0.165 HD
BRANCH  17  22
ATOM     22  C   UNL A   1      33.211  24.473  24.121  1.00  0.00     0.089 C 
ATOM     23  C   UNL A   1      32.858  21.995  23.179  1.00  0.00     0.013 C 
ATOM     24  C   UNL A   1      33.286  22.914  24.338  1.00  0.00    -0.015 C 
ATOM     25  C   UNL A   1      32.445  22.531  25.576  1.00  0.00     0.013 C 
ATOM     26  C   UNL A   1      34.777  22.672  24.609  1.00  0.00     0.008 C 
ATOM     27  C   UNL A   1      35.209  23.857  25.447  1.00  0.00     0.003 C 
ATOM     28  C   UNL A   1      34.417  25.043  24.900  1.00  0.00     0.025 C 
ENDBRANCH  17  22
ENDBRANCH  11  16
ENDBRANCH   8  10
ENDBRANCH   7   8
ENDBRANCH   6   7
ENDBRANCH   5   6
ENDBRANCH   4   5
ENDBRANCH   3   4
ENDBRANCH   2   3
ENDBRANCH   1   2
BRANCH   1  29
ATOM     29  C   UNL A   1      34.692  31.995  29.646  1.00  0.00     0.188 C 
BRANCH  29  30
ATOM     30  C   UNL A   1      34.887  33.464  30.031  1.00  0.00     0.188 C 
BRANCH  30  31
ATOM     31  O   UNL A   1      34.029  33.980  31.054  1.00  0.00    -0.376 OA
BRANCH  31  32
ATOM     32  C   UNL A   1      34.260  33.600  32.408  1.00  0.00     0.202 C 
BRANCH  32  33
ATOM     33  C   UNL A   1      35.712  33.290  32.767  1.00  0.00     0.261 C 
BRANCH  33  34
ATOM     34  O   UNL A   1      35.954  31.875  32.782  1.00  0.00    -0.460 OA
BRANCH  34  35
ATOM     35  C   UNL A   1      37.114  31.503  33.358  1.00  0.00     0.338 C 
ATOM     36  O   UNL A   1      37.440  31.630  34.536  1.00  0.00    -0.246 OA
BRANCH  35  37
ATOM     37  C   UNL A   1      37.926  30.750  32.394  1.00  0.00     0.060 A 
ATOM     38  C   UNL A   1      38.901  29.878  32.895  1.00  0.00     0.016 A 
ATOM     39  C   UNL A   1      37.807  30.983  31.022  1.00  0.00     0.016 A 
ATOM     40  C   UNL A   1      39.817  29.297  32.030  1.00  0.00     0.010 A 
ATOM     41  C   UNL A   1      38.736  30.410  30.154  1.00  0.00     0.010 A 
ATOM     42  C   UNL A   1      39.777  29.617  30.668  1.00  0.00    -0.014 A 
BRANCH  42  43
ATOM     43  C   UNL A   1      40.970  29.326  29.845  1.00  0.00     0.031 A 
ATOM     44  C   UNL A   1      41.069  27.973  29.195  1.00  0.00     0.074 A 
ATOM     45  C   UNL A   1      41.896  30.272  29.623  1.00  0.00     0.049 A 
ATOM     46  N   UNL A   1      42.000  27.489  28.417  1.00  0.00    -0.248 NA
ATOM     47  C   UNL A   1      39.961  27.038  29.461  1.00  0.00     0.031 C 
ATOM     48  C   UNL A   1      41.864  31.628  30.165  1.00  0.00     0.029 A 
ATOM     49  N   UNL A   1      43.043  30.230  28.875  1.00  0.00    -0.354 N 
ATOM     50  C   UNL A   1      41.593  26.198  28.105  1.00  0.00     0.074 A 
ATOM     51  C   UNL A   1      40.353  25.957  28.806  1.00  0.00     0.031 C 
ATOM     52  C   UNL A   1      42.950  32.292  29.733  1.00  0.00     0.029 A 
ATOM     53  C   UNL A   1      43.760  31.397  28.911  1.00  0.00     0.049 A 
ATOM     54  H   UNL A   1      43.325  29.438  28.363  1.00  0.00     0.167 HD
ATOM     55  C   UNL A   1      42.198  25.298  27.293  1.00  0.00     0.037 A 
ATOM     56  C   UNL A   1      44.947  31.695  28.349  1.00  0.00     0.037 A 
ATOM     57  C   UNL A   1      43.435  25.551  26.603  1.00  0.00     0.049 A 
ATOM     58  C   UNL A   1      45.633  30.652  27.504  1.00  0.00     0.074 A 
ATOM     59  C   UNL A   1      44.140  24.715  25.757  1.00  0.00     0.029 A 
ATOM     60  N   UNL A   1      44.155  26.735  26.690  1.00  0.00    -0.354 N 
ATOM     61  N   UNL A   1      45.239  29.439  27.198  1.00  0.00    -0.248 NA
ATOM     62  C   UNL A   1      46.926  31.027  26.916  1.00  0.00     0.031 C 
ATOM     63  C   UNL A   1      45.314  25.373  25.374  1.00  0.00     0.029 A 
ATOM     64  C   UNL A   1      45.309  26.644  25.929  1.00  0.00     0.049 A 
ATOM     65  H   UNL A   1      43.886  27.522  27.215  1.00  0.00     0.167 HD
ATOM     66  C   UNL A   1      46.214  28.918  26.357  1.00  0.00     0.074 A 
ATOM     67  C   UNL A   1      47.211  29.957  26.190  1.00  0.00     0.031 C 
ATOM     68  C   UNL A   1      46.282  27.696  25.773  1.00  0.00     0.037 A 
BRANCH  55  69
ATOM     69  C   UNL A   1      41.546  23.954  27.140  1.00  0.00     0.064 A 
ATOM     70  C   UNL A   1      42.111  22.789  27.682  1.00  0.00     0.173 A 
ATOM     71  C   UNL A   1      40.331  23.831  26.450  1.00  0.00     0.173 A 
ATOM     72  F   UNL A   1      43.283  22.847  28.334  1.00  0.00    -0.203 F 
ATOM     73  C   UNL A   1      41.499  21.550  27.513  1.00  0.00     0.198 A 
ATOM     74  C   UNL A   1      39.705  22.595  26.311  1.00  0.00     0.198 A 
ATOM     75  F   UNL A   1      39.747  24.911  25.910  1.00  0.00    -0.203 F 
ATOM     76  F   UNL A   1      42.086  20.443  27.992  1.00  0.00    -0.200 F 
ATOM     77  C   UNL A   1      40.294  21.454  26.836  1.00  0.00     0.200 A 
ATOM     78  F   UNL A   1      38.535  22.506  25.664  1.00  0.00    -0.200 F 
ATOM     79  F   UNL A   1      39.703  20.261  26.678  1.00  0.00    -0.200 F 
ENDBRANCH  55  69
BRANCH  56  80
ATOM     80  C   UNL A   1      45.559  33.032  28.566  1.00  0.00     0.064 A 
ATOM     81  C   UNL A   1      46.373  33.287  29.678  1.00  0.00     0.173 A 
ATOM     82  C   UNL A   1      45.327  34.089  27.672  1.00  0.00     0.173 A 
ATOM     83  F   UNL A   1      46.606  32.316  30.573  1.00  0.00    -0.203 F 
ATOM     84  C   UNL A   1      46.914  34.551  29.899  1.00  0.00     0.198 A 
ATOM     85  C   UNL A   1      45.894  35.344  27.878  1.00  0.00     0.198 A 
ATOM     86  F   UNL A   1      44.557  33.898  26.591  1.00  0.00    -0.203 F 
ATOM     87  F   UNL A   1      47.647  34.780  30.997  1.00  0.00    -0.200 F 
ATOM     88  C   UNL A   1      46.679  35.577  28.997  1.00  0.00     0.200 A 
ATOM     89  F   UNL A   1      45.676  36.328  26.996  1.00  0.00    -0.200 F 
ATOM     90  F   UNL A   1      47.202  36.792  29.209  1.00  0.00    -0.200 F 
ENDBRANCH  56  80
BRANCH  68  91
ATOM     91  C   UNL A   1      47.447  27.436  24.861  1.00  0.00     0.064 A 
ATOM     92  C   UNL A   1      47.437  27.830  23.515  1.00  0.00     0.173 A 
ATOM     93  C   UNL A   1      48.600  26.803  25.351  1.00  0.00     0.173 A 
ATOM     94  F   UNL A   1      46.354  28.429  22.995  1.00  0.00    -0.203 F 
ATOM     95  C   UNL A   1      48.521  27.565  22.684  1.00  0.00     0.198 A 
ATOM     96  C   UNL A   1      49.696  26.572  24.526  1.00  0.00     0.198 A 
ATOM     97  F   UNL A   1      48.667  26.416  26.634  1.00  0.00    -0.203 F 
ATOM     98  F   UNL A   1      48.464  27.893  21.386  1.00  0.00    -0.200 F 
ATOM     99  C   UNL A   1      49.651  26.942  23.190  1.00  0.00     0.200 A 
ATOM    100  F   UNL A   1      50.794  25.986  25.023  1.00  0.00    -0.200 F 
ATOM    101  F   UNL A   1      50.695  26.688  22.389  1.00  0.00    -0.200 F 
ENDBRANCH  68  91
ENDBRANCH  42  43
ENDBRANCH  35  37
ENDBRANCH  34  35
ENDBRANCH  33  34
ENDBRANCH  32  33
ENDBRANCH  31  32
ENDBRANCH  30  31
ENDBRANCH  29  30
ENDBRANCH   1  29
TORSDOF 22
ENDMDL
