MODEL 1
REMARK VINA RESULT:     -10.1      0.000      0.000
REMARK SMILES Cc1ccc(S(=O)(=O)n2cc(C(=O)C(=O)NCC(=O)N[C@@H](Cc3c[nH]c4ccccc34)C(=O)OCCOCCOCCOCCOC(=O)c3ccc(-c4c5nc(c(-c6c(F)c(F)c(F)c(F)c6F)c6ccc([nH]6)c(-c6c(F)c(F)c(F)c(F)c6F)c6nc(c(-c7c(F)c(F)c(F)c(F)c7F)c7ccc4[nH]7)C=C6)C=C5)cc3)c3ccccc32)cc1
REMARK SMILES IDX 38 1 37 2 36 3 35 4 34 5 32 6 33 7 21 8 20 9 18 10 19 11
REMARK SMILES IDX 17 13 16 14 14 15 15 16 12 18 13 19 11 20 9 21 10 22 117 23
REMARK SMILES IDX 112 24 116 25 113 26 115 27 114 28 6 29 7 30 8 31 5 32 1 33
REMARK SMILES IDX 2 34 3 35 119 36 4 37 118 38 22 39 23 40 24 41 31 42 25 43
REMARK SMILES IDX 26 44 30 45 27 47 29 48 28 49 39 50 40 51 41 52 42 53 43 54
REMARK SMILES IDX 44 55 45 56 46 57 47 58 48 59 49 60 50 61 111 62 51 63
REMARK SMILES IDX 110 64 52 65 53 66 54 67 104 68 55 69 109 70 103 71 105 72
REMARK SMILES IDX 56 73 108 74 102 75 101 76 57 78 89 79 69 80 88 81 70 82
REMARK SMILES IDX 73 83 87 84 106 85 71 86 72 87 86 89 107 90 74 91 58 92
REMARK SMILES IDX 59 93 67 94 60 95 61 96 65 97 68 98 62 99 63 100 66 101
REMARK SMILES IDX 64 102 90 103 91 104 99 105 92 106 93 107 97 108 100 109
REMARK SMILES IDX 94 110 95 111 98 112 96 113 75 114 76 115 84 116 77 117
REMARK SMILES IDX 78 118 82 119 85 120 79 121 80 122 83 123 81 124
REMARK H PARENT 20 12 16 17 25 46 105 77 73 88
REMARK Flexibility Score: inf
ROOT
ATOM      1  C   UNL A   1      39.707  26.790  27.739  1.00  0.00     0.188 C 
ENDROOT
BRANCH   1   2
ATOM      2  O   UNL A   1      38.963  27.131  28.897  1.00  0.00    -0.376 OA
BRANCH   2   3
ATOM      3  C   UNL A   1      39.201  28.393  29.469  1.00  0.00     0.202 C 
BRANCH   3   4
ATOM      4  C   UNL A   1      38.056  29.338  29.110  1.00  0.00     0.261 C 
BRANCH   4   5
ATOM      5  O   UNL A   1      38.288  30.706  29.542  1.00  0.00    -0.462 OA
BRANCH   5   6
ATOM      6  C   UNL A   1      37.155  31.340  29.871  1.00  0.00     0.329 C 
ATOM      7  O   UNL A   1      36.299  30.833  30.581  1.00  0.00    -0.250 OA
BRANCH   6   8
ATOM      8  C   UNL A   1      36.987  32.784  29.447  1.00  0.00     0.196 C 
BRANCH   8   9
ATOM      9  N   UNL A   1      35.664  33.295  29.789  1.00  0.00    -0.341 N 
ATOM     10  C   UNL A   1      34.518  33.289  29.033  1.00  0.00     0.240 C 
ATOM     11  O   UNL A   1      33.490  33.696  29.588  1.00  0.00    -0.273 OA
ATOM     12  H   UNL A   1      35.583  33.699  30.683  1.00  0.00     0.164 HD
BRANCH  10  13
ATOM     13  C   UNL A   1      34.416  32.582  27.633  1.00  0.00     0.216 C 
BRANCH  13  14
ATOM     14  N   UNL A   1      35.017  31.257  27.493  1.00  0.00    -0.340 N 
ATOM     15  C   UNL A   1      34.423  30.006  27.303  1.00  0.00     0.292 C 
ATOM     16  O   UNL A   1      35.107  29.000  27.479  1.00  0.00    -0.265 OA
ATOM     17  H   UNL A   1      36.000  31.244  27.542  1.00  0.00     0.164 HD
BRANCH  15  18
ATOM     18  C   UNL A   1      32.941  29.855  26.872  1.00  0.00     0.252 C 
ATOM     19  O   UNL A   1      32.220  30.830  27.098  1.00  0.00    -0.283 OA
BRANCH  18  20
ATOM     20  C   UNL A   1      32.390  28.594  26.286  1.00  0.00     0.054 A 
ATOM     21  N   UNL A   1      31.169  26.737  25.778  1.00  0.00    -0.240 N 
ATOM     22  C   UNL A   1      31.475  27.652  26.792  1.00  0.00     0.117 A 
ATOM     23  C   UNL A   1      31.702  27.259  24.589  1.00  0.00     0.065 A 
ATOM     24  C   UNL A   1      32.720  28.130  24.967  1.00  0.00     0.012 A 
ATOM     25  C   UNL A   1      31.547  26.852  23.250  1.00  0.00     0.028 A 
ATOM     26  C   UNL A   1      33.715  28.431  24.009  1.00  0.00     0.011 A 
ATOM     27  C   UNL A   1      32.569  27.105  22.343  1.00  0.00     0.002 A 
ATOM     28  C   UNL A   1      33.664  27.858  22.730  1.00  0.00     0.001 A 
BRANCH  21  29
ATOM     29  S   UNL A   1      31.424  25.000  25.860  1.00  0.00     0.268 S 
ATOM     30  O   UNL A   1      30.258  24.457  25.186  1.00  0.00    -0.201 OA
ATOM     31  O   UNL A   1      31.627  24.800  27.292  1.00  0.00    -0.201 OA
BRANCH  29  32
ATOM     32  C   UNL A   1      32.798  24.068  25.272  1.00  0.00     0.088 A 
ATOM     33  C   UNL A   1      36.645  23.170  23.513  1.00  0.00     0.044 C 
ATOM     34  C   UNL A   1      35.321  23.382  24.192  1.00  0.00    -0.051 A 
ATOM     35  C   UNL A   1      35.220  24.461  25.056  1.00  0.00     0.005 A 
ATOM     36  C   UNL A   1      34.161  22.620  23.917  1.00  0.00     0.005 A 
ATOM     37  C   UNL A   1      33.990  24.768  25.605  1.00  0.00     0.022 A 
ATOM     38  C   UNL A   1      32.882  22.964  24.442  1.00  0.00     0.022 A 
ENDBRANCH  29  32
ENDBRANCH  21  29
ENDBRANCH  18  20
ENDBRANCH  15  18
ENDBRANCH  13  14
ENDBRANCH  10  13
ENDBRANCH   8   9
BRANCH   8  39
ATOM     39  C   UNL A   1      38.180  33.725  29.560  1.00  0.00     0.074 C 
BRANCH  39  40
ATOM     40  C   UNL A   1      38.852  33.921  30.872  1.00  0.00    -0.020 A 
ATOM     41  C   UNL A   1      38.395  34.681  31.920  1.00  0.00     0.087 A 
ATOM     42  C   UNL A   1      40.019  33.243  31.354  1.00  0.00     0.003 A 
ATOM     43  N   UNL A   1      39.238  34.535  32.985  1.00  0.00    -0.361 N 
ATOM     44  C   UNL A   1      40.246  33.663  32.666  1.00  0.00     0.046 A 
ATOM     45  C   UNL A   1      40.891  32.285  30.800  1.00  0.00     0.010 A 
ATOM     46  H   UNL A   1      39.136  34.989  33.853  1.00  0.00     0.166 HD
ATOM     47  C   UNL A   1      41.318  33.206  33.439  1.00  0.00     0.026 A 
ATOM     48  C   UNL A   1      41.955  31.796  31.565  1.00  0.00     0.001 A 
ATOM     49  C   UNL A   1      42.168  32.259  32.863  1.00  0.00     0.002 A 
ENDBRANCH  39  40
ENDBRANCH   8  39
ENDBRANCH   6   8
ENDBRANCH   5   6
ENDBRANCH   4   5
ENDBRANCH   3   4
ENDBRANCH   2   3
ENDBRANCH   1   2
BRANCH   1  50
ATOM     50  C   UNL A   1      39.586  25.338  27.257  1.00  0.00     0.188 C 
BRANCH  50  51
ATOM     51  O   UNL A   1      40.362  24.293  27.814  1.00  0.00    -0.377 OA
BRANCH  51  52
ATOM     52  C   UNL A   1      40.886  23.346  26.919  1.00  0.00     0.188 C 
BRANCH  52  53
ATOM     53  C   UNL A   1      42.384  23.269  26.787  1.00  0.00     0.188 C 
BRANCH  53  54
ATOM     54  O   UNL A   1      42.726  23.623  25.455  1.00  0.00    -0.376 OA
BRANCH  54  55
ATOM     55  C   UNL A   1      42.965  25.013  25.272  1.00  0.00     0.202 C 
BRANCH  55  56
ATOM     56  C   UNL A   1      44.454  25.387  25.368  1.00  0.00     0.261 C 
BRANCH  56  57
ATOM     57  O   UNL A   1      44.687  25.983  26.661  1.00  0.00    -0.460 OA
BRANCH  57  58
ATOM     58  C   UNL A   1      45.976  25.953  27.114  1.00  0.00     0.338 C 
ATOM     59  O   UNL A   1      46.965  26.119  26.442  1.00  0.00    -0.246 OA
BRANCH  58  60
ATOM     60  C   UNL A   1      45.997  25.376  28.498  1.00  0.00     0.060 A 
ATOM     61  C   UNL A   1      44.936  24.557  28.924  1.00  0.00     0.016 A 
ATOM     62  C   UNL A   1      46.878  25.897  29.440  1.00  0.00     0.016 A 
ATOM     63  C   UNL A   1      44.655  24.410  30.294  1.00  0.00     0.010 A 
ATOM     64  C   UNL A   1      46.559  25.802  30.783  1.00  0.00     0.010 A 
ATOM     65  C   UNL A   1      45.416  25.111  31.228  1.00  0.00    -0.014 A 
BRANCH  65  66
ATOM     66  C   UNL A   1      45.022  25.387  32.632  1.00  0.00     0.031 A 
ATOM     67  C   UNL A   1      44.218  26.611  32.930  1.00  0.00     0.074 A 
ATOM     68  C   UNL A   1      45.087  24.360  33.512  1.00  0.00     0.049 A 
ATOM     69  N   UNL A   1      43.635  26.889  34.045  1.00  0.00    -0.248 NA
ATOM     70  C   UNL A   1      43.998  27.650  31.930  1.00  0.00     0.031 C 
ATOM     71  C   UNL A   1      44.259  24.108  34.684  1.00  0.00     0.029 A 
ATOM     72  N   UNL A   1      45.886  23.226  33.466  1.00  0.00    -0.354 N 
ATOM     73  C   UNL A   1      42.830  28.007  33.878  1.00  0.00     0.074 A 
ATOM     74  C   UNL A   1      43.116  28.448  32.539  1.00  0.00     0.031 C 
ATOM     75  C   UNL A   1      44.551  22.912  35.211  1.00  0.00     0.029 A 
ATOM     76  C   UNL A   1      45.824  22.544  34.683  1.00  0.00     0.049 A 
ATOM     77  H   UNL A   1      46.420  22.945  32.689  1.00  0.00     0.167 HD
ATOM     78  C   UNL A   1      41.988  28.392  34.891  1.00  0.00     0.037 A 
ATOM     79  C   UNL A   1      46.940  22.566  35.466  1.00  0.00     0.037 A 
ATOM     80  C   UNL A   1      42.286  27.621  36.119  1.00  0.00     0.049 A 
ATOM     81  C   UNL A   1      46.842  23.613  36.598  1.00  0.00     0.074 A 
ATOM     82  C   UNL A   1      41.554  26.813  36.968  1.00  0.00     0.029 A 
ATOM     83  N   UNL A   1      43.623  27.464  36.513  1.00  0.00    -0.354 N 
ATOM     84  N   UNL A   1      45.965  24.604  36.598  1.00  0.00    -0.248 NA
ATOM     85  C   UNL A   1      47.556  23.569  37.871  1.00  0.00     0.031 C 
ATOM     86  C   UNL A   1      42.477  26.052  37.746  1.00  0.00     0.029 A 
ATOM     87  C   UNL A   1      43.777  26.447  37.438  1.00  0.00     0.049 A 
ATOM     88  H   UNL A   1      44.366  28.012  36.173  1.00  0.00     0.167 HD
ATOM     89  C   UNL A   1      45.926  25.257  37.799  1.00  0.00     0.074 A 
ATOM     90  C   UNL A   1      46.964  24.571  38.559  1.00  0.00     0.031 C 
ATOM     91  C   UNL A   1      45.056  26.271  38.136  1.00  0.00     0.037 A 
BRANCH  78  92
ATOM     92  C   UNL A   1      40.815  29.392  34.791  1.00  0.00     0.064 A 
ATOM     93  C   UNL A   1      40.637  30.408  35.765  1.00  0.00     0.173 A 
ATOM     94  C   UNL A   1      39.776  29.368  33.830  1.00  0.00     0.173 A 
ATOM     95  F   UNL A   1      41.525  30.590  36.752  1.00  0.00    -0.203 F 
ATOM     96  C   UNL A   1      39.536  31.285  35.782  1.00  0.00     0.198 A 
ATOM     97  C   UNL A   1      38.695  30.269  33.823  1.00  0.00     0.198 A 
ATOM     98  F   UNL A   1      39.695  28.420  32.896  1.00  0.00    -0.203 F 
ATOM     99  F   UNL A   1      39.423  32.188  36.767  1.00  0.00    -0.200 F 
ATOM    100  C   UNL A   1      38.569  31.224  34.803  1.00  0.00     0.200 A 
ATOM    101  F   UNL A   1      37.761  30.171  32.863  1.00  0.00    -0.200 F 
ATOM    102  F   UNL A   1      37.527  32.065  34.810  1.00  0.00    -0.200 F 
ENDBRANCH  78  92
BRANCH  79 103
ATOM    103  C   UNL A   1      48.006  21.789  34.718  1.00  0.00     0.064 A 
ATOM    104  C   UNL A   1      49.057  22.639  34.271  1.00  0.00     0.173 A 
ATOM    105  C   UNL A   1      48.426  20.539  35.232  1.00  0.00     0.173 A 
ATOM    106  F   UNL A   1      48.747  23.826  33.723  1.00  0.00    -0.203 F 
ATOM    107  C   UNL A   1      50.393  22.420  34.639  1.00  0.00     0.198 A 
ATOM    108  C   UNL A   1      49.777  20.306  35.562  1.00  0.00     0.198 A 
ATOM    109  F   UNL A   1      47.516  19.651  35.657  1.00  0.00    -0.203 F 
ATOM    110  F   UNL A   1      51.308  23.380  34.443  1.00  0.00    -0.200 F 
ATOM    111  C   UNL A   1      50.740  21.279  35.338  1.00  0.00     0.200 A 
ATOM    112  F   UNL A   1      50.120  19.199  36.238  1.00  0.00    -0.200 F 
ATOM    113  F   UNL A   1      51.970  21.155  35.862  1.00  0.00    -0.200 F 
ENDBRANCH  79 103
BRANCH  91 114
ATOM    114  C   UNL A   1      45.325  27.304  39.222  1.00  0.00     0.064 A 
ATOM    115  C   UNL A   1      45.737  28.611  38.930  1.00  0.00     0.173 A 
ATOM    116  C   UNL A   1      44.908  27.090  40.567  1.00  0.00     0.173 A 
ATOM    117  F   UNL A   1      46.047  28.985  37.683  1.00  0.00    -0.203 F 
ATOM    118  C   UNL A   1      45.769  29.610  39.905  1.00  0.00     0.198 A 
ATOM    119  C   UNL A   1      44.861  28.109  41.511  1.00  0.00     0.198 A 
ATOM    120  F   UNL A   1      44.485  25.900  41.010  1.00  0.00    -0.203 F 
ATOM    121  F   UNL A   1      46.209  30.831  39.577  1.00  0.00    -0.200 F 
ATOM    122  C   UNL A   1      45.307  29.367  41.185  1.00  0.00     0.200 A 
ATOM    123  F   UNL A   1      44.349  27.865  42.726  1.00  0.00    -0.200 F 
ATOM    124  F   UNL A   1      45.271  30.350  42.092  1.00  0.00    -0.200 F 
ENDBRANCH  91 114
ENDBRANCH  65  66
ENDBRANCH  58  60
ENDBRANCH  57  58
ENDBRANCH  56  57
ENDBRANCH  55  56
ENDBRANCH  54  55
ENDBRANCH  53  54
ENDBRANCH  52  53
ENDBRANCH  51  52
ENDBRANCH  50  51
ENDBRANCH   1  50
TORSDOF 29
ENDMDL
MODEL 2
REMARK VINA RESULT:      -9.7      6.737     13.200
REMARK SMILES Cc1ccc(S(=O)(=O)n2cc(C(=O)C(=O)NCC(=O)N[C@@H](Cc3c[nH]c4ccccc34)C(=O)OCCOCCOCCOCCOC(=O)c3ccc(-c4c5nc(c(-c6c(F)c(F)c(F)c(F)c6F)c6ccc([nH]6)c(-c6c(F)c(F)c(F)c(F)c6F)c6nc(c(-c7c(F)c(F)c(F)c(F)c7F)c7ccc4[nH]7)C=C6)C=C5)cc3)c3ccccc32)cc1
REMARK SMILES IDX 38 1 37 2 36 3 35 4 34 5 32 6 33 7 21 8 20 9 18 10 19 11
REMARK SMILES IDX 17 13 16 14 14 15 15 16 12 18 13 19 11 20 9 21 10 22 117 23
REMARK SMILES IDX 112 24 116 25 113 26 115 27 114 28 6 29 7 30 8 31 5 32 1 33
REMARK SMILES IDX 2 34 3 35 119 36 4 37 118 38 22 39 23 40 24 41 31 42 25 43
REMARK SMILES IDX 26 44 30 45 27 47 29 48 28 49 39 50 40 51 41 52 42 53 43 54
REMARK SMILES IDX 44 55 45 56 46 57 47 58 48 59 49 60 50 61 111 62 51 63
REMARK SMILES IDX 110 64 52 65 53 66 54 67 104 68 55 69 109 70 103 71 105 72
REMARK SMILES IDX 56 73 108 74 102 75 101 76 57 78 89 79 69 80 88 81 70 82
REMARK SMILES IDX 73 83 87 84 106 85 71 86 72 87 86 89 107 90 74 91 58 92
REMARK SMILES IDX 59 93 67 94 60 95 61 96 65 97 68 98 62 99 63 100 66 101
REMARK SMILES IDX 64 102 90 103 91 104 99 105 92 106 93 107 97 108 100 109
REMARK SMILES IDX 94 110 95 111 98 112 96 113 75 114 76 115 84 116 77 117
REMARK SMILES IDX 78 118 82 119 85 120 79 121 80 122 83 123 81 124
REMARK H PARENT 20 12 16 17 25 46 105 77 73 88
REMARK Flexibility Score: inf
ROOT
ATOM      1  C   UNL A   1      31.393  29.098  24.385  1.00  0.00     0.188 C 
ENDROOT
BRANCH   1   2
ATOM      2  O   UNL A   1      30.256  28.258  24.479  1.00  0.00    -0.376 OA
BRANCH   2   3
ATOM      3  C   UNL A   1      29.972  27.430  23.378  1.00  0.00     0.202 C 
BRANCH   3   4
ATOM      4  C   UNL A   1      30.107  25.966  23.794  1.00  0.00     0.261 C 
BRANCH   4   5
ATOM      5  O   UNL A   1      31.488  25.525  23.890  1.00  0.00    -0.462 OA
BRANCH   5   6
ATOM      6  C   UNL A   1      31.875  24.816  22.821  1.00  0.00     0.329 C 
ATOM      7  O   UNL A   1      32.080  25.328  21.730  1.00  0.00    -0.250 OA
BRANCH   6   8
ATOM      8  C   UNL A   1      32.189  23.346  23.006  1.00  0.00     0.196 C 
BRANCH   8   9
ATOM      9  N   UNL A   1      33.527  23.018  22.526  1.00  0.00    -0.341 N 
ATOM     10  C   UNL A   1      34.739  23.483  22.972  1.00  0.00     0.240 C 
ATOM     11  O   UNL A   1      35.747  22.976  22.463  1.00  0.00    -0.273 OA
ATOM     12  H   UNL A   1      33.566  22.376  21.780  1.00  0.00     0.164 HD
BRANCH  10  13
ATOM     13  C   UNL A   1      34.892  24.416  24.228  1.00  0.00     0.216 C 
BRANCH  13  14
ATOM     14  N   UNL A   1      34.835  23.794  25.549  1.00  0.00    -0.340 N 
ATOM     15  C   UNL A   1      35.674  22.846  26.143  1.00  0.00     0.292 C 
ATOM     16  O   UNL A   1      35.283  22.272  27.157  1.00  0.00    -0.265 OA
ATOM     17  H   UNL A   1      34.083  24.090  26.112  1.00  0.00     0.164 HD
BRANCH  15  18
ATOM     18  C   UNL A   1      37.073  22.510  25.568  1.00  0.00     0.252 C 
ATOM     19  O   UNL A   1      37.081  21.744  24.600  1.00  0.00    -0.283 OA
BRANCH  18  20
ATOM     20  C   UNL A   1      38.345  23.013  26.176  1.00  0.00     0.054 A 
ATOM     21  N   UNL A   1      39.961  24.189  27.271  1.00  0.00    -0.240 N 
ATOM     22  C   UNL A   1      38.713  24.288  26.646  1.00  0.00     0.117 A 
ATOM     23  C   UNL A   1      40.241  22.820  27.400  1.00  0.00     0.065 A 
ATOM     24  C   UNL A   1      39.482  22.173  26.429  1.00  0.00     0.012 A 
ATOM     25  C   UNL A   1      41.263  22.148  28.099  1.00  0.00     0.028 A 
ATOM     26  C   UNL A   1      39.899  20.886  26.020  1.00  0.00     0.011 A 
ATOM     27  C   UNL A   1      41.698  20.912  27.636  1.00  0.00     0.002 A 
ATOM     28  C   UNL A   1      41.044  20.301  26.580  1.00  0.00     0.001 A 
BRANCH  21  29
ATOM     29  S   UNL A   1      41.407  25.076  26.809  1.00  0.00     0.268 S 
ATOM     30  O   UNL A   1      41.585  26.020  27.898  1.00  0.00    -0.201 OA
ATOM     31  O   UNL A   1      41.055  25.533  25.468  1.00  0.00    -0.201 OA
BRANCH  29  32
ATOM     32  C   UNL A   1      43.010  24.442  26.453  1.00  0.00     0.088 A 
ATOM     33  C   UNL A   1      46.101  21.845  24.903  1.00  0.00     0.044 C 
ATOM     34  C   UNL A   1      45.105  22.839  25.430  1.00  0.00    -0.051 A 
ATOM     35  C   UNL A   1      44.009  23.120  24.631  1.00  0.00     0.005 A 
ATOM     36  C   UNL A   1      45.168  23.410  26.723  1.00  0.00     0.005 A 
ATOM     37  C   UNL A   1      43.006  23.930  25.127  1.00  0.00     0.022 A 
ATOM     38  C   UNL A   1      44.113  24.206  27.255  1.00  0.00     0.022 A 
ENDBRANCH  29  32
ENDBRANCH  21  29
ENDBRANCH  18  20
ENDBRANCH  15  18
ENDBRANCH  13  14
ENDBRANCH  10  13
ENDBRANCH   8   9
BRANCH   8  39
ATOM     39  C   UNL A   1      31.669  22.635  24.249  1.00  0.00     0.074 C 
BRANCH  39  40
ATOM     40  C   UNL A   1      32.306  21.370  24.703  1.00  0.00    -0.020 A 
ATOM     41  C   UNL A   1      32.738  21.081  25.974  1.00  0.00     0.087 A 
ATOM     42  C   UNL A   1      32.458  20.162  23.949  1.00  0.00     0.003 A 
ATOM     43  N   UNL A   1      33.178  19.789  26.018  1.00  0.00    -0.361 N 
ATOM     44  C   UNL A   1      33.023  19.201  24.790  1.00  0.00     0.046 A 
ATOM     45  C   UNL A   1      32.139  19.787  22.629  1.00  0.00     0.010 A 
ATOM     46  H   UNL A   1      33.551  19.345  26.815  1.00  0.00     0.166 HD
ATOM     47  C   UNL A   1      33.320  17.900  24.371  1.00  0.00     0.026 A 
ATOM     48  C   UNL A   1      32.405  18.483  22.198  1.00  0.00     0.001 A 
ATOM     49  C   UNL A   1      32.995  17.558  23.056  1.00  0.00     0.002 A 
ENDBRANCH  39  40
ENDBRANCH   8  39
ENDBRANCH   6   8
ENDBRANCH   5   6
ENDBRANCH   4   5
ENDBRANCH   3   4
ENDBRANCH   2   3
ENDBRANCH   1   2
BRANCH   1  50
ATOM     50  C   UNL A   1      32.034  29.525  25.713  1.00  0.00     0.188 C 
BRANCH  50  51
ATOM     51  O   UNL A   1      33.423  29.774  25.832  1.00  0.00    -0.377 OA
BRANCH  51  52
ATOM     52  C   UNL A   1      33.946  29.840  27.134  1.00  0.00     0.188 C 
BRANCH  52  53
ATOM     53  C   UNL A   1      35.414  29.556  27.309  1.00  0.00     0.188 C 
BRANCH  53  54
ATOM     54  O   UNL A   1      35.736  29.735  28.680  1.00  0.00    -0.376 OA
BRANCH  54  55
ATOM     55  C   UNL A   1      36.274  31.016  28.984  1.00  0.00     0.202 C 
BRANCH  55  56
ATOM     56  C   UNL A   1      36.274  31.328  30.490  1.00  0.00     0.261 C 
BRANCH  56  57
ATOM     57  O   UNL A   1      37.492  32.037  30.804  1.00  0.00    -0.460 OA
BRANCH  57  58
ATOM     58  C   UNL A   1      37.340  33.291  31.325  1.00  0.00     0.338 C 
ATOM     59  O   UNL A   1      36.326  33.739  31.802  1.00  0.00    -0.246 OA
BRANCH  58  60
ATOM     60  C   UNL A   1      38.519  34.131  30.935  1.00  0.00     0.060 A 
ATOM     61  C   UNL A   1      38.687  34.509  29.591  1.00  0.00     0.016 A 
ATOM     62  C   UNL A   1      39.586  34.260  31.819  1.00  0.00     0.016 A 
ATOM     63  C   UNL A   1      39.961  34.843  29.098  1.00  0.00     0.010 A 
ATOM     64  C   UNL A   1      40.847  34.525  31.315  1.00  0.00     0.010 A 
ATOM     65  C   UNL A   1      41.065  34.762  29.945  1.00  0.00    -0.014 A 
BRANCH  65  66
ATOM     66  C   UNL A   1      42.483  34.685  29.512  1.00  0.00     0.031 A 
ATOM     67  C   UNL A   1      43.104  33.341  29.305  1.00  0.00     0.074 A 
ATOM     68  C   UNL A   1      43.034  35.801  28.980  1.00  0.00     0.049 A 
ATOM     69  N   UNL A   1      44.241  33.104  28.749  1.00  0.00    -0.248 NA
ATOM     70  C   UNL A   1      42.437  32.113  29.724  1.00  0.00     0.031 C 
ATOM     71  C   UNL A   1      44.072  35.911  27.963  1.00  0.00     0.029 A 
ATOM     72  N   UNL A   1      42.681  37.127  29.186  1.00  0.00    -0.354 N 
ATOM     73  C   UNL A   1      44.386  31.736  28.563  1.00  0.00     0.074 A 
ATOM     74  C   UNL A   1      43.233  31.170  29.211  1.00  0.00     0.031 C 
ATOM     75  C   UNL A   1      44.241  37.192  27.609  1.00  0.00     0.029 A 
ATOM     76  C   UNL A   1      43.652  37.973  28.645  1.00  0.00     0.049 A 
ATOM     77  H   UNL A   1      41.865  37.428  29.647  1.00  0.00     0.167 HD
ATOM     78  C   UNL A   1      45.452  31.260  27.842  1.00  0.00     0.037 A 
ATOM     79  C   UNL A   1      44.428  38.671  29.524  1.00  0.00     0.037 A 
ATOM     80  C   UNL A   1      46.414  32.354  27.579  1.00  0.00     0.049 A 
ATOM     81  C   UNL A   1      45.809  38.013  29.737  1.00  0.00     0.074 A 
ATOM     82  C   UNL A   1      46.986  32.901  26.445  1.00  0.00     0.029 A 
ATOM     83  N   UNL A   1      46.771  33.212  28.629  1.00  0.00    -0.354 N 
ATOM     84  N   UNL A   1      46.077  36.759  29.406  1.00  0.00    -0.248 NA
ATOM     85  C   UNL A   1      47.029  38.695  30.159  1.00  0.00     0.031 C 
ATOM     86  C   UNL A   1      47.531  34.171  26.805  1.00  0.00     0.029 A 
ATOM     87  C   UNL A   1      47.370  34.372  28.174  1.00  0.00     0.049 A 
ATOM     88  H   UNL A   1      46.613  33.013  29.580  1.00  0.00     0.167 HD
ATOM     89  C   UNL A   1      47.413  36.480  29.485  1.00  0.00     0.074 A 
ATOM     90  C   UNL A   1      47.964  37.736  29.982  1.00  0.00     0.031 C 
ATOM     91  C   UNL A   1      48.011  35.293  29.120  1.00  0.00     0.037 A 
BRANCH  78  92
ATOM     92  C   UNL A   1      45.621  29.836  27.268  1.00  0.00     0.064 A 
ATOM     93  C   UNL A   1      46.880  29.181  27.300  1.00  0.00     0.173 A 
ATOM     94  C   UNL A   1      44.630  29.084  26.593  1.00  0.00     0.173 A 
ATOM     95  F   UNL A   1      47.938  29.736  27.903  1.00  0.00    -0.203 F 
ATOM     96  C   UNL A   1      47.118  27.927  26.708  1.00  0.00     0.198 A 
ATOM     97  C   UNL A   1      44.857  27.812  26.035  1.00  0.00     0.198 A 
ATOM     98  F   UNL A   1      43.411  29.569  26.355  1.00  0.00    -0.203 F 
ATOM     99  F   UNL A   1      48.351  27.400  26.745  1.00  0.00    -0.200 F 
ATOM    100  C   UNL A   1      46.104  27.235  26.084  1.00  0.00     0.200 A 
ATOM    101  F   UNL A   1      43.849  27.173  25.420  1.00  0.00    -0.200 F 
ATOM    102  F   UNL A   1      46.325  26.035  25.531  1.00  0.00    -0.200 F 
ENDBRANCH  78  92
BRANCH  79 103
ATOM    103  C   UNL A   1      43.508  39.649  30.229  1.00  0.00     0.064 A 
ATOM    104  C   UNL A   1      43.572  39.502  31.643  1.00  0.00     0.173 A 
ATOM    105  C   UNL A   1      43.451  40.985  29.768  1.00  0.00     0.173 A 
ATOM    106  F   UNL A   1      43.580  38.267  32.171  1.00  0.00    -0.203 F 
ATOM    107  C   UNL A   1      43.919  40.572  32.482  1.00  0.00     0.198 A 
ATOM    108  C   UNL A   1      43.759  42.063  30.625  1.00  0.00     0.198 A 
ATOM    109  F   UNL A   1      43.363  41.237  28.454  1.00  0.00    -0.203 F 
ATOM    110  F   UNL A   1      44.245  40.341  33.763  1.00  0.00    -0.200 F 
ATOM    111  C   UNL A   1      44.070  41.842  31.959  1.00  0.00     0.200 A 
ATOM    112  F   UNL A   1      43.905  43.298  30.122  1.00  0.00    -0.200 F 
ATOM    113  F   UNL A   1      44.588  42.827  32.710  1.00  0.00    -0.200 F 
ENDBRANCH  79 103
BRANCH  91 114
ATOM    114  C   UNL A   1      49.349  34.808  29.658  1.00  0.00     0.064 A 
ATOM    115  C   UNL A   1      49.519  34.384  30.982  1.00  0.00     0.173 A 
ATOM    116  C   UNL A   1      50.429  34.494  28.783  1.00  0.00     0.173 A 
ATOM    117  F   UNL A   1      48.540  34.510  31.887  1.00  0.00    -0.203 F 
ATOM    118  C   UNL A   1      50.681  33.738  31.409  1.00  0.00     0.198 A 
ATOM    119  C   UNL A   1      51.546  33.776  29.194  1.00  0.00     0.198 A 
ATOM    120  F   UNL A   1      50.427  34.828  27.486  1.00  0.00    -0.203 F 
ATOM    121  F   UNL A   1      50.802  33.390  32.696  1.00  0.00    -0.200 F 
ATOM    122  C   UNL A   1      51.680  33.411  30.511  1.00  0.00     0.200 A 
ATOM    123  F   UNL A   1      52.471  33.414  28.292  1.00  0.00    -0.200 F 
ATOM    124  F   UNL A   1      52.756  32.725  30.913  1.00  0.00    -0.200 F 
ENDBRANCH  91 114
ENDBRANCH  65  66
ENDBRANCH  58  60
ENDBRANCH  57  58
ENDBRANCH  56  57
ENDBRANCH  55  56
ENDBRANCH  54  55
ENDBRANCH  53  54
ENDBRANCH  52  53
ENDBRANCH  51  52
ENDBRANCH  50  51
ENDBRANCH   1  50
TORSDOF 29
ENDMDL
MODEL 3
REMARK VINA RESULT:      -9.0      7.315     12.458
REMARK SMILES Cc1ccc(S(=O)(=O)n2cc(C(=O)C(=O)NCC(=O)N[C@@H](Cc3c[nH]c4ccccc34)C(=O)OCCOCCOCCOCCOC(=O)c3ccc(-c4c5nc(c(-c6c(F)c(F)c(F)c(F)c6F)c6ccc([nH]6)c(-c6c(F)c(F)c(F)c(F)c6F)c6nc(c(-c7c(F)c(F)c(F)c(F)c7F)c7ccc4[nH]7)C=C6)C=C5)cc3)c3ccccc32)cc1
REMARK SMILES IDX 38 1 37 2 36 3 35 4 34 5 32 6 33 7 21 8 20 9 18 10 19 11
REMARK SMILES IDX 17 13 16 14 14 15 15 16 12 18 13 19 11 20 9 21 10 22 117 23
REMARK SMILES IDX 112 24 116 25 113 26 115 27 114 28 6 29 7 30 8 31 5 32 1 33
REMARK SMILES IDX 2 34 3 35 119 36 4 37 118 38 22 39 23 40 24 41 31 42 25 43
REMARK SMILES IDX 26 44 30 45 27 47 29 48 28 49 39 50 40 51 41 52 42 53 43 54
REMARK SMILES IDX 44 55 45 56 46 57 47 58 48 59 49 60 50 61 111 62 51 63
REMARK SMILES IDX 110 64 52 65 53 66 54 67 104 68 55 69 109 70 103 71 105 72
REMARK SMILES IDX 56 73 108 74 102 75 101 76 57 78 89 79 69 80 88 81 70 82
REMARK SMILES IDX 73 83 87 84 106 85 71 86 72 87 86 89 107 90 74 91 58 92
REMARK SMILES IDX 59 93 67 94 60 95 61 96 65 97 68 98 62 99 63 100 66 101
REMARK SMILES IDX 64 102 90 103 91 104 99 105 92 106 93 107 97 108 100 109
REMARK SMILES IDX 94 110 95 111 98 112 96 113 75 114 76 115 84 116 77 117
REMARK SMILES IDX 78 118 82 119 85 120 79 121 80 122 83 123 81 124
REMARK H PARENT 20 12 16 17 25 46 105 77 73 88
REMARK Flexibility Score: inf
ROOT
ATOM      1  C   UNL A   1      42.022  30.496  33.505  1.00  0.00     0.188 C 
ENDROOT
BRANCH   1   2
ATOM      2  O   UNL A   1      40.933  29.867  32.851  1.00  0.00    -0.376 OA
BRANCH   2   3
ATOM      3  C   UNL A   1      39.687  29.893  33.501  1.00  0.00     0.202 C 
BRANCH   3   4
ATOM      4  C   UNL A   1      38.580  29.597  32.490  1.00  0.00     0.261 C 
BRANCH   4   5
ATOM      5  O   UNL A   1      39.084  29.112  31.217  1.00  0.00    -0.462 OA
BRANCH   5   6
ATOM      6  C   UNL A   1      38.733  29.901  30.193  1.00  0.00     0.329 C 
ATOM      7  O   UNL A   1      39.128  31.053  30.082  1.00  0.00    -0.250 OA
BRANCH   6   8
ATOM      8  C   UNL A   1      37.918  29.300  29.066  1.00  0.00     0.196 C 
BRANCH   8   9
ATOM      9  N   UNL A   1      38.339  27.936  28.766  1.00  0.00    -0.341 N 
ATOM     10  C   UNL A   1      39.423  27.510  28.039  1.00  0.00     0.240 C 
ATOM     11  O   UNL A   1      39.622  26.289  28.009  1.00  0.00    -0.273 OA
ATOM     12  H   UNL A   1      37.767  27.223  29.134  1.00  0.00     0.164 HD
BRANCH  10  13
ATOM     13  C   UNL A   1      40.517  28.488  27.475  1.00  0.00     0.216 C 
BRANCH  13  14
ATOM     14  N   UNL A   1      41.650  28.812  28.339  1.00  0.00    -0.340 N 
ATOM     15  C   UNL A   1      43.002  28.474  28.228  1.00  0.00     0.292 C 
ATOM     16  O   UNL A   1      43.728  28.631  29.208  1.00  0.00    -0.265 OA
ATOM     17  H   UNL A   1      41.424  29.357  29.127  1.00  0.00     0.164 HD
BRANCH  15  18
ATOM     18  C   UNL A   1      43.607  27.919  26.913  1.00  0.00     0.252 C 
ATOM     19  O   UNL A   1      43.520  28.662  25.932  1.00  0.00    -0.283 OA
BRANCH  18  20
ATOM     20  C   UNL A   1      44.197  26.548  26.806  1.00  0.00     0.054 A 
ATOM     21  N   UNL A   1      45.504  24.726  26.394  1.00  0.00    -0.240 N 
ATOM     22  C   UNL A   1      45.220  26.035  25.986  1.00  0.00     0.117 A 
ATOM     23  C   UNL A   1      44.833  24.528  27.611  1.00  0.00     0.065 A 
ATOM     24  C   UNL A   1      43.789  25.449  27.636  1.00  0.00     0.012 A 
ATOM     25  C   UNL A   1      44.901  23.474  28.543  1.00  0.00     0.028 A 
ATOM     26  C   UNL A   1      42.696  25.178  28.489  1.00  0.00     0.011 A 
ATOM     27  C   UNL A   1      43.789  23.190  29.324  1.00  0.00     0.002 A 
ATOM     28  C   UNL A   1      42.678  24.015  29.272  1.00  0.00     0.001 A 
BRANCH  21  29
ATOM     29  S   UNL A   1      45.387  23.294  25.383  1.00  0.00     0.268 S 
ATOM     30  O   UNL A   1      46.649  22.615  25.613  1.00  0.00    -0.201 OA
ATOM     31  O   UNL A   1      45.074  23.878  24.081  1.00  0.00    -0.201 OA
BRANCH  29  32
ATOM     32  C   UNL A   1      44.153  22.039  25.405  1.00  0.00     0.088 A 
ATOM     33  C   UNL A   1      40.574  19.878  26.510  1.00  0.00     0.044 C 
ATOM     34  C   UNL A   1      41.806  20.581  26.015  1.00  0.00    -0.051 A 
ATOM     35  C   UNL A   1      41.740  21.959  25.891  1.00  0.00     0.005 A 
ATOM     36  C   UNL A   1      43.043  19.936  25.779  1.00  0.00     0.005 A 
ATOM     37  C   UNL A   1      42.884  22.659  25.560  1.00  0.00     0.022 A 
ATOM     38  C   UNL A   1      44.234  20.660  25.486  1.00  0.00     0.022 A 
ENDBRANCH  29  32
ENDBRANCH  21  29
ENDBRANCH  18  20
ENDBRANCH  15  18
ENDBRANCH  13  14
ENDBRANCH  10  13
ENDBRANCH   8   9
BRANCH   8  39
ATOM     39  C   UNL A   1      36.436  29.640  28.970  1.00  0.00     0.074 C 
BRANCH  39  40
ATOM     40  C   UNL A   1      35.999  31.062  28.966  1.00  0.00    -0.020 A 
ATOM     41  C   UNL A   1      35.749  31.839  27.862  1.00  0.00     0.087 A 
ATOM     42  C   UNL A   1      35.612  31.848  30.100  1.00  0.00     0.003 A 
ATOM     43  N   UNL A   1      35.276  33.056  28.264  1.00  0.00    -0.361 N 
ATOM     44  C   UNL A   1      35.186  33.093  29.631  1.00  0.00     0.046 A 
ATOM     45  C   UNL A   1      35.557  31.604  31.486  1.00  0.00     0.010 A 
ATOM     46  H   UNL A   1      35.037  33.796  27.661  1.00  0.00     0.166 HD
ATOM     47  C   UNL A   1      34.746  34.117  30.476  1.00  0.00     0.026 A 
ATOM     48  C   UNL A   1      35.097  32.607  32.346  1.00  0.00     0.001 A 
ATOM     49  C   UNL A   1      34.706  33.847  31.846  1.00  0.00     0.002 A 
ENDBRANCH  39  40
ENDBRANCH   8  39
ENDBRANCH   6   8
ENDBRANCH   5   6
ENDBRANCH   4   5
ENDBRANCH   3   4
ENDBRANCH   2   3
ENDBRANCH   1   2
BRANCH   1  50
ATOM     50  C   UNL A   1      43.423  30.133  32.993  1.00  0.00     0.188 C 
BRANCH  50  51
ATOM     51  O   UNL A   1      44.550  30.092  33.851  1.00  0.00    -0.377 OA
BRANCH  51  52
ATOM     52  C   UNL A   1      45.713  29.493  33.341  1.00  0.00     0.188 C 
BRANCH  52  53
ATOM     53  C   UNL A   1      46.216  29.976  32.007  1.00  0.00     0.188 C 
BRANCH  53  54
ATOM     54  O   UNL A   1      46.633  28.844  31.258  1.00  0.00    -0.376 OA
BRANCH  54  55
ATOM     55  C   UNL A   1      47.412  29.166  30.112  1.00  0.00     0.202 C 
BRANCH  55  56
ATOM     56  C   UNL A   1      46.878  30.387  29.344  1.00  0.00     0.261 C 
BRANCH  56  57
ATOM     57  O   UNL A   1      47.992  31.034  28.693  1.00  0.00    -0.460 OA
BRANCH  57  58
ATOM     58  C   UNL A   1      47.814  31.358  27.378  1.00  0.00     0.338 C 
ATOM     59  O   UNL A   1      48.028  30.633  26.437  1.00  0.00    -0.246 OA
BRANCH  58  60
ATOM     60  C   UNL A   1      47.613  32.839  27.259  1.00  0.00     0.060 A 
ATOM     61  C   UNL A   1      48.326  33.706  28.107  1.00  0.00     0.016 A 
ATOM     62  C   UNL A   1      46.516  33.324  26.555  1.00  0.00     0.016 A 
ATOM     63  C   UNL A   1      47.837  34.994  28.384  1.00  0.00     0.010 A 
ATOM     64  C   UNL A   1      46.005  34.568  26.880  1.00  0.00     0.010 A 
ATOM     65  C   UNL A   1      46.619  35.397  27.838  1.00  0.00    -0.014 A 
BRANCH  65  66
ATOM     66  C   UNL A   1      45.782  36.521  28.326  1.00  0.00     0.031 A 
ATOM     67  C   UNL A   1      45.692  37.766  27.505  1.00  0.00     0.074 A 
ATOM     68  C   UNL A   1      44.866  36.245  29.284  1.00  0.00     0.049 A 
ATOM     69  N   UNL A   1      44.867  38.739  27.682  1.00  0.00    -0.248 NA
ATOM     70  C   UNL A   1      46.566  37.997  26.360  1.00  0.00     0.031 C 
ATOM     71  C   UNL A   1      43.571  36.873  29.517  1.00  0.00     0.029 A 
ATOM     72  N   UNL A   1      44.873  35.225  30.226  1.00  0.00    -0.354 N 
ATOM     73  C   UNL A   1      44.955  39.618  26.612  1.00  0.00     0.074 A 
ATOM     74  C   UNL A   1      46.048  39.109  25.829  1.00  0.00     0.031 C 
ATOM     75  C   UNL A   1      42.905  36.220  30.478  1.00  0.00     0.029 A 
ATOM     76  C   UNL A   1      43.873  35.442  31.178  1.00  0.00     0.049 A 
ATOM     77  H   UNL A   1      45.492  34.461  30.223  1.00  0.00     0.167 HD
ATOM     78  C   UNL A   1      44.054  40.648  26.506  1.00  0.00     0.037 A 
ATOM     79  C   UNL A   1      44.276  35.789  32.434  1.00  0.00     0.037 A 
ATOM     80  C   UNL A   1      43.258  40.755  27.750  1.00  0.00     0.049 A 
ATOM     81  C   UNL A   1      44.175  37.310  32.684  1.00  0.00     0.074 A 
ATOM     82  C   UNL A   1      41.909  40.738  28.051  1.00  0.00     0.029 A 
ATOM     83  N   UNL A   1      43.918  40.695  28.986  1.00  0.00    -0.354 N 
ATOM     84  N   UNL A   1      44.064  38.201  31.711  1.00  0.00    -0.248 NA
ATOM     85  C   UNL A   1      44.017  37.957  33.983  1.00  0.00     0.031 C 
ATOM     86  C   UNL A   1      41.781  40.495  29.452  1.00  0.00     0.029 A 
ATOM     87  C   UNL A   1      43.048  40.444  30.030  1.00  0.00     0.049 A 
ATOM     88  H   UNL A   1      44.888  40.818  29.098  1.00  0.00     0.167 HD
ATOM     89  C   UNL A   1      43.768  39.448  32.187  1.00  0.00     0.074 A 
ATOM     90  C   UNL A   1      43.768  39.238  33.630  1.00  0.00     0.031 C 
ATOM     91  C   UNL A   1      43.505  40.562  31.419  1.00  0.00     0.037 A 
BRANCH  78  92
ATOM     92  C   UNL A   1      43.790  41.525  25.262  1.00  0.00     0.064 A 
ATOM     93  C   UNL A   1      44.777  42.422  24.778  1.00  0.00     0.173 A 
ATOM     94  C   UNL A   1      42.572  41.613  24.546  1.00  0.00     0.173 A 
ATOM     95  F   UNL A   1      45.998  42.476  25.327  1.00  0.00    -0.203 F 
ATOM     96  C   UNL A   1      44.560  43.314  23.711  1.00  0.00     0.198 A 
ATOM     97  C   UNL A   1      42.367  42.476  23.454  1.00  0.00     0.198 A 
ATOM     98  F   UNL A   1      41.483  40.937  24.912  1.00  0.00    -0.203 F 
ATOM     99  F   UNL A   1      45.535  44.160  23.347  1.00  0.00    -0.200 F 
ATOM    100  C   UNL A   1      43.358  43.334  23.040  1.00  0.00     0.200 A 
ATOM    101  F   UNL A   1      41.177  42.482  22.832  1.00  0.00    -0.200 F 
ATOM    102  F   UNL A   1      43.154  44.174  22.016  1.00  0.00    -0.200 F 
ENDBRANCH  78  92
BRANCH  79 103
ATOM    103  C   UNL A   1      45.002  34.584  33.001  1.00  0.00     0.064 A 
ATOM    104  C   UNL A   1      46.346  34.899  33.350  1.00  0.00     0.173 A 
ATOM    105  C   UNL A   1      44.325  33.750  33.921  1.00  0.00     0.173 A 
ATOM    106  F   UNL A   1      47.080  35.646  32.509  1.00  0.00    -0.203 F 
ATOM    107  C   UNL A   1      46.835  34.712  34.652  1.00  0.00     0.198 A 
ATOM    108  C   UNL A   1      44.839  33.528  35.215  1.00  0.00     0.198 A 
ATOM    109  F   UNL A   1      43.062  33.371  33.677  1.00  0.00    -0.203 F 
ATOM    110  F   UNL A   1      47.996  35.272  35.019  1.00  0.00    -0.200 F 
ATOM    111  C   UNL A   1      46.054  34.078  35.600  1.00  0.00     0.200 A 
ATOM    112  F   UNL A   1      44.086  32.912  36.139  1.00  0.00    -0.200 F 
ATOM    113  F   UNL A   1      46.429  34.067  36.889  1.00  0.00    -0.200 F 
ENDBRANCH  79 103
BRANCH  91 114
ATOM    114  C   UNL A   1      43.678  41.995  31.903  1.00  0.00     0.064 A 
ATOM    115  C   UNL A   1      42.628  42.728  32.472  1.00  0.00     0.173 A 
ATOM    116  C   UNL A   1      44.970  42.572  32.063  1.00  0.00     0.173 A 
ATOM    117  F   UNL A   1      41.377  42.253  32.498  1.00  0.00    -0.203 F 
ATOM    118  C   UNL A   1      42.842  43.951  33.111  1.00  0.00     0.198 A 
ATOM    119  C   UNL A   1      45.188  43.746  32.774  1.00  0.00     0.198 A 
ATOM    120  F   UNL A   1      46.080  42.000  31.580  1.00  0.00    -0.203 F 
ATOM    121  F   UNL A   1      41.795  44.626  33.602  1.00  0.00    -0.200 F 
ATOM    122  C   UNL A   1      44.121  44.445  33.285  1.00  0.00     0.200 A 
ATOM    123  F   UNL A   1      46.442  44.172  32.985  1.00  0.00    -0.200 F 
ATOM    124  F   UNL A   1      44.324  45.580  33.964  1.00  0.00    -0.200 F 
ENDBRANCH  91 114
ENDBRANCH  65  66
ENDBRANCH  58  60
ENDBRANCH  57  58
ENDBRANCH  56  57
ENDBRANCH  55  56
ENDBRANCH  54  55
ENDBRANCH  53  54
ENDBRANCH  52  53
ENDBRANCH  51  52
ENDBRANCH  50  51
ENDBRANCH   1  50
TORSDOF 29
ENDMDL
