MODEL 1
REMARK VINA RESULT:      -9.2      0.000      0.000
REMARK SMILES C#CCN(CC(=O)OCCOCCOCCOCCOC(=O)c1ccc(-c2c3nc(c(-c4c(F)c(F)c(F)c(F)c4F)c4ccc([nH]4)c(-c4c(F)c(F)c(F)c(F)c4F)c4nc(c(-c5c(F)c(F)c(F)c(F)c5F)c5ccc2[nH]5)C=C4)C=C3)cc1)S(=O)(=O)c1ccc(C(C)(C)C)cc1
REMARK SMILES IDX 13 1 12 2 11 3 10 4 9 5 8 6 6 7 7 8 5 9 4 10 3 11 2 12 1 13
REMARK SMILES IDX 86 14 87 15 88 16 89 17 90 18 98 19 91 20 97 21 92 22 93 23
REMARK SMILES IDX 94 24 95 25 96 26 14 27 15 28 16 29 17 30 18 31 19 32 20 33
REMARK SMILES IDX 21 34 22 35 23 36 24 37 85 38 25 39 84 40 26 41 27 42 28 43
REMARK SMILES IDX 78 44 29 45 83 46 77 47 79 48 30 49 82 50 76 51 75 52 31 54
REMARK SMILES IDX 63 55 43 56 62 57 44 58 47 59 61 60 80 61 45 62 46 63 60 65
REMARK SMILES IDX 81 66 48 67 32 68 33 69 41 70 34 71 35 72 39 73 42 74 36 75
REMARK SMILES IDX 37 76 40 77 38 78 64 79 65 80 73 81 66 82 67 83 71 84 74 85
REMARK SMILES IDX 68 86 69 87 72 88 70 89 49 90 50 91 58 92 51 93 52 94 56 95
REMARK SMILES IDX 59 96 53 97 54 98 57 99 55 100
REMARK H PARENT 79 53 47 64
REMARK Flexibility Score: inf
ROOT
ATOM      1  C   UNL A   1      36.590  21.359  25.737  1.00  0.00     0.188 C 
ENDROOT
BRANCH   1   2
ATOM      2  C   UNL A   1      35.613  22.514  25.518  1.00  0.00     0.188 C 
BRANCH   2   3
ATOM      3  O   UNL A   1      36.101  23.739  24.993  1.00  0.00    -0.376 OA
BRANCH   3   4
ATOM      4  C   UNL A   1      35.740  24.121  23.668  1.00  0.00     0.202 C 
BRANCH   4   5
ATOM      5  C   UNL A   1      34.705  23.272  22.895  1.00  0.00     0.261 C 
BRANCH   5   6
ATOM      6  O   UNL A   1      33.697  24.023  22.168  1.00  0.00    -0.462 OA
BRANCH   6   7
ATOM      7  C   UNL A   1      33.505  25.337  22.474  1.00  0.00     0.321 C 
ATOM      8  O   UNL A   1      34.006  26.257  21.834  1.00  0.00    -0.251 OA
BRANCH   7   9
ATOM      9  C   UNL A   1      32.586  25.600  23.688  1.00  0.00     0.226 C 
BRANCH   9  10
ATOM     10  N   UNL A   1      32.440  24.525  24.712  1.00  0.00    -0.175 NA
BRANCH  10  11
ATOM     11  C   UNL A   1      32.726  25.048  26.093  1.00  0.00     0.192 C 
BRANCH  11  12
ATOM     12  C   UNL A   1      32.081  26.381  26.434  1.00  0.00    -0.090 C 
ATOM     13  C   UNL A   1      31.527  27.524  26.726  1.00  0.00     0.005 C 
ENDBRANCH  11  12
ENDBRANCH  10  11
BRANCH  10  14
ATOM     14  S   UNL A   1      31.162  23.411  24.628  1.00  0.00     0.244 S 
ATOM     15  O   UNL A   1      30.491  23.418  25.913  1.00  0.00    -0.207 OA
ATOM     16  O   UNL A   1      30.453  23.718  23.400  1.00  0.00    -0.207 OA
BRANCH  14  17
ATOM     17  C   UNL A   1      31.726  21.735  24.464  1.00  0.00     0.082 A 
ATOM     18  C   UNL A   1      32.246  21.138  25.614  1.00  0.00     0.022 A 
ATOM     19  C   UNL A   1      31.891  21.104  23.235  1.00  0.00     0.022 A 
ATOM     20  C   UNL A   1      32.901  19.911  25.534  1.00  0.00     0.005 A 
ATOM     21  C   UNL A   1      32.533  19.857  23.162  1.00  0.00     0.005 A 
ATOM     22  C   UNL A   1      33.041  19.230  24.312  1.00  0.00    -0.043 A 
BRANCH  22  23
ATOM     23  C   UNL A   1      33.720  17.850  24.293  1.00  0.00    -0.013 C 
ATOM     24  C   UNL A   1      33.509  17.172  22.922  1.00  0.00     0.016 C 
ATOM     25  C   UNL A   1      35.233  18.042  24.543  1.00  0.00     0.016 C 
ATOM     26  C   UNL A   1      33.199  16.878  25.373  1.00  0.00     0.016 C 
ENDBRANCH  22  23
ENDBRANCH  14  17
ENDBRANCH  10  14
ENDBRANCH   9  10
ENDBRANCH   7   9
ENDBRANCH   6   7
ENDBRANCH   5   6
ENDBRANCH   4   5
ENDBRANCH   3   4
ENDBRANCH   2   3
ENDBRANCH   1   2
BRANCH   1  27
ATOM     27  O   UNL A   1      37.519  21.148  24.699  1.00  0.00    -0.377 OA
BRANCH  27  28
ATOM     28  C   UNL A   1      38.369  20.023  24.824  1.00  0.00     0.188 C 
BRANCH  28  29
ATOM     29  C   UNL A   1      39.337  20.036  26.015  1.00  0.00     0.188 C 
BRANCH  29  30
ATOM     30  O   UNL A   1      40.255  21.114  25.993  1.00  0.00    -0.376 OA
BRANCH  30  31
ATOM     31  C   UNL A   1      41.640  20.938  26.237  1.00  0.00     0.202 C 
BRANCH  31  32
ATOM     32  C   UNL A   1      42.455  19.670  25.912  1.00  0.00     0.261 C 
BRANCH  32  33
ATOM     33  O   UNL A   1      43.116  19.579  24.648  1.00  0.00    -0.460 OA
BRANCH  33  34
ATOM     34  C   UNL A   1      44.457  19.630  24.621  1.00  0.00     0.338 C 
ATOM     35  O   UNL A   1      45.225  18.747  24.269  1.00  0.00    -0.246 OA
BRANCH  34  36
ATOM     36  C   UNL A   1      44.847  21.023  24.914  1.00  0.00     0.060 A 
ATOM     37  C   UNL A   1      45.428  21.312  26.155  1.00  0.00     0.016 A 
ATOM     38  C   UNL A   1      44.641  22.039  23.974  1.00  0.00     0.016 A 
ATOM     39  C   UNL A   1      45.767  22.624  26.478  1.00  0.00     0.010 A 
ATOM     40  C   UNL A   1      44.957  23.359  24.311  1.00  0.00     0.010 A 
ATOM     41  C   UNL A   1      45.490  23.659  25.577  1.00  0.00    -0.014 A 
BRANCH  41  42
ATOM     42  C   UNL A   1      45.593  25.064  26.036  1.00  0.00     0.031 A 
ATOM     43  C   UNL A   1      46.925  25.753  25.939  1.00  0.00     0.074 A 
ATOM     44  C   UNL A   1      44.513  25.725  26.486  1.00  0.00     0.049 A 
ATOM     45  N   UNL A   1      47.267  26.961  26.307  1.00  0.00    -0.248 NA
ATOM     46  C   UNL A   1      48.021  24.973  25.343  1.00  0.00     0.031 C 
ATOM     47  C   UNL A   1      43.163  25.174  26.571  1.00  0.00     0.029 A 
ATOM     48  N   UNL A   1      44.388  27.005  26.964  1.00  0.00    -0.354 N 
ATOM     49  C   UNL A   1      48.614  27.082  25.994  1.00  0.00     0.074 A 
ATOM     50  C   UNL A   1      49.036  25.818  25.432  1.00  0.00     0.031 C 
ATOM     51  C   UNL A   1      42.344  26.109  27.083  1.00  0.00     0.029 A 
ATOM     52  C   UNL A   1      43.122  27.306  27.398  1.00  0.00     0.049 A 
ATOM     53  H   UNL A   1      45.135  27.646  26.991  1.00  0.00     0.167 HD
ATOM     54  C   UNL A   1      49.423  28.157  26.154  1.00  0.00     0.037 A 
ATOM     55  C   UNL A   1      42.656  28.413  28.010  1.00  0.00     0.037 A 
ATOM     56  C   UNL A   1      48.994  29.408  26.722  1.00  0.00     0.049 A 
ATOM     57  C   UNL A   1      43.600  29.561  28.263  1.00  0.00     0.074 A 
ATOM     58  C   UNL A   1      49.727  30.565  26.915  1.00  0.00     0.029 A 
ATOM     59  N   UNL A   1      47.715  29.660  27.198  1.00  0.00    -0.354 N 
ATOM     60  N   UNL A   1      44.867  29.681  27.943  1.00  0.00    -0.248 NA
ATOM     61  C   UNL A   1      43.049  30.729  28.966  1.00  0.00     0.031 C 
ATOM     62  C   UNL A   1      48.913  31.493  27.570  1.00  0.00     0.029 A 
ATOM     63  C   UNL A   1      47.650  30.941  27.722  1.00  0.00     0.049 A 
ATOM     64  H   UNL A   1      46.965  29.023  27.168  1.00  0.00     0.167 HD
ATOM     65  C   UNL A   1      45.256  30.941  28.381  1.00  0.00     0.074 A 
ATOM     66  C   UNL A   1      44.084  31.556  28.970  1.00  0.00     0.031 C 
ATOM     67  C   UNL A   1      46.473  31.535  28.306  1.00  0.00     0.037 A 
BRANCH  54  68
ATOM     68  C   UNL A   1      50.863  28.010  25.751  1.00  0.00     0.064 A 
ATOM     69  C   UNL A   1      51.281  28.168  24.421  1.00  0.00     0.173 A 
ATOM     70  C   UNL A   1      51.844  27.736  26.716  1.00  0.00     0.173 A 
ATOM     71  F   UNL A   1      50.382  28.416  23.455  1.00  0.00    -0.203 F 
ATOM     72  C   UNL A   1      52.622  28.031  24.069  1.00  0.00     0.198 A 
ATOM     73  C   UNL A   1      53.187  27.632  26.367  1.00  0.00     0.198 A 
ATOM     74  F   UNL A   1      51.501  27.578  28.004  1.00  0.00    -0.203 F 
ATOM     75  F   UNL A   1      52.990  28.136  22.785  1.00  0.00    -0.200 F 
ATOM     76  C   UNL A   1      53.574  27.771  25.043  1.00  0.00     0.200 A 
ATOM     77  F   UNL A   1      54.107  27.396  27.312  1.00  0.00    -0.200 F 
ATOM     78  F   UNL A   1      54.865  27.648  24.705  1.00  0.00    -0.200 F 
ENDBRANCH  54  68
BRANCH  55  79
ATOM     79  C   UNL A   1      41.237  28.481  28.448  1.00  0.00     0.064 A 
ATOM     80  C   UNL A   1      40.846  28.038  29.719  1.00  0.00     0.173 A 
ATOM     81  C   UNL A   1      40.235  28.970  27.594  1.00  0.00     0.173 A 
ATOM     82  F   UNL A   1      41.760  27.538  30.564  1.00  0.00    -0.203 F 
ATOM     83  C   UNL A   1      39.509  28.063  30.112  1.00  0.00     0.198 A 
ATOM     84  C   UNL A   1      38.903  29.024  28.000  1.00  0.00     0.198 A 
ATOM     85  F   UNL A   1      40.552  29.404  26.365  1.00  0.00    -0.203 F 
ATOM     86  F   UNL A   1      39.158  27.584  31.314  1.00  0.00    -0.200 F 
ATOM     87  C   UNL A   1      38.540  28.562  29.255  1.00  0.00     0.200 A 
ATOM     88  F   UNL A   1      37.974  29.523  27.173  1.00  0.00    -0.200 F 
ATOM     89  F   UNL A   1      37.255  28.590  29.635  1.00  0.00    -0.200 F 
ENDBRANCH  55  79
BRANCH  67  90
ATOM     90  C   UNL A   1      46.593  32.931  28.851  1.00  0.00     0.064 A 
ATOM     91  C   UNL A   1      46.330  34.059  28.059  1.00  0.00     0.173 A 
ATOM     92  C   UNL A   1      46.938  33.142  30.196  1.00  0.00     0.173 A 
ATOM     93  F   UNL A   1      46.011  33.914  26.764  1.00  0.00    -0.203 F 
ATOM     94  C   UNL A   1      46.439  35.344  28.584  1.00  0.00     0.198 A 
ATOM     95  C   UNL A   1      47.008  34.427  30.727  1.00  0.00     0.198 A 
ATOM     96  F   UNL A   1      47.191  32.099  31.002  1.00  0.00    -0.203 F 
ATOM     97  F   UNL A   1      46.237  36.407  27.793  1.00  0.00    -0.200 F 
ATOM     98  C   UNL A   1      46.768  35.527  29.919  1.00  0.00     0.200 A 
ATOM     99  F   UNL A   1      47.309  34.600  32.021  1.00  0.00    -0.200 F 
ATOM    100  F   UNL A   1      46.862  36.765  30.424  1.00  0.00    -0.200 F 
ENDBRANCH  67  90
ENDBRANCH  41  42
ENDBRANCH  34  36
ENDBRANCH  33  34
ENDBRANCH  32  33
ENDBRANCH  31  32
ENDBRANCH  30  31
ENDBRANCH  29  30
ENDBRANCH  28  29
ENDBRANCH  27  28
ENDBRANCH   1  27
TORSDOF 26
ENDMDL
MODEL 2
REMARK VINA RESULT:      -9.1      5.238      8.367
REMARK SMILES C#CCN(CC(=O)OCCOCCOCCOCCOC(=O)c1ccc(-c2c3nc(c(-c4c(F)c(F)c(F)c(F)c4F)c4ccc([nH]4)c(-c4c(F)c(F)c(F)c(F)c4F)c4nc(c(-c5c(F)c(F)c(F)c(F)c5F)c5ccc2[nH]5)C=C4)C=C3)cc1)S(=O)(=O)c1ccc(C(C)(C)C)cc1
REMARK SMILES IDX 13 1 12 2 11 3 10 4 9 5 8 6 6 7 7 8 5 9 4 10 3 11 2 12 1 13
REMARK SMILES IDX 86 14 87 15 88 16 89 17 90 18 98 19 91 20 97 21 92 22 93 23
REMARK SMILES IDX 94 24 95 25 96 26 14 27 15 28 16 29 17 30 18 31 19 32 20 33
REMARK SMILES IDX 21 34 22 35 23 36 24 37 85 38 25 39 84 40 26 41 27 42 28 43
REMARK SMILES IDX 78 44 29 45 83 46 77 47 79 48 30 49 82 50 76 51 75 52 31 54
REMARK SMILES IDX 63 55 43 56 62 57 44 58 47 59 61 60 80 61 45 62 46 63 60 65
REMARK SMILES IDX 81 66 48 67 32 68 33 69 41 70 34 71 35 72 39 73 42 74 36 75
REMARK SMILES IDX 37 76 40 77 38 78 64 79 65 80 73 81 66 82 67 83 71 84 74 85
REMARK SMILES IDX 68 86 69 87 72 88 70 89 49 90 50 91 58 92 51 93 52 94 56 95
REMARK SMILES IDX 59 96 53 97 54 98 57 99 55 100
REMARK H PARENT 79 53 47 64
REMARK Flexibility Score: inf
ROOT
ATOM      1  C   UNL A   1      37.052  21.472  25.494  1.00  0.00     0.188 C 
ENDROOT
BRANCH   1   2
ATOM      2  C   UNL A   1      35.708  20.844  25.123  1.00  0.00     0.188 C 
BRANCH   2   3
ATOM      3  O   UNL A   1      34.689  21.669  24.582  1.00  0.00    -0.376 OA
BRANCH   3   4
ATOM      4  C   UNL A   1      33.448  21.081  24.197  1.00  0.00     0.202 C 
BRANCH   4   5
ATOM      5  C   UNL A   1      32.134  21.852  24.464  1.00  0.00     0.261 C 
BRANCH   5   6
ATOM      6  O   UNL A   1      31.733  21.942  25.857  1.00  0.00    -0.462 OA
BRANCH   6   7
ATOM      7  C   UNL A   1      31.849  23.136  26.501  1.00  0.00     0.321 C 
ATOM      8  O   UNL A   1      31.476  23.316  27.657  1.00  0.00    -0.251 OA
BRANCH   7   9
ATOM      9  C   UNL A   1      32.507  24.265  25.676  1.00  0.00     0.226 C 
BRANCH   9  10
ATOM     10  N   UNL A   1      31.620  25.241  24.978  1.00  0.00    -0.175 NA
BRANCH  10  11
ATOM     11  C   UNL A   1      30.671  25.900  25.942  1.00  0.00     0.192 C 
BRANCH  11  12
ATOM     12  C   UNL A   1      31.238  27.080  26.713  1.00  0.00    -0.090 C 
ATOM     13  C   UNL A   1      31.725  28.093  27.375  1.00  0.00     0.005 C 
ENDBRANCH  11  12
ENDBRANCH  10  11
BRANCH  10  14
ATOM     14  S   UNL A   1      32.236  26.270  23.777  1.00  0.00     0.244 S 
ATOM     15  O   UNL A   1      33.374  26.969  24.342  1.00  0.00    -0.207 OA
ATOM     16  O   UNL A   1      32.363  25.453  22.586  1.00  0.00    -0.207 OA
BRANCH  14  17
ATOM     17  C   UNL A   1      31.113  27.580  23.357  1.00  0.00     0.082 A 
ATOM     18  C   UNL A   1      31.603  28.881  23.471  1.00  0.00     0.022 A 
ATOM     19  C   UNL A   1      29.748  27.381  23.166  1.00  0.00     0.022 A 
ATOM     20  C   UNL A   1      30.740  29.971  23.367  1.00  0.00     0.005 A 
ATOM     21  C   UNL A   1      28.885  28.482  23.042  1.00  0.00     0.005 A 
ATOM     22  C   UNL A   1      29.365  29.799  23.129  1.00  0.00    -0.043 A 
BRANCH  22  23
ATOM     23  C   UNL A   1      28.469  31.038  22.964  1.00  0.00    -0.013 C 
ATOM     24  C   UNL A   1      29.175  32.285  23.539  1.00  0.00     0.016 C 
ATOM     25  C   UNL A   1      28.197  31.252  21.458  1.00  0.00     0.016 C 
ATOM     26  C   UNL A   1      27.098  30.922  23.663  1.00  0.00     0.016 C 
ENDBRANCH  22  23
ENDBRANCH  14  17
ENDBRANCH  10  14
ENDBRANCH   9  10
ENDBRANCH   7   9
ENDBRANCH   6   7
ENDBRANCH   5   6
ENDBRANCH   4   5
ENDBRANCH   3   4
ENDBRANCH   2   3
ENDBRANCH   1   2
BRANCH   1  27
ATOM     27  O   UNL A   1      38.184  20.854  24.928  1.00  0.00    -0.377 OA
BRANCH  27  28
ATOM     28  C   UNL A   1      38.571  19.608  25.478  1.00  0.00     0.188 C 
BRANCH  28  29
ATOM     29  C   UNL A   1      40.059  19.451  25.819  1.00  0.00     0.188 C 
BRANCH  29  30
ATOM     30  O   UNL A   1      40.436  20.082  27.030  1.00  0.00    -0.376 OA
BRANCH  30  31
ATOM     31  C   UNL A   1      40.809  21.449  27.091  1.00  0.00     0.202 C 
BRANCH  31  32
ATOM     32  C   UNL A   1      41.469  22.250  25.952  1.00  0.00     0.261 C 
BRANCH  32  33
ATOM     33  O   UNL A   1      42.825  22.676  26.103  1.00  0.00    -0.460 OA
BRANCH  33  34
ATOM     34  C   UNL A   1      43.193  23.849  25.565  1.00  0.00     0.338 C 
ATOM     35  O   UNL A   1      43.711  24.033  24.473  1.00  0.00    -0.246 OA
BRANCH  34  36
ATOM     36  C   UNL A   1      42.685  24.915  26.450  1.00  0.00     0.060 A 
ATOM     37  C   UNL A   1      43.574  25.902  26.893  1.00  0.00     0.016 A 
ATOM     38  C   UNL A   1      41.343  24.941  26.845  1.00  0.00     0.016 A 
ATOM     39  C   UNL A   1      43.135  26.896  27.764  1.00  0.00     0.010 A 
ATOM     40  C   UNL A   1      40.911  25.924  27.742  1.00  0.00     0.010 A 
ATOM     41  C   UNL A   1      41.815  26.884  28.229  1.00  0.00    -0.014 A 
BRANCH  41  42
ATOM     42  C   UNL A   1      41.438  27.766  29.358  1.00  0.00     0.031 A 
ATOM     43  C   UNL A   1      42.235  27.684  30.629  1.00  0.00     0.074 A 
ATOM     44  C   UNL A   1      40.435  28.653  29.238  1.00  0.00     0.049 A 
ATOM     45  N   UNL A   1      42.075  28.326  31.757  1.00  0.00    -0.248 NA
ATOM     46  C   UNL A   1      43.372  26.749  30.625  1.00  0.00     0.031 C 
ATOM     47  C   UNL A   1      39.632  28.859  28.036  1.00  0.00     0.029 A 
ATOM     48  N   UNL A   1      39.921  29.544  30.146  1.00  0.00    -0.354 N 
ATOM     49  C   UNL A   1      43.083  27.870  32.596  1.00  0.00     0.074 A 
ATOM     50  C   UNL A   1      43.833  26.876  31.860  1.00  0.00     0.031 C 
ATOM     51  C   UNL A   1      38.713  29.808  28.284  1.00  0.00     0.029 A 
ATOM     52  C   UNL A   1      38.841  30.246  29.673  1.00  0.00     0.049 A 
ATOM     53  H   UNL A   1      40.291  29.667  31.050  1.00  0.00     0.167 HD
ATOM     54  C   UNL A   1      43.361  28.254  33.865  1.00  0.00     0.037 A 
ATOM     55  C   UNL A   1      38.031  31.120  30.304  1.00  0.00     0.037 A 
ATOM     56  C   UNL A   1      42.603  29.239  34.591  1.00  0.00     0.049 A 
ATOM     57  C   UNL A   1      38.305  31.459  31.747  1.00  0.00     0.074 A 
ATOM     58  C   UNL A   1      42.808  29.712  35.874  1.00  0.00     0.029 A 
ATOM     59  N   UNL A   1      41.484  29.894  34.097  1.00  0.00    -0.354 N 
ATOM     60  N   UNL A   1      39.273  31.045  32.529  1.00  0.00    -0.248 NA
ATOM     61  C   UNL A   1      37.370  32.389  32.397  1.00  0.00     0.031 C 
ATOM     62  C   UNL A   1      41.774  30.601  36.182  1.00  0.00     0.029 A 
ATOM     63  C   UNL A   1      40.963  30.737  35.065  1.00  0.00     0.049 A 
ATOM     64  H   UNL A   1      41.114  29.776  33.192  1.00  0.00     0.167 HD
ATOM     65  C   UNL A   1      39.080  31.679  33.750  1.00  0.00     0.074 A 
ATOM     66  C   UNL A   1      37.913  32.524  33.598  1.00  0.00     0.031 C 
ATOM     67  C   UNL A   1      39.799  31.571  34.895  1.00  0.00     0.037 A 
BRANCH  54  68
ATOM     68  C   UNL A   1      44.505  27.575  34.562  1.00  0.00     0.064 A 
ATOM     69  C   UNL A   1      44.317  26.442  35.368  1.00  0.00     0.173 A 
ATOM     70  C   UNL A   1      45.816  28.049  34.397  1.00  0.00     0.173 A 
ATOM     71  F   UNL A   1      43.083  25.955  35.572  1.00  0.00    -0.203 F 
ATOM     72  C   UNL A   1      45.393  25.826  36.003  1.00  0.00     0.198 A 
ATOM     73  C   UNL A   1      46.893  27.412  35.007  1.00  0.00     0.198 A 
ATOM     74  F   UNL A   1      46.054  29.128  33.636  1.00  0.00    -0.203 F 
ATOM     75  F   UNL A   1      45.183  24.776  36.809  1.00  0.00    -0.200 F 
ATOM     76  C   UNL A   1      46.681  26.307  35.816  1.00  0.00     0.200 A 
ATOM     77  F   UNL A   1      48.137  27.870  34.812  1.00  0.00    -0.200 F 
ATOM     78  F   UNL A   1      47.717  25.708  36.420  1.00  0.00    -0.200 F 
ENDBRANCH  54  68
BRANCH  55  79
ATOM     79  C   UNL A   1      36.872  31.714  29.586  1.00  0.00     0.064 A 
ATOM     80  C   UNL A   1      35.781  30.928  29.192  1.00  0.00     0.173 A 
ATOM     81  C   UNL A   1      36.843  33.079  29.258  1.00  0.00     0.173 A 
ATOM     82  F   UNL A   1      35.771  29.614  29.458  1.00  0.00    -0.203 F 
ATOM     83  C   UNL A   1      34.715  31.478  28.482  1.00  0.00     0.198 A 
ATOM     84  C   UNL A   1      35.762  33.634  28.577  1.00  0.00     0.198 A 
ATOM     85  F   UNL A   1      37.862  33.876  29.608  1.00  0.00    -0.203 F 
ATOM     86  F   UNL A   1      33.710  30.693  28.072  1.00  0.00    -0.200 F 
ATOM     87  C   UNL A   1      34.703  32.832  28.180  1.00  0.00     0.200 A 
ATOM     88  F   UNL A   1      35.749  34.946  28.302  1.00  0.00    -0.200 F 
ATOM     89  F   UNL A   1      33.676  33.361  27.502  1.00  0.00    -0.200 F 
ENDBRANCH  55  79
BRANCH  67  90
ATOM     90  C   UNL A   1      39.361  32.405  36.066  1.00  0.00     0.064 A 
ATOM     91  C   UNL A   1      39.863  33.697  36.282  1.00  0.00     0.173 A 
ATOM     92  C   UNL A   1      38.395  31.920  36.963  1.00  0.00     0.173 A 
ATOM     93  F   UNL A   1      40.798  34.203  35.463  1.00  0.00    -0.203 F 
ATOM     94  C   UNL A   1      39.439  34.459  37.367  1.00  0.00     0.198 A 
ATOM     95  C   UNL A   1      37.945  32.699  38.025  1.00  0.00     0.198 A 
ATOM     96  F   UNL A   1      37.874  30.694  36.798  1.00  0.00    -0.203 F 
ATOM     97  F   UNL A   1      39.975  35.668  37.584  1.00  0.00    -0.200 F 
ATOM     98  C   UNL A   1      38.475  33.963  38.232  1.00  0.00     0.200 A 
ATOM     99  F   UNL A   1      37.001  32.226  38.849  1.00  0.00    -0.200 F 
ATOM    100  F   UNL A   1      38.061  34.703  39.271  1.00  0.00    -0.200 F 
ENDBRANCH  67  90
ENDBRANCH  41  42
ENDBRANCH  34  36
ENDBRANCH  33  34
ENDBRANCH  32  33
ENDBRANCH  31  32
ENDBRANCH  30  31
ENDBRANCH  29  30
ENDBRANCH  28  29
ENDBRANCH  27  28
ENDBRANCH   1  27
TORSDOF 26
ENDMDL
MODEL 3
REMARK VINA RESULT:      -8.8      4.754      7.524
REMARK SMILES C#CCN(CC(=O)OCCOCCOCCOCCOC(=O)c1ccc(-c2c3nc(c(-c4c(F)c(F)c(F)c(F)c4F)c4ccc([nH]4)c(-c4c(F)c(F)c(F)c(F)c4F)c4nc(c(-c5c(F)c(F)c(F)c(F)c5F)c5ccc2[nH]5)C=C4)C=C3)cc1)S(=O)(=O)c1ccc(C(C)(C)C)cc1
REMARK SMILES IDX 13 1 12 2 11 3 10 4 9 5 8 6 6 7 7 8 5 9 4 10 3 11 2 12 1 13
REMARK SMILES IDX 86 14 87 15 88 16 89 17 90 18 98 19 91 20 97 21 92 22 93 23
REMARK SMILES IDX 94 24 95 25 96 26 14 27 15 28 16 29 17 30 18 31 19 32 20 33
REMARK SMILES IDX 21 34 22 35 23 36 24 37 85 38 25 39 84 40 26 41 27 42 28 43
REMARK SMILES IDX 78 44 29 45 83 46 77 47 79 48 30 49 82 50 76 51 75 52 31 54
REMARK SMILES IDX 63 55 43 56 62 57 44 58 47 59 61 60 80 61 45 62 46 63 60 65
REMARK SMILES IDX 81 66 48 67 32 68 33 69 41 70 34 71 35 72 39 73 42 74 36 75
REMARK SMILES IDX 37 76 40 77 38 78 64 79 65 80 73 81 66 82 67 83 71 84 74 85
REMARK SMILES IDX 68 86 69 87 72 88 70 89 49 90 50 91 58 92 51 93 52 94 56 95
REMARK SMILES IDX 59 96 53 97 54 98 57 99 55 100
REMARK H PARENT 79 53 47 64
REMARK Flexibility Score: inf
ROOT
ATOM      1  C   UNL A   1      35.632  20.467  24.992  1.00  0.00     0.188 C 
ENDROOT
BRANCH   1   2
ATOM      2  C   UNL A   1      34.515  21.382  24.489  1.00  0.00     0.188 C 
BRANCH   2   3
ATOM      3  O   UNL A   1      33.166  20.966  24.634  1.00  0.00    -0.376 OA
BRANCH   3   4
ATOM      4  C   UNL A   1      32.378  20.738  23.468  1.00  0.00     0.202 C 
BRANCH   4   5
ATOM      5  C   UNL A   1      32.020  21.934  22.555  1.00  0.00     0.261 C 
BRANCH   5   6
ATOM      6  O   UNL A   1      33.142  22.744  22.117  1.00  0.00    -0.462 OA
BRANCH   6   7
ATOM      7  C   UNL A   1      33.078  24.097  22.267  1.00  0.00     0.321 C 
ATOM      8  O   UNL A   1      33.159  24.883  21.327  1.00  0.00    -0.251 OA
BRANCH   7   9
ATOM      9  C   UNL A   1      32.874  24.586  23.718  1.00  0.00     0.226 C 
BRANCH   9  10
ATOM     10  N   UNL A   1      31.970  25.749  23.954  1.00  0.00    -0.175 NA
BRANCH  10  11
ATOM     11  C   UNL A   1      30.782  25.354  24.788  1.00  0.00     0.192 C 
BRANCH  11  12
ATOM     12  C   UNL A   1      29.454  25.960  24.365  1.00  0.00    -0.090 C 
ATOM     13  C   UNL A   1      28.315  26.480  24.001  1.00  0.00     0.005 C 
ENDBRANCH  11  12
ENDBRANCH  10  11
BRANCH  10  14
ATOM     14  S   UNL A   1      32.601  27.285  24.305  1.00  0.00     0.244 S 
ATOM     15  O   UNL A   1      32.563  27.454  25.745  1.00  0.00    -0.207 OA
ATOM     16  O   UNL A   1      33.844  27.379  23.563  1.00  0.00    -0.207 OA
BRANCH  14  17
ATOM     17  C   UNL A   1      31.570  28.601  23.707  1.00  0.00     0.082 A 
ATOM     18  C   UNL A   1      31.180  29.561  24.641  1.00  0.00     0.022 A 
ATOM     19  C   UNL A   1      30.960  28.581  22.456  1.00  0.00     0.022 A 
ATOM     20  C   UNL A   1      30.209  30.506  24.316  1.00  0.00     0.005 A 
ATOM     21  C   UNL A   1      29.996  29.548  22.125  1.00  0.00     0.005 A 
ATOM     22  C   UNL A   1      29.609  30.536  23.045  1.00  0.00    -0.043 A 
BRANCH  22  23
ATOM     23  C   UNL A   1      28.586  31.639  22.722  1.00  0.00    -0.013 C 
ATOM     24  C   UNL A   1      28.280  31.653  21.209  1.00  0.00     0.016 C 
ATOM     25  C   UNL A   1      27.286  31.350  23.506  1.00  0.00     0.016 C 
ATOM     26  C   UNL A   1      29.048  33.059  23.112  1.00  0.00     0.016 C 
ENDBRANCH  22  23
ENDBRANCH  14  17
ENDBRANCH  10  14
ENDBRANCH   9  10
ENDBRANCH   7   9
ENDBRANCH   6   7
ENDBRANCH   5   6
ENDBRANCH   4   5
ENDBRANCH   3   4
ENDBRANCH   2   3
ENDBRANCH   1   2
BRANCH   1  27
ATOM     27  O   UNL A   1      36.621  21.094  25.773  1.00  0.00    -0.377 OA
BRANCH  27  28
ATOM     28  C   UNL A   1      37.773  21.554  25.091  1.00  0.00     0.188 C 
BRANCH  28  29
ATOM     29  C   UNL A   1      38.999  21.860  25.965  1.00  0.00     0.188 C 
BRANCH  29  30
ATOM     30  O   UNL A   1      39.859  20.750  26.150  1.00  0.00    -0.376 OA
BRANCH  30  31
ATOM     31  C   UNL A   1      41.209  20.895  26.559  1.00  0.00     0.202 C 
BRANCH  31  32
ATOM     32  C   UNL A   1      42.215  21.913  25.987  1.00  0.00     0.261 C 
BRANCH  32  33
ATOM     33  O   UNL A   1      42.412  23.151  26.673  1.00  0.00    -0.460 OA
BRANCH  33  34
ATOM     34  C   UNL A   1      42.562  24.269  25.948  1.00  0.00     0.338 C 
ATOM     35  O   UNL A   1      42.734  24.353  24.741  1.00  0.00    -0.246 OA
BRANCH  34  36
ATOM     36  C   UNL A   1      42.291  25.411  26.844  1.00  0.00     0.060 A 
ATOM     37  C   UNL A   1      42.745  26.681  26.472  1.00  0.00     0.016 A 
ATOM     38  C   UNL A   1      41.596  25.230  28.045  1.00  0.00     0.016 A 
ATOM     39  C   UNL A   1      42.543  27.770  27.317  1.00  0.00     0.010 A 
ATOM     40  C   UNL A   1      41.418  26.319  28.905  1.00  0.00     0.010 A 
ATOM     41  C   UNL A   1      41.921  27.585  28.557  1.00  0.00    -0.014 A 
BRANCH  41  42
ATOM     42  C   UNL A   1      41.962  28.678  29.556  1.00  0.00     0.031 A 
ATOM     43  C   UNL A   1      43.193  28.829  30.404  1.00  0.00     0.074 A 
ATOM     44  C   UNL A   1      40.942  29.546  29.674  1.00  0.00     0.049 A 
ATOM     45  N   UNL A   1      43.447  29.682  31.362  1.00  0.00    -0.248 NA
ATOM     46  C   UNL A   1      44.291  27.887  30.131  1.00  0.00     0.031 C 
ATOM     47  C   UNL A   1      39.725  29.529  28.868  1.00  0.00     0.029 A 
ATOM     48  N   UNL A   1      40.770  30.607  30.527  1.00  0.00    -0.354 N 
ATOM     49  C   UNL A   1      44.726  29.377  31.809  1.00  0.00     0.074 A 
ATOM     50  C   UNL A   1      45.187  28.243  31.038  1.00  0.00     0.031 C 
ATOM     51  C   UNL A   1      38.921  30.528  29.273  1.00  0.00     0.029 A 
ATOM     52  C   UNL A   1      39.553  31.226  30.392  1.00  0.00     0.049 A 
ATOM     53  H   UNL A   1      41.454  30.896  31.173  1.00  0.00     0.167 HD
ATOM     54  C   UNL A   1      45.452  29.995  32.771  1.00  0.00     0.037 A 
ATOM     55  C   UNL A   1      39.003  32.223  31.114  1.00  0.00     0.037 A 
ATOM     56  C   UNL A   1      44.980  31.118  33.537  1.00  0.00     0.049 A 
ATOM     57  C   UNL A   1      39.795  32.832  32.243  1.00  0.00     0.074 A 
ATOM     58  C   UNL A   1      45.639  31.828  34.524  1.00  0.00     0.029 A 
ATOM     59  N   UNL A   1      43.721  31.688  33.408  1.00  0.00    -0.354 N 
ATOM     60  N   UNL A   1      41.013  32.557  32.645  1.00  0.00    -0.248 NA
ATOM     61  C   UNL A   1      39.133  33.889  33.020  1.00  0.00     0.031 C 
ATOM     62  C   UNL A   1      44.756  32.782  35.039  1.00  0.00     0.029 A 
ATOM     63  C   UNL A   1      43.569  32.715  34.325  1.00  0.00     0.049 A 
ATOM     64  H   UNL A   1      43.036  31.404  32.760  1.00  0.00     0.167 HD
ATOM     65  C   UNL A   1      41.272  33.421  33.702  1.00  0.00     0.074 A 
ATOM     66  C   UNL A   1      40.091  34.244  33.864  1.00  0.00     0.031 C 
ATOM     67  C   UNL A   1      42.384  33.523  34.472  1.00  0.00     0.037 A 
BRANCH  54  68
ATOM     68  C   UNL A   1      46.814  29.441  33.078  1.00  0.00     0.064 A 
ATOM     69  C   UNL A   1      47.011  28.450  34.052  1.00  0.00     0.173 A 
ATOM     70  C   UNL A   1      47.937  29.889  32.365  1.00  0.00     0.173 A 
ATOM     71  F   UNL A   1      45.974  27.997  34.773  1.00  0.00    -0.203 F 
ATOM     72  C   UNL A   1      48.283  27.949  34.318  1.00  0.00     0.198 A 
ATOM     73  C   UNL A   1      49.202  29.363  32.611  1.00  0.00     0.198 A 
ATOM     74  F   UNL A   1      47.806  30.833  31.421  1.00  0.00    -0.203 F 
ATOM     75  F   UNL A   1      48.454  27.040  35.288  1.00  0.00    -0.200 F 
ATOM     76  C   UNL A   1      49.376  28.400  33.592  1.00  0.00     0.200 A 
ATOM     77  F   UNL A   1      50.253  29.789  31.898  1.00  0.00    -0.200 F 
ATOM     78  F   UNL A   1      50.598  27.910  33.844  1.00  0.00    -0.200 F 
ENDBRANCH  54  68
BRANCH  55  79
ATOM     79  C   UNL A   1      37.624  32.690  30.810  1.00  0.00     0.064 A 
ATOM     80  C   UNL A   1      37.360  33.503  29.699  1.00  0.00     0.173 A 
ATOM     81  C   UNL A   1      36.543  32.351  31.640  1.00  0.00     0.173 A 
ATOM     82  F   UNL A   1      38.361  33.876  28.890  1.00  0.00    -0.203 F 
ATOM     83  C   UNL A   1      36.074  33.975  29.441  1.00  0.00     0.198 A 
ATOM     84  C   UNL A   1      35.252  32.797  31.362  1.00  0.00     0.198 A 
ATOM     85  F   UNL A   1      36.739  31.578  32.718  1.00  0.00    -0.203 F 
ATOM     86  F   UNL A   1      35.860  34.793  28.402  1.00  0.00    -0.200 F 
ATOM     87  C   UNL A   1      35.020  33.616  30.268  1.00  0.00     0.200 A 
ATOM     88  F   UNL A   1      34.236  32.433  32.156  1.00  0.00    -0.200 F 
ATOM     89  F   UNL A   1      33.783  34.066  30.017  1.00  0.00    -0.200 F 
ENDBRANCH  55  79
BRANCH  67  90
ATOM     90  C   UNL A   1      42.388  34.579  35.542  1.00  0.00     0.064 A 
ATOM     91  C   UNL A   1      42.823  35.888  35.287  1.00  0.00     0.173 A 
ATOM     92  C   UNL A   1      41.912  34.287  36.830  1.00  0.00     0.173 A 
ATOM     93  F   UNL A   1      43.301  36.216  34.077  1.00  0.00    -0.203 F 
ATOM     94  C   UNL A   1      42.811  36.856  36.288  1.00  0.00     0.198 A 
ATOM     95  C   UNL A   1      41.865  35.267  37.818  1.00  0.00     0.198 A 
ATOM     96  F   UNL A   1      41.474  33.053  37.127  1.00  0.00    -0.203 F 
ATOM     97  F   UNL A   1      43.284  38.084  36.035  1.00  0.00    -0.200 F 
ATOM     98  C   UNL A   1      42.324  36.546  37.550  1.00  0.00     0.200 A 
ATOM     99  F   UNL A   1      41.378  34.971  39.031  1.00  0.00    -0.200 F 
ATOM    100  F   UNL A   1      42.305  37.482  38.509  1.00  0.00    -0.200 F 
ENDBRANCH  67  90
ENDBRANCH  41  42
ENDBRANCH  34  36
ENDBRANCH  33  34
ENDBRANCH  32  33
ENDBRANCH  31  32
ENDBRANCH  30  31
ENDBRANCH  29  30
ENDBRANCH  28  29
ENDBRANCH  27  28
ENDBRANCH   1  27
TORSDOF 26
ENDMDL
