MODEL 1
REMARK VINA RESULT:     -10.6      0.000      0.000
REMARK SMILES Cc1ccccc1SCC(=O)N[C@H]1C=C[C@H](C(=O)OCCOCCOCCOCCOC(=O)c2ccc(-c3c4nc(c(-c5c(F)c(F)c(F)c(F)c5F)c5ccc([nH]5)c(-c5c(F)c(F)c(F)c(F)c5F)c5nc(c(-c6c(F)c(F)c(F)c(F)c6F)c6ccc3[nH]6)C=C5)C=C4)cc2)C1
REMARK SMILES IDX 24 1 23 2 22 3 21 4 20 5 19 6 17 7 18 8 16 9 13 10 14 11
REMARK SMILES IDX 97 12 15 13 12 14 10 15 11 16 9 18 8 19 7 20 1 21 2 22 3 23
REMARK SMILES IDX 4 24 6 25 5 26 25 27 26 28 27 29 28 30 29 31 30 32 31 33
REMARK SMILES IDX 32 34 33 35 34 36 35 37 96 38 36 39 95 40 37 41 38 42 39 43
REMARK SMILES IDX 89 44 40 45 94 46 88 47 90 48 41 49 93 50 87 51 86 52 42 54
REMARK SMILES IDX 74 55 54 56 73 57 55 58 58 59 72 60 91 61 56 62 57 63 71 65
REMARK SMILES IDX 92 66 59 67 43 68 44 69 52 70 45 71 46 72 50 73 53 74 47 75
REMARK SMILES IDX 48 76 51 77 49 78 75 79 76 80 84 81 77 82 78 83 82 84 85 85
REMARK SMILES IDX 79 86 80 87 83 88 81 89 60 90 61 91 69 92 62 93 63 94 67 95
REMARK SMILES IDX 70 96 64 97 65 98 68 99 66 100
REMARK H PARENT 12 17 90 53 58 64
REMARK Flexibility Score: inf
ROOT
ATOM      1  C   UNL A   1      33.841  33.725  28.476  1.00  0.00     0.188 C 
ENDROOT
BRANCH   1   2
ATOM      2  C   UNL A   1      33.149  32.627  27.654  1.00  0.00     0.188 C 
BRANCH   2   3
ATOM      3  O   UNL A   1      31.833  32.988  27.285  1.00  0.00    -0.376 OA
BRANCH   3   4
ATOM      4  C   UNL A   1      31.263  32.123  26.321  1.00  0.00     0.202 C 
BRANCH   4   5
ATOM      5  C   UNL A   1      31.907  30.779  26.525  1.00  0.00     0.261 C 
BRANCH   5   6
ATOM      6  O   UNL A   1      31.826  30.098  25.271  1.00  0.00    -0.463 OA
BRANCH   6   7
ATOM      7  C   UNL A   1      31.409  28.822  25.369  1.00  0.00     0.312 C 
ATOM      8  O   UNL A   1      31.807  28.020  26.211  1.00  0.00    -0.252 OA
BRANCH   7   9
ATOM      9  C   UNL A   1      30.246  28.598  24.410  1.00  0.00     0.124 C 
ATOM     10  C   UNL A   1      31.564  27.660  22.668  1.00  0.00     0.106 C 
ATOM     11  C   UNL A   1      31.056  29.014  22.258  1.00  0.00    -0.006 C 
ATOM     12  C   UNL A   1      30.478  27.279  23.673  1.00  0.00     0.048 C 
ATOM     13  C   UNL A   1      30.332  29.553  23.255  1.00  0.00    -0.014 C 
BRANCH  10  14
ATOM     14  N   UNL A   1      31.733  26.753  21.576  1.00  0.00    -0.349 N 
ATOM     15  C   UNL A   1      32.806  25.932  21.355  1.00  0.00     0.230 C 
ATOM     16  O   UNL A   1      32.897  25.428  20.229  1.00  0.00    -0.274 OA
ATOM     17  H   UNL A   1      31.004  26.716  20.916  1.00  0.00     0.164 HD
BRANCH  15  18
ATOM     18  C   UNL A   1      33.753  25.484  22.462  1.00  0.00     0.174 C 
BRANCH  18  19
ATOM     19  S   UNL A   1      33.065  24.995  24.063  1.00  0.00    -0.116 SA
BRANCH  19  20
ATOM     20  C   UNL A   1      33.579  23.403  24.651  1.00  0.00     0.011 A 
ATOM     21  C   UNL A   1      32.633  21.827  22.867  1.00  0.00     0.045 C 
ATOM     22  C   UNL A   1      33.434  22.130  24.093  1.00  0.00    -0.038 A 
ATOM     23  C   UNL A   1      34.110  21.041  24.688  1.00  0.00     0.004 A 
ATOM     24  C   UNL A   1      34.842  21.181  25.864  1.00  0.00     0.000 A 
ATOM     25  C   UNL A   1      34.292  23.512  25.873  1.00  0.00     0.015 A 
ATOM     26  C   UNL A   1      34.904  22.416  26.481  1.00  0.00     0.001 A 
ENDBRANCH  19  20
ENDBRANCH  18  19
ENDBRANCH  15  18
ENDBRANCH  10  14
ENDBRANCH   7   9
ENDBRANCH   6   7
ENDBRANCH   5   6
ENDBRANCH   4   5
ENDBRANCH   3   4
ENDBRANCH   2   3
ENDBRANCH   1   2
BRANCH   1  27
ATOM     27  O   UNL A   1      33.065  34.843  28.891  1.00  0.00    -0.377 OA
BRANCH  27  28
ATOM     28  C   UNL A   1      33.454  36.135  28.452  1.00  0.00     0.188 C 
BRANCH  28  29
ATOM     29  C   UNL A   1      33.347  37.323  29.393  1.00  0.00     0.188 C 
BRANCH  29  30
ATOM     30  O   UNL A   1      32.716  36.862  30.580  1.00  0.00    -0.376 OA
BRANCH  30  31
ATOM     31  C   UNL A   1      33.075  37.526  31.782  1.00  0.00     0.202 C 
BRANCH  31  32
ATOM     32  C   UNL A   1      34.084  36.730  32.618  1.00  0.00     0.261 C 
BRANCH  32  33
ATOM     33  O   UNL A   1      34.611  35.668  31.800  1.00  0.00    -0.460 OA
BRANCH  33  34
ATOM     34  C   UNL A   1      34.163  34.419  32.099  1.00  0.00     0.338 C 
ATOM     35  O   UNL A   1      33.176  34.160  32.765  1.00  0.00    -0.246 OA
BRANCH  34  36
ATOM     36  C   UNL A   1      35.208  33.417  31.735  1.00  0.00     0.060 A 
ATOM     37  C   UNL A   1      35.023  32.060  32.055  1.00  0.00     0.016 A 
ATOM     38  C   UNL A   1      36.463  33.856  31.324  1.00  0.00     0.016 A 
ATOM     39  C   UNL A   1      36.118  31.179  32.085  1.00  0.00     0.010 A 
ATOM     40  C   UNL A   1      37.546  33.000  31.426  1.00  0.00     0.010 A 
ATOM     41  C   UNL A   1      37.404  31.663  31.839  1.00  0.00    -0.014 A 
BRANCH  41  42
ATOM     42  C   UNL A   1      38.666  30.955  32.167  1.00  0.00     0.031 A 
ATOM     43  C   UNL A   1      39.030  29.704  31.410  1.00  0.00     0.074 A 
ATOM     44  C   UNL A   1      39.618  31.661  32.834  1.00  0.00     0.049 A 
ATOM     45  N   UNL A   1      40.141  29.051  31.515  1.00  0.00    -0.248 NA
ATOM     46  C   UNL A   1      38.138  29.072  30.436  1.00  0.00     0.031 C 
ATOM     47  C   UNL A   1      41.066  31.531  32.702  1.00  0.00     0.029 A 
ATOM     48  N   UNL A   1      39.492  32.745  33.714  1.00  0.00    -0.354 N 
ATOM     49  C   UNL A   1      40.269  28.216  30.413  1.00  0.00     0.074 A 
ATOM     50  C   UNL A   1      38.939  28.165  29.864  1.00  0.00     0.031 C 
ATOM     51  C   UNL A   1      41.707  32.436  33.457  1.00  0.00     0.029 A 
ATOM     52  C   UNL A   1      40.723  32.922  34.384  1.00  0.00     0.049 A 
ATOM     53  H   UNL A   1      38.683  33.291  33.842  1.00  0.00     0.167 HD
ATOM     54  C   UNL A   1      41.520  27.814  30.009  1.00  0.00     0.037 A 
ATOM     55  C   UNL A   1      40.803  32.649  35.720  1.00  0.00     0.037 A 
ATOM     56  C   UNL A   1      42.544  28.173  31.022  1.00  0.00     0.049 A 
ATOM     57  C   UNL A   1      41.577  31.363  35.971  1.00  0.00     0.074 A 
ATOM     58  C   UNL A   1      43.756  28.843  30.985  1.00  0.00     0.029 A 
ATOM     59  N   UNL A   1      42.267  27.997  32.384  1.00  0.00    -0.354 N 
ATOM     60  N   UNL A   1      41.686  30.412  35.069  1.00  0.00    -0.248 NA
ATOM     61  C   UNL A   1      42.432  31.109  37.128  1.00  0.00     0.031 C 
ATOM     62  C   UNL A   1      44.090  29.235  32.316  1.00  0.00     0.029 A 
ATOM     63  C   UNL A   1      43.152  28.693  33.182  1.00  0.00     0.049 A 
ATOM     64  H   UNL A   1      41.530  27.443  32.730  1.00  0.00     0.167 HD
ATOM     65  C   UNL A   1      42.666  29.534  35.428  1.00  0.00     0.074 A 
ATOM     66  C   UNL A   1      43.063  29.977  36.753  1.00  0.00     0.031 C 
ATOM     67  C   UNL A   1      43.139  28.529  34.631  1.00  0.00     0.037 A 
BRANCH  54  68
ATOM     68  C   UNL A   1      41.897  27.307  28.594  1.00  0.00     0.064 A 
ATOM     69  C   UNL A   1      41.775  28.151  27.459  1.00  0.00     0.173 A 
ATOM     70  C   UNL A   1      42.281  25.986  28.262  1.00  0.00     0.173 A 
ATOM     71  F   UNL A   1      41.466  29.447  27.588  1.00  0.00    -0.203 F 
ATOM     72  C   UNL A   1      41.976  27.707  26.138  1.00  0.00     0.198 A 
ATOM     73  C   UNL A   1      42.551  25.564  26.949  1.00  0.00     0.198 A 
ATOM     74  F   UNL A   1      42.366  25.015  29.172  1.00  0.00    -0.203 F 
ATOM     75  F   UNL A   1      41.779  28.548  25.112  1.00  0.00    -0.200 F 
ATOM     76  C   UNL A   1      42.378  26.415  25.883  1.00  0.00     0.200 A 
ATOM     77  F   UNL A   1      42.951  24.301  26.728  1.00  0.00    -0.200 F 
ATOM     78  F   UNL A   1      42.590  25.990  24.629  1.00  0.00    -0.200 F 
ENDBRANCH  54  68
BRANCH  55  79
ATOM     79  C   UNL A   1      39.722  33.388  36.450  1.00  0.00     0.064 A 
ATOM     80  C   UNL A   1      38.771  32.517  37.037  1.00  0.00     0.173 A 
ATOM     81  C   UNL A   1      40.023  34.561  37.165  1.00  0.00     0.173 A 
ATOM     82  F   UNL A   1      38.412  31.396  36.388  1.00  0.00    -0.203 F 
ATOM     83  C   UNL A   1      38.393  32.648  38.375  1.00  0.00     0.198 A 
ATOM     84  C   UNL A   1      39.603  34.710  38.498  1.00  0.00     0.198 A 
ATOM     85  F   UNL A   1      40.888  35.455  36.665  1.00  0.00    -0.203 F 
ATOM     86  F   UNL A   1      37.707  31.665  38.976  1.00  0.00    -0.200 F 
ATOM     87  C   UNL A   1      38.855  33.719  39.118  1.00  0.00     0.200 A 
ATOM     88  F   UNL A   1      40.046  35.745  39.229  1.00  0.00    -0.200 F 
ATOM     89  F   UNL A   1      38.644  33.757  40.442  1.00  0.00    -0.200 F 
ENDBRANCH  55  79
BRANCH  67  90
ATOM     90  C   UNL A   1      43.673  27.229  35.179  1.00  0.00     0.064 A 
ATOM     91  C   UNL A   1      42.857  26.095  35.321  1.00  0.00     0.173 A 
ATOM     92  C   UNL A   1      45.066  27.006  35.313  1.00  0.00     0.173 A 
ATOM     93  F   UNL A   1      41.534  26.157  35.113  1.00  0.00    -0.203 F 
ATOM     94  C   UNL A   1      43.388  24.840  35.606  1.00  0.00     0.198 A 
ATOM     95  C   UNL A   1      45.595  25.739  35.538  1.00  0.00     0.198 A 
ATOM     96  F   UNL A   1      45.961  27.995  35.179  1.00  0.00    -0.203 F 
ATOM     97  F   UNL A   1      42.563  23.795  35.752  1.00  0.00    -0.200 F 
ATOM     98  C   UNL A   1      44.755  24.658  35.696  1.00  0.00     0.200 A 
ATOM     99  F   UNL A   1      46.925  25.568  35.563  1.00  0.00    -0.200 F 
ATOM    100  F   UNL A   1      45.261  23.437  35.910  1.00  0.00    -0.200 F 
ENDBRANCH  67  90
ENDBRANCH  41  42
ENDBRANCH  34  36
ENDBRANCH  33  34
ENDBRANCH  32  33
ENDBRANCH  31  32
ENDBRANCH  30  31
ENDBRANCH  29  30
ENDBRANCH  28  29
ENDBRANCH  27  28
ENDBRANCH   1  27
TORSDOF 24
ENDMDL
MODEL 2
REMARK VINA RESULT:     -10.3      5.182      9.720
REMARK SMILES Cc1ccccc1SCC(=O)N[C@H]1C=C[C@H](C(=O)OCCOCCOCCOCCOC(=O)c2ccc(-c3c4nc(c(-c5c(F)c(F)c(F)c(F)c5F)c5ccc([nH]5)c(-c5c(F)c(F)c(F)c(F)c5F)c5nc(c(-c6c(F)c(F)c(F)c(F)c6F)c6ccc3[nH]6)C=C5)C=C4)cc2)C1
REMARK SMILES IDX 24 1 23 2 22 3 21 4 20 5 19 6 17 7 18 8 16 9 13 10 14 11
REMARK SMILES IDX 97 12 15 13 12 14 10 15 11 16 9 18 8 19 7 20 1 21 2 22 3 23
REMARK SMILES IDX 4 24 6 25 5 26 25 27 26 28 27 29 28 30 29 31 30 32 31 33
REMARK SMILES IDX 32 34 33 35 34 36 35 37 96 38 36 39 95 40 37 41 38 42 39 43
REMARK SMILES IDX 89 44 40 45 94 46 88 47 90 48 41 49 93 50 87 51 86 52 42 54
REMARK SMILES IDX 74 55 54 56 73 57 55 58 58 59 72 60 91 61 56 62 57 63 71 65
REMARK SMILES IDX 92 66 59 67 43 68 44 69 52 70 45 71 46 72 50 73 53 74 47 75
REMARK SMILES IDX 48 76 51 77 49 78 75 79 76 80 84 81 77 82 78 83 82 84 85 85
REMARK SMILES IDX 79 86 80 87 83 88 81 89 60 90 61 91 69 92 62 93 63 94 67 95
REMARK SMILES IDX 70 96 64 97 65 98 68 99 66 100
REMARK H PARENT 12 17 90 53 58 64
REMARK Flexibility Score: inf
ROOT
ATOM      1  C   UNL A   1      36.265  33.702  29.217  1.00  0.00     0.188 C 
ENDROOT
BRANCH   1   2
ATOM      2  C   UNL A   1      34.904  33.394  29.858  1.00  0.00     0.188 C 
BRANCH   2   3
ATOM      3  O   UNL A   1      34.326  32.214  29.337  1.00  0.00    -0.376 OA
BRANCH   3   4
ATOM      4  C   UNL A   1      34.686  31.958  27.992  1.00  0.00     0.202 C 
BRANCH   4   5
ATOM      5  C   UNL A   1      33.470  31.364  27.334  1.00  0.00     0.261 C 
BRANCH   5   6
ATOM      6  O   UNL A   1      33.669  29.949  27.321  1.00  0.00    -0.463 OA
BRANCH   6   7
ATOM      7  C   UNL A   1      32.596  29.251  26.907  1.00  0.00     0.312 C 
ATOM      8  O   UNL A   1      31.893  28.554  27.635  1.00  0.00    -0.252 OA
BRANCH   7   9
ATOM      9  C   UNL A   1      32.288  29.612  25.459  1.00  0.00     0.124 C 
ATOM     10  C   UNL A   1      32.176  27.368  24.683  1.00  0.00     0.106 C 
ATOM     11  C   UNL A   1      33.395  28.046  24.123  1.00  0.00    -0.006 C 
ATOM     12  C   UNL A   1      31.291  28.592  24.910  1.00  0.00     0.048 C 
ATOM     13  C   UNL A   1      33.470  29.307  24.584  1.00  0.00    -0.014 C 
BRANCH  10  14
ATOM     14  N   UNL A   1      31.627  26.367  23.822  1.00  0.00    -0.349 N 
ATOM     15  C   UNL A   1      32.315  25.366  23.191  1.00  0.00     0.230 C 
ATOM     16  O   UNL A   1      31.722  24.772  22.281  1.00  0.00    -0.274 OA
ATOM     17  H   UNL A   1      30.655  26.402  23.668  1.00  0.00     0.164 HD
BRANCH  15  18
ATOM     18  C   UNL A   1      33.665  24.850  23.674  1.00  0.00     0.174 C 
BRANCH  18  19
ATOM     19  S   UNL A   1      33.722  23.753  25.113  1.00  0.00    -0.116 SA
BRANCH  19  20
ATOM     20  C   UNL A   1      35.158  22.716  25.214  1.00  0.00     0.011 A 
ATOM     21  C   UNL A   1      34.158  20.370  24.976  1.00  0.00     0.045 C 
ATOM     22  C   UNL A   1      35.297  21.332  25.089  1.00  0.00    -0.038 A 
ATOM     23  C   UNL A   1      36.597  20.778  25.026  1.00  0.00     0.004 A 
ATOM     24  C   UNL A   1      37.739  21.560  25.176  1.00  0.00     0.000 A 
ATOM     25  C   UNL A   1      36.333  23.485  25.410  1.00  0.00     0.015 A 
ATOM     26  C   UNL A   1      37.607  22.916  25.405  1.00  0.00     0.001 A 
ENDBRANCH  19  20
ENDBRANCH  18  19
ENDBRANCH  15  18
ENDBRANCH  10  14
ENDBRANCH   7   9
ENDBRANCH   6   7
ENDBRANCH   5   6
ENDBRANCH   4   5
ENDBRANCH   3   4
ENDBRANCH   2   3
ENDBRANCH   1   2
BRANCH   1  27
ATOM     27  O   UNL A   1      37.379  33.915  30.076  1.00  0.00    -0.377 OA
BRANCH  27  28
ATOM     28  C   UNL A   1      37.173  33.848  31.478  1.00  0.00     0.188 C 
BRANCH  28  29
ATOM     29  C   UNL A   1      37.997  32.892  32.324  1.00  0.00     0.188 C 
BRANCH  29  30
ATOM     30  O   UNL A   1      38.008  31.640  31.651  1.00  0.00    -0.376 OA
BRANCH  30  31
ATOM     31  C   UNL A   1      36.865  30.818  31.833  1.00  0.00     0.202 C 
BRANCH  31  32
ATOM     32  C   UNL A   1      36.608  29.891  30.639  1.00  0.00     0.261 C 
BRANCH  32  33
ATOM     33  O   UNL A   1      37.689  30.053  29.701  1.00  0.00    -0.460 OA
BRANCH  33  34
ATOM     34  C   UNL A   1      38.402  28.927  29.428  1.00  0.00     0.338 C 
ATOM     35  O   UNL A   1      38.182  27.819  29.885  1.00  0.00    -0.246 OA
BRANCH  34  36
ATOM     36  C   UNL A   1      39.660  29.298  28.713  1.00  0.00     0.060 A 
ATOM     37  C   UNL A   1      39.805  29.000  27.346  1.00  0.00     0.016 A 
ATOM     38  C   UNL A   1      40.774  29.689  29.449  1.00  0.00     0.016 A 
ATOM     39  C   UNL A   1      41.080  28.974  26.754  1.00  0.00     0.010 A 
ATOM     40  C   UNL A   1      42.031  29.592  28.877  1.00  0.00     0.010 A 
ATOM     41  C   UNL A   1      42.213  29.201  27.538  1.00  0.00    -0.014 A 
BRANCH  41  42
ATOM     42  C   UNL A   1      43.607  28.873  27.149  1.00  0.00     0.031 A 
ATOM     43  C   UNL A   1      44.586  29.989  26.897  1.00  0.00     0.074 A 
ATOM     44  C   UNL A   1      44.047  27.616  27.423  1.00  0.00     0.049 A 
ATOM     45  N   UNL A   1      45.849  29.851  26.659  1.00  0.00    -0.248 NA
ATOM     46  C   UNL A   1      44.203  31.403  26.898  1.00  0.00     0.031 C 
ATOM     47  C   UNL A   1      45.403  27.217  27.791  1.00  0.00     0.029 A 
ATOM     48  N   UNL A   1      43.338  26.412  27.537  1.00  0.00    -0.354 N 
ATOM     49  C   UNL A   1      46.475  31.072  26.867  1.00  0.00     0.074 A 
ATOM     50  C   UNL A   1      45.391  32.018  26.868  1.00  0.00     0.031 C 
ATOM     51  C   UNL A   1      45.467  25.905  28.062  1.00  0.00     0.029 A 
ATOM     52  C   UNL A   1      44.263  25.344  27.515  1.00  0.00     0.049 A 
ATOM     53  H   UNL A   1      42.361  26.325  27.619  1.00  0.00     0.167 HD
ATOM     54  C   UNL A   1      47.813  31.102  27.184  1.00  0.00     0.037 A 
ATOM     55  C   UNL A   1      44.290  24.504  26.439  1.00  0.00     0.037 A 
ATOM     56  C   UNL A   1      48.431  29.765  27.002  1.00  0.00     0.049 A 
ATOM     57  C   UNL A   1      45.523  24.752  25.581  1.00  0.00     0.074 A 
ATOM     58  C   UNL A   1      49.205  28.934  27.796  1.00  0.00     0.029 A 
ATOM     59  N   UNL A   1      48.095  28.990  25.883  1.00  0.00    -0.354 N 
ATOM     60  N   UNL A   1      46.160  25.902  25.569  1.00  0.00    -0.248 NA
ATOM     61  C   UNL A   1      46.249  23.726  24.837  1.00  0.00     0.031 C 
ATOM     62  C   UNL A   1      49.158  27.620  27.244  1.00  0.00     0.029 A 
ATOM     63  C   UNL A   1      48.465  27.670  26.044  1.00  0.00     0.049 A 
ATOM     64  H   UNL A   1      47.650  29.345  25.080  1.00  0.00     0.167 HD
ATOM     65  C   UNL A   1      47.377  25.760  24.970  1.00  0.00     0.074 A 
ATOM     66  C   UNL A   1      47.363  24.394  24.474  1.00  0.00     0.031 C 
ATOM     67  C   UNL A   1      48.347  26.723  24.942  1.00  0.00     0.037 A 
BRANCH  54  68
ATOM     68  C   UNL A   1      48.551  32.265  27.894  1.00  0.00     0.064 A 
ATOM     69  C   UNL A   1      48.897  33.450  27.190  1.00  0.00     0.173 A 
ATOM     70  C   UNL A   1      49.043  32.248  29.220  1.00  0.00     0.173 A 
ATOM     71  F   UNL A   1      48.475  33.659  25.936  1.00  0.00    -0.203 F 
ATOM     72  C   UNL A   1      49.680  34.480  27.743  1.00  0.00     0.198 A 
ATOM     73  C   UNL A   1      49.764  33.310  29.794  1.00  0.00     0.198 A 
ATOM     74  F   UNL A   1      48.905  31.190  30.022  1.00  0.00    -0.203 F 
ATOM     75  F   UNL A   1      50.018  35.540  26.995  1.00  0.00    -0.200 F 
ATOM     76  C   UNL A   1      50.104  34.416  29.052  1.00  0.00     0.200 A 
ATOM     77  F   UNL A   1      50.157  33.227  31.076  1.00  0.00    -0.200 F 
ATOM     78  F   UNL A   1      50.833  35.402  29.593  1.00  0.00    -0.200 F 
ENDBRANCH  54  68
BRANCH  55  79
ATOM     79  C   UNL A   1      42.911  23.979  26.176  1.00  0.00     0.064 A 
ATOM     80  C   UNL A   1      42.548  22.938  27.067  1.00  0.00     0.173 A 
ATOM     81  C   UNL A   1      41.883  24.853  25.780  1.00  0.00     0.173 A 
ATOM     82  F   UNL A   1      43.476  22.047  27.456  1.00  0.00    -0.203 F 
ATOM     83  C   UNL A   1      41.333  22.962  27.755  1.00  0.00     0.198 A 
ATOM     84  C   UNL A   1      40.645  24.844  26.445  1.00  0.00     0.198 A 
ATOM     85  F   UNL A   1      42.135  25.845  24.914  1.00  0.00    -0.203 F 
ATOM     86  F   UNL A   1      41.128  22.121  28.779  1.00  0.00    -0.200 F 
ATOM     87  C   UNL A   1      40.405  23.948  27.479  1.00  0.00     0.200 A 
ATOM     88  F   UNL A   1      39.737  25.797  26.186  1.00  0.00    -0.200 F 
ATOM     89  F   UNL A   1      39.318  24.084  28.254  1.00  0.00    -0.200 F 
ENDBRANCH  55  79
BRANCH  67  90
ATOM     90  C   UNL A   1      49.336  26.858  23.811  1.00  0.00     0.064 A 
ATOM     91  C   UNL A   1      48.986  27.457  22.590  1.00  0.00     0.173 A 
ATOM     92  C   UNL A   1      50.722  26.648  24.020  1.00  0.00     0.173 A 
ATOM     93  F   UNL A   1      47.719  27.802  22.320  1.00  0.00    -0.203 F 
ATOM     94  C   UNL A   1      49.943  27.790  21.636  1.00  0.00     0.198 A 
ATOM     95  C   UNL A   1      51.679  27.038  23.088  1.00  0.00     0.198 A 
ATOM     96  F   UNL A   1      51.198  26.107  25.150  1.00  0.00    -0.203 F 
ATOM     97  F   UNL A   1      49.554  28.340  20.478  1.00  0.00    -0.200 F 
ATOM     98  C   UNL A   1      51.288  27.599  21.891  1.00  0.00     0.200 A 
ATOM     99  F   UNL A   1      52.982  26.902  23.375  1.00  0.00    -0.200 F 
ATOM    100  F   UNL A   1      52.206  27.978  20.994  1.00  0.00    -0.200 F 
ENDBRANCH  67  90
ENDBRANCH  41  42
ENDBRANCH  34  36
ENDBRANCH  33  34
ENDBRANCH  32  33
ENDBRANCH  31  32
ENDBRANCH  30  31
ENDBRANCH  29  30
ENDBRANCH  28  29
ENDBRANCH  27  28
ENDBRANCH   1  27
TORSDOF 24
ENDMDL
MODEL 3
REMARK VINA RESULT:      -9.9      9.924     17.669
REMARK SMILES Cc1ccccc1SCC(=O)N[C@H]1C=C[C@H](C(=O)OCCOCCOCCOCCOC(=O)c2ccc(-c3c4nc(c(-c5c(F)c(F)c(F)c(F)c5F)c5ccc([nH]5)c(-c5c(F)c(F)c(F)c(F)c5F)c5nc(c(-c6c(F)c(F)c(F)c(F)c6F)c6ccc3[nH]6)C=C5)C=C4)cc2)C1
REMARK SMILES IDX 24 1 23 2 22 3 21 4 20 5 19 6 17 7 18 8 16 9 13 10 14 11
REMARK SMILES IDX 97 12 15 13 12 14 10 15 11 16 9 18 8 19 7 20 1 21 2 22 3 23
REMARK SMILES IDX 4 24 6 25 5 26 25 27 26 28 27 29 28 30 29 31 30 32 31 33
REMARK SMILES IDX 32 34 33 35 34 36 35 37 96 38 36 39 95 40 37 41 38 42 39 43
REMARK SMILES IDX 89 44 40 45 94 46 88 47 90 48 41 49 93 50 87 51 86 52 42 54
REMARK SMILES IDX 74 55 54 56 73 57 55 58 58 59 72 60 91 61 56 62 57 63 71 65
REMARK SMILES IDX 92 66 59 67 43 68 44 69 52 70 45 71 46 72 50 73 53 74 47 75
REMARK SMILES IDX 48 76 51 77 49 78 75 79 76 80 84 81 77 82 78 83 82 84 85 85
REMARK SMILES IDX 79 86 80 87 83 88 81 89 60 90 61 91 69 92 62 93 63 94 67 95
REMARK SMILES IDX 70 96 64 97 65 98 68 99 66 100
REMARK H PARENT 12 17 90 53 58 64
REMARK Flexibility Score: inf
ROOT
ATOM      1  C   UNL A   1      42.981  16.221  40.241  1.00  0.00     0.188 C 
ENDROOT
BRANCH   1   2
ATOM      2  C   UNL A   1      42.395  15.018  40.991  1.00  0.00     0.188 C 
BRANCH   2   3
ATOM      3  O   UNL A   1      41.159  14.602  40.447  1.00  0.00    -0.376 OA
BRANCH   3   4
ATOM      4  C   UNL A   1      40.983  13.197  40.461  1.00  0.00     0.202 C 
BRANCH   4   5
ATOM      5  C   UNL A   1      42.235  12.620  41.062  1.00  0.00     0.261 C 
BRANCH   5   6
ATOM      6  O   UNL A   1      41.815  11.590  41.960  1.00  0.00    -0.463 OA
BRANCH   6   7
ATOM      7  C   UNL A   1      42.001  11.888  43.259  1.00  0.00     0.312 C 
ATOM      8  O   UNL A   1      41.744  12.976  43.769  1.00  0.00    -0.252 OA
BRANCH   7   9
ATOM      9  C   UNL A   1      42.392  10.623  44.014  1.00  0.00     0.124 C 
ATOM     10  C   UNL A   1      44.588  11.352  44.560  1.00  0.00     0.106 C 
ATOM     11  C   UNL A   1      44.651  10.234  43.557  1.00  0.00    -0.006 C 
ATOM     12  C   UNL A   1      43.247  11.026  45.215  1.00  0.00     0.048 C 
ATOM     13  C   UNL A   1      43.407   9.841  43.231  1.00  0.00    -0.014 C 
BRANCH  10  14
ATOM     14  N   UNL A   1      45.708  11.395  45.446  1.00  0.00    -0.349 N 
ATOM     15  C   UNL A   1      46.475  12.490  45.742  1.00  0.00     0.230 C 
ATOM     16  O   UNL A   1      47.554  12.277  46.309  1.00  0.00    -0.274 OA
ATOM     17  H   UNL A   1      45.954  10.550  45.888  1.00  0.00     0.164 HD
BRANCH  15  18
ATOM     18  C   UNL A   1      45.980  13.922  45.575  1.00  0.00     0.174 C 
BRANCH  18  19
ATOM     19  S   UNL A   1      46.383  14.819  44.057  1.00  0.00    -0.116 SA
BRANCH  19  20
ATOM     20  C   UNL A   1      45.973  16.545  44.068  1.00  0.00     0.011 A 
ATOM     21  C   UNL A   1      47.738  17.539  42.500  1.00  0.00     0.045 C 
ATOM     22  C   UNL A   1      46.518  17.620  43.362  1.00  0.00    -0.038 A 
ATOM     23  C   UNL A   1      45.872  18.875  43.420  1.00  0.00     0.004 A 
ATOM     24  C   UNL A   1      44.761  19.096  44.230  1.00  0.00     0.000 A 
ATOM     25  C   UNL A   1      44.869  16.805  44.921  1.00  0.00     0.015 A 
ATOM     26  C   UNL A   1      44.278  18.065  45.014  1.00  0.00     0.001 A 
ENDBRANCH  19  20
ENDBRANCH  18  19
ENDBRANCH  15  18
ENDBRANCH  10  14
ENDBRANCH   7   9
ENDBRANCH   6   7
ENDBRANCH   5   6
ENDBRANCH   4   5
ENDBRANCH   3   4
ENDBRANCH   2   3
ENDBRANCH   1   2
BRANCH   1  27
ATOM     27  O   UNL A   1      44.332  16.584  40.504  1.00  0.00    -0.377 OA
BRANCH  27  28
ATOM     28  C   UNL A   1      45.169  16.912  39.405  1.00  0.00     0.188 C 
BRANCH  28  29
ATOM     29  C   UNL A   1      46.142  18.075  39.509  1.00  0.00     0.188 C 
BRANCH  29  30
ATOM     30  O   UNL A   1      45.730  19.050  38.560  1.00  0.00    -0.376 OA
BRANCH  30  31
ATOM     31  C   UNL A   1      46.744  19.569  37.713  1.00  0.00     0.202 C 
BRANCH  31  32
ATOM     32  C   UNL A   1      46.235  19.873  36.299  1.00  0.00     0.261 C 
BRANCH  32  33
ATOM     33  O   UNL A   1      45.922  21.277  36.223  1.00  0.00    -0.460 OA
BRANCH  33  34
ATOM     34  C   UNL A   1      46.921  22.077  35.762  1.00  0.00     0.338 C 
ATOM     35  O   UNL A   1      47.950  22.344  36.359  1.00  0.00    -0.246 OA
BRANCH  34  36
ATOM     36  C   UNL A   1      46.453  22.804  34.545  1.00  0.00     0.060 A 
ATOM     37  C   UNL A   1      47.095  23.989  34.143  1.00  0.00     0.016 A 
ATOM     38  C   UNL A   1      45.232  22.461  33.971  1.00  0.00     0.016 A 
ATOM     39  C   UNL A   1      46.456  24.884  33.267  1.00  0.00     0.010 A 
ATOM     40  C   UNL A   1      44.581  23.379  33.166  1.00  0.00     0.010 A 
ATOM     41  C   UNL A   1      45.158  24.617  32.827  1.00  0.00    -0.014 A 
BRANCH  41  42
ATOM     42  C   UNL A   1      44.243  25.602  32.200  1.00  0.00     0.031 A 
ATOM     43  C   UNL A   1      43.609  26.669  33.053  1.00  0.00     0.074 A 
ATOM     44  C   UNL A   1      44.326  25.754  30.851  1.00  0.00     0.049 A 
ATOM     45  N   UNL A   1      42.883  27.650  32.627  1.00  0.00    -0.248 NA
ATOM     46  C   UNL A   1      43.754  26.717  34.510  1.00  0.00     0.031 C 
ATOM     47  C   UNL A   1      44.119  26.981  30.088  1.00  0.00     0.029 A 
ATOM     48  N   UNL A   1      44.726  24.847  29.860  1.00  0.00    -0.354 N 
ATOM     49  C   UNL A   1      42.812  28.614  33.622  1.00  0.00     0.074 A 
ATOM     50  C   UNL A   1      43.242  27.918  34.806  1.00  0.00     0.031 C 
ATOM     51  C   UNL A   1      44.352  26.787  28.782  1.00  0.00     0.029 A 
ATOM     52  C   UNL A   1      44.341  25.361  28.602  1.00  0.00     0.049 A 
ATOM     53  H   UNL A   1      45.195  23.995  30.014  1.00  0.00     0.167 HD
ATOM     54  C   UNL A   1      42.562  29.923  33.281  1.00  0.00     0.037 A 
ATOM     55  C   UNL A   1      43.352  24.737  27.897  1.00  0.00     0.037 A 
ATOM     56  C   UNL A   1      42.157  30.031  31.858  1.00  0.00     0.049 A 
ATOM     57  C   UNL A   1      42.068  25.554  27.913  1.00  0.00     0.074 A 
ATOM     58  C   UNL A   1      42.577  30.796  30.781  1.00  0.00     0.029 A 
ATOM     59  N   UNL A   1      41.274  29.089  31.311  1.00  0.00    -0.354 N 
ATOM     60  N   UNL A   1      41.791  26.423  28.861  1.00  0.00    -0.248 NA
ATOM     61  C   UNL A   1      41.102  25.624  26.820  1.00  0.00     0.031 C 
ATOM     62  C   UNL A   1      42.102  30.181  29.585  1.00  0.00     0.029 A 
ATOM     63  C   UNL A   1      41.283  29.118  29.932  1.00  0.00     0.049 A 
ATOM     64  H   UNL A   1      40.716  28.481  31.848  1.00  0.00     0.167 HD
ATOM     65  C   UNL A   1      40.754  27.222  28.478  1.00  0.00     0.074 A 
ATOM     66  C   UNL A   1      40.316  26.644  27.219  1.00  0.00     0.031 C 
ATOM     67  C   UNL A   1      40.329  28.327  29.163  1.00  0.00     0.037 A 
BRANCH  54  68
ATOM     68  C   UNL A   1      42.905  31.166  34.141  1.00  0.00     0.064 A 
ATOM     69  C   UNL A   1      44.253  31.553  34.361  1.00  0.00     0.173 A 
ATOM     70  C   UNL A   1      41.979  31.956  34.862  1.00  0.00     0.173 A 
ATOM     71  F   UNL A   1      45.262  30.945  33.723  1.00  0.00    -0.203 F 
ATOM     72  C   UNL A   1      44.630  32.588  35.236  1.00  0.00     0.198 A 
ATOM     73  C   UNL A   1      42.353  33.037  35.680  1.00  0.00     0.198 A 
ATOM     74  F   UNL A   1      40.669  31.702  34.864  1.00  0.00    -0.203 F 
ATOM     75  F   UNL A   1      45.928  32.854  35.441  1.00  0.00    -0.200 F 
ATOM     76  C   UNL A   1      43.678  33.341  35.887  1.00  0.00     0.200 A 
ATOM     77  F   UNL A   1      41.404  33.761  36.295  1.00  0.00    -0.200 F 
ATOM     78  F   UNL A   1      44.027  34.343  36.706  1.00  0.00    -0.200 F 
ENDBRANCH  54  68
BRANCH  55  79
ATOM     79  C   UNL A   1      43.671  23.278  27.767  1.00  0.00     0.064 A 
ATOM     80  C   UNL A   1      42.690  22.453  28.372  1.00  0.00     0.173 A 
ATOM     81  C   UNL A   1      44.269  22.784  26.594  1.00  0.00     0.173 A 
ATOM     82  F   UNL A   1      42.106  22.850  29.515  1.00  0.00    -0.203 F 
ATOM     83  C   UNL A   1      42.125  21.375  27.688  1.00  0.00     0.198 A 
ATOM     84  C   UNL A   1      43.724  21.671  25.931  1.00  0.00     0.198 A 
ATOM     85  F   UNL A   1      45.229  23.488  25.976  1.00  0.00    -0.203 F 
ATOM     86  F   UNL A   1      41.024  20.780  28.169  1.00  0.00    -0.200 F 
ATOM     87  C   UNL A   1      42.611  21.019  26.443  1.00  0.00     0.200 A 
ATOM     88  F   UNL A   1      44.187  21.318  24.722  1.00  0.00    -0.200 F 
ATOM     89  F   UNL A   1      41.962  20.105  25.706  1.00  0.00    -0.200 F 
ENDBRANCH  55  79
BRANCH  67  90
ATOM     90  C   UNL A   1      38.895  28.792  29.161  1.00  0.00     0.064 A 
ATOM     91  C   UNL A   1      38.107  28.766  30.322  1.00  0.00     0.173 A 
ATOM     92  C   UNL A   1      38.365  29.530  28.072  1.00  0.00     0.173 A 
ATOM     93  F   UNL A   1      38.545  28.191  31.451  1.00  0.00    -0.203 F 
ATOM     94  C   UNL A   1      36.868  29.401  30.383  1.00  0.00     0.198 A 
ATOM     95  C   UNL A   1      37.156  30.212  28.159  1.00  0.00     0.198 A 
ATOM     96  F   UNL A   1      39.022  29.657  26.911  1.00  0.00    -0.203 F 
ATOM     97  F   UNL A   1      36.147  29.328  31.509  1.00  0.00    -0.200 F 
ATOM     98  C   UNL A   1      36.402  30.138  29.311  1.00  0.00     0.200 A 
ATOM     99  F   UNL A   1      36.745  30.972  27.133  1.00  0.00    -0.200 F 
ATOM    100  F   UNL A   1      35.239  30.796  29.398  1.00  0.00    -0.200 F 
ENDBRANCH  67  90
ENDBRANCH  41  42
ENDBRANCH  34  36
ENDBRANCH  33  34
ENDBRANCH  32  33
ENDBRANCH  31  32
ENDBRANCH  30  31
ENDBRANCH  29  30
ENDBRANCH  28  29
ENDBRANCH  27  28
ENDBRANCH   1  27
TORSDOF 24
ENDMDL
