MODEL 1
REMARK VINA RESULT:     -10.0      0.000      0.000
REMARK SMILES CC(C)(Oc1ccc(Cl)cc1)C(=O)N1CCC[C@H](C(=O)OCCOCCOCCOCCOC(=O)c2ccc(-c3c4nc(c(-c5c(F)c(F)c(F)c(F)c5F)c5ccc([nH]5)c(-c5c(F)c(F)c(F)c(F)c5F)c5nc(c(-c6c(F)c(F)c(F)c(F)c6F)c6ccc3[nH]6)C=C5)C=C4)cc2)C1
REMARK SMILES IDX 26 1 25 2 24 3 23 4 22 5 21 6 19 7 20 8 18 9 14 10 15 11
REMARK SMILES IDX 99 12 16 13 17 14 12 15 13 16 2 17 1 18 3 19 4 20 5 21 6 22
REMARK SMILES IDX 11 23 7 24 10 25 8 26 9 27 27 28 28 29 29 30 30 31 31 32
REMARK SMILES IDX 32 33 33 34 34 35 35 36 36 37 37 38 98 39 38 40 97 41 39 42
REMARK SMILES IDX 40 43 41 44 91 45 42 46 96 47 90 48 92 49 43 50 95 51 89 52
REMARK SMILES IDX 88 53 44 55 76 56 56 57 75 58 57 59 60 60 74 61 93 62 58 63
REMARK SMILES IDX 59 64 73 66 94 67 61 68 45 69 46 70 54 71 47 72 48 73 52 74
REMARK SMILES IDX 55 75 49 76 50 77 53 78 51 79 77 80 78 81 86 82 79 83 80 84
REMARK SMILES IDX 84 85 87 86 81 87 82 88 85 89 83 90 62 91 63 92 71 93 64 94
REMARK SMILES IDX 65 95 69 96 72 97 66 98 67 99 70 100 68 101
REMARK H PARENT 92 54 60 65
REMARK Flexibility Score: inf
ROOT
ATOM      1  C   UNL A   1      41.734  22.246  25.899  1.00  0.00     0.188 C 
ENDROOT
BRANCH   1   2
ATOM      2  C   UNL A   1      40.624  21.994  26.927  1.00  0.00     0.188 C 
BRANCH   2   3
ATOM      3  O   UNL A   1      39.320  22.159  26.425  1.00  0.00    -0.376 OA
BRANCH   3   4
ATOM      4  C   UNL A   1      38.756  21.190  25.566  1.00  0.00     0.202 C 
BRANCH   4   5
ATOM      5  C   UNL A   1      37.279  21.147  25.117  1.00  0.00     0.261 C 
BRANCH   5   6
ATOM      6  O   UNL A   1      36.355  22.113  25.633  1.00  0.00    -0.463 OA
BRANCH   6   7
ATOM      7  C   UNL A   1      35.103  21.675  25.888  1.00  0.00     0.310 C 
ATOM      8  O   UNL A   1      34.674  21.449  27.017  1.00  0.00    -0.252 OA
BRANCH   7   9
ATOM      9  C   UNL A   1      34.255  21.394  24.653  1.00  0.00     0.119 C 
ATOM     10  N   UNL A   1      33.013  23.510  24.561  1.00  0.00    -0.338 N 
ATOM     11  C   UNL A   1      31.708  22.866  24.651  1.00  0.00     0.119 C 
ATOM     12  C   UNL A   1      34.072  22.729  23.923  1.00  0.00     0.135 C 
ATOM     13  C   UNL A   1      31.795  21.539  25.380  1.00  0.00     0.022 C 
ATOM     14  C   UNL A   1      32.895  20.681  24.764  1.00  0.00     0.019 C 
BRANCH  10  15
ATOM     15  C   UNL A   1      33.276  24.586  25.399  1.00  0.00     0.266 C 
ATOM     16  O   UNL A   1      34.029  24.449  26.369  1.00  0.00    -0.270 OA
BRANCH  15  17
ATOM     17  C   UNL A   1      32.482  25.910  25.148  1.00  0.00     0.181 C 
ATOM     18  C   UNL A   1      33.514  27.042  25.328  1.00  0.00     0.067 C 
ATOM     19  C   UNL A   1      31.397  26.029  26.240  1.00  0.00     0.067 C 
BRANCH  17  20
ATOM     20  O   UNL A   1      31.954  25.890  23.804  1.00  0.00    -0.478 OA
BRANCH  20  21
ATOM     21  C   UNL A   1      30.923  26.753  23.542  1.00  0.00     0.121 A 
ATOM     22  C   UNL A   1      31.126  27.989  22.930  1.00  0.00     0.048 A 
ATOM     23  C   UNL A   1      29.624  26.343  23.850  1.00  0.00     0.048 A 
ATOM     24  C   UNL A   1      30.057  28.866  22.740  1.00  0.00     0.024 A 
ATOM     25  C   UNL A   1      28.547  27.210  23.641  1.00  0.00     0.024 A 
ATOM     26  C   UNL A   1      28.771  28.478  23.108  1.00  0.00     0.041 A 
ATOM     27  Cl  UNL A   1      27.457  29.567  22.892  1.00  0.00    -0.084 Cl
ENDBRANCH  20  21
ENDBRANCH  17  20
ENDBRANCH  15  17
ENDBRANCH  10  15
ENDBRANCH   7   9
ENDBRANCH   6   7
ENDBRANCH   5   6
ENDBRANCH   4   5
ENDBRANCH   3   4
ENDBRANCH   2   3
ENDBRANCH   1   2
BRANCH   1  28
ATOM     28  O   UNL A   1      43.058  22.502  26.345  1.00  0.00    -0.377 OA
BRANCH  28  29
ATOM     29  C   UNL A   1      44.163  21.871  25.699  1.00  0.00     0.188 C 
BRANCH  29  30
ATOM     30  C   UNL A   1      44.436  22.101  24.197  1.00  0.00     0.188 C 
BRANCH  30  31
ATOM     31  O   UNL A   1      45.272  23.205  23.907  1.00  0.00    -0.376 OA
BRANCH  31  32
ATOM     32  C   UNL A   1      46.246  23.578  24.868  1.00  0.00     0.202 C 
BRANCH  32  33
ATOM     33  C   UNL A   1      46.481  25.076  25.115  1.00  0.00     0.261 C 
BRANCH  33  34
ATOM     34  O   UNL A   1      45.356  25.945  24.898  1.00  0.00    -0.460 OA
BRANCH  34  35
ATOM     35  C   UNL A   1      45.537  27.272  25.077  1.00  0.00     0.338 C 
ATOM     36  O   UNL A   1      45.880  28.092  24.253  1.00  0.00    -0.246 OA
BRANCH  35  37
ATOM     37  C   UNL A   1      45.071  27.600  26.440  1.00  0.00     0.060 A 
ATOM     38  C   UNL A   1      44.074  26.812  27.030  1.00  0.00     0.016 A 
ATOM     39  C   UNL A   1      45.605  28.695  27.123  1.00  0.00     0.016 A 
ATOM     40  C   UNL A   1      43.580  27.140  28.293  1.00  0.00     0.010 A 
ATOM     41  C   UNL A   1      45.095  29.036  28.378  1.00  0.00     0.010 A 
ATOM     42  C   UNL A   1      44.055  28.281  28.952  1.00  0.00    -0.014 A 
BRANCH  42  43
ATOM     43  C   UNL A   1      43.328  28.801  30.137  1.00  0.00     0.031 A 
ATOM     44  C   UNL A   1      41.922  29.301  29.944  1.00  0.00     0.074 A 
ATOM     45  C   UNL A   1      43.888  28.805  31.359  1.00  0.00     0.049 A 
ATOM     46  N   UNL A   1      41.111  29.866  30.803  1.00  0.00    -0.248 NA
ATOM     47  C   UNL A   1      41.351  29.143  28.596  1.00  0.00     0.031 C 
ATOM     48  C   UNL A   1      45.219  28.298  31.683  1.00  0.00     0.029 A 
ATOM     49  N   UNL A   1      43.400  29.263  32.559  1.00  0.00    -0.354 N 
ATOM     50  C   UNL A   1      39.943  30.129  30.100  1.00  0.00     0.074 A 
ATOM     51  C   UNL A   1      40.158  29.699  28.737  1.00  0.00     0.031 C 
ATOM     52  C   UNL A   1      45.451  28.490  32.994  1.00  0.00     0.029 A 
ATOM     53  C   UNL A   1      44.300  29.166  33.592  1.00  0.00     0.049 A 
ATOM     54  H   UNL A   1      42.491  29.627  32.668  1.00  0.00     0.167 HD
ATOM     55  C   UNL A   1      38.789  30.671  30.555  1.00  0.00     0.037 A 
ATOM     56  C   UNL A   1      44.210  29.603  34.865  1.00  0.00     0.037 A 
ATOM     57  C   UNL A   1      38.578  31.102  31.912  1.00  0.00     0.049 A 
ATOM     58  C   UNL A   1      42.945  30.292  35.319  1.00  0.00     0.074 A 
ATOM     59  C   UNL A   1      37.447  31.668  32.471  1.00  0.00     0.029 A 
ATOM     60  N   UNL A   1      39.524  31.015  32.922  1.00  0.00    -0.354 N 
ATOM     61  N   UNL A   1      41.838  30.526  34.655  1.00  0.00    -0.248 NA
ATOM     62  C   UNL A   1      42.916  30.777  36.707  1.00  0.00     0.031 C 
ATOM     63  C   UNL A   1      37.726  31.975  33.805  1.00  0.00     0.029 A 
ATOM     64  C   UNL A   1      39.008  31.539  34.096  1.00  0.00     0.049 A 
ATOM     65  H   UNL A   1      40.428  30.637  32.820  1.00  0.00     0.167 HD
ATOM     66  C   UNL A   1      40.975  31.144  35.551  1.00  0.00     0.074 A 
ATOM     67  C   UNL A   1      41.678  31.235  36.812  1.00  0.00     0.031 C 
ATOM     68  C   UNL A   1      39.713  31.599  35.350  1.00  0.00     0.037 A 
BRANCH  55  69
ATOM     69  C   UNL A   1      37.665  30.847  29.576  1.00  0.00     0.064 A 
ATOM     70  C   UNL A   1      36.804  29.788  29.246  1.00  0.00     0.173 A 
ATOM     71  C   UNL A   1      37.407  32.103  29.009  1.00  0.00     0.173 A 
ATOM     72  F   UNL A   1      37.018  28.563  29.749  1.00  0.00    -0.203 F 
ATOM     73  C   UNL A   1      35.737  29.980  28.373  1.00  0.00     0.198 A 
ATOM     74  C   UNL A   1      36.321  32.299  28.161  1.00  0.00     0.198 A 
ATOM     75  F   UNL A   1      38.198  33.149  29.293  1.00  0.00    -0.203 F 
ATOM     76  F   UNL A   1      34.950  28.946  28.042  1.00  0.00    -0.200 F 
ATOM     77  C   UNL A   1      35.490  31.236  27.840  1.00  0.00     0.200 A 
ATOM     78  F   UNL A   1      36.075  33.516  27.659  1.00  0.00    -0.200 F 
ATOM     79  F   UNL A   1      34.450  31.422  27.014  1.00  0.00    -0.200 F 
ENDBRANCH  55  69
BRANCH  56  80
ATOM     80  C   UNL A   1      45.354  29.440  35.804  1.00  0.00     0.064 A 
ATOM     81  C   UNL A   1      45.487  28.291  36.597  1.00  0.00     0.173 A 
ATOM     82  C   UNL A   1      46.299  30.462  35.982  1.00  0.00     0.173 A 
ATOM     83  F   UNL A   1      44.593  27.295  36.487  1.00  0.00    -0.203 F 
ATOM     84  C   UNL A   1      46.492  28.187  37.557  1.00  0.00     0.198 A 
ATOM     85  C   UNL A   1      47.327  30.341  36.916  1.00  0.00     0.198 A 
ATOM     86  F   UNL A   1      46.218  31.587  35.257  1.00  0.00    -0.203 F 
ATOM     87  F   UNL A   1      46.545  27.112  38.355  1.00  0.00    -0.200 F 
ATOM     88  C   UNL A   1      47.414  29.211  37.713  1.00  0.00     0.200 A 
ATOM     89  F   UNL A   1      48.220  31.330  37.058  1.00  0.00    -0.200 F 
ATOM     90  F   UNL A   1      48.371  29.117  38.645  1.00  0.00    -0.200 F 
ENDBRANCH  56  80
BRANCH  68  91
ATOM     91  C   UNL A   1      38.986  32.180  36.531  1.00  0.00     0.064 A 
ATOM     92  C   UNL A   1      38.086  31.423  37.294  1.00  0.00     0.173 A 
ATOM     93  C   UNL A   1      39.231  33.504  36.930  1.00  0.00     0.173 A 
ATOM     94  F   UNL A   1      37.807  30.156  36.950  1.00  0.00    -0.203 F 
ATOM     95  C   UNL A   1      37.432  31.979  38.392  1.00  0.00     0.198 A 
ATOM     96  C   UNL A   1      38.605  34.045  38.049  1.00  0.00     0.198 A 
ATOM     97  F   UNL A   1      40.092  34.269  36.243  1.00  0.00    -0.203 F 
ATOM     98  F   UNL A   1      36.533  31.254  39.071  1.00  0.00    -0.200 F 
ATOM     99  C   UNL A   1      37.698  33.285  38.773  1.00  0.00     0.200 A 
ATOM    100  F   UNL A   1      38.879  35.301  38.427  1.00  0.00    -0.200 F 
ATOM    101  F   UNL A   1      37.076  33.815  39.835  1.00  0.00    -0.200 F 
ENDBRANCH  68  91
ENDBRANCH  42  43
ENDBRANCH  35  37
ENDBRANCH  34  35
ENDBRANCH  33  34
ENDBRANCH  32  33
ENDBRANCH  31  32
ENDBRANCH  30  31
ENDBRANCH  29  30
ENDBRANCH  28  29
ENDBRANCH   1  28
TORSDOF 24
ENDMDL
MODEL 2
REMARK VINA RESULT:      -9.9      5.614     11.055
REMARK SMILES CC(C)(Oc1ccc(Cl)cc1)C(=O)N1CCC[C@H](C(=O)OCCOCCOCCOCCOC(=O)c2ccc(-c3c4nc(c(-c5c(F)c(F)c(F)c(F)c5F)c5ccc([nH]5)c(-c5c(F)c(F)c(F)c(F)c5F)c5nc(c(-c6c(F)c(F)c(F)c(F)c6F)c6ccc3[nH]6)C=C5)C=C4)cc2)C1
REMARK SMILES IDX 26 1 25 2 24 3 23 4 22 5 21 6 19 7 20 8 18 9 14 10 15 11
REMARK SMILES IDX 99 12 16 13 17 14 12 15 13 16 2 17 1 18 3 19 4 20 5 21 6 22
REMARK SMILES IDX 11 23 7 24 10 25 8 26 9 27 27 28 28 29 29 30 30 31 31 32
REMARK SMILES IDX 32 33 33 34 34 35 35 36 36 37 37 38 98 39 38 40 97 41 39 42
REMARK SMILES IDX 40 43 41 44 91 45 42 46 96 47 90 48 92 49 43 50 95 51 89 52
REMARK SMILES IDX 88 53 44 55 76 56 56 57 75 58 57 59 60 60 74 61 93 62 58 63
REMARK SMILES IDX 59 64 73 66 94 67 61 68 45 69 46 70 54 71 47 72 48 73 52 74
REMARK SMILES IDX 55 75 49 76 50 77 53 78 51 79 77 80 78 81 86 82 79 83 80 84
REMARK SMILES IDX 84 85 87 86 81 87 82 88 85 89 83 90 62 91 63 92 71 93 64 94
REMARK SMILES IDX 65 95 69 96 72 97 66 98 67 99 70 100 68 101
REMARK H PARENT 92 54 60 65
REMARK Flexibility Score: inf
ROOT
ATOM      1  C   UNL A   1      35.310  29.688  27.491  1.00  0.00     0.188 C 
ENDROOT
BRANCH   1   2
ATOM      2  C   UNL A   1      34.332  30.857  27.322  1.00  0.00     0.188 C 
BRANCH   2   3
ATOM      3  O   UNL A   1      33.142  30.524  26.651  1.00  0.00    -0.376 OA
BRANCH   3   4
ATOM      4  C   UNL A   1      32.204  29.652  27.248  1.00  0.00     0.202 C 
BRANCH   4   5
ATOM      5  C   UNL A   1      31.783  28.277  26.689  1.00  0.00     0.261 C 
BRANCH   5   6
ATOM      6  O   UNL A   1      31.144  28.200  25.408  1.00  0.00    -0.463 OA
BRANCH   6   7
ATOM      7  C   UNL A   1      31.922  27.831  24.367  1.00  0.00     0.310 C 
ATOM      8  O   UNL A   1      33.124  28.072  24.292  1.00  0.00    -0.252 OA
BRANCH   7   9
ATOM      9  C   UNL A   1      31.182  27.151  23.220  1.00  0.00     0.119 C 
ATOM     10  N   UNL A   1      30.972  24.905  24.192  1.00  0.00    -0.338 N 
ATOM     11  C   UNL A   1      31.680  24.253  23.097  1.00  0.00     0.119 C 
ATOM     12  C   UNL A   1      30.236  26.121  23.848  1.00  0.00     0.135 C 
ATOM     13  C   UNL A   1      32.656  25.201  22.428  1.00  0.00     0.022 C 
ATOM     14  C   UNL A   1      31.946  26.498  22.054  1.00  0.00     0.019 C 
BRANCH  10  15
ATOM     15  C   UNL A   1      31.348  24.598  25.494  1.00  0.00     0.266 C 
ATOM     16  O   UNL A   1      30.642  24.951  26.444  1.00  0.00    -0.270 OA
BRANCH  15  17
ATOM     17  C   UNL A   1      32.745  23.926  25.704  1.00  0.00     0.181 C 
ATOM     18  C   UNL A   1      32.666  23.255  27.091  1.00  0.00     0.067 C 
ATOM     19  C   UNL A   1      33.810  25.042  25.735  1.00  0.00     0.067 C 
BRANCH  17  20
ATOM     20  O   UNL A   1      32.955  22.951  24.660  1.00  0.00    -0.478 OA
BRANCH  20  21
ATOM     21  C   UNL A   1      34.138  22.261  24.701  1.00  0.00     0.121 A 
ATOM     22  C   UNL A   1      34.188  20.882  24.901  1.00  0.00     0.048 A 
ATOM     23  C   UNL A   1      35.321  22.966  24.475  1.00  0.00     0.048 A 
ATOM     24  C   UNL A   1      35.416  20.227  25.001  1.00  0.00     0.024 A 
ATOM     25  C   UNL A   1      36.554  22.311  24.552  1.00  0.00     0.024 A 
ATOM     26  C   UNL A   1      36.597  20.948  24.839  1.00  0.00     0.041 A 
ATOM     27  Cl  UNL A   1      38.111  20.144  24.982  1.00  0.00    -0.084 Cl
ENDBRANCH  20  21
ENDBRANCH  17  20
ENDBRANCH  15  17
ENDBRANCH  10  15
ENDBRANCH   7   9
ENDBRANCH   6   7
ENDBRANCH   5   6
ENDBRANCH   4   5
ENDBRANCH   3   4
ENDBRANCH   2   3
ENDBRANCH   1   2
BRANCH   1  28
ATOM     28  O   UNL A   1      35.793  29.359  28.786  1.00  0.00    -0.377 OA
BRANCH  28  29
ATOM     29  C   UNL A   1      36.311  30.381  29.636  1.00  0.00     0.188 C 
BRANCH  29  30
ATOM     30  C   UNL A   1      36.647  30.085  31.113  1.00  0.00     0.188 C 
BRANCH  30  31
ATOM     31  O   UNL A   1      35.832  30.759  32.055  1.00  0.00    -0.376 OA
BRANCH  31  32
ATOM     32  C   UNL A   1      35.152  31.931  31.633  1.00  0.00     0.202 C 
BRANCH  32  33
ATOM     33  C   UNL A   1      35.181  33.156  32.560  1.00  0.00     0.261 C 
BRANCH  33  34
ATOM     34  O   UNL A   1      36.018  34.251  32.148  1.00  0.00    -0.460 OA
BRANCH  34  35
ATOM     35  C   UNL A   1      37.243  34.356  32.707  1.00  0.00     0.338 C 
ATOM     36  O   UNL A   1      37.549  34.957  33.715  1.00  0.00    -0.246 OA
BRANCH  35  37
ATOM     37  C   UNL A   1      38.146  33.451  31.966  1.00  0.00     0.060 A 
ATOM     38  C   UNL A   1      38.965  32.567  32.681  1.00  0.00     0.016 A 
ATOM     39  C   UNL A   1      38.194  33.493  30.572  1.00  0.00     0.016 A 
ATOM     40  C   UNL A   1      39.864  31.745  32.001  1.00  0.00     0.010 A 
ATOM     41  C   UNL A   1      39.111  32.685  29.893  1.00  0.00     0.010 A 
ATOM     42  C   UNL A   1      39.975  31.835  30.608  1.00  0.00    -0.014 A 
BRANCH  42  43
ATOM     43  C   UNL A   1      41.125  31.198  29.919  1.00  0.00     0.031 A 
ATOM     44  C   UNL A   1      42.326  32.051  29.608  1.00  0.00     0.074 A 
ATOM     45  C   UNL A   1      41.121  29.892  29.603  1.00  0.00     0.049 A 
ATOM     46  N   UNL A   1      43.418  31.747  28.953  1.00  0.00    -0.248 NA
ATOM     47  C   UNL A   1      42.289  33.438  30.101  1.00  0.00     0.031 C 
ATOM     48  C   UNL A   1      40.043  28.952  29.900  1.00  0.00     0.029 A 
ATOM     49  N   UNL A   1      42.060  29.131  28.949  1.00  0.00    -0.354 N 
ATOM     50  C   UNL A   1      44.192  32.900  28.957  1.00  0.00     0.074 A 
ATOM     51  C   UNL A   1      43.434  33.922  29.644  1.00  0.00     0.031 C 
ATOM     52  C   UNL A   1      40.372  27.742  29.413  1.00  0.00     0.029 A 
ATOM     53  C   UNL A   1      41.667  27.833  28.739  1.00  0.00     0.049 A 
ATOM     54  H   UNL A   1      42.932  29.485  28.658  1.00  0.00     0.167 HD
ATOM     55  C   UNL A   1      45.430  33.087  28.443  1.00  0.00     0.037 A 
ATOM     56  C   UNL A   1      42.274  26.843  28.052  1.00  0.00     0.037 A 
ATOM     57  C   UNL A   1      46.181  32.070  27.756  1.00  0.00     0.049 A 
ATOM     58  C   UNL A   1      43.612  27.109  27.405  1.00  0.00     0.074 A 
ATOM     59  C   UNL A   1      47.442  32.162  27.194  1.00  0.00     0.029 A 
ATOM     60  N   UNL A   1      45.738  30.775  27.537  1.00  0.00    -0.354 N 
ATOM     61  N   UNL A   1      44.346  28.197  27.424  1.00  0.00    -0.248 NA
ATOM     62  C   UNL A   1      44.211  26.004  26.642  1.00  0.00     0.031 C 
ATOM     63  C   UNL A   1      47.739  30.939  26.586  1.00  0.00     0.029 A 
ATOM     64  C   UNL A   1      46.692  30.065  26.826  1.00  0.00     0.049 A 
ATOM     65  H   UNL A   1      44.873  30.415  27.839  1.00  0.00     0.167 HD
ATOM     66  C   UNL A   1      45.501  27.894  26.714  1.00  0.00     0.074 A 
ATOM     67  C   UNL A   1      45.382  26.515  26.292  1.00  0.00     0.031 C 
ATOM     68  C   UNL A   1      46.568  28.685  26.434  1.00  0.00     0.037 A 
BRANCH  55  69
ATOM     69  C   UNL A   1      46.050  34.447  28.587  1.00  0.00     0.064 A 
ATOM     70  C   UNL A   1      46.914  34.753  29.649  1.00  0.00     0.173 A 
ATOM     71  C   UNL A   1      45.825  35.436  27.618  1.00  0.00     0.173 A 
ATOM     72  F   UNL A   1      47.148  33.848  30.611  1.00  0.00    -0.203 F 
ATOM     73  C   UNL A   1      47.518  36.004  29.742  1.00  0.00     0.198 A 
ATOM     74  C   UNL A   1      46.455  36.674  27.696  1.00  0.00     0.198 A 
ATOM     75  F   UNL A   1      45.009  35.194  26.580  1.00  0.00    -0.203 F 
ATOM     76  F   UNL A   1      48.311  36.288  30.785  1.00  0.00    -0.200 F 
ATOM     77  C   UNL A   1      47.297  36.958  28.761  1.00  0.00     0.200 A 
ATOM     78  F   UNL A   1      46.252  37.590  26.740  1.00  0.00    -0.200 F 
ATOM     79  F   UNL A   1      47.895  38.156  28.842  1.00  0.00    -0.200 F 
ENDBRANCH  55  69
BRANCH  56  80
ATOM     80  C   UNL A   1      41.620  25.514  27.902  1.00  0.00     0.064 A 
ATOM     81  C   UNL A   1      42.112  24.382  28.568  1.00  0.00     0.173 A 
ATOM     82  C   UNL A   1      40.534  25.332  27.033  1.00  0.00     0.173 A 
ATOM     83  F   UNL A   1      43.167  24.494  29.389  1.00  0.00    -0.203 F 
ATOM     84  C   UNL A   1      41.572  23.117  28.341  1.00  0.00     0.198 A 
ATOM     85  C   UNL A   1      39.969  24.073  26.835  1.00  0.00     0.198 A 
ATOM     86  F   UNL A   1      40.025  26.377  26.363  1.00  0.00    -0.203 F 
ATOM     87  F   UNL A   1      42.114  22.043  28.930  1.00  0.00    -0.200 F 
ATOM     88  C   UNL A   1      40.498  22.964  27.476  1.00  0.00     0.200 A 
ATOM     89  F   UNL A   1      38.927  23.931  26.004  1.00  0.00    -0.200 F 
ATOM     90  F   UNL A   1      39.988  21.747  27.247  1.00  0.00    -0.200 F 
ENDBRANCH  56  80
BRANCH  68  91
ATOM     91  C   UNL A   1      47.716  28.066  25.688  1.00  0.00     0.064 A 
ATOM     92  C   UNL A   1      48.872  27.619  26.343  1.00  0.00     0.173 A 
ATOM     93  C   UNL A   1      47.637  27.878  24.299  1.00  0.00     0.173 A 
ATOM     94  F   UNL A   1      49.005  27.784  27.669  1.00  0.00    -0.203 F 
ATOM     95  C   UNL A   1      49.920  27.038  25.632  1.00  0.00     0.198 A 
ATOM     96  C   UNL A   1      48.669  27.263  23.596  1.00  0.00     0.198 A 
ATOM     97  F   UNL A   1      46.548  28.276  23.623  1.00  0.00    -0.203 F 
ATOM     98  F   UNL A   1      51.039  26.670  26.272  1.00  0.00    -0.200 F 
ATOM     99  C   UNL A   1      49.814  26.853  24.262  1.00  0.00     0.200 A 
ATOM    100  F   UNL A   1      48.556  27.068  22.276  1.00  0.00    -0.200 F 
ATOM    101  F   UNL A   1      50.819  26.285  23.581  1.00  0.00    -0.200 F 
ENDBRANCH  68  91
ENDBRANCH  42  43
ENDBRANCH  35  37
ENDBRANCH  34  35
ENDBRANCH  33  34
ENDBRANCH  32  33
ENDBRANCH  31  32
ENDBRANCH  30  31
ENDBRANCH  29  30
ENDBRANCH  28  29
ENDBRANCH   1  28
TORSDOF 24
ENDMDL
MODEL 3
REMARK VINA RESULT:      -9.8      2.397      3.797
REMARK SMILES CC(C)(Oc1ccc(Cl)cc1)C(=O)N1CCC[C@H](C(=O)OCCOCCOCCOCCOC(=O)c2ccc(-c3c4nc(c(-c5c(F)c(F)c(F)c(F)c5F)c5ccc([nH]5)c(-c5c(F)c(F)c(F)c(F)c5F)c5nc(c(-c6c(F)c(F)c(F)c(F)c6F)c6ccc3[nH]6)C=C5)C=C4)cc2)C1
REMARK SMILES IDX 26 1 25 2 24 3 23 4 22 5 21 6 19 7 20 8 18 9 14 10 15 11
REMARK SMILES IDX 99 12 16 13 17 14 12 15 13 16 2 17 1 18 3 19 4 20 5 21 6 22
REMARK SMILES IDX 11 23 7 24 10 25 8 26 9 27 27 28 28 29 29 30 30 31 31 32
REMARK SMILES IDX 32 33 33 34 34 35 35 36 36 37 37 38 98 39 38 40 97 41 39 42
REMARK SMILES IDX 40 43 41 44 91 45 42 46 96 47 90 48 92 49 43 50 95 51 89 52
REMARK SMILES IDX 88 53 44 55 76 56 56 57 75 58 57 59 60 60 74 61 93 62 58 63
REMARK SMILES IDX 59 64 73 66 94 67 61 68 45 69 46 70 54 71 47 72 48 73 52 74
REMARK SMILES IDX 55 75 49 76 50 77 53 78 51 79 77 80 78 81 86 82 79 83 80 84
REMARK SMILES IDX 84 85 87 86 81 87 82 88 85 89 83 90 62 91 63 92 71 93 64 94
REMARK SMILES IDX 65 95 69 96 72 97 66 98 67 99 70 100 68 101
REMARK H PARENT 92 54 60 65
REMARK Flexibility Score: inf
ROOT
ATOM      1  C   UNL A   1      37.258  21.209  24.812  1.00  0.00     0.188 C 
ENDROOT
BRANCH   1   2
ATOM      2  C   UNL A   1      35.867  20.850  25.349  1.00  0.00     0.188 C 
BRANCH   2   3
ATOM      3  O   UNL A   1      35.489  21.563  26.501  1.00  0.00    -0.376 OA
BRANCH   3   4
ATOM      4  C   UNL A   1      34.241  21.316  27.118  1.00  0.00     0.202 C 
BRANCH   4   5
ATOM      5  C   UNL A   1      33.153  22.378  27.384  1.00  0.00     0.261 C 
BRANCH   5   6
ATOM      6  O   UNL A   1      33.061  23.526  26.531  1.00  0.00    -0.463 OA
BRANCH   6   7
ATOM      7  C   UNL A   1      32.843  23.287  25.219  1.00  0.00     0.310 C 
ATOM      8  O   UNL A   1      31.885  22.648  24.790  1.00  0.00    -0.252 OA
BRANCH   7   9
ATOM      9  C   UNL A   1      33.929  23.804  24.281  1.00  0.00     0.119 C 
ATOM     10  N   UNL A   1      32.671  25.625  23.218  1.00  0.00    -0.338 N 
ATOM     11  C   UNL A   1      32.842  25.095  21.871  1.00  0.00     0.119 C 
ATOM     12  C   UNL A   1      33.738  25.320  24.169  1.00  0.00     0.135 C 
ATOM     13  C   UNL A   1      33.019  23.589  21.888  1.00  0.00     0.022 C 
ATOM     14  C   UNL A   1      34.118  23.207  22.875  1.00  0.00     0.019 C 
BRANCH  10  15
ATOM     15  C   UNL A   1      31.396  26.007  23.618  1.00  0.00     0.266 C 
ATOM     16  O   UNL A   1      30.423  25.291  23.360  1.00  0.00    -0.270 OA
BRANCH  15  17
ATOM     17  C   UNL A   1      31.235  27.419  24.270  1.00  0.00     0.181 C 
ATOM     18  C   UNL A   1      30.997  27.148  25.770  1.00  0.00     0.067 C 
ATOM     19  C   UNL A   1      29.980  28.083  23.664  1.00  0.00     0.067 C 
BRANCH  17  20
ATOM     20  O   UNL A   1      32.449  28.172  24.058  1.00  0.00    -0.478 OA
BRANCH  20  21
ATOM     21  C   UNL A   1      32.872  28.950  25.103  1.00  0.00     0.121 A 
ATOM     22  C   UNL A   1      34.088  28.730  25.750  1.00  0.00     0.048 A 
ATOM     23  C   UNL A   1      32.077  30.033  25.484  1.00  0.00     0.048 A 
ATOM     24  C   UNL A   1      34.451  29.506  26.852  1.00  0.00     0.024 A 
ATOM     25  C   UNL A   1      32.448  30.827  26.574  1.00  0.00     0.024 A 
ATOM     26  C   UNL A   1      33.622  30.545  27.268  1.00  0.00     0.041 A 
ATOM     27  Cl  UNL A   1      34.061  31.488  28.638  1.00  0.00    -0.084 Cl
ENDBRANCH  20  21
ENDBRANCH  17  20
ENDBRANCH  15  17
ENDBRANCH  10  15
ENDBRANCH   7   9
ENDBRANCH   6   7
ENDBRANCH   5   6
ENDBRANCH   4   5
ENDBRANCH   3   4
ENDBRANCH   2   3
ENDBRANCH   1   2
BRANCH   1  28
ATOM     28  O   UNL A   1      37.874  22.425  25.214  1.00  0.00    -0.377 OA
BRANCH  28  29
ATOM     29  C   UNL A   1      38.833  22.423  26.272  1.00  0.00     0.188 C 
BRANCH  29  30
ATOM     30  C   UNL A   1      39.967  21.378  26.306  1.00  0.00     0.188 C 
BRANCH  30  31
ATOM     31  O   UNL A   1      41.272  21.911  26.170  1.00  0.00    -0.376 OA
BRANCH  31  32
ATOM     32  C   UNL A   1      41.536  23.184  26.738  1.00  0.00     0.202 C 
BRANCH  32  33
ATOM     33  C   UNL A   1      42.075  24.289  25.816  1.00  0.00     0.261 C 
BRANCH  33  34
ATOM     34  O   UNL A   1      41.214  25.421  25.602  1.00  0.00    -0.460 OA
BRANCH  34  35
ATOM     35  C   UNL A   1      41.785  26.642  25.511  1.00  0.00     0.338 C 
ATOM     36  O   UNL A   1      42.460  27.079  24.605  1.00  0.00    -0.246 OA
BRANCH  35  37
ATOM     37  C   UNL A   1      41.296  27.444  26.652  1.00  0.00     0.060 A 
ATOM     38  C   UNL A   1      41.713  28.775  26.781  1.00  0.00     0.016 A 
ATOM     39  C   UNL A   1      40.444  26.873  27.600  1.00  0.00     0.016 A 
ATOM     40  C   UNL A   1      41.307  29.531  27.881  1.00  0.00     0.010 A 
ATOM     41  C   UNL A   1      40.056  27.624  28.713  1.00  0.00     0.010 A 
ATOM     42  C   UNL A   1      40.515  28.943  28.876  1.00  0.00    -0.014 A 
BRANCH  42  43
ATOM     43  C   UNL A   1      40.339  29.634  30.178  1.00  0.00     0.031 A 
ATOM     44  C   UNL A   1      39.231  30.645  30.301  1.00  0.00     0.074 A 
ATOM     45  C   UNL A   1      41.122  29.353  31.234  1.00  0.00     0.049 A 
ATOM     46  N   UNL A   1      38.922  31.427  31.305  1.00  0.00    -0.248 NA
ATOM     47  C   UNL A   1      38.350  30.796  29.131  1.00  0.00     0.031 C 
ATOM     48  C   UNL A   1      42.190  28.357  31.256  1.00  0.00     0.029 A 
ATOM     49  N   UNL A   1      41.138  29.893  32.498  1.00  0.00    -0.354 N 
ATOM     50  C   UNL A   1      37.819  32.158  30.886  1.00  0.00     0.074 A 
ATOM     51  C   UNL A   1      37.531  31.758  29.527  1.00  0.00     0.031 C 
ATOM     52  C   UNL A   1      42.773  28.370  32.469  1.00  0.00     0.029 A 
ATOM     53  C   UNL A   1      42.142  29.399  33.294  1.00  0.00     0.049 A 
ATOM     54  H   UNL A   1      40.492  30.571  32.802  1.00  0.00     0.167 HD
ATOM     55  C   UNL A   1      37.101  33.074  31.578  1.00  0.00     0.037 A 
ATOM     56  C   UNL A   1      42.523  29.763  34.535  1.00  0.00     0.037 A 
ATOM     57  C   UNL A   1      37.391  33.474  32.929  1.00  0.00     0.049 A 
ATOM     58  C   UNL A   1      41.764  30.858  35.248  1.00  0.00     0.074 A 
ATOM     59  C   UNL A   1      36.728  34.398  33.716  1.00  0.00     0.029 A 
ATOM     60  N   UNL A   1      38.435  32.973  33.693  1.00  0.00    -0.354 N 
ATOM     61  N   UNL A   1      40.713  31.536  34.852  1.00  0.00    -0.248 NA
ATOM     62  C   UNL A   1      42.245  31.236  36.585  1.00  0.00     0.031 C 
ATOM     63  C   UNL A   1      37.402  34.497  34.936  1.00  0.00     0.029 A 
ATOM     64  C   UNL A   1      38.446  33.587  34.934  1.00  0.00     0.049 A 
ATOM     65  H   UNL A   1      39.073  32.285  33.396  1.00  0.00     0.167 HD
ATOM     66  C   UNL A   1      40.386  32.385  35.902  1.00  0.00     0.074 A 
ATOM     67  C   UNL A   1      41.339  32.127  36.960  1.00  0.00     0.031 C 
ATOM     68  C   UNL A   1      39.388  33.300  35.986  1.00  0.00     0.037 A 
BRANCH  55  69
ATOM     69  C   UNL A   1      35.940  33.723  30.884  1.00  0.00     0.064 A 
ATOM     70  C   UNL A   1      34.675  33.807  31.487  1.00  0.00     0.173 A 
ATOM     71  C   UNL A   1      36.108  34.323  29.627  1.00  0.00     0.173 A 
ATOM     72  F   UNL A   1      34.458  33.235  32.681  1.00  0.00    -0.203 F 
ATOM     73  C   UNL A   1      33.621  34.454  30.849  1.00  0.00     0.198 A 
ATOM     74  C   UNL A   1      35.060  34.996  29.007  1.00  0.00     0.198 A 
ATOM     75  F   UNL A   1      37.297  34.273  29.007  1.00  0.00    -0.203 F 
ATOM     76  F   UNL A   1      32.411  34.490  31.427  1.00  0.00    -0.200 F 
ATOM     77  C   UNL A   1      33.816  35.058  29.616  1.00  0.00     0.200 A 
ATOM     78  F   UNL A   1      35.255  35.591  27.822  1.00  0.00    -0.200 F 
ATOM     79  F   UNL A   1      32.804  35.696  29.013  1.00  0.00    -0.200 F 
ENDBRANCH  55  69
BRANCH  56  80
ATOM     80  C   UNL A   1      43.699  29.121  35.186  1.00  0.00     0.064 A 
ATOM     81  C   UNL A   1      43.539  28.081  36.113  1.00  0.00     0.173 A 
ATOM     82  C   UNL A   1      45.003  29.583  34.949  1.00  0.00     0.173 A 
ATOM     83  F   UNL A   1      42.311  27.622  36.398  1.00  0.00    -0.203 F 
ATOM     84  C   UNL A   1      44.628  27.557  36.807  1.00  0.00     0.198 A 
ATOM     85  C   UNL A   1      46.096  29.031  35.615  1.00  0.00     0.198 A 
ATOM     86  F   UNL A   1      45.216  30.580  34.078  1.00  0.00    -0.203 F 
ATOM     87  F   UNL A   1      44.434  26.620  37.745  1.00  0.00    -0.200 F 
ATOM     88  C   UNL A   1      45.907  28.030  36.554  1.00  0.00     0.200 A 
ATOM     89  F   UNL A   1      47.331  29.487  35.362  1.00  0.00    -0.200 F 
ATOM     90  F   UNL A   1      46.952  27.536  37.231  1.00  0.00    -0.200 F 
ENDBRANCH  56  80
BRANCH  68  91
ATOM     91  C   UNL A   1      39.234  34.046  37.282  1.00  0.00     0.064 A 
ATOM     92  C   UNL A   1      39.717  35.352  37.449  1.00  0.00     0.173 A 
ATOM     93  C   UNL A   1      38.553  33.458  38.359  1.00  0.00     0.173 A 
ATOM     94  F   UNL A   1      40.386  35.957  36.454  1.00  0.00    -0.203 F 
ATOM     95  C   UNL A   1      39.553  36.029  38.655  1.00  0.00     0.198 A 
ATOM     96  C   UNL A   1      38.357  34.150  39.551  1.00  0.00     0.198 A 
ATOM     97  F   UNL A   1      38.059  32.215  38.250  1.00  0.00    -0.203 F 
ATOM     98  F   UNL A   1      40.073  37.254  38.810  1.00  0.00    -0.200 F 
ATOM     99  C   UNL A   1      38.867  35.431  39.701  1.00  0.00     0.200 A 
ATOM    100  F   UNL A   1      37.676  33.579  40.552  1.00  0.00    -0.200 F 
ATOM    101  F   UNL A   1      38.701  36.087  40.858  1.00  0.00    -0.200 F 
ENDBRANCH  68  91
ENDBRANCH  42  43
ENDBRANCH  35  37
ENDBRANCH  34  35
ENDBRANCH  33  34
ENDBRANCH  32  33
ENDBRANCH  31  32
ENDBRANCH  30  31
ENDBRANCH  29  30
ENDBRANCH  28  29
ENDBRANCH   1  28
TORSDOF 24
ENDMDL
