MODEL 1
REMARK VINA RESULT:     -10.2      0.000      0.000
REMARK SMILES Cc1cc(C(=O)Nc2ccn(C)n2)sc1/C=C/C(=O)OCCOCCOCCOCCOC(=O)c1ccc(-c2c3nc(c(-c4c(F)c(F)c(F)c(F)c4F)c4ccc([nH]4)c(-c4c(F)c(F)c(F)c(F)c4F)c4nc(c(-c5c(F)c(F)c(F)c(F)c5F)c5ccc2[nH]5)C=C4)C=C3)cc1
REMARK SMILES IDX 25 1 24 2 23 3 22 4 21 5 20 6 18 7 19 8 17 9 16 10 15 11
REMARK SMILES IDX 1 12 2 13 3 14 4 15 14 16 5 17 6 18 7 19 8 21 9 22 13 23
REMARK SMILES IDX 10 24 11 25 12 26 26 27 27 28 28 29 29 30 30 31 31 32 32 33
REMARK SMILES IDX 33 34 34 35 35 36 36 37 97 38 37 39 96 40 38 41 39 42 40 43
REMARK SMILES IDX 90 44 41 45 95 46 89 47 91 48 42 49 94 50 88 51 87 52 43 54
REMARK SMILES IDX 75 55 55 56 74 57 56 58 59 59 73 60 92 61 57 62 58 63 72 65
REMARK SMILES IDX 93 66 60 67 44 68 45 69 53 70 46 71 47 72 51 73 54 74 48 75
REMARK SMILES IDX 49 76 52 77 50 78 76 79 77 80 85 81 78 82 79 83 83 84 86 85
REMARK SMILES IDX 80 86 81 87 84 88 82 89 61 90 62 91 70 92 63 93 64 94 68 95
REMARK SMILES IDX 71 96 65 97 66 98 69 99 67 100
REMARK H PARENT 7 20 91 53 59 64
REMARK Flexibility Score: inf
ROOT
ATOM      1  C   UNL A   1      33.672  27.024  22.348  1.00  0.00     0.188 C 
ENDROOT
BRANCH   1   2
ATOM      2  C   UNL A   1      32.858  25.931  21.627  1.00  0.00     0.188 C 
BRANCH   2   3
ATOM      3  O   UNL A   1      31.584  25.708  22.203  1.00  0.00    -0.376 OA
BRANCH   3   4
ATOM      4  C   UNL A   1      30.756  26.808  22.524  1.00  0.00     0.202 C 
BRANCH   4   5
ATOM      5  C   UNL A   1      30.040  26.874  23.883  1.00  0.00     0.261 C 
BRANCH   5   6
ATOM      6  O   UNL A   1      30.038  25.681  24.675  1.00  0.00    -0.460 OA
BRANCH   6   7
ATOM      7  C   UNL A   1      30.732  25.726  25.831  1.00  0.00     0.330 C 
ATOM      8  O   UNL A   1      30.631  26.582  26.696  1.00  0.00    -0.247 OA
BRANCH   7   9
ATOM      9  C   UNL A   1      31.537  24.501  26.017  1.00  0.00     0.095 C 
ATOM     10  C   UNL A   1      32.835  24.372  25.686  1.00  0.00     0.027 C 
BRANCH  10  11
ATOM     11  C   UNL A   1      33.574  23.148  25.837  1.00  0.00     0.031 A 
ATOM     12  C   UNL A   1      32.950  22.448  28.243  1.00  0.00     0.046 C 
ATOM     13  C   UNL A   1      33.701  22.322  26.955  1.00  0.00    -0.032 A 
ATOM     14  C   UNL A   1      34.665  21.272  26.735  1.00  0.00     0.029 A 
ATOM     15  C   UNL A   1      35.222  21.284  25.471  1.00  0.00     0.093 A 
ATOM     16  S   UNL A   1      34.418  22.440  24.515  1.00  0.00    -0.130 S 
BRANCH  15  17
ATOM     17  C   UNL A   1      36.183  20.319  24.927  1.00  0.00     0.266 C 
ATOM     18  O   UNL A   1      37.343  20.655  24.668  1.00  0.00    -0.268 OA
ATOM     19  N   UNL A   1      35.872  18.984  24.791  1.00  0.00    -0.304 N 
ATOM     20  H   UNL A   1      36.639  18.370  24.822  1.00  0.00     0.171 HD
BRANCH  19  21
ATOM     21  C   UNL A   1      34.650  18.387  24.620  1.00  0.00     0.154 A 
ATOM     22  C   UNL A   1      33.420  18.960  24.219  1.00  0.00     0.068 A 
ATOM     23  N   UNL A   1      34.526  17.076  24.829  1.00  0.00    -0.155 NA
ATOM     24  C   UNL A   1      32.495  17.952  24.354  1.00  0.00     0.110 A 
ATOM     25  N   UNL A   1      33.196  16.874  24.808  1.00  0.00    -0.274 N 
ATOM     26  C   UNL A   1      32.655  15.647  25.342  1.00  0.00     0.173 C 
ENDBRANCH  19  21
ENDBRANCH  15  17
ENDBRANCH  10  11
ENDBRANCH   7   9
ENDBRANCH   6   7
ENDBRANCH   5   6
ENDBRANCH   4   5
ENDBRANCH   3   4
ENDBRANCH   2   3
ENDBRANCH   1   2
BRANCH   1  27
ATOM     27  O   UNL A   1      33.973  26.822  23.721  1.00  0.00    -0.377 OA
BRANCH  27  28
ATOM     28  C   UNL A   1      33.661  27.834  24.680  1.00  0.00     0.188 C 
BRANCH  28  29
ATOM     29  C   UNL A   1      33.151  29.244  24.290  1.00  0.00     0.188 C 
BRANCH  29  30
ATOM     30  O   UNL A   1      31.908  29.601  24.867  1.00  0.00    -0.376 OA
BRANCH  30  31
ATOM     31  C   UNL A   1      31.865  29.804  26.267  1.00  0.00     0.202 C 
BRANCH  31  32
ATOM     32  C   UNL A   1      32.920  30.756  26.846  1.00  0.00     0.261 C 
BRANCH  32  33
ATOM     33  O   UNL A   1      33.941  30.147  27.654  1.00  0.00    -0.460 OA
BRANCH  33  34
ATOM     34  C   UNL A   1      34.712  30.967  28.398  1.00  0.00     0.338 C 
ATOM     35  O   UNL A   1      34.372  32.002  28.951  1.00  0.00    -0.246 OA
BRANCH  34  36
ATOM     36  C   UNL A   1      36.017  30.304  28.588  1.00  0.00     0.060 A 
ATOM     37  C   UNL A   1      36.294  29.670  29.807  1.00  0.00     0.016 A 
ATOM     38  C   UNL A   1      36.960  30.303  27.558  1.00  0.00     0.016 A 
ATOM     39  C   UNL A   1      37.534  29.061  30.010  1.00  0.00     0.010 A 
ATOM     40  C   UNL A   1      38.207  29.709  27.769  1.00  0.00     0.010 A 
ATOM     41  C   UNL A   1      38.512  29.114  29.007  1.00  0.00    -0.014 A 
BRANCH  41  42
ATOM     42  C   UNL A   1      39.911  28.726  29.314  1.00  0.00     0.031 A 
ATOM     43  C   UNL A   1      40.756  29.678  30.114  1.00  0.00     0.074 A 
ATOM     44  C   UNL A   1      40.422  27.553  28.900  1.00  0.00     0.049 A 
ATOM     45  N   UNL A   1      42.018  29.597  30.448  1.00  0.00    -0.248 NA
ATOM     46  C   UNL A   1      40.082  30.893  30.600  1.00  0.00     0.031 C 
ATOM     47  C   UNL A   1      39.694  26.530  28.155  1.00  0.00     0.029 A 
ATOM     48  N   UNL A   1      41.686  27.035  29.042  1.00  0.00    -0.354 N 
ATOM     49  C   UNL A   1      42.290  30.749  31.174  1.00  0.00     0.074 A 
ATOM     50  C   UNL A   1      41.073  31.531  31.202  1.00  0.00     0.031 C 
ATOM     51  C   UNL A   1      40.529  25.509  27.891  1.00  0.00     0.029 A 
ATOM     52  C   UNL A   1      41.858  25.825  28.415  1.00  0.00     0.049 A 
ATOM     53  H   UNL A   1      42.401  27.488  29.545  1.00  0.00     0.167 HD
ATOM     54  C   UNL A   1      43.448  31.118  31.771  1.00  0.00     0.037 A 
ATOM     55  C   UNL A   1      42.968  25.076  28.261  1.00  0.00     0.037 A 
ATOM     56  C   UNL A   1      44.658  30.341  31.735  1.00  0.00     0.049 A 
ATOM     57  C   UNL A   1      44.269  25.549  28.864  1.00  0.00     0.074 A 
ATOM     58  C   UNL A   1      45.881  30.620  32.320  1.00  0.00     0.029 A 
ATOM     59  N   UNL A   1      44.801  29.134  31.065  1.00  0.00    -0.354 N 
ATOM     60  N   UNL A   1      44.514  26.626  29.572  1.00  0.00    -0.248 NA
ATOM     61  C   UNL A   1      45.448  24.697  28.648  1.00  0.00     0.031 C 
ATOM     62  C   UNL A   1      46.781  29.616  31.950  1.00  0.00     0.029 A 
ATOM     63  C   UNL A   1      46.102  28.673  31.197  1.00  0.00     0.049 A 
ATOM     64  H   UNL A   1      44.086  28.675  30.569  1.00  0.00     0.167 HD
ATOM     65  C   UNL A   1      45.859  26.563  29.915  1.00  0.00     0.074 A 
ATOM     66  C   UNL A   1      46.375  25.336  29.348  1.00  0.00     0.031 C 
ATOM     67  C   UNL A   1      46.601  27.442  30.635  1.00  0.00     0.037 A 
BRANCH  54  68
ATOM     68  C   UNL A   1      43.469  32.438  32.488  1.00  0.00     0.064 A 
ATOM     69  C   UNL A   1      43.767  33.638  31.824  1.00  0.00     0.173 A 
ATOM     70  C   UNL A   1      43.160  32.506  33.855  1.00  0.00     0.173 A 
ATOM     71  F   UNL A   1      44.084  33.628  30.521  1.00  0.00    -0.203 F 
ATOM     72  C   UNL A   1      43.784  34.851  32.509  1.00  0.00     0.198 A 
ATOM     73  C   UNL A   1      43.144  33.724  34.529  1.00  0.00     0.198 A 
ATOM     74  F   UNL A   1      42.865  31.390  34.539  1.00  0.00    -0.203 F 
ATOM     75  F   UNL A   1      44.125  35.976  31.867  1.00  0.00    -0.200 F 
ATOM     76  C   UNL A   1      43.464  34.894  33.857  1.00  0.00     0.200 A 
ATOM     77  F   UNL A   1      42.820  33.766  35.828  1.00  0.00    -0.200 F 
ATOM     78  F   UNL A   1      43.473  36.063  34.513  1.00  0.00    -0.200 F 
ENDBRANCH  54  68
BRANCH  55  79
ATOM     79  C   UNL A   1      42.910  23.807  27.488  1.00  0.00     0.064 A 
ATOM     80  C   UNL A   1      43.264  23.766  26.131  1.00  0.00     0.173 A 
ATOM     81  C   UNL A   1      42.470  22.614  28.080  1.00  0.00     0.173 A 
ATOM     82  F   UNL A   1      43.664  24.886  25.510  1.00  0.00    -0.203 F 
ATOM     83  C   UNL A   1      43.159  22.588  25.394  1.00  0.00     0.198 A 
ATOM     84  C   UNL A   1      42.399  21.429  27.350  1.00  0.00     0.198 A 
ATOM     85  F   UNL A   1      42.115  22.596  29.373  1.00  0.00    -0.203 F 
ATOM     86  F   UNL A   1      43.452  22.592  24.085  1.00  0.00    -0.200 F 
ATOM     87  C   UNL A   1      42.734  21.419  26.005  1.00  0.00     0.200 A 
ATOM     88  F   UNL A   1      42.000  20.298  27.949  1.00  0.00    -0.200 F 
ATOM     89  F   UNL A   1      42.637  20.286  25.296  1.00  0.00    -0.200 F 
ENDBRANCH  55  79
BRANCH  67  90
ATOM     90  C   UNL A   1      48.039  27.088  30.898  1.00  0.00     0.064 A 
ATOM     91  C   UNL A   1      48.413  26.217  31.931  1.00  0.00     0.173 A 
ATOM     92  C   UNL A   1      49.053  27.595  30.069  1.00  0.00     0.173 A 
ATOM     93  F   UNL A   1      47.485  25.713  32.759  1.00  0.00    -0.203 F 
ATOM     94  C   UNL A   1      49.751  25.891  32.144  1.00  0.00     0.198 A 
ATOM     95  C   UNL A   1      50.385  27.238  30.262  1.00  0.00     0.198 A 
ATOM     96  F   UNL A   1      48.751  28.424  29.059  1.00  0.00    -0.203 F 
ATOM     97  F   UNL A   1      50.090  25.100  33.172  1.00  0.00    -0.200 F 
ATOM     98  C   UNL A   1      50.734  26.394  31.306  1.00  0.00     0.200 A 
ATOM     99  F   UNL A   1      51.329  27.711  29.438  1.00  0.00    -0.200 F 
ATOM    100  F   UNL A   1      52.019  26.072  31.506  1.00  0.00    -0.200 F 
ENDBRANCH  67  90
ENDBRANCH  41  42
ENDBRANCH  34  36
ENDBRANCH  33  34
ENDBRANCH  32  33
ENDBRANCH  31  32
ENDBRANCH  30  31
ENDBRANCH  29  30
ENDBRANCH  28  29
ENDBRANCH  27  28
ENDBRANCH   1  27
TORSDOF 23
ENDMDL
MODEL 2
REMARK VINA RESULT:     -10.2      4.317      9.676
REMARK SMILES Cc1cc(C(=O)Nc2ccn(C)n2)sc1/C=C/C(=O)OCCOCCOCCOCCOC(=O)c1ccc(-c2c3nc(c(-c4c(F)c(F)c(F)c(F)c4F)c4ccc([nH]4)c(-c4c(F)c(F)c(F)c(F)c4F)c4nc(c(-c5c(F)c(F)c(F)c(F)c5F)c5ccc2[nH]5)C=C4)C=C3)cc1
REMARK SMILES IDX 25 1 24 2 23 3 22 4 21 5 20 6 18 7 19 8 17 9 16 10 15 11
REMARK SMILES IDX 1 12 2 13 3 14 4 15 14 16 5 17 6 18 7 19 8 21 9 22 13 23
REMARK SMILES IDX 10 24 11 25 12 26 26 27 27 28 28 29 29 30 30 31 31 32 32 33
REMARK SMILES IDX 33 34 34 35 35 36 36 37 97 38 37 39 96 40 38 41 39 42 40 43
REMARK SMILES IDX 90 44 41 45 95 46 89 47 91 48 42 49 94 50 88 51 87 52 43 54
REMARK SMILES IDX 75 55 55 56 74 57 56 58 59 59 73 60 92 61 57 62 58 63 72 65
REMARK SMILES IDX 93 66 60 67 44 68 45 69 53 70 46 71 47 72 51 73 54 74 48 75
REMARK SMILES IDX 49 76 52 77 50 78 76 79 77 80 85 81 78 82 79 83 83 84 86 85
REMARK SMILES IDX 80 86 81 87 84 88 82 89 61 90 62 91 70 92 63 93 64 94 68 95
REMARK SMILES IDX 71 96 65 97 66 98 69 99 67 100
REMARK H PARENT 7 20 91 53 59 64
REMARK Flexibility Score: inf
ROOT
ATOM      1  C   UNL A   1      37.713  22.148  25.666  1.00  0.00     0.188 C 
ENDROOT
BRANCH   1   2
ATOM      2  C   UNL A   1      36.731  23.334  25.588  1.00  0.00     0.188 C 
BRANCH   2   3
ATOM      3  O   UNL A   1      35.379  22.956  25.778  1.00  0.00    -0.376 OA
BRANCH   3   4
ATOM      4  C   UNL A   1      35.066  21.633  26.165  1.00  0.00     0.202 C 
BRANCH   4   5
ATOM      5  C   UNL A   1      33.716  21.313  26.826  1.00  0.00     0.261 C 
BRANCH   5   6
ATOM      6  O   UNL A   1      32.858  22.420  27.120  1.00  0.00    -0.460 OA
BRANCH   6   7
ATOM      7  C   UNL A   1      31.825  22.622  26.275  1.00  0.00     0.330 C 
ATOM      8  O   UNL A   1      30.869  21.878  26.121  1.00  0.00    -0.247 OA
BRANCH   7   9
ATOM      9  C   UNL A   1      31.898  23.961  25.655  1.00  0.00     0.095 C 
ATOM     10  C   UNL A   1      32.100  25.111  26.323  1.00  0.00     0.027 C 
BRANCH  10  11
ATOM     11  C   UNL A   1      32.116  26.403  25.691  1.00  0.00     0.031 A 
ATOM     12  C   UNL A   1      31.430  27.953  27.639  1.00  0.00     0.046 C 
ATOM     13  C   UNL A   1      31.767  27.649  26.213  1.00  0.00    -0.032 A 
ATOM     14  C   UNL A   1      31.775  28.673  25.197  1.00  0.00     0.029 A 
ATOM     15  C   UNL A   1      32.158  28.217  23.950  1.00  0.00     0.093 A 
ATOM     16  S   UNL A   1      32.692  26.607  24.082  1.00  0.00    -0.130 S 
BRANCH  15  17
ATOM     17  C   UNL A   1      32.319  29.020  22.734  1.00  0.00     0.266 C 
ATOM     18  O   UNL A   1      33.437  29.222  22.250  1.00  0.00    -0.268 OA
ATOM     19  N   UNL A   1      31.234  29.481  22.020  1.00  0.00    -0.304 N 
ATOM     20  H   UNL A   1      31.396  29.632  21.062  1.00  0.00     0.171 HD
BRANCH  19  21
ATOM     21  C   UNL A   1      29.963  29.758  22.450  1.00  0.00     0.154 A 
ATOM     22  C   UNL A   1      29.475  30.897  23.132  1.00  0.00     0.068 A 
ATOM     23  N   UNL A   1      28.985  28.880  22.216  1.00  0.00    -0.155 NA
ATOM     24  C   UNL A   1      28.172  30.593  23.449  1.00  0.00     0.110 A 
ATOM     25  N   UNL A   1      27.960  29.339  22.956  1.00  0.00    -0.274 N 
ATOM     26  C   UNL A   1      26.843  28.471  23.238  1.00  0.00     0.173 C 
ENDBRANCH  19  21
ENDBRANCH  15  17
ENDBRANCH  10  11
ENDBRANCH   7   9
ENDBRANCH   6   7
ENDBRANCH   5   6
ENDBRANCH   4   5
ENDBRANCH   3   4
ENDBRANCH   2   3
ENDBRANCH   1   2
BRANCH   1  27
ATOM     27  O   UNL A   1      38.958  22.366  26.315  1.00  0.00    -0.377 OA
BRANCH  27  28
ATOM     28  C   UNL A   1      39.923  21.315  26.385  1.00  0.00     0.188 C 
BRANCH  28  29
ATOM     29  C   UNL A   1      41.321  21.490  27.028  1.00  0.00     0.188 C 
BRANCH  29  30
ATOM     30  O   UNL A   1      42.115  20.317  27.041  1.00  0.00    -0.376 OA
BRANCH  30  31
ATOM     31  C   UNL A   1      42.011  19.439  25.935  1.00  0.00     0.202 C 
BRANCH  31  32
ATOM     32  C   UNL A   1      43.165  18.446  25.748  1.00  0.00     0.261 C 
BRANCH  32  33
ATOM     33  O   UNL A   1      44.458  19.023  25.502  1.00  0.00    -0.460 OA
BRANCH  33  34
ATOM     34  C   UNL A   1      44.610  19.741  24.370  1.00  0.00     0.338 C 
ATOM     35  O   UNL A   1      44.359  19.386  23.229  1.00  0.00    -0.246 OA
BRANCH  34  36
ATOM     36  C   UNL A   1      44.969  21.119  24.760  1.00  0.00     0.060 A 
ATOM     37  C   UNL A   1      45.345  21.382  26.085  1.00  0.00     0.016 A 
ATOM     38  C   UNL A   1      44.942  22.146  23.815  1.00  0.00     0.016 A 
ATOM     39  C   UNL A   1      45.664  22.684  26.474  1.00  0.00     0.010 A 
ATOM     40  C   UNL A   1      45.243  23.452  24.210  1.00  0.00     0.010 A 
ATOM     41  C   UNL A   1      45.573  23.733  25.549  1.00  0.00    -0.014 A 
BRANCH  41  42
ATOM     42  C   UNL A   1      45.630  25.141  26.013  1.00  0.00     0.031 A 
ATOM     43  C   UNL A   1      46.955  25.850  25.978  1.00  0.00     0.074 A 
ATOM     44  C   UNL A   1      44.532  25.782  26.449  1.00  0.00     0.049 A 
ATOM     45  N   UNL A   1      47.272  27.050  26.393  1.00  0.00    -0.248 NA
ATOM     46  C   UNL A   1      48.080  25.097  25.400  1.00  0.00     0.031 C 
ATOM     47  C   UNL A   1      43.186  25.219  26.493  1.00  0.00     0.029 A 
ATOM     48  N   UNL A   1      44.384  27.052  26.953  1.00  0.00    -0.354 N 
ATOM     49  C   UNL A   1      48.629  27.191  26.133  1.00  0.00     0.074 A 
ATOM     50  C   UNL A   1      49.084  25.944  25.558  1.00  0.00     0.031 C 
ATOM     51  C   UNL A   1      42.347  26.135  27.010  1.00  0.00     0.029 A 
ATOM     52  C   UNL A   1      43.106  27.333  27.369  1.00  0.00     0.049 A 
ATOM     53  H   UNL A   1      45.125  27.697  27.010  1.00  0.00     0.167 HD
ATOM     54  C   UNL A   1      49.422  28.268  26.346  1.00  0.00     0.037 A 
ATOM     55  C   UNL A   1      42.616  28.423  27.992  1.00  0.00     0.037 A 
ATOM     56  C   UNL A   1      48.967  29.504  26.924  1.00  0.00     0.049 A 
ATOM     57  C   UNL A   1      43.539  29.579  28.296  1.00  0.00     0.074 A 
ATOM     58  C   UNL A   1      49.688  30.660  27.168  1.00  0.00     0.029 A 
ATOM     59  N   UNL A   1      47.671  29.741  27.360  1.00  0.00    -0.354 N 
ATOM     60  N   UNL A   1      44.815  29.718  28.024  1.00  0.00    -0.248 NA
ATOM     61  C   UNL A   1      42.949  30.733  28.991  1.00  0.00     0.031 C 
ATOM     62  C   UNL A   1      48.846  31.572  27.812  1.00  0.00     0.029 A 
ATOM     63  C   UNL A   1      47.581  31.015  27.901  1.00  0.00     0.049 A 
ATOM     64  H   UNL A   1      46.928  29.100  27.296  1.00  0.00     0.167 HD
ATOM     65  C   UNL A   1      45.170  30.982  28.480  1.00  0.00     0.074 A 
ATOM     66  C   UNL A   1      43.972  31.575  29.036  1.00  0.00     0.031 C 
ATOM     67  C   UNL A   1      46.378  31.597  28.442  1.00  0.00     0.037 A 
BRANCH  54  68
ATOM     68  C   UNL A   1      50.874  28.143  25.981  1.00  0.00     0.064 A 
ATOM     69  C   UNL A   1      51.853  27.814  26.931  1.00  0.00     0.173 A 
ATOM     70  C   UNL A   1      51.289  28.329  24.653  1.00  0.00     0.173 A 
ATOM     71  F   UNL A   1      51.513  27.640  28.217  1.00  0.00    -0.203 F 
ATOM     72  C   UNL A   1      53.194  27.706  26.571  1.00  0.00     0.198 A 
ATOM     73  C   UNL A   1      52.625  28.187  24.290  1.00  0.00     0.198 A 
ATOM     74  F   UNL A   1      50.395  28.643  23.702  1.00  0.00    -0.203 F 
ATOM     75  F   UNL A   1      54.118  27.446  27.506  1.00  0.00    -0.200 F 
ATOM     76  C   UNL A   1      53.577  27.884  25.251  1.00  0.00     0.200 A 
ATOM     77  F   UNL A   1      52.991  28.344  23.011  1.00  0.00    -0.200 F 
ATOM     78  F   UNL A   1      54.867  27.773  24.905  1.00  0.00    -0.200 F 
ENDBRANCH  54  68
BRANCH  55  79
ATOM     79  C   UNL A   1      41.184  28.473  28.391  1.00  0.00     0.064 A 
ATOM     80  C   UNL A   1      40.211  29.014  27.536  1.00  0.00     0.173 A 
ATOM     81  C   UNL A   1      40.761  28.011  29.645  1.00  0.00     0.173 A 
ATOM     82  F   UNL A   1      40.567  29.495  26.336  1.00  0.00    -0.203 F 
ATOM     83  C   UNL A   1      38.878  29.109  27.931  1.00  0.00     0.198 A 
ATOM     84  C   UNL A   1      39.422  28.075  30.025  1.00  0.00     0.198 A 
ATOM     85  F   UNL A   1      41.650  27.489  30.504  1.00  0.00    -0.203 F 
ATOM     86  F   UNL A   1      37.980  29.681  27.116  1.00  0.00    -0.200 F 
ATOM     87  C   UNL A   1      38.483  28.634  29.172  1.00  0.00     0.200 A 
ATOM     88  F   UNL A   1      39.043  27.602  31.220  1.00  0.00    -0.200 F 
ATOM     89  F   UNL A   1      37.200  28.723  29.549  1.00  0.00    -0.200 F 
ENDBRANCH  55  79
BRANCH  67  90
ATOM     90  C   UNL A   1      46.461  33.004  28.969  1.00  0.00     0.064 A 
ATOM     91  C   UNL A   1      46.215  34.119  28.154  1.00  0.00     0.173 A 
ATOM     92  C   UNL A   1      46.745  33.233  30.325  1.00  0.00     0.173 A 
ATOM     93  F   UNL A   1      45.950  33.957  26.849  1.00  0.00    -0.203 F 
ATOM     94  C   UNL A   1      46.281  35.411  28.671  1.00  0.00     0.198 A 
ATOM     95  C   UNL A   1      46.774  34.524  30.845  1.00  0.00     0.198 A 
ATOM     96  F   UNL A   1      46.978  32.203  31.152  1.00  0.00    -0.203 F 
ATOM     97  F   UNL A   1      46.097  36.463  27.861  1.00  0.00    -0.200 F 
ATOM     98  C   UNL A   1      46.552  35.613  30.015  1.00  0.00     0.200 A 
ATOM     99  F   UNL A   1      47.016  34.714  32.149  1.00  0.00    -0.200 F 
ATOM    100  F   UNL A   1      46.605  36.856  30.512  1.00  0.00    -0.200 F 
ENDBRANCH  67  90
ENDBRANCH  41  42
ENDBRANCH  34  36
ENDBRANCH  33  34
ENDBRANCH  32  33
ENDBRANCH  31  32
ENDBRANCH  30  31
ENDBRANCH  29  30
ENDBRANCH  28  29
ENDBRANCH  27  28
ENDBRANCH   1  27
TORSDOF 23
ENDMDL
MODEL 3
REMARK VINA RESULT:      -9.7      4.309      9.223
REMARK SMILES Cc1cc(C(=O)Nc2ccn(C)n2)sc1/C=C/C(=O)OCCOCCOCCOCCOC(=O)c1ccc(-c2c3nc(c(-c4c(F)c(F)c(F)c(F)c4F)c4ccc([nH]4)c(-c4c(F)c(F)c(F)c(F)c4F)c4nc(c(-c5c(F)c(F)c(F)c(F)c5F)c5ccc2[nH]5)C=C4)C=C3)cc1
REMARK SMILES IDX 25 1 24 2 23 3 22 4 21 5 20 6 18 7 19 8 17 9 16 10 15 11
REMARK SMILES IDX 1 12 2 13 3 14 4 15 14 16 5 17 6 18 7 19 8 21 9 22 13 23
REMARK SMILES IDX 10 24 11 25 12 26 26 27 27 28 28 29 29 30 30 31 31 32 32 33
REMARK SMILES IDX 33 34 34 35 35 36 36 37 97 38 37 39 96 40 38 41 39 42 40 43
REMARK SMILES IDX 90 44 41 45 95 46 89 47 91 48 42 49 94 50 88 51 87 52 43 54
REMARK SMILES IDX 75 55 55 56 74 57 56 58 59 59 73 60 92 61 57 62 58 63 72 65
REMARK SMILES IDX 93 66 60 67 44 68 45 69 53 70 46 71 47 72 51 73 54 74 48 75
REMARK SMILES IDX 49 76 52 77 50 78 76 79 77 80 85 81 78 82 79 83 83 84 86 85
REMARK SMILES IDX 80 86 81 87 84 88 82 89 61 90 62 91 70 92 63 93 64 94 68 95
REMARK SMILES IDX 71 96 65 97 66 98 69 99 67 100
REMARK H PARENT 7 20 91 53 59 64
REMARK Flexibility Score: inf
ROOT
ATOM      1  C   UNL A   1      37.966  21.709  25.592  1.00  0.00     0.188 C 
ENDROOT
BRANCH   1   2
ATOM      2  C   UNL A   1      37.087  22.953  25.355  1.00  0.00     0.188 C 
BRANCH   2   3
ATOM      3  O   UNL A   1      35.728  22.640  25.105  1.00  0.00    -0.376 OA
BRANCH   3   4
ATOM      4  C   UNL A   1      35.288  21.300  25.193  1.00  0.00     0.202 C 
BRANCH   4   5
ATOM      5  C   UNL A   1      34.074  20.934  26.063  1.00  0.00     0.261 C 
BRANCH   5   6
ATOM      6  O   UNL A   1      33.263  22.015  26.535  1.00  0.00    -0.460 OA
BRANCH   6   7
ATOM      7  C   UNL A   1      32.131  22.263  25.844  1.00  0.00     0.330 C 
ATOM      8  O   UNL A   1      31.168  21.518  25.753  1.00  0.00    -0.247 OA
BRANCH   7   9
ATOM      9  C   UNL A   1      32.114  23.647  25.326  1.00  0.00     0.095 C 
ATOM     10  C   UNL A   1      32.548  24.728  26.000  1.00  0.00     0.027 C 
BRANCH  10  11
ATOM     11  C   UNL A   1      32.472  26.068  25.482  1.00  0.00     0.031 A 
ATOM     12  C   UNL A   1      31.406  27.340  27.460  1.00  0.00     0.046 C 
ATOM     13  C   UNL A   1      31.922  27.212  26.061  1.00  0.00    -0.032 A 
ATOM     14  C   UNL A   1      31.911  28.322  25.140  1.00  0.00     0.029 A 
ATOM     15  C   UNL A   1      32.472  28.032  23.911  1.00  0.00     0.093 A 
ATOM     16  S   UNL A   1      33.181  26.486  23.971  1.00  0.00    -0.130 S 
BRANCH  15  17
ATOM     17  C   UNL A   1      32.659  28.959  22.791  1.00  0.00     0.266 C 
ATOM     18  O   UNL A   1      33.787  29.329  22.455  1.00  0.00    -0.268 OA
ATOM     19  N   UNL A   1      31.604  29.363  22.001  1.00  0.00    -0.304 N 
ATOM     20  H   UNL A   1      31.844  29.621  21.082  1.00  0.00     0.171 HD
BRANCH  19  21
ATOM     21  C   UNL A   1      30.272  29.455  22.306  1.00  0.00     0.154 A 
ATOM     22  C   UNL A   1      29.484  30.607  22.542  1.00  0.00     0.068 A 
ATOM     23  N   UNL A   1      29.541  28.343  22.398  1.00  0.00    -0.155 NA
ATOM     24  C   UNL A   1      28.261  30.126  22.948  1.00  0.00     0.110 A 
ATOM     25  N   UNL A   1      28.380  28.767  22.929  1.00  0.00    -0.274 N 
ATOM     26  C   UNL A   1      27.468  27.807  23.501  1.00  0.00     0.173 C 
ENDBRANCH  19  21
ENDBRANCH  15  17
ENDBRANCH  10  11
ENDBRANCH   7   9
ENDBRANCH   6   7
ENDBRANCH   5   6
ENDBRANCH   4   5
ENDBRANCH   3   4
ENDBRANCH   2   3
ENDBRANCH   1   2
BRANCH   1  27
ATOM     27  O   UNL A   1      39.129  21.869  26.393  1.00  0.00    -0.377 OA
BRANCH  27  28
ATOM     28  C   UNL A   1      40.101  20.825  26.461  1.00  0.00     0.188 C 
BRANCH  28  29
ATOM     29  C   UNL A   1      41.514  21.019  27.067  1.00  0.00     0.188 C 
BRANCH  29  30
ATOM     30  O   UNL A   1      42.337  19.867  27.025  1.00  0.00    -0.376 OA
BRANCH  30  31
ATOM     31  C   UNL A   1      42.271  19.053  25.870  1.00  0.00     0.202 C 
BRANCH  31  32
ATOM     32  C   UNL A   1      43.533  18.244  25.539  1.00  0.00     0.261 C 
BRANCH  32  33
ATOM     33  O   UNL A   1      44.727  19.009  25.304  1.00  0.00    -0.460 OA
BRANCH  33  34
ATOM     34  C   UNL A   1      44.707  19.887  24.280  1.00  0.00     0.338 C 
ATOM     35  O   UNL A   1      44.529  19.641  23.097  1.00  0.00    -0.246 OA
BRANCH  34  36
ATOM     36  C   UNL A   1      44.763  21.246  24.855  1.00  0.00     0.060 A 
ATOM     37  C   UNL A   1      44.363  22.338  24.073  1.00  0.00     0.016 A 
ATOM     38  C   UNL A   1      45.200  21.436  26.167  1.00  0.00     0.016 A 
ATOM     39  C   UNL A   1      44.433  23.632  24.594  1.00  0.00     0.010 A 
ATOM     40  C   UNL A   1      45.288  22.732  26.681  1.00  0.00     0.010 A 
ATOM     41  C   UNL A   1      44.936  23.839  25.886  1.00  0.00    -0.014 A 
BRANCH  41  42
ATOM     42  C   UNL A   1      45.279  25.210  26.338  1.00  0.00     0.031 A 
ATOM     43  C   UNL A   1      44.189  26.059  26.929  1.00  0.00     0.074 A 
ATOM     44  C   UNL A   1      46.531  25.691  26.238  1.00  0.00     0.049 A 
ATOM     45  N   UNL A   1      44.224  27.304  27.330  1.00  0.00    -0.248 NA
ATOM     46  C   UNL A   1      42.874  25.414  27.082  1.00  0.00     0.031 C 
ATOM     47  C   UNL A   1      47.680  24.952  25.723  1.00  0.00     0.029 A 
ATOM     48  N   UNL A   1      47.036  26.927  26.555  1.00  0.00    -0.354 N 
ATOM     49  C   UNL A   1      42.940  27.593  27.774  1.00  0.00     0.074 A 
ATOM     50  C   UNL A   1      42.140  26.406  27.561  1.00  0.00     0.031 C 
ATOM     51  C   UNL A   1      48.759  25.757  25.746  1.00  0.00     0.029 A 
ATOM     52  C   UNL A   1      48.365  27.076  26.241  1.00  0.00     0.049 A 
ATOM     53  H   UNL A   1      46.497  27.639  26.969  1.00  0.00     0.167 HD
ATOM     54  C   UNL A   1      42.472  28.741  28.319  1.00  0.00     0.037 A 
ATOM     55  C   UNL A   1      49.160  28.162  26.319  1.00  0.00     0.037 A 
ATOM     56  C   UNL A   1      43.270  29.920  28.523  1.00  0.00     0.049 A 
ATOM     57  C   UNL A   1      48.594  29.456  26.852  1.00  0.00     0.074 A 
ATOM     58  C   UNL A   1      42.894  31.131  29.081  1.00  0.00     0.029 A 
ATOM     59  N   UNL A   1      44.605  30.042  28.164  1.00  0.00    -0.354 N 
ATOM     60  N   UNL A   1      47.387  29.716  27.295  1.00  0.00    -0.248 NA
ATOM     61  C   UNL A   1      49.506  30.609  26.897  1.00  0.00     0.031 C 
ATOM     62  C   UNL A   1      43.983  32.005  29.000  1.00  0.00     0.029 A 
ATOM     63  C   UNL A   1      45.059  31.319  28.461  1.00  0.00     0.049 A 
ATOM     64  H   UNL A   1      45.148  29.329  27.759  1.00  0.00     0.167 HD
ATOM     65  C   UNL A   1      47.404  31.043  27.704  1.00  0.00     0.074 A 
ATOM     66  C   UNL A   1      48.746  31.533  27.468  1.00  0.00     0.031 C 
ATOM     67  C   UNL A   1      46.401  31.791  28.230  1.00  0.00     0.037 A 
BRANCH  54  68
ATOM     68  C   UNL A   1      41.021  28.785  28.704  1.00  0.00     0.064 A 
ATOM     69  C   UNL A   1      40.014  29.077  27.770  1.00  0.00     0.173 A 
ATOM     70  C   UNL A   1      40.629  28.505  30.022  1.00  0.00     0.173 A 
ATOM     71  F   UNL A   1      40.335  29.367  26.501  1.00  0.00    -0.203 F 
ATOM     72  C   UNL A   1      38.675  29.116  28.150  1.00  0.00     0.198 A 
ATOM     73  C   UNL A   1      39.287  28.511  30.390  1.00  0.00     0.198 A 
ATOM     74  F   UNL A   1      41.549  28.217  30.956  1.00  0.00    -0.203 F 
ATOM     75  F   UNL A   1      37.737  29.451  27.253  1.00  0.00    -0.200 F 
ATOM     76  C   UNL A   1      38.311  28.825  29.455  1.00  0.00     0.200 A 
ATOM     77  F   UNL A   1      38.936  28.214  31.648  1.00  0.00    -0.200 F 
ATOM     78  F   UNL A   1      37.021  28.855  29.817  1.00  0.00    -0.200 F 
ENDBRANCH  54  68
BRANCH  55  79
ATOM     79  C   UNL A   1      50.575  28.084  25.866  1.00  0.00     0.064 A 
ATOM     80  C   UNL A   1      51.629  28.004  26.789  1.00  0.00     0.173 A 
ATOM     81  C   UNL A   1      50.905  28.119  24.504  1.00  0.00     0.173 A 
ATOM     82  F   UNL A   1      51.367  27.996  28.104  1.00  0.00    -0.203 F 
ATOM     83  C   UNL A   1      52.956  27.985  26.366  1.00  0.00     0.198 A 
ATOM     84  C   UNL A   1      52.232  28.065  24.081  1.00  0.00     0.198 A 
ATOM     85  F   UNL A   1      49.938  28.200  23.578  1.00  0.00    -0.203 F 
ATOM     86  F   UNL A   1      53.945  27.964  27.271  1.00  0.00    -0.200 F 
ATOM     87  C   UNL A   1      53.258  28.008  25.012  1.00  0.00     0.200 A 
ATOM     88  F   UNL A   1      52.517  28.074  22.772  1.00  0.00    -0.200 F 
ATOM     89  F   UNL A   1      54.534  27.986  24.607  1.00  0.00    -0.200 F 
ENDBRANCH  55  79
BRANCH  67  90
ATOM     90  C   UNL A   1      46.723  33.203  28.634  1.00  0.00     0.064 A 
ATOM     91  C   UNL A   1      47.224  33.517  29.906  1.00  0.00     0.173 A 
ATOM     92  C   UNL A   1      46.570  34.253  27.713  1.00  0.00     0.173 A 
ATOM     93  F   UNL A   1      47.378  32.554  30.827  1.00  0.00    -0.203 F 
ATOM     94  C   UNL A   1      47.530  34.832  30.251  1.00  0.00     0.198 A 
ATOM     95  C   UNL A   1      46.912  35.560  28.049  1.00  0.00     0.198 A 
ATOM     96  F   UNL A   1      46.105  34.009  26.479  1.00  0.00    -0.203 F 
ATOM     97  F   UNL A   1      47.955  35.115  31.490  1.00  0.00    -0.200 F 
ATOM     98  C   UNL A   1      47.382  35.850  29.321  1.00  0.00     0.200 A 
ATOM     99  F   UNL A   1      46.787  36.538  27.142  1.00  0.00    -0.200 F 
ATOM    100  F   UNL A   1      47.687  37.112  29.652  1.00  0.00    -0.200 F 
ENDBRANCH  67  90
ENDBRANCH  41  42
ENDBRANCH  34  36
ENDBRANCH  33  34
ENDBRANCH  32  33
ENDBRANCH  31  32
ENDBRANCH  30  31
ENDBRANCH  29  30
ENDBRANCH  28  29
ENDBRANCH  27  28
ENDBRANCH   1  27
TORSDOF 23
ENDMDL
