MODEL 1
REMARK VINA RESULT:      -8.5      0.000      0.000
REMARK SMILES CCOc1cccc(-c2ccc([C@@H](C)C(=O)OCCOCCOCCOCCOC(=O)c3ccc(-c4c5nc(c(-c6c(F)c(F)c(F)c(F)c6F)c6ccc([nH]6)c(-c6c(F)c(F)c(F)c(F)c6F)c6nc(c(-c7c(F)c(F)c(F)c(F)c7F)c7ccc4[nH]7)C=C6)C=C5)cc3)cc2F)c1
REMARK SMILES IDX 22 1 21 2 20 3 19 4 18 5 17 6 15 7 16 8 13 9 14 10 12 11
REMARK SMILES IDX 9 12 10 13 96 14 11 15 95 16 97 17 8 18 4 19 5 20 98 21 6 22
REMARK SMILES IDX 7 23 3 24 2 25 1 26 23 27 24 28 25 29 26 30 27 31 28 32
REMARK SMILES IDX 29 33 30 34 31 35 32 36 33 37 94 38 34 39 93 40 35 41 36 42
REMARK SMILES IDX 37 43 87 44 38 45 92 46 86 47 88 48 39 49 91 50 85 51 84 52
REMARK SMILES IDX 40 54 72 55 52 56 71 57 53 58 56 59 70 60 89 61 54 62 55 63
REMARK SMILES IDX 69 65 90 66 57 67 41 68 42 69 50 70 43 71 44 72 48 73 51 74
REMARK SMILES IDX 45 75 46 76 49 77 47 78 73 79 74 80 82 81 75 82 76 83 80 84
REMARK SMILES IDX 83 85 77 86 78 87 81 88 79 89 58 90 59 91 67 92 60 93 61 94
REMARK SMILES IDX 65 95 68 96 62 97 63 98 66 99 64 100
REMARK H PARENT 88 53 56 64
REMARK Flexibility Score: inf
ROOT
ATOM      1  C   UNL A   1      43.453  18.361  26.161  1.00  0.00     0.188 C 
ENDROOT
BRANCH   1   2
ATOM      2  C   UNL A   1      42.360  19.343  25.715  1.00  0.00     0.188 C 
BRANCH   2   3
ATOM      3  O   UNL A   1      41.700  20.175  26.658  1.00  0.00    -0.376 OA
BRANCH   3   4
ATOM      4  C   UNL A   1      42.395  21.218  27.323  1.00  0.00     0.202 C 
BRANCH   4   5
ATOM      5  C   UNL A   1      42.697  22.564  26.635  1.00  0.00     0.261 C 
BRANCH   5   6
ATOM      6  O   UNL A   1      41.891  23.696  27.019  1.00  0.00    -0.463 OA
BRANCH   6   7
ATOM      7  C   UNL A   1      42.174  24.248  28.221  1.00  0.00     0.313 C 
ATOM      8  O   UNL A   1      42.263  23.592  29.258  1.00  0.00    -0.252 OA
BRANCH   7   9
ATOM      9  C   UNL A   1      42.362  25.763  28.239  1.00  0.00     0.126 C 
ATOM     10  C   UNL A   1      43.406  26.101  29.298  1.00  0.00     0.025 C 
BRANCH   9  11
ATOM     11  C   UNL A   1      41.176  26.723  28.321  1.00  0.00    -0.031 A 
ATOM     12  C   UNL A   1      39.006  28.616  28.364  1.00  0.00     0.018 A 
ATOM     13  C   UNL A   1      39.234  27.720  29.426  1.00  0.00     0.012 A 
ATOM     14  C   UNL A   1      39.882  28.526  27.277  1.00  0.00     0.131 A 
ATOM     15  C   UNL A   1      40.299  26.793  29.410  1.00  0.00     0.005 A 
ATOM     16  C   UNL A   1      40.948  27.619  27.256  1.00  0.00     0.044 A 
ATOM     17  F   UNL A   1      39.730  29.334  26.214  1.00  0.00    -0.206 F 
BRANCH  12  18
ATOM     18  C   UNL A   1      37.925  29.630  28.422  1.00  0.00    -0.012 A 
ATOM     19  C   UNL A   1      35.608  30.326  28.054  1.00  0.00     0.119 A 
ATOM     20  C   UNL A   1      35.915  31.627  28.433  1.00  0.00     0.046 A 
ATOM     21  C   UNL A   1      36.603  29.340  28.033  1.00  0.00     0.055 A 
ATOM     22  C   UNL A   1      37.215  31.941  28.817  1.00  0.00     0.004 A 
ATOM     23  C   UNL A   1      38.206  30.952  28.814  1.00  0.00     0.009 A 
BRANCH  19  24
ATOM     24  O   UNL A   1      34.361  30.092  27.543  1.00  0.00    -0.494 OA
BRANCH  24  25
ATOM     25  C   UNL A   1      33.480  31.217  27.630  1.00  0.00     0.226 C 
ATOM     26  C   UNL A   1      32.258  31.006  26.758  1.00  0.00     0.049 C 
ENDBRANCH  24  25
ENDBRANCH  19  24
ENDBRANCH  12  18
ENDBRANCH   9  11
ENDBRANCH   7   9
ENDBRANCH   6   7
ENDBRANCH   5   6
ENDBRANCH   4   5
ENDBRANCH   3   4
ENDBRANCH   2   3
ENDBRANCH   1   2
BRANCH   1  27
ATOM     27  O   UNL A   1      44.445  18.089  25.193  1.00  0.00    -0.377 OA
BRANCH  27  28
ATOM     28  C   UNL A   1      45.705  18.712  25.375  1.00  0.00     0.188 C 
BRANCH  28  29
ATOM     29  C   UNL A   1      45.982  20.013  24.596  1.00  0.00     0.188 C 
BRANCH  29  30
ATOM     30  O   UNL A   1      46.288  21.129  25.420  1.00  0.00    -0.376 OA
BRANCH  30  31
ATOM     31  C   UNL A   1      46.030  22.432  24.925  1.00  0.00     0.202 C 
BRANCH  31  32
ATOM     32  C   UNL A   1      46.279  23.628  25.856  1.00  0.00     0.261 C 
BRANCH  32  33
ATOM     33  O   UNL A   1      45.493  24.810  25.641  1.00  0.00    -0.460 OA
BRANCH  33  34
ATOM     34  C   UNL A   1      46.122  25.935  25.256  1.00  0.00     0.338 C 
ATOM     35  O   UNL A   1      46.818  26.087  24.266  1.00  0.00    -0.246 OA
BRANCH  34  36
ATOM     36  C   UNL A   1      45.675  27.034  26.141  1.00  0.00     0.060 A 
ATOM     37  C   UNL A   1      44.574  27.811  25.754  1.00  0.00     0.016 A 
ATOM     38  C   UNL A   1      46.338  27.302  27.341  1.00  0.00     0.016 A 
ATOM     39  C   UNL A   1      44.163  28.890  26.538  1.00  0.00     0.010 A 
ATOM     40  C   UNL A   1      45.944  28.401  28.111  1.00  0.00     0.010 A 
ATOM     41  C   UNL A   1      44.883  29.225  27.691  1.00  0.00    -0.014 A 
BRANCH  41  42
ATOM     42  C   UNL A   1      44.702  30.559  28.315  1.00  0.00     0.031 A 
ATOM     43  C   UNL A   1      45.687  31.638  27.956  1.00  0.00     0.074 A 
ATOM     44  C   UNL A   1      43.697  30.821  29.169  1.00  0.00     0.049 A 
ATOM     45  N   UNL A   1      45.821  32.846  28.441  1.00  0.00    -0.248 NA
ATOM     46  C   UNL A   1      46.662  31.303  26.905  1.00  0.00     0.031 C 
ATOM     47  C   UNL A   1      42.642  29.885  29.546  1.00  0.00     0.029 A 
ATOM     48  N   UNL A   1      43.414  31.957  29.886  1.00  0.00    -0.354 N 
ATOM     49  C   UNL A   1      46.901  33.403  27.768  1.00  0.00     0.074 A 
ATOM     50  C   UNL A   1      47.405  32.396  26.862  1.00  0.00     0.031 C 
ATOM     51  C   UNL A   1      41.838  30.478  30.446  1.00  0.00     0.029 A 
ATOM     52  C   UNL A   1      42.346  31.819  30.737  1.00  0.00     0.049 A 
ATOM     53  H   UNL A   1      43.928  32.792  29.798  1.00  0.00     0.167 HD
ATOM     54  C   UNL A   1      47.424  34.646  27.894  1.00  0.00     0.037 A 
ATOM     55  C   UNL A   1      41.861  32.667  31.667  1.00  0.00     0.037 A 
ATOM     56  C   UNL A   1      46.921  35.643  28.800  1.00  0.00     0.049 A 
ATOM     57  C   UNL A   1      42.517  34.015  31.855  1.00  0.00     0.074 A 
ATOM     58  C   UNL A   1      47.376  36.934  28.999  1.00  0.00     0.029 A 
ATOM     59  N   UNL A   1      45.853  35.455  29.664  1.00  0.00    -0.354 N 
ATOM     60  N   UNL A   1      43.533  34.540  31.214  1.00  0.00    -0.248 NA
ATOM     61  C   UNL A   1      41.956  34.888  32.897  1.00  0.00     0.031 C 
ATOM     62  C   UNL A   1      46.625  37.504  30.031  1.00  0.00     0.029 A 
ATOM     63  C   UNL A   1      45.651  36.598  30.419  1.00  0.00     0.049 A 
ATOM     64  H   UNL A   1      45.319  34.631  29.732  1.00  0.00     0.167 HD
ATOM     65  C   UNL A   1      43.703  35.816  31.739  1.00  0.00     0.074 A 
ATOM     66  C   UNL A   1      42.685  35.987  32.753  1.00  0.00     0.031 C 
ATOM     67  C   UNL A   1      44.614  36.764  31.406  1.00  0.00     0.037 A 
BRANCH  54  68
ATOM     68  C   UNL A   1      48.628  34.980  27.059  1.00  0.00     0.064 A 
ATOM     69  C   UNL A   1      48.518  35.665  25.840  1.00  0.00     0.173 A 
ATOM     70  C   UNL A   1      49.912  34.629  27.501  1.00  0.00     0.173 A 
ATOM     71  F   UNL A   1      47.312  36.009  25.363  1.00  0.00    -0.203 F 
ATOM     72  C   UNL A   1      49.647  35.958  25.079  1.00  0.00     0.198 A 
ATOM     73  C   UNL A   1      51.041  34.955  26.756  1.00  0.00     0.198 A 
ATOM     74  F   UNL A   1      50.075  33.974  28.660  1.00  0.00    -0.203 F 
ATOM     75  F   UNL A   1      49.514  36.562  23.890  1.00  0.00    -0.200 F 
ATOM     76  C   UNL A   1      50.908  35.610  25.542  1.00  0.00     0.200 A 
ATOM     77  F   UNL A   1      52.260  34.631  27.211  1.00  0.00    -0.200 F 
ATOM     78  F   UNL A   1      51.994  35.901  24.812  1.00  0.00    -0.200 F 
ENDBRANCH  54  68
BRANCH  55  79
ATOM     79  C   UNL A   1      40.703  32.267  32.512  1.00  0.00     0.064 A 
ATOM     80  C   UNL A   1      40.885  31.516  33.683  1.00  0.00     0.173 A 
ATOM     81  C   UNL A   1      39.388  32.598  32.151  1.00  0.00     0.173 A 
ATOM     82  F   UNL A   1      42.120  31.151  34.058  1.00  0.00    -0.203 F 
ATOM     83  C   UNL A   1      39.798  31.094  34.446  1.00  0.00     0.198 A 
ATOM     84  C   UNL A   1      38.304  32.202  32.933  1.00  0.00     0.198 A 
ATOM     85  F   UNL A   1      39.154  33.310  31.040  1.00  0.00    -0.203 F 
ATOM     86  F   UNL A   1      39.999  30.330  35.529  1.00  0.00    -0.200 F 
ATOM     87  C   UNL A   1      38.509  31.441  34.074  1.00  0.00     0.200 A 
ATOM     88  F   UNL A   1      37.061  32.551  32.576  1.00  0.00    -0.200 F 
ATOM     89  F   UNL A   1      37.464  31.035  34.808  1.00  0.00    -0.200 F 
ENDBRANCH  55  79
BRANCH  67  90
ATOM     90  C   UNL A   1      44.515  38.103  32.081  1.00  0.00     0.064 A 
ATOM     91  C   UNL A   1      45.101  38.354  33.330  1.00  0.00     0.173 A 
ATOM     92  C   UNL A   1      43.884  39.173  31.426  1.00  0.00     0.173 A 
ATOM     93  F   UNL A   1      45.708  37.366  34.004  1.00  0.00    -0.203 F 
ATOM     94  C   UNL A   1      45.039  39.621  33.907  1.00  0.00     0.198 A 
ATOM     95  C   UNL A   1      43.855  40.445  31.990  1.00  0.00     0.198 A 
ATOM     96  F   UNL A   1      43.316  38.989  30.224  1.00  0.00    -0.203 F 
ATOM     97  F   UNL A   1      45.568  39.829  35.120  1.00  0.00    -0.200 F 
ATOM     98  C   UNL A   1      44.427  40.667  33.232  1.00  0.00     0.200 A 
ATOM     99  F   UNL A   1      43.280  41.458  31.324  1.00  0.00    -0.200 F 
ATOM    100  F   UNL A   1      44.385  41.889  33.781  1.00  0.00    -0.200 F 
ENDBRANCH  67  90
ENDBRANCH  41  42
ENDBRANCH  34  36
ENDBRANCH  33  34
ENDBRANCH  32  33
ENDBRANCH  31  32
ENDBRANCH  30  31
ENDBRANCH  29  30
ENDBRANCH  28  29
ENDBRANCH  27  28
ENDBRANCH   1  27
TORSDOF 24
ENDMDL
MODEL 2
REMARK VINA RESULT:      -7.6      6.281     10.978
REMARK SMILES CCOc1cccc(-c2ccc([C@@H](C)C(=O)OCCOCCOCCOCCOC(=O)c3ccc(-c4c5nc(c(-c6c(F)c(F)c(F)c(F)c6F)c6ccc([nH]6)c(-c6c(F)c(F)c(F)c(F)c6F)c6nc(c(-c7c(F)c(F)c(F)c(F)c7F)c7ccc4[nH]7)C=C6)C=C5)cc3)cc2F)c1
REMARK SMILES IDX 22 1 21 2 20 3 19 4 18 5 17 6 15 7 16 8 13 9 14 10 12 11
REMARK SMILES IDX 9 12 10 13 96 14 11 15 95 16 97 17 8 18 4 19 5 20 98 21 6 22
REMARK SMILES IDX 7 23 3 24 2 25 1 26 23 27 24 28 25 29 26 30 27 31 28 32
REMARK SMILES IDX 29 33 30 34 31 35 32 36 33 37 94 38 34 39 93 40 35 41 36 42
REMARK SMILES IDX 37 43 87 44 38 45 92 46 86 47 88 48 39 49 91 50 85 51 84 52
REMARK SMILES IDX 40 54 72 55 52 56 71 57 53 58 56 59 70 60 89 61 54 62 55 63
REMARK SMILES IDX 69 65 90 66 57 67 41 68 42 69 50 70 43 71 44 72 48 73 51 74
REMARK SMILES IDX 45 75 46 76 49 77 47 78 73 79 74 80 82 81 75 82 76 83 80 84
REMARK SMILES IDX 83 85 77 86 78 87 81 88 79 89 58 90 59 91 67 92 60 93 61 94
REMARK SMILES IDX 65 95 68 96 62 97 63 98 66 99 64 100
REMARK H PARENT 88 53 56 64
REMARK Flexibility Score: inf
ROOT
ATOM      1  C   UNL A   1      41.263  27.080  27.441  1.00  0.00     0.188 C 
ENDROOT
BRANCH   1   2
ATOM      2  C   UNL A   1      41.768  26.011  28.421  1.00  0.00     0.188 C 
BRANCH   2   3
ATOM      3  O   UNL A   1      43.145  25.665  28.474  1.00  0.00    -0.376 OA
BRANCH   3   4
ATOM      4  C   UNL A   1      43.621  24.469  27.877  1.00  0.00     0.202 C 
BRANCH   4   5
ATOM      5  C   UNL A   1      43.683  24.292  26.347  1.00  0.00     0.261 C 
BRANCH   5   6
ATOM      6  O   UNL A   1      42.462  23.920  25.676  1.00  0.00    -0.463 OA
BRANCH   6   7
ATOM      7  C   UNL A   1      41.973  22.693  25.966  1.00  0.00     0.313 C 
ATOM      8  O   UNL A   1      42.468  21.652  25.535  1.00  0.00    -0.252 OA
BRANCH   7   9
ATOM      9  C   UNL A   1      40.735  22.655  26.860  1.00  0.00     0.126 C 
ATOM     10  C   UNL A   1      40.918  21.537  27.880  1.00  0.00     0.025 C 
BRANCH   9  11
ATOM     11  C   UNL A   1      39.321  22.633  26.280  1.00  0.00    -0.031 A 
ATOM     12  C   UNL A   1      36.694  22.464  25.112  1.00  0.00     0.018 A 
ATOM     13  C   UNL A   1      37.182  23.658  25.678  1.00  0.00     0.012 A 
ATOM     14  C   UNL A   1      37.549  21.358  25.163  1.00  0.00     0.131 A 
ATOM     15  C   UNL A   1      38.470  23.745  26.248  1.00  0.00     0.005 A 
ATOM     16  C   UNL A   1      38.833  21.437  25.715  1.00  0.00     0.044 A 
ATOM     17  F   UNL A   1      37.160  20.174  24.659  1.00  0.00    -0.206 F 
BRANCH  12  18
ATOM     18  C   UNL A   1      35.365  22.401  24.457  1.00  0.00    -0.012 A 
ATOM     19  C   UNL A   1      33.167  21.371  24.147  1.00  0.00     0.119 A 
ATOM     20  C   UNL A   1      32.883  22.239  23.098  1.00  0.00     0.046 A 
ATOM     21  C   UNL A   1      34.399  21.439  24.810  1.00  0.00     0.055 A 
ATOM     22  C   UNL A   1      33.823  23.195  22.727  1.00  0.00     0.004 A 
ATOM     23  C   UNL A   1      35.048  23.276  23.401  1.00  0.00     0.009 A 
BRANCH  19  24
ATOM     24  O   UNL A   1      32.284  20.353  24.384  1.00  0.00    -0.494 OA
BRANCH  24  25
ATOM     25  C   UNL A   1      32.842  19.266  25.130  1.00  0.00     0.226 C 
ATOM     26  C   UNL A   1      32.452  17.939  24.509  1.00  0.00     0.049 C 
ENDBRANCH  24  25
ENDBRANCH  19  24
ENDBRANCH  12  18
ENDBRANCH   9  11
ENDBRANCH   7   9
ENDBRANCH   6   7
ENDBRANCH   5   6
ENDBRANCH   4   5
ENDBRANCH   3   4
ENDBRANCH   2   3
ENDBRANCH   1   2
BRANCH   1  27
ATOM     27  O   UNL A   1      41.425  28.414  27.876  1.00  0.00    -0.377 OA
BRANCH  27  28
ATOM     28  C   UNL A   1      40.242  29.141  28.162  1.00  0.00     0.188 C 
BRANCH  28  29
ATOM     29  C   UNL A   1      39.771  29.198  29.629  1.00  0.00     0.188 C 
BRANCH  29  30
ATOM     30  O   UNL A   1      38.699  28.316  29.928  1.00  0.00    -0.376 OA
BRANCH  30  31
ATOM     31  C   UNL A   1      37.467  28.865  30.368  1.00  0.00     0.202 C 
BRANCH  31  32
ATOM     32  C   UNL A   1      36.862  30.030  29.571  1.00  0.00     0.261 C 
BRANCH  32  33
ATOM     33  O   UNL A   1      35.890  30.852  30.234  1.00  0.00    -0.460 OA
BRANCH  33  34
ATOM     34  C   UNL A   1      36.231  32.115  30.552  1.00  0.00     0.338 C 
ATOM     35  O   UNL A   1      35.759  33.142  30.093  1.00  0.00    -0.246 OA
BRANCH  34  36
ATOM     36  C   UNL A   1      37.155  32.062  31.706  1.00  0.00     0.060 A 
ATOM     37  C   UNL A   1      38.456  32.566  31.557  1.00  0.00     0.016 A 
ATOM     38  C   UNL A   1      36.748  31.515  32.925  1.00  0.00     0.016 A 
ATOM     39  C   UNL A   1      39.369  32.479  32.609  1.00  0.00     0.010 A 
ATOM     40  C   UNL A   1      37.672  31.402  33.969  1.00  0.00     0.010 A 
ATOM     41  C   UNL A   1      38.998  31.844  33.800  1.00  0.00    -0.014 A 
BRANCH  41  42
ATOM     42  C   UNL A   1      40.041  31.412  34.764  1.00  0.00     0.031 A 
ATOM     43  C   UNL A   1      40.372  32.344  35.899  1.00  0.00     0.074 A 
ATOM     44  C   UNL A   1      40.676  30.232  34.653  1.00  0.00     0.049 A 
ATOM     45  N   UNL A   1      41.313  32.259  36.804  1.00  0.00    -0.248 NA
ATOM     46  C   UNL A   1      39.526  33.542  36.023  1.00  0.00     0.031 C 
ATOM     47  C   UNL A   1      40.401  29.216  33.642  1.00  0.00     0.029 A 
ATOM     48  N   UNL A   1      41.700  29.702  35.398  1.00  0.00    -0.354 N 
ATOM     49  C   UNL A   1      41.180  33.398  37.590  1.00  0.00     0.074 A 
ATOM     50  C   UNL A   1      40.090  34.170  37.041  1.00  0.00     0.031 C 
ATOM     51  C   UNL A   1      41.254  28.190  33.815  1.00  0.00     0.029 A 
ATOM     52  C   UNL A   1      42.160  28.498  34.922  1.00  0.00     0.049 A 
ATOM     53  H   UNL A   1      42.069  30.141  36.198  1.00  0.00     0.167 HD
ATOM     54  C   UNL A   1      41.904  33.763  38.675  1.00  0.00     0.037 A 
ATOM     55  C   UNL A   1      43.213  27.754  35.317  1.00  0.00     0.037 A 
ATOM     56  C   UNL A   1      42.990  32.992  39.215  1.00  0.00     0.049 A 
ATOM     57  C   UNL A   1      44.063  28.226  36.473  1.00  0.00     0.074 A 
ATOM     58  C   UNL A   1      43.782  33.271  40.314  1.00  0.00     0.029 A 
ATOM     59  N   UNL A   1      43.442  31.791  38.689  1.00  0.00    -0.354 N 
ATOM     60  N   UNL A   1      43.932  29.299  37.216  1.00  0.00    -0.248 NA
ATOM     61  C   UNL A   1      45.209  27.383  36.844  1.00  0.00     0.031 C 
ATOM     62  C   UNL A   1      44.756  32.273  40.413  1.00  0.00     0.029 A 
ATOM     63  C   UNL A   1      44.520  31.330  39.425  1.00  0.00     0.049 A 
ATOM     64  H   UNL A   1      43.054  31.335  37.907  1.00  0.00     0.167 HD
ATOM     65  C   UNL A   1      44.943  29.235  38.168  1.00  0.00     0.074 A 
ATOM     66  C   UNL A   1      45.682  28.018  37.908  1.00  0.00     0.031 C 
ATOM     67  C   UNL A   1      45.229  30.101  39.172  1.00  0.00     0.037 A 
BRANCH  54  68
ATOM     68  C   UNL A   1      41.566  35.076  39.323  1.00  0.00     0.064 A 
ATOM     69  C   UNL A   1      40.623  35.172  40.357  1.00  0.00     0.173 A 
ATOM     70  C   UNL A   1      42.216  36.251  38.917  1.00  0.00     0.173 A 
ATOM     71  F   UNL A   1      39.960  34.082  40.772  1.00  0.00    -0.203 F 
ATOM     72  C   UNL A   1      40.321  36.401  40.939  1.00  0.00     0.198 A 
ATOM     73  C   UNL A   1      41.939  37.471  39.525  1.00  0.00     0.198 A 
ATOM     74  F   UNL A   1      43.128  36.215  37.934  1.00  0.00    -0.203 F 
ATOM     75  F   UNL A   1      39.376  36.479  41.886  1.00  0.00    -0.200 F 
ATOM     76  C   UNL A   1      40.986  37.548  40.529  1.00  0.00     0.200 A 
ATOM     77  F   UNL A   1      42.592  38.576  39.137  1.00  0.00    -0.200 F 
ATOM     78  F   UNL A   1      40.700  38.728  41.096  1.00  0.00    -0.200 F 
ENDBRANCH  54  68
BRANCH  55  79
ATOM     79  C   UNL A   1      43.544  26.490  34.604  1.00  0.00     0.064 A 
ATOM     80  C   UNL A   1      43.061  25.254  35.057  1.00  0.00     0.173 A 
ATOM     81  C   UNL A   1      44.378  26.487  33.476  1.00  0.00     0.173 A 
ATOM     82  F   UNL A   1      42.282  25.200  36.148  1.00  0.00    -0.203 F 
ATOM     83  C   UNL A   1      43.415  24.064  34.424  1.00  0.00     0.198 A 
ATOM     84  C   UNL A   1      44.705  25.299  32.824  1.00  0.00     0.198 A 
ATOM     85  F   UNL A   1      44.873  27.639  33.001  1.00  0.00    -0.203 F 
ATOM     86  F   UNL A   1      42.983  22.894  34.913  1.00  0.00    -0.200 F 
ATOM     87  C   UNL A   1      44.232  24.087  33.304  1.00  0.00     0.200 A 
ATOM     88  F   UNL A   1      45.485  25.328  31.735  1.00  0.00    -0.200 F 
ATOM     89  F   UNL A   1      44.573  22.943  32.695  1.00  0.00    -0.200 F 
ENDBRANCH  55  79
BRANCH  67  90
ATOM     90  C   UNL A   1      46.338  29.739  40.119  1.00  0.00     0.064 A 
ATOM     91  C   UNL A   1      47.651  30.199  39.943  1.00  0.00     0.173 A 
ATOM     92  C   UNL A   1      46.059  28.976  41.265  1.00  0.00     0.173 A 
ATOM     93  F   UNL A   1      47.974  30.923  38.861  1.00  0.00    -0.203 F 
ATOM     94  C   UNL A   1      48.646  29.891  40.868  1.00  0.00     0.198 A 
ATOM     95  C   UNL A   1      47.048  28.700  42.204  1.00  0.00     0.198 A 
ATOM     96  F   UNL A   1      44.817  28.519  41.487  1.00  0.00    -0.203 F 
ATOM     97  F   UNL A   1      49.903  30.306  40.659  1.00  0.00    -0.200 F 
ATOM     98  C   UNL A   1      48.342  29.153  42.003  1.00  0.00     0.200 A 
ATOM     99  F   UNL A   1      46.745  28.003  43.309  1.00  0.00    -0.200 F 
ATOM    100  F   UNL A   1      49.298  28.874  42.899  1.00  0.00    -0.200 F 
ENDBRANCH  67  90
ENDBRANCH  41  42
ENDBRANCH  34  36
ENDBRANCH  33  34
ENDBRANCH  32  33
ENDBRANCH  31  32
ENDBRANCH  30  31
ENDBRANCH  29  30
ENDBRANCH  28  29
ENDBRANCH  27  28
ENDBRANCH   1  27
TORSDOF 24
ENDMDL
MODEL 3
REMARK VINA RESULT:      -7.6      4.058      9.964
REMARK SMILES CCOc1cccc(-c2ccc([C@@H](C)C(=O)OCCOCCOCCOCCOC(=O)c3ccc(-c4c5nc(c(-c6c(F)c(F)c(F)c(F)c6F)c6ccc([nH]6)c(-c6c(F)c(F)c(F)c(F)c6F)c6nc(c(-c7c(F)c(F)c(F)c(F)c7F)c7ccc4[nH]7)C=C6)C=C5)cc3)cc2F)c1
REMARK SMILES IDX 22 1 21 2 20 3 19 4 18 5 17 6 15 7 16 8 13 9 14 10 12 11
REMARK SMILES IDX 9 12 10 13 96 14 11 15 95 16 97 17 8 18 4 19 5 20 98 21 6 22
REMARK SMILES IDX 7 23 3 24 2 25 1 26 23 27 24 28 25 29 26 30 27 31 28 32
REMARK SMILES IDX 29 33 30 34 31 35 32 36 33 37 94 38 34 39 93 40 35 41 36 42
REMARK SMILES IDX 37 43 87 44 38 45 92 46 86 47 88 48 39 49 91 50 85 51 84 52
REMARK SMILES IDX 40 54 72 55 52 56 71 57 53 58 56 59 70 60 89 61 54 62 55 63
REMARK SMILES IDX 69 65 90 66 57 67 41 68 42 69 50 70 43 71 44 72 48 73 51 74
REMARK SMILES IDX 45 75 46 76 49 77 47 78 73 79 74 80 82 81 75 82 76 83 80 84
REMARK SMILES IDX 83 85 77 86 78 87 81 88 79 89 58 90 59 91 67 92 60 93 61 94
REMARK SMILES IDX 65 95 68 96 62 97 63 98 66 99 64 100
REMARK H PARENT 88 53 56 64
REMARK Flexibility Score: inf
ROOT
ATOM      1  C   UNL A   1      37.690  29.177  29.503  1.00  0.00     0.188 C 
ENDROOT
BRANCH   1   2
ATOM      2  C   UNL A   1      38.131  30.471  28.803  1.00  0.00     0.188 C 
BRANCH   2   3
ATOM      3  O   UNL A   1      38.565  31.594  29.557  1.00  0.00    -0.376 OA
BRANCH   3   4
ATOM      4  C   UNL A   1      37.644  32.582  29.992  1.00  0.00     0.202 C 
BRANCH   4   5
ATOM      5  C   UNL A   1      36.580  32.287  31.067  1.00  0.00     0.261 C 
BRANCH   5   6
ATOM      6  O   UNL A   1      35.264  31.913  30.607  1.00  0.00    -0.463 OA
BRANCH   6   7
ATOM      7  C   UNL A   1      34.555  32.881  29.983  1.00  0.00     0.313 C 
ATOM      8  O   UNL A   1      34.009  33.807  30.581  1.00  0.00    -0.252 OA
BRANCH   7   9
ATOM      9  C   UNL A   1      34.440  32.758  28.465  1.00  0.00     0.126 C 
ATOM     10  C   UNL A   1      33.871  34.065  27.923  1.00  0.00     0.025 C 
BRANCH   9  11
ATOM     11  C   UNL A   1      33.769  31.557  27.800  1.00  0.00    -0.031 A 
ATOM     12  C   UNL A   1      32.641  29.233  26.527  1.00  0.00     0.018 A 
ATOM     13  C   UNL A   1      31.909  30.426  26.681  1.00  0.00     0.012 A 
ATOM     14  C   UNL A   1      33.942  29.231  27.042  1.00  0.00     0.131 A 
ATOM     15  C   UNL A   1      32.460  31.568  27.302  1.00  0.00     0.005 A 
ATOM     16  C   UNL A   1      34.501  30.362  27.649  1.00  0.00     0.044 A 
ATOM     17  F   UNL A   1      34.707  28.130  26.951  1.00  0.00    -0.206 F 
BRANCH  12  18
ATOM     18  C   UNL A   1      32.076  28.062  25.814  1.00  0.00    -0.012 A 
ATOM     19  C   UNL A   1      30.856  25.940  25.794  1.00  0.00     0.119 A 
ATOM     20  C   UNL A   1      31.115  25.778  24.438  1.00  0.00     0.046 A 
ATOM     21  C   UNL A   1      31.343  27.060  26.481  1.00  0.00     0.055 A 
ATOM     22  C   UNL A   1      31.841  26.751  23.758  1.00  0.00     0.004 A 
ATOM     23  C   UNL A   1      32.312  27.880  24.439  1.00  0.00     0.009 A 
BRANCH  19  24
ATOM     24  O   UNL A   1      30.271  24.896  26.457  1.00  0.00    -0.494 OA
BRANCH  24  25
ATOM     25  C   UNL A   1      31.163  23.810  26.727  1.00  0.00     0.226 C 
ATOM     26  C   UNL A   1      30.714  22.558  26.000  1.00  0.00     0.049 C 
ENDBRANCH  24  25
ENDBRANCH  19  24
ENDBRANCH  12  18
ENDBRANCH   9  11
ENDBRANCH   7   9
ENDBRANCH   6   7
ENDBRANCH   5   6
ENDBRANCH   4   5
ENDBRANCH   3   4
ENDBRANCH   2   3
ENDBRANCH   1   2
BRANCH   1  27
ATOM     27  O   UNL A   1      38.608  28.664  30.445  1.00  0.00    -0.377 OA
BRANCH  27  28
ATOM     28  C   UNL A   1      39.136  27.374  30.186  1.00  0.00     0.188 C 
BRANCH  28  29
ATOM     29  C   UNL A   1      39.667  27.087  28.767  1.00  0.00     0.188 C 
BRANCH  29  30
ATOM     30  O   UNL A   1      40.165  25.769  28.591  1.00  0.00    -0.376 OA
BRANCH  30  31
ATOM     31  C   UNL A   1      39.804  25.055  27.419  1.00  0.00     0.202 C 
BRANCH  31  32
ATOM     32  C   UNL A   1      40.391  23.651  27.211  1.00  0.00     0.261 C 
BRANCH  32  33
ATOM     33  O   UNL A   1      41.370  23.491  26.173  1.00  0.00    -0.460 OA
BRANCH  33  34
ATOM     34  C   UNL A   1      42.640  23.220  26.529  1.00  0.00     0.338 C 
ATOM     35  O   UNL A   1      43.171  22.122  26.582  1.00  0.00    -0.246 OA
BRANCH  34  36
ATOM     36  C   UNL A   1      43.360  24.505  26.668  1.00  0.00     0.060 A 
ATOM     37  C   UNL A   1      43.596  25.278  25.522  1.00  0.00     0.016 A 
ATOM     38  C   UNL A   1      43.806  24.945  27.917  1.00  0.00     0.016 A 
ATOM     39  C   UNL A   1      44.321  26.467  25.611  1.00  0.00     0.010 A 
ATOM     40  C   UNL A   1      44.558  26.121  28.001  1.00  0.00     0.010 A 
ATOM     41  C   UNL A   1      44.855  26.863  26.843  1.00  0.00    -0.014 A 
BRANCH  41  42
ATOM     42  C   UNL A   1      45.922  27.894  26.889  1.00  0.00     0.031 A 
ATOM     43  C   UNL A   1      45.506  29.320  27.131  1.00  0.00     0.074 A 
ATOM     44  C   UNL A   1      47.222  27.588  26.730  1.00  0.00     0.049 A 
ATOM     45  N   UNL A   1      46.220  30.416  27.104  1.00  0.00    -0.248 NA
ATOM     46  C   UNL A   1      44.083  29.537  27.438  1.00  0.00     0.031 C 
ATOM     47  C   UNL A   1      47.759  26.242  26.556  1.00  0.00     0.029 A 
ATOM     48  N   UNL A   1      48.325  28.404  26.674  1.00  0.00    -0.354 N 
ATOM     49  C   UNL A   1      45.330  31.449  27.374  1.00  0.00     0.074 A 
ATOM     50  C   UNL A   1      44.022  30.855  27.533  1.00  0.00     0.031 C 
ATOM     51  C   UNL A   1      49.091  26.326  26.388  1.00  0.00     0.029 A 
ATOM     52  C   UNL A   1      49.492  27.732  26.402  1.00  0.00     0.049 A 
ATOM     53  H   UNL A   1      48.284  29.377  26.816  1.00  0.00     0.167 HD
ATOM     54  C   UNL A   1      45.584  32.775  27.482  1.00  0.00     0.037 A 
ATOM     55  C   UNL A   1      50.730  28.208  26.159  1.00  0.00     0.037 A 
ATOM     56  C   UNL A   1      46.887  33.361  27.320  1.00  0.00     0.049 A 
ATOM     57  C   UNL A   1      50.973  29.698  26.194  1.00  0.00     0.074 A 
ATOM     58  C   UNL A   1      47.251  34.692  27.415  1.00  0.00     0.029 A 
ATOM     59  N   UNL A   1      48.039  32.650  27.020  1.00  0.00    -0.354 N 
ATOM     60  N   UNL A   1      50.132  30.670  26.455  1.00  0.00    -0.248 NA
ATOM     61  C   UNL A   1      52.339  30.157  25.901  1.00  0.00     0.031 C 
ATOM     62  C   UNL A   1      48.611  34.794  27.107  1.00  0.00     0.029 A 
ATOM     63  C   UNL A   1      49.110  33.518  26.899  1.00  0.00     0.049 A 
ATOM     64  H   UNL A   1      48.087  31.673  26.907  1.00  0.00     0.167 HD
ATOM     65  C   UNL A   1      50.873  31.845  26.405  1.00  0.00     0.074 A 
ATOM     66  C   UNL A   1      52.233  31.466  26.088  1.00  0.00     0.031 C 
ATOM     67  C   UNL A   1      50.466  33.122  26.611  1.00  0.00     0.037 A 
BRANCH  54  68
ATOM     68  C   UNL A   1      44.419  33.685  27.750  1.00  0.00     0.064 A 
ATOM     69  C   UNL A   1      43.803  34.424  26.729  1.00  0.00     0.173 A 
ATOM     70  C   UNL A   1      43.896  33.797  29.048  1.00  0.00     0.173 A 
ATOM     71  F   UNL A   1      44.274  34.366  25.474  1.00  0.00    -0.203 F 
ATOM     72  C   UNL A   1      42.728  35.266  27.003  1.00  0.00     0.198 A 
ATOM     73  C   UNL A   1      42.799  34.612  29.311  1.00  0.00     0.198 A 
ATOM     74  F   UNL A   1      44.445  33.111  30.061  1.00  0.00    -0.203 F 
ATOM     75  F   UNL A   1      42.192  36.007  26.023  1.00  0.00    -0.200 F 
ATOM     76  C   UNL A   1      42.222  35.353  28.291  1.00  0.00     0.200 A 
ATOM     77  F   UNL A   1      42.302  34.683  30.554  1.00  0.00    -0.200 F 
ATOM     78  F   UNL A   1      41.182  36.157  28.551  1.00  0.00    -0.200 F 
ENDBRANCH  54  68
BRANCH  55  79
ATOM     79  C   UNL A   1      51.841  27.270  25.838  1.00  0.00     0.064 A 
ATOM     80  C   UNL A   1      52.123  26.906  24.513  1.00  0.00     0.173 A 
ATOM     81  C   UNL A   1      52.622  26.692  26.850  1.00  0.00     0.173 A 
ATOM     82  F   UNL A   1      51.388  27.409  23.510  1.00  0.00    -0.203 F 
ATOM     83  C   UNL A   1      53.126  25.986  24.216  1.00  0.00     0.198 A 
ATOM     84  C   UNL A   1      53.647  25.797  26.549  1.00  0.00     0.198 A 
ATOM     85  F   UNL A   1      52.394  27.000  28.135  1.00  0.00    -0.203 F 
ATOM     86  F   UNL A   1      53.335  25.614  22.945  1.00  0.00    -0.200 F 
ATOM     87  C   UNL A   1      53.891  25.436  25.232  1.00  0.00     0.200 A 
ATOM     88  F   UNL A   1      54.392  25.278  27.534  1.00  0.00    -0.200 F 
ATOM     89  F   UNL A   1      54.856  24.551  24.946  1.00  0.00    -0.200 F 
ENDBRANCH  55  79
BRANCH  67  90
ATOM     90  C   UNL A   1      51.507  34.206  26.580  1.00  0.00     0.064 A 
ATOM     91  C   UNL A   1      51.796  34.931  25.414  1.00  0.00     0.173 A 
ATOM     92  C   UNL A   1      52.172  34.573  27.761  1.00  0.00     0.173 A 
ATOM     93  F   UNL A   1      51.197  34.615  24.256  1.00  0.00    -0.203 F 
ATOM     94  C   UNL A   1      52.728  35.966  25.429  1.00  0.00     0.198 A 
ATOM     95  C   UNL A   1      53.076  35.631  27.779  1.00  0.00     0.198 A 
ATOM     96  F   UNL A   1      51.925  33.919  28.907  1.00  0.00    -0.203 F 
ATOM     97  F   UNL A   1      53.021  36.618  24.295  1.00  0.00    -0.200 F 
ATOM     98  C   UNL A   1      53.357  36.323  26.613  1.00  0.00     0.200 A 
ATOM     99  F   UNL A   1      53.666  35.986  28.930  1.00  0.00    -0.200 F 
ATOM    100  F   UNL A   1      54.239  37.332  26.628  1.00  0.00    -0.200 F 
ENDBRANCH  67  90
ENDBRANCH  41  42
ENDBRANCH  34  36
ENDBRANCH  33  34
ENDBRANCH  32  33
ENDBRANCH  31  32
ENDBRANCH  30  31
ENDBRANCH  29  30
ENDBRANCH  28  29
ENDBRANCH  27  28
ENDBRANCH   1  27
TORSDOF 24
ENDMDL
