MODEL 1
REMARK VINA RESULT:     -11.9      0.000      0.000
REMARK SMILES Cc1ccc(-c2nc(NC(=O)[C@H]3[C@@H](C(=O)OCCOCCOCCOCCOC(=O)c4ccc(-c5c6nc(c(-c7c(F)c(F)c(F)c(F)c7F)c7ccc([nH]7)c(-c7c(F)c(F)c(F)c(F)c7F)c7nc(c(-c8c(F)c(F)c(F)c(F)c8F)c8ccc5[nH]8)C=C7)C=C6)cc4)[C@@H]4CC[C@H]3O4)sc2C)cc1
REMARK SMILES IDX 21 1 20 2 19 3 18 4 17 5 16 6 14 7 15 8 13 9 12 10 97 11
REMARK SMILES IDX 94 12 96 13 98 14 95 15 10 16 9 17 11 19 8 20 6 21 7 22
REMARK SMILES IDX 100 23 99 24 101 25 5 26 1 27 2 28 3 29 103 30 4 31 102 32
REMARK SMILES IDX 22 33 23 34 24 35 25 36 26 37 27 38 28 39 29 40 30 41 31 42
REMARK SMILES IDX 32 43 93 44 33 45 92 46 34 47 35 48 36 49 86 50 37 51 91 52
REMARK SMILES IDX 85 53 87 54 38 55 90 56 84 57 83 58 39 60 71 61 51 62 70 63
REMARK SMILES IDX 52 64 55 65 69 66 88 67 53 68 54 69 68 71 89 72 56 73 40 74
REMARK SMILES IDX 41 75 49 76 42 77 43 78 47 79 50 80 44 81 45 82 48 83 46 84
REMARK SMILES IDX 72 85 73 86 81 87 74 88 75 89 79 90 82 91 76 92 77 93 80 94
REMARK SMILES IDX 78 95 57 96 58 97 66 98 59 99 60 100 64 101 67 102 61 103
REMARK SMILES IDX 62 104 65 105 63 106
REMARK H PARENT 9 18 87 59 55 70
REMARK Flexibility Score: inf
ROOT
ATOM      1  C   UNL A   1      38.592  22.379  25.651  1.00  0.00     0.188 C 
ENDROOT
BRANCH   1   2
ATOM      2  C   UNL A   1      37.515  21.456  25.027  1.00  0.00     0.188 C 
BRANCH   2   3
ATOM      3  O   UNL A   1      36.550  22.035  24.148  1.00  0.00    -0.376 OA
BRANCH   3   4
ATOM      4  C   UNL A   1      36.255  23.378  24.379  1.00  0.00     0.202 C 
BRANCH   4   5
ATOM      5  C   UNL A   1      35.260  23.726  25.417  1.00  0.00     0.261 C 
BRANCH   5   6
ATOM      6  O   UNL A   1      34.988  25.107  25.515  1.00  0.00    -0.463 OA
BRANCH   6   7
ATOM      7  C   UNL A   1      33.920  25.738  25.024  1.00  0.00     0.312 C 
ATOM      8  O   UNL A   1      33.772  25.759  23.799  1.00  0.00    -0.252 OA
BRANCH   7   9
ATOM      9  C   UNL A   1      32.994  26.592  25.870  1.00  0.00     0.143 C 
ATOM     10  C   UNL A   1      31.570  27.055  25.542  1.00  0.00     0.124 C 
ATOM     11  C   UNL A   1      31.865  28.547  25.082  1.00  0.00     0.132 C 
ATOM     12  C   UNL A   1      33.726  27.935  26.011  1.00  0.00     0.133 C 
ATOM     13  C   UNL A   1      31.939  29.481  26.287  1.00  0.00     0.035 C 
ATOM     14  O   UNL A   1      33.283  28.545  24.785  1.00  0.00    -0.373 OA
ATOM     15  C   UNL A   1      33.080  28.833  27.076  1.00  0.00     0.036 C 
BRANCH  10  16
ATOM     16  C   UNL A   1      30.546  26.347  24.649  1.00  0.00     0.232 C 
ATOM     17  N   UNL A   1      30.131  25.048  24.640  1.00  0.00    -0.302 N 
ATOM     18  H   UNL A   1      29.281  24.930  24.159  1.00  0.00     0.172 HD
ATOM     19  O   UNL A   1      30.002  27.040  23.772  1.00  0.00    -0.274 OA
BRANCH  17  20
ATOM     20  C   UNL A   1      30.618  23.867  25.143  1.00  0.00     0.190 A 
ATOM     21  C   UNL A   1      32.020  22.002  25.107  1.00  0.00     0.086 A 
ATOM     22  N   UNL A   1      31.179  22.914  24.414  1.00  0.00    -0.220 NA
ATOM     23  C   UNL A   1      31.978  22.616  26.561  1.00  0.00     0.031 A 
ATOM     24  S   UNL A   1      30.485  23.548  26.751  1.00  0.00    -0.101 S 
ATOM     25  C   UNL A   1      32.681  22.615  27.967  1.00  0.00     0.059 C 
BRANCH  21  26
ATOM     26  C   UNL A   1      32.857  20.489  24.309  1.00  0.00     0.001 A 
ATOM     27  C   UNL A   1      33.871  16.106  23.800  1.00  0.00     0.044 C 
ATOM     28  C   UNL A   1      33.715  17.587  23.742  1.00  0.00    -0.051 A 
ATOM     29  C   UNL A   1      34.530  18.489  24.379  1.00  0.00     0.004 A 
ATOM     30  C   UNL A   1      32.658  18.151  23.097  1.00  0.00     0.004 A 
ATOM     31  C   UNL A   1      34.120  19.858  24.594  1.00  0.00     0.010 A 
ATOM     32  C   UNL A   1      32.299  19.506  23.346  1.00  0.00     0.010 A 
ENDBRANCH  21  26
ENDBRANCH  17  20
ENDBRANCH  10  16
ENDBRANCH   7   9
ENDBRANCH   6   7
ENDBRANCH   5   6
ENDBRANCH   4   5
ENDBRANCH   3   4
ENDBRANCH   2   3
ENDBRANCH   1   2
BRANCH   1  33
ATOM     33  O   UNL A   1      39.221  22.021  26.885  1.00  0.00    -0.377 OA
BRANCH  33  34
ATOM     34  C   UNL A   1      40.512  21.408  26.856  1.00  0.00     0.188 C 
BRANCH  34  35
ATOM     35  C   UNL A   1      40.467  19.944  26.439  1.00  0.00     0.188 C 
BRANCH  35  36
ATOM     36  O   UNL A   1      41.652  19.570  25.754  1.00  0.00    -0.376 OA
BRANCH  36  37
ATOM     37  C   UNL A   1      42.608  18.909  26.567  1.00  0.00     0.202 C 
BRANCH  37  38
ATOM     38  C   UNL A   1      43.807  18.589  25.679  1.00  0.00     0.261 C 
BRANCH  38  39
ATOM     39  O   UNL A   1      44.646  19.789  25.673  1.00  0.00    -0.460 OA
BRANCH  39  40
ATOM     40  C   UNL A   1      44.638  20.567  24.556  1.00  0.00     0.338 C 
ATOM     41  O   UNL A   1      44.519  20.117  23.404  1.00  0.00    -0.246 OA
BRANCH  40  42
ATOM     42  C   UNL A   1      45.028  22.003  24.816  1.00  0.00     0.060 A 
ATOM     43  C   UNL A   1      45.856  22.328  25.903  1.00  0.00     0.016 A 
ATOM     44  C   UNL A   1      44.387  23.056  24.164  1.00  0.00     0.016 A 
ATOM     45  C   UNL A   1      45.899  23.648  26.410  1.00  0.00     0.010 A 
ATOM     46  C   UNL A   1      44.403  24.357  24.698  1.00  0.00     0.010 A 
ATOM     47  C   UNL A   1      45.059  24.663  25.893  1.00  0.00    -0.014 A 
BRANCH  47  48
ATOM     48  C   UNL A   1      44.742  25.946  26.651  1.00  0.00     0.031 A 
ATOM     49  C   UNL A   1      43.195  26.154  27.399  1.00  0.00     0.074 A 
ATOM     50  C   UNL A   1      45.772  26.869  26.800  1.00  0.00     0.049 A 
ATOM     51  N   UNL A   1      42.859  26.731  28.542  1.00  0.00    -0.248 NA
ATOM     52  C   UNL A   1      41.938  25.791  26.749  1.00  0.00     0.031 C 
ATOM     53  C   UNL A   1      45.541  28.260  26.736  1.00  0.00     0.029 A 
ATOM     54  N   UNL A   1      47.196  26.891  27.037  1.00  0.00    -0.354 N 
ATOM     55  C   UNL A   1      41.490  27.303  28.580  1.00  0.00     0.074 A 
ATOM     56  C   UNL A   1      40.980  26.363  27.528  1.00  0.00     0.031 C 
ATOM     57  C   UNL A   1      46.514  28.940  27.287  1.00  0.00     0.029 A 
ATOM     58  C   UNL A   1      47.636  28.166  27.532  1.00  0.00     0.049 A 
ATOM     59  H   UNL A   1      47.793  26.124  26.878  1.00  0.00     0.167 HD
ATOM     60  C   UNL A   1      40.956  28.642  29.231  1.00  0.00     0.037 A 
ATOM     61  C   UNL A   1      48.695  28.863  28.075  1.00  0.00     0.037 A 
ATOM     62  C   UNL A   1      41.884  29.967  30.089  1.00  0.00     0.049 A 
ATOM     63  C   UNL A   1      48.249  30.344  28.778  1.00  0.00     0.074 A 
ATOM     64  C   UNL A   1      41.902  30.639  31.349  1.00  0.00     0.029 A 
ATOM     65  N   UNL A   1      43.170  30.760  29.638  1.00  0.00    -0.354 N 
ATOM     66  N   UNL A   1      47.180  31.092  28.454  1.00  0.00    -0.248 NA
ATOM     67  C   UNL A   1      48.795  30.943  30.008  1.00  0.00     0.031 C 
ATOM     68  C   UNL A   1      43.167  31.498  31.575  1.00  0.00     0.029 A 
ATOM     69  C   UNL A   1      44.020  31.467  30.478  1.00  0.00     0.049 A 
ATOM     70  H   UNL A   1      43.388  30.754  28.678  1.00  0.00     0.167 HD
ATOM     71  C   UNL A   1      46.542  31.539  29.642  1.00  0.00     0.074 A 
ATOM     72  C   UNL A   1      47.747  31.682  30.467  1.00  0.00     0.031 C 
ATOM     73  C   UNL A   1      45.283  32.169  29.776  1.00  0.00     0.037 A 
BRANCH  60  74
ATOM     74  C   UNL A   1      39.353  28.852  29.196  1.00  0.00     0.064 A 
ATOM     75  C   UNL A   1      38.704  29.291  28.023  1.00  0.00     0.173 A 
ATOM     76  C   UNL A   1      38.422  28.701  30.260  1.00  0.00     0.173 A 
ATOM     77  F   UNL A   1      39.335  29.326  26.848  1.00  0.00    -0.203 F 
ATOM     78  C   UNL A   1      37.345  29.674  27.970  1.00  0.00     0.198 A 
ATOM     79  C   UNL A   1      37.077  29.104  30.227  1.00  0.00     0.198 A 
ATOM     80  F   UNL A   1      38.679  28.028  31.368  1.00  0.00    -0.203 F 
ATOM     81  F   UNL A   1      36.823  30.097  26.811  1.00  0.00    -0.200 F 
ATOM     82  C   UNL A   1      36.539  29.616  29.083  1.00  0.00     0.200 A 
ATOM     83  F   UNL A   1      36.310  28.940  31.317  1.00  0.00    -0.200 F 
ATOM     84  F   UNL A   1      35.252  29.987  29.040  1.00  0.00    -0.200 F 
ENDBRANCH  60  74
BRANCH  61  85
ATOM     85  C   UNL A   1      49.944  27.991  28.048  1.00  0.00     0.064 A 
ATOM     86  C   UNL A   1      50.004  26.694  28.575  1.00  0.00     0.173 A 
ATOM     87  C   UNL A   1      50.746  28.200  26.890  1.00  0.00     0.173 A 
ATOM     88  F   UNL A   1      49.483  26.440  29.783  1.00  0.00    -0.203 F 
ATOM     89  C   UNL A   1      50.539  25.622  27.822  1.00  0.00     0.198 A 
ATOM     90  C   UNL A   1      51.190  27.133  26.100  1.00  0.00     0.198 A 
ATOM     91  F   UNL A   1      50.843  29.435  26.370  1.00  0.00    -0.203 F 
ATOM     92  F   UNL A   1      50.483  24.364  28.285  1.00  0.00    -0.200 F 
ATOM     93  C   UNL A   1      51.033  25.837  26.544  1.00  0.00     0.200 A 
ATOM     94  F   UNL A   1      51.592  27.362  24.840  1.00  0.00    -0.200 F 
ATOM     95  F   UNL A   1      51.299  24.807  25.725  1.00  0.00    -0.200 F 
ENDBRANCH  61  85
BRANCH  73  96
ATOM     96  C   UNL A   1      44.923  33.236  28.685  1.00  0.00     0.064 A 
ATOM     97  C   UNL A   1      44.787  34.621  28.945  1.00  0.00     0.173 A 
ATOM     98  C   UNL A   1      44.551  32.862  27.366  1.00  0.00     0.173 A 
ATOM     99  F   UNL A   1      45.016  35.131  30.163  1.00  0.00    -0.203 F 
ATOM    100  C   UNL A   1      44.331  35.529  27.971  1.00  0.00     0.198 A 
ATOM    101  C   UNL A   1      44.126  33.770  26.394  1.00  0.00     0.198 A 
ATOM    102  F   UNL A   1      44.525  31.586  26.969  1.00  0.00    -0.203 F 
ATOM    103  F   UNL A   1      44.168  36.823  28.288  1.00  0.00    -0.200 F 
ATOM    104  C   UNL A   1      43.997  35.103  26.700  1.00  0.00     0.200 A 
ATOM    105  F   UNL A   1      43.802  33.324  25.172  1.00  0.00    -0.200 F 
ATOM    106  F   UNL A   1      43.506  35.958  25.792  1.00  0.00    -0.200 F 
ENDBRANCH  73  96
ENDBRANCH  47  48
ENDBRANCH  40  42
ENDBRANCH  39  40
ENDBRANCH  38  39
ENDBRANCH  37  38
ENDBRANCH  36  37
ENDBRANCH  35  36
ENDBRANCH  34  35
ENDBRANCH  33  34
ENDBRANCH   1  33
TORSDOF 23
ENDMDL
MODEL 2
REMARK VINA RESULT:     -10.3      1.409      2.122
REMARK SMILES Cc1ccc(-c2nc(NC(=O)[C@H]3[C@@H](C(=O)OCCOCCOCCOCCOC(=O)c4ccc(-c5c6nc(c(-c7c(F)c(F)c(F)c(F)c7F)c7ccc([nH]7)c(-c7c(F)c(F)c(F)c(F)c7F)c7nc(c(-c8c(F)c(F)c(F)c(F)c8F)c8ccc5[nH]8)C=C7)C=C6)cc4)[C@@H]4CC[C@H]3O4)sc2C)cc1
REMARK SMILES IDX 21 1 20 2 19 3 18 4 17 5 16 6 14 7 15 8 13 9 12 10 97 11
REMARK SMILES IDX 94 12 96 13 98 14 95 15 10 16 9 17 11 19 8 20 6 21 7 22
REMARK SMILES IDX 100 23 99 24 101 25 5 26 1 27 2 28 3 29 103 30 4 31 102 32
REMARK SMILES IDX 22 33 23 34 24 35 25 36 26 37 27 38 28 39 29 40 30 41 31 42
REMARK SMILES IDX 32 43 93 44 33 45 92 46 34 47 35 48 36 49 86 50 37 51 91 52
REMARK SMILES IDX 85 53 87 54 38 55 90 56 84 57 83 58 39 60 71 61 51 62 70 63
REMARK SMILES IDX 52 64 55 65 69 66 88 67 53 68 54 69 68 71 89 72 56 73 40 74
REMARK SMILES IDX 41 75 49 76 42 77 43 78 47 79 50 80 44 81 45 82 48 83 46 84
REMARK SMILES IDX 72 85 73 86 81 87 74 88 75 89 79 90 82 91 76 92 77 93 80 94
REMARK SMILES IDX 78 95 57 96 58 97 66 98 59 99 60 100 64 101 67 102 61 103
REMARK SMILES IDX 62 104 65 105 63 106
REMARK H PARENT 9 18 87 59 55 70
REMARK Flexibility Score: inf
ROOT
ATOM      1  C   UNL A   1      37.503  23.318  25.126  1.00  0.00     0.188 C 
ENDROOT
BRANCH   1   2
ATOM      2  C   UNL A   1      36.392  22.280  24.824  1.00  0.00     0.188 C 
BRANCH   2   3
ATOM      3  O   UNL A   1      35.166  22.742  24.256  1.00  0.00    -0.376 OA
BRANCH   3   4
ATOM      4  C   UNL A   1      35.031  24.127  24.162  1.00  0.00     0.202 C 
BRANCH   4   5
ATOM      5  C   UNL A   1      34.166  24.831  25.135  1.00  0.00     0.261 C 
BRANCH   5   6
ATOM      6  O   UNL A   1      34.455  26.205  25.272  1.00  0.00    -0.463 OA
BRANCH   6   7
ATOM      7  C   UNL A   1      33.712  27.217  24.818  1.00  0.00     0.312 C 
ATOM      8  O   UNL A   1      34.094  27.804  23.801  1.00  0.00    -0.252 OA
BRANCH   7   9
ATOM      9  C   UNL A   1      32.545  27.807  25.587  1.00  0.00     0.143 C 
ATOM     10  C   UNL A   1      31.399  28.673  25.053  1.00  0.00     0.124 C 
ATOM     11  C   UNL A   1      31.903  30.108  25.511  1.00  0.00     0.132 C 
ATOM     12  C   UNL A   1      33.193  28.754  26.608  1.00  0.00     0.133 C 
ATOM     13  C   UNL A   1      31.499  30.388  26.957  1.00  0.00     0.035 C 
ATOM     14  O   UNL A   1      33.316  29.915  25.767  1.00  0.00    -0.373 OA
ATOM     15  C   UNL A   1      32.191  29.225  27.672  1.00  0.00     0.036 C 
BRANCH  10  16
ATOM     16  C   UNL A   1      30.817  28.670  23.635  1.00  0.00     0.232 C 
ATOM     17  N   UNL A   1      30.831  27.700  22.678  1.00  0.00    -0.302 N 
ATOM     18  H   UNL A   1      30.157  27.855  21.978  1.00  0.00     0.172 HD
ATOM     19  O   UNL A   1      30.248  29.712  23.267  1.00  0.00    -0.274 OA
BRANCH  17  20
ATOM     20  C   UNL A   1      31.561  26.559  22.458  1.00  0.00     0.190 A 
ATOM     21  C   UNL A   1      31.862  24.245  22.422  1.00  0.00     0.086 A 
ATOM     22  N   UNL A   1      31.356  25.404  23.071  1.00  0.00    -0.220 NA
ATOM     23  C   UNL A   1      32.437  24.884  21.097  1.00  0.00     0.031 A 
ATOM     24  S   UNL A   1      32.816  26.587  21.394  1.00  0.00    -0.101 S 
ATOM     25  C   UNL A   1      32.939  24.566  19.642  1.00  0.00     0.059 C 
BRANCH  21  26
ATOM     26  C   UNL A   1      31.787  22.485  23.145  1.00  0.00     0.001 A 
ATOM     27  C   UNL A   1      33.446  18.645  24.878  1.00  0.00     0.044 C 
ATOM     28  C   UNL A   1      32.643  19.778  24.334  1.00  0.00    -0.051 A 
ATOM     29  C   UNL A   1      32.288  19.928  23.018  1.00  0.00     0.004 A 
ATOM     30  C   UNL A   1      32.275  20.816  25.134  1.00  0.00     0.004 A 
ATOM     31  C   UNL A   1      31.847  21.201  22.495  1.00  0.00     0.010 A 
ATOM     32  C   UNL A   1      31.848  22.049  24.563  1.00  0.00     0.010 A 
ENDBRANCH  21  26
ENDBRANCH  17  20
ENDBRANCH  10  16
ENDBRANCH   7   9
ENDBRANCH   6   7
ENDBRANCH   5   6
ENDBRANCH   4   5
ENDBRANCH   3   4
ENDBRANCH   2   3
ENDBRANCH   1   2
BRANCH   1  33
ATOM     33  O   UNL A   1      38.002  23.472  26.457  1.00  0.00    -0.377 OA
BRANCH  33  34
ATOM     34  C   UNL A   1      39.370  23.159  26.729  1.00  0.00     0.188 C 
BRANCH  34  35
ATOM     35  C   UNL A   1      39.708  21.697  26.474  1.00  0.00     0.188 C 
BRANCH  35  36
ATOM     36  O   UNL A   1      40.956  21.567  25.810  1.00  0.00    -0.376 OA
BRANCH  36  37
ATOM     37  C   UNL A   1      41.983  21.005  26.610  1.00  0.00     0.202 C 
BRANCH  37  38
ATOM     38  C   UNL A   1      42.560  19.825  25.834  1.00  0.00     0.261 C 
BRANCH  38  39
ATOM     39  O   UNL A   1      43.996  20.082  25.701  1.00  0.00    -0.460 OA
BRANCH  39  40
ATOM     40  C   UNL A   1      44.411  20.854  24.660  1.00  0.00     0.338 C 
ATOM     41  O   UNL A   1      44.582  20.423  23.507  1.00  0.00    -0.246 OA
BRANCH  40  42
ATOM     42  C   UNL A   1      44.879  22.229  25.077  1.00  0.00     0.060 A 
ATOM     43  C   UNL A   1      45.499  22.421  26.322  1.00  0.00     0.016 A 
ATOM     44  C   UNL A   1      44.488  23.369  24.374  1.00  0.00     0.016 A 
ATOM     45  C   UNL A   1      45.568  23.708  26.905  1.00  0.00     0.010 A 
ATOM     46  C   UNL A   1      44.523  24.640  24.978  1.00  0.00     0.010 A 
ATOM     47  C   UNL A   1      44.953  24.827  26.294  1.00  0.00    -0.014 A 
BRANCH  47  48
ATOM     48  C   UNL A   1      44.616  26.106  27.050  1.00  0.00     0.031 A 
ATOM     49  C   UNL A   1      43.039  26.327  27.727  1.00  0.00     0.074 A 
ATOM     50  C   UNL A   1      45.649  27.015  27.256  1.00  0.00     0.049 A 
ATOM     51  N   UNL A   1      42.657  26.896  28.859  1.00  0.00    -0.248 NA
ATOM     52  C   UNL A   1      41.809  25.986  27.016  1.00  0.00     0.031 C 
ATOM     53  C   UNL A   1      45.438  28.409  27.196  1.00  0.00     0.029 A 
ATOM     54  N   UNL A   1      47.061  27.016  27.559  1.00  0.00    -0.354 N 
ATOM     55  C   UNL A   1      41.294  27.485  28.840  1.00  0.00     0.074 A 
ATOM     56  C   UNL A   1      40.823  26.562  27.756  1.00  0.00     0.031 C 
ATOM     57  C   UNL A   1      46.393  29.071  27.798  1.00  0.00     0.029 A 
ATOM     58  C   UNL A   1      47.493  28.281  28.087  1.00  0.00     0.049 A 
ATOM     59  H   UNL A   1      47.655  26.244  27.420  1.00  0.00     0.167 HD
ATOM     60  C   UNL A   1      40.748  28.824  29.480  1.00  0.00     0.037 A 
ATOM     61  C   UNL A   1      48.534  28.959  28.686  1.00  0.00     0.037 A 
ATOM     62  C   UNL A   1      41.651  30.129  30.393  1.00  0.00     0.049 A 
ATOM     63  C   UNL A   1      48.074  30.438  29.383  1.00  0.00     0.074 A 
ATOM     64  C   UNL A   1      41.619  30.788  31.659  1.00  0.00     0.029 A 
ATOM     65  N   UNL A   1      42.966  30.910  30.010  1.00  0.00    -0.354 N 
ATOM     66  N   UNL A   1      47.030  31.203  29.017  1.00  0.00    -0.248 NA
ATOM     67  C   UNL A   1      48.570  31.018  30.643  1.00  0.00     0.031 C 
ATOM     68  C   UNL A   1      42.881  31.629  31.953  1.00  0.00     0.029 A 
ATOM     69  C   UNL A   1      43.784  31.598  30.896  1.00  0.00     0.049 A 
ATOM     70  H   UNL A   1      43.228  30.910  29.062  1.00  0.00     0.167 HD
ATOM     71  C   UNL A   1      46.343  31.646  30.179  1.00  0.00     0.074 A 
ATOM     72  C   UNL A   1      47.510  31.765  31.060  1.00  0.00     0.031 C 
ATOM     73  C   UNL A   1      45.087  32.291  30.261  1.00  0.00     0.037 A 
BRANCH  60  74
ATOM     74  C   UNL A   1      39.151  29.055  29.373  1.00  0.00     0.064 A 
ATOM     75  C   UNL A   1      38.548  29.399  28.145  1.00  0.00     0.173 A 
ATOM     76  C   UNL A   1      38.183  29.012  30.414  1.00  0.00     0.173 A 
ATOM     77  F   UNL A   1      39.216  29.321  26.993  1.00  0.00    -0.203 F 
ATOM     78  C   UNL A   1      37.198  29.796  28.013  1.00  0.00     0.198 A 
ATOM     79  C   UNL A   1      36.847  29.432  30.301  1.00  0.00     0.198 A 
ATOM     80  F   UNL A   1      38.392  28.435  31.585  1.00  0.00    -0.203 F 
ATOM     81  F   UNL A   1      36.722  30.123  26.804  1.00  0.00    -0.200 F 
ATOM     82  C   UNL A   1      36.356  29.849  29.098  1.00  0.00     0.200 A 
ATOM     83  F   UNL A   1      36.043  29.375  31.375  1.00  0.00    -0.200 F 
ATOM     84  F   UNL A   1      35.078  30.234  28.980  1.00  0.00    -0.200 F 
ENDBRANCH  60  74
BRANCH  61  85
ATOM     85  C   UNL A   1      49.772  28.072  28.708  1.00  0.00     0.064 A 
ATOM     86  C   UNL A   1      49.803  26.785  29.264  1.00  0.00     0.173 A 
ATOM     87  C   UNL A   1      50.604  28.245  27.565  1.00  0.00     0.173 A 
ATOM     88  F   UNL A   1      49.251  26.564  30.464  1.00  0.00    -0.203 F 
ATOM     89  C   UNL A   1      50.343  25.691  28.547  1.00  0.00     0.198 A 
ATOM     90  C   UNL A   1      51.053  27.156  26.809  1.00  0.00     0.198 A 
ATOM     91  F   UNL A   1      50.728  29.467  27.021  1.00  0.00    -0.203 F 
ATOM     92  F   UNL A   1      50.260  24.444  29.036  1.00  0.00    -0.200 F 
ATOM     93  C   UNL A   1      50.870  25.872  27.277  1.00  0.00     0.200 A 
ATOM     94  F   UNL A   1      51.488  27.352  25.554  1.00  0.00    -0.200 F 
ATOM     95  F   UNL A   1      51.142  24.821  26.487  1.00  0.00    -0.200 F 
ENDBRANCH  61  85
BRANCH  73  96
ATOM     96  C   UNL A   1      44.792  33.373  29.165  1.00  0.00     0.064 A 
ATOM     97  C   UNL A   1      44.449  33.071  27.826  1.00  0.00     0.173 A 
ATOM     98  C   UNL A   1      45.003  34.757  29.405  1.00  0.00     0.173 A 
ATOM     99  F   UNL A   1      44.297  31.807  27.409  1.00  0.00    -0.203 F 
ATOM    100  C   UNL A   1      44.325  34.066  26.837  1.00  0.00     0.198 A 
ATOM    101  C   UNL A   1      44.850  35.744  28.429  1.00  0.00     0.198 A 
ATOM    102  F   UNL A   1      45.424  35.219  30.587  1.00  0.00    -0.203 F 
ATOM    103  F   UNL A   1      44.052  33.719  25.571  1.00  0.00    -0.200 F 
ATOM    104  C   UNL A   1      44.530  35.399  27.138  1.00  0.00     0.200 A 
ATOM    105  F   UNL A   1      45.064  37.028  28.751  1.00  0.00    -0.200 F 
ATOM    106  F   UNL A   1      44.470  36.339  26.185  1.00  0.00    -0.200 F 
ENDBRANCH  73  96
ENDBRANCH  47  48
ENDBRANCH  40  42
ENDBRANCH  39  40
ENDBRANCH  38  39
ENDBRANCH  37  38
ENDBRANCH  36  37
ENDBRANCH  35  36
ENDBRANCH  34  35
ENDBRANCH  33  34
ENDBRANCH   1  33
TORSDOF 23
ENDMDL
MODEL 3
REMARK VINA RESULT:     -10.2      6.482     13.414
REMARK SMILES Cc1ccc(-c2nc(NC(=O)[C@H]3[C@@H](C(=O)OCCOCCOCCOCCOC(=O)c4ccc(-c5c6nc(c(-c7c(F)c(F)c(F)c(F)c7F)c7ccc([nH]7)c(-c7c(F)c(F)c(F)c(F)c7F)c7nc(c(-c8c(F)c(F)c(F)c(F)c8F)c8ccc5[nH]8)C=C7)C=C6)cc4)[C@@H]4CC[C@H]3O4)sc2C)cc1
REMARK SMILES IDX 21 1 20 2 19 3 18 4 17 5 16 6 14 7 15 8 13 9 12 10 97 11
REMARK SMILES IDX 94 12 96 13 98 14 95 15 10 16 9 17 11 19 8 20 6 21 7 22
REMARK SMILES IDX 100 23 99 24 101 25 5 26 1 27 2 28 3 29 103 30 4 31 102 32
REMARK SMILES IDX 22 33 23 34 24 35 25 36 26 37 27 38 28 39 29 40 30 41 31 42
REMARK SMILES IDX 32 43 93 44 33 45 92 46 34 47 35 48 36 49 86 50 37 51 91 52
REMARK SMILES IDX 85 53 87 54 38 55 90 56 84 57 83 58 39 60 71 61 51 62 70 63
REMARK SMILES IDX 52 64 55 65 69 66 88 67 53 68 54 69 68 71 89 72 56 73 40 74
REMARK SMILES IDX 41 75 49 76 42 77 43 78 47 79 50 80 44 81 45 82 48 83 46 84
REMARK SMILES IDX 72 85 73 86 81 87 74 88 75 89 79 90 82 91 76 92 77 93 80 94
REMARK SMILES IDX 78 95 57 96 58 97 66 98 59 99 60 100 64 101 67 102 61 103
REMARK SMILES IDX 62 104 65 105 63 106
REMARK H PARENT 9 18 87 59 55 70
REMARK Flexibility Score: inf
ROOT
ATOM      1  C   UNL A   1      46.037  29.802  26.075  1.00  0.00     0.188 C 
ENDROOT
BRANCH   1   2
ATOM      2  C   UNL A   1      46.134  31.319  26.381  1.00  0.00     0.188 C 
BRANCH   2   3
ATOM      3  O   UNL A   1      45.282  32.213  25.665  1.00  0.00    -0.376 OA
BRANCH   3   4
ATOM      4  C   UNL A   1      44.771  33.280  26.403  1.00  0.00     0.202 C 
BRANCH   4   5
ATOM      5  C   UNL A   1      45.025  34.661  25.939  1.00  0.00     0.261 C 
BRANCH   5   6
ATOM      6  O   UNL A   1      44.616  35.659  26.849  1.00  0.00    -0.463 OA
BRANCH   6   7
ATOM      7  C   UNL A   1      43.524  36.420  26.749  1.00  0.00     0.312 C 
ATOM      8  O   UNL A   1      42.529  35.934  26.205  1.00  0.00    -0.252 OA
BRANCH   7   9
ATOM      9  C   UNL A   1      43.505  37.899  27.084  1.00  0.00     0.143 C 
ATOM     10  C   UNL A   1      44.687  38.874  27.140  1.00  0.00     0.124 C 
ATOM     11  C   UNL A   1      44.918  38.934  28.711  1.00  0.00     0.132 C 
ATOM     12  C   UNL A   1      42.988  37.963  28.529  1.00  0.00     0.133 C 
ATOM     13  C   UNL A   1      43.987  39.957  29.356  1.00  0.00     0.035 C 
ATOM     14  O   UNL A   1      44.239  37.754  29.208  1.00  0.00    -0.373 OA
ATOM     15  C   UNL A   1      42.624  39.394  28.947  1.00  0.00     0.036 C 
BRANCH  10  16
ATOM     16  C   UNL A   1      45.996  38.792  26.348  1.00  0.00     0.232 C 
ATOM     17  N   UNL A   1      46.689  39.762  25.686  1.00  0.00    -0.302 N 
ATOM     18  H   UNL A   1      47.619  39.498  25.504  1.00  0.00     0.172 HD
ATOM     19  O   UNL A   1      46.525  37.670  26.265  1.00  0.00    -0.274 OA
BRANCH  17  20
ATOM     20  C   UNL A   1      46.397  41.017  25.214  1.00  0.00     0.190 A 
ATOM     21  C   UNL A   1      45.062  42.570  24.096  1.00  0.00     0.086 A 
ATOM     22  N   UNL A   1      45.624  41.267  24.169  1.00  0.00    -0.220 NA
ATOM     23  C   UNL A   1      45.590  43.189  25.449  1.00  0.00     0.031 A 
ATOM     24  S   UNL A   1      47.061  42.336  25.939  1.00  0.00    -0.101 S 
ATOM     25  C   UNL A   1      45.400  44.367  26.474  1.00  0.00     0.059 C 
BRANCH  21  26
ATOM     26  C   UNL A   1      44.005  43.209  22.646  1.00  0.00     0.001 A 
ATOM     27  C   UNL A   1      42.332  43.242  18.439  1.00  0.00     0.044 C 
ATOM     28  C   UNL A   1      42.722  43.469  19.860  1.00  0.00    -0.051 A 
ATOM     29  C   UNL A   1      43.761  44.264  20.273  1.00  0.00     0.004 A 
ATOM     30  C   UNL A   1      42.094  42.804  20.868  1.00  0.00     0.004 A 
ATOM     31  C   UNL A   1      44.317  44.151  21.603  1.00  0.00     0.010 A 
ATOM     32  C   UNL A   1      42.688  42.725  22.160  1.00  0.00     0.010 A 
ENDBRANCH  21  26
ENDBRANCH  17  20
ENDBRANCH  10  16
ENDBRANCH   7   9
ENDBRANCH   6   7
ENDBRANCH   5   6
ENDBRANCH   4   5
ENDBRANCH   3   4
ENDBRANCH   2   3
ENDBRANCH   1   2
BRANCH   1  33
ATOM     33  O   UNL A   1      46.440  29.297  24.800  1.00  0.00    -0.377 OA
BRANCH  33  34
ATOM     34  C   UNL A   1      47.234  28.109  24.740  1.00  0.00     0.188 C 
BRANCH  34  35
ATOM     35  C   UNL A   1      46.416  26.837  24.915  1.00  0.00     0.188 C 
BRANCH  35  36
ATOM     36  O   UNL A   1      47.012  25.747  24.230  1.00  0.00    -0.376 OA
BRANCH  36  37
ATOM     37  C   UNL A   1      46.743  24.480  24.810  1.00  0.00     0.202 C 
BRANCH  37  38
ATOM     38  C   UNL A   1      46.495  24.713  26.298  1.00  0.00     0.261 C 
BRANCH  38  39
ATOM     39  O   UNL A   1      47.540  23.974  27.010  1.00  0.00    -0.460 OA
BRANCH  39  40
ATOM     40  C   UNL A   1      48.522  24.689  27.622  1.00  0.00     0.338 C 
ATOM     41  O   UNL A   1      49.721  24.361  27.616  1.00  0.00    -0.246 OA
BRANCH  40  42
ATOM     42  C   UNL A   1      48.000  25.790  28.515  1.00  0.00     0.060 A 
ATOM     43  C   UNL A   1      47.075  25.502  29.531  1.00  0.00     0.016 A 
ATOM     44  C   UNL A   1      48.211  27.134  28.205  1.00  0.00     0.016 A 
ATOM     45  C   UNL A   1      46.274  26.525  30.092  1.00  0.00     0.010 A 
ATOM     46  C   UNL A   1      47.383  28.139  28.737  1.00  0.00     0.010 A 
ATOM     47  C   UNL A   1      46.323  27.851  29.600  1.00  0.00    -0.014 A 
BRANCH  47  48
ATOM     48  C   UNL A   1      45.217  28.870  29.844  1.00  0.00     0.031 A 
ATOM     49  C   UNL A   1      45.612  30.520  30.187  1.00  0.00     0.074 A 
ATOM     50  C   UNL A   1      43.905  28.438  29.671  1.00  0.00     0.049 A 
ATOM     51  N   UNL A   1      45.018  31.644  29.820  1.00  0.00    -0.248 NA
ATOM     52  C   UNL A   1      46.679  30.911  31.104  1.00  0.00     0.031 C 
ATOM     53  C   UNL A   1      42.860  28.878  30.511  1.00  0.00     0.029 A 
ATOM     54  N   UNL A   1      43.142  27.577  28.798  1.00  0.00    -0.354 N 
ATOM     55  C   UNL A   1      45.189  32.781  30.759  1.00  0.00     0.074 A 
ATOM     56  C   UNL A   1      46.476  32.241  31.307  1.00  0.00     0.031 C 
ATOM     57  C   UNL A   1      41.686  28.696  29.961  1.00  0.00     0.029 A 
ATOM     58  C   UNL A   1      41.738  27.877  28.845  1.00  0.00     0.049 A 
ATOM     59  H   UNL A   1      43.538  26.871  28.238  1.00  0.00     0.167 HD
ATOM     60  C   UNL A   1      44.164  33.897  31.214  1.00  0.00     0.037 A 
ATOM     61  C   UNL A   1      40.511  27.633  28.267  1.00  0.00     0.037 A 
ATOM     62  C   UNL A   1      42.396  34.097  30.782  1.00  0.00     0.049 A 
ATOM     63  C   UNL A   1      39.312  28.752  28.710  1.00  0.00     0.074 A 
ATOM     64  C   UNL A   1      41.523  35.066  30.200  1.00  0.00     0.029 A 
ATOM     65  N   UNL A   1      41.213  33.057  30.846  1.00  0.00    -0.354 N 
ATOM     66  N   UNL A   1      39.275  29.476  29.842  1.00  0.00    -0.248 NA
ATOM     67  C   UNL A   1      38.252  29.306  27.850  1.00  0.00     0.031 C 
ATOM     68  C   UNL A   1      40.135  34.502  29.824  1.00  0.00     0.029 A 
ATOM     69  C   UNL A   1      40.008  33.161  30.164  1.00  0.00     0.049 A 
ATOM     70  H   UNL A   1      41.339  32.267  31.419  1.00  0.00     0.167 HD
ATOM     71  C   UNL A   1      38.926  30.817  29.532  1.00  0.00     0.074 A 
ATOM     72  C   UNL A   1      38.028  30.528  28.408  1.00  0.00     0.031 C 
ATOM     73  C   UNL A   1      38.971  31.952  30.375  1.00  0.00     0.037 A 
BRANCH  60  74
ATOM     74  C   UNL A   1      44.771  35.072  32.145  1.00  0.00     0.064 A 
ATOM     75  C   UNL A   1      44.278  35.291  33.449  1.00  0.00     0.173 A 
ATOM     76  C   UNL A   1      45.767  36.030  31.815  1.00  0.00     0.173 A 
ATOM     77  F   UNL A   1      43.474  34.412  34.048  1.00  0.00    -0.203 F 
ATOM     78  C   UNL A   1      44.625  36.406  34.244  1.00  0.00     0.198 A 
ATOM     79  C   UNL A   1      46.099  37.157  32.586  1.00  0.00     0.198 A 
ATOM     80  F   UNL A   1      46.607  35.896  30.803  1.00  0.00    -0.203 F 
ATOM     81  F   UNL A   1      44.088  36.537  35.466  1.00  0.00    -0.200 F 
ATOM     82  C   UNL A   1      45.508  37.361  33.798  1.00  0.00     0.200 A 
ATOM     83  F   UNL A   1      47.036  38.010  32.141  1.00  0.00    -0.200 F 
ATOM     84  F   UNL A   1      45.832  38.425  34.545  1.00  0.00    -0.200 F 
ENDBRANCH  60  74
BRANCH  61  85
ATOM     85  C   UNL A   1      40.648  26.522  27.234  1.00  0.00     0.064 A 
ATOM     86  C   UNL A   1      41.494  26.590  26.118  1.00  0.00     0.173 A 
ATOM     87  C   UNL A   1      40.506  25.219  27.793  1.00  0.00     0.173 A 
ATOM     88  F   UNL A   1      41.525  27.702  25.372  1.00  0.00    -0.203 F 
ATOM     89  C   UNL A   1      42.378  25.531  25.804  1.00  0.00     0.198 A 
ATOM     90  C   UNL A   1      41.441  24.207  27.549  1.00  0.00     0.198 A 
ATOM     91  F   UNL A   1      39.635  25.026  28.797  1.00  0.00    -0.203 F 
ATOM     92  F   UNL A   1      43.268  25.654  24.808  1.00  0.00    -0.200 F 
ATOM     93  C   UNL A   1      42.416  24.388  26.590  1.00  0.00     0.200 A 
ATOM     94  F   UNL A   1      41.504  23.148  28.371  1.00  0.00    -0.200 F 
ATOM     95  F   UNL A   1      43.415  23.500  26.468  1.00  0.00    -0.200 F 
ENDBRANCH  61  85
BRANCH  73  96
ATOM     96  C   UNL A   1      38.503  31.733  31.856  1.00  0.00     0.064 A 
ATOM     97  C   UNL A   1      37.337  32.312  32.412  1.00  0.00     0.173 A 
ATOM     98  C   UNL A   1      39.313  31.053  32.804  1.00  0.00     0.173 A 
ATOM     99  F   UNL A   1      36.505  33.059  31.673  1.00  0.00    -0.203 F 
ATOM    100  C   UNL A   1      37.021  32.204  33.779  1.00  0.00     0.198 A 
ATOM    101  C   UNL A   1      38.982  30.924  34.154  1.00  0.00     0.198 A 
ATOM    102  F   UNL A   1      40.498  30.526  32.480  1.00  0.00    -0.203 F 
ATOM    103  F   UNL A   1      35.931  32.818  34.263  1.00  0.00    -0.200 F 
ATOM    104  C   UNL A   1      37.845  31.516  34.649  1.00  0.00     0.200 A 
ATOM    105  F   UNL A   1      39.806  30.256  34.974  1.00  0.00    -0.200 F 
ATOM    106  F   UNL A   1      37.576  31.464  35.961  1.00  0.00    -0.200 F 
ENDBRANCH  73  96
ENDBRANCH  47  48
ENDBRANCH  40  42
ENDBRANCH  39  40
ENDBRANCH  38  39
ENDBRANCH  37  38
ENDBRANCH  36  37
ENDBRANCH  35  36
ENDBRANCH  34  35
ENDBRANCH  33  34
ENDBRANCH   1  33
TORSDOF 23
ENDMDL
