MODEL 1
REMARK VINA RESULT:     -11.2      0.000      0.000
REMARK SMILES C[C@@H]1[C@@H](C(=O)OCCOCCOCCOCCOC(=O)c2ccc(-c3c4nc(c(-c5c(F)c(F)c(F)c(F)c5F)c5ccc([nH]5)c(-c5c(F)c(F)c(F)c(F)c5F)c5nc(c(-c6c(F)c(F)c(F)c(F)c6F)c6ccc3[nH]6)C=C5)C=C4)cc2)CCN1C(=O)[C@@H]1CCCN1C(=O)C1CC1
REMARK SMILES IDX 11 1 10 2 9 3 8 4 7 5 6 6 4 7 5 8 3 9 1 10 2 11 86 12 84 13
REMARK SMILES IDX 85 14 87 15 88 16 89 17 90 18 93 19 91 20 92 21 94 22 95 23
REMARK SMILES IDX 96 24 97 25 98 26 12 27 13 28 14 29 15 30 16 31 17 32 18 33
REMARK SMILES IDX 19 34 20 35 21 36 22 37 83 38 23 39 82 40 24 41 25 42 26 43
REMARK SMILES IDX 76 44 27 45 81 46 75 47 77 48 28 49 80 50 74 51 73 52 29 54
REMARK SMILES IDX 61 55 41 56 60 57 42 58 45 59 59 60 78 61 43 62 44 63 58 65
REMARK SMILES IDX 79 66 46 67 30 68 31 69 39 70 32 71 33 72 37 73 40 74 34 75
REMARK SMILES IDX 35 76 38 77 36 78 62 79 63 80 71 81 64 82 65 83 69 84 72 85
REMARK SMILES IDX 66 86 67 87 70 88 68 89 47 90 48 91 56 92 49 93 50 94 54 95
REMARK SMILES IDX 57 96 51 97 52 98 55 99 53 100
REMARK H PARENT 77 53 45 64
REMARK Flexibility Score: inf
ROOT
ATOM      1  C   UNL A   1      33.598  34.592  28.267  1.00  0.00     0.188 C 
ENDROOT
BRANCH   1   2
ATOM      2  C   UNL A   1      34.357  33.273  28.067  1.00  0.00     0.188 C 
BRANCH   2   3
ATOM      3  O   UNL A   1      33.689  32.042  28.263  1.00  0.00    -0.376 OA
BRANCH   3   4
ATOM      4  C   UNL A   1      33.243  31.159  27.246  1.00  0.00     0.202 C 
BRANCH   4   5
ATOM      5  C   UNL A   1      33.237  29.617  27.238  1.00  0.00     0.261 C 
BRANCH   5   6
ATOM      6  O   UNL A   1      32.433  28.950  26.278  1.00  0.00    -0.463 OA
BRANCH   6   7
ATOM      7  C   UNL A   1      32.780  27.657  26.102  1.00  0.00     0.311 C 
ATOM      8  O   UNL A   1      32.258  26.721  26.690  1.00  0.00    -0.252 OA
BRANCH   7   9
ATOM      9  C   UNL A   1      33.819  27.544  25.003  1.00  0.00     0.123 C 
ATOM     10  C   UNL A   1      34.294  28.644  22.752  1.00  0.00     0.032 C 
ATOM     11  C   UNL A   1      33.233  28.091  23.699  1.00  0.00     0.096 C 
ATOM     12  N   UNL A   1      32.544  26.934  23.133  1.00  0.00    -0.337 N 
ATOM     13  C   UNL A   1      34.120  26.094  24.692  1.00  0.00     0.039 C 
ATOM     14  C   UNL A   1      32.912  25.718  23.862  1.00  0.00     0.121 C 
BRANCH  12  15
ATOM     15  C   UNL A   1      31.199  27.104  22.799  1.00  0.00     0.245 C 
ATOM     16  O   UNL A   1      30.771  26.902  21.665  1.00  0.00    -0.272 OA
BRANCH  15  17
ATOM     17  C   UNL A   1      30.329  27.648  23.947  1.00  0.00     0.174 C 
ATOM     18  C   UNL A   1      29.555  26.547  24.677  1.00  0.00     0.037 C 
ATOM     19  N   UNL A   1      29.291  28.505  23.382  1.00  0.00    -0.330 N 
ATOM     20  C   UNL A   1      28.272  26.417  23.870  1.00  0.00     0.024 C 
ATOM     21  C   UNL A   1      27.995  27.846  23.430  1.00  0.00     0.120 C 
BRANCH  19  22
ATOM     22  C   UNL A   1      29.391  29.754  22.797  1.00  0.00     0.226 C 
ATOM     23  O   UNL A   1      29.720  29.862  21.616  1.00  0.00    -0.275 OA
BRANCH  22  24
ATOM     24  C   UNL A   1      29.074  31.037  23.500  1.00  0.00     0.079 C 
ATOM     25  C   UNL A   1      28.740  32.410  22.998  1.00  0.00     0.014 C 
ATOM     26  C   UNL A   1      27.641  31.535  23.525  1.00  0.00     0.014 C 
ENDBRANCH  22  24
ENDBRANCH  19  22
ENDBRANCH  15  17
ENDBRANCH  12  15
ENDBRANCH   7   9
ENDBRANCH   6   7
ENDBRANCH   5   6
ENDBRANCH   4   5
ENDBRANCH   3   4
ENDBRANCH   2   3
ENDBRANCH   1   2
BRANCH   1  27
ATOM     27  O   UNL A   1      32.947  34.679  29.517  1.00  0.00    -0.377 OA
BRANCH  27  28
ATOM     28  C   UNL A   1      33.240  35.821  30.313  1.00  0.00     0.188 C 
BRANCH  28  29
ATOM     29  C   UNL A   1      33.056  35.776  31.851  1.00  0.00     0.188 C 
BRANCH  29  30
ATOM     30  O   UNL A   1      34.234  36.025  32.603  1.00  0.00    -0.376 OA
BRANCH  30  31
ATOM     31  C   UNL A   1      34.689  35.043  33.520  1.00  0.00     0.202 C 
BRANCH  31  32
ATOM     32  C   UNL A   1      36.013  34.337  33.189  1.00  0.00     0.261 C 
BRANCH  32  33
ATOM     33  O   UNL A   1      36.000  32.906  33.288  1.00  0.00    -0.460 OA
BRANCH  33  34
ATOM     34  C   UNL A   1      35.438  32.225  32.268  1.00  0.00     0.338 C 
ATOM     35  O   UNL A   1      34.303  32.348  31.837  1.00  0.00    -0.246 OA
BRANCH  34  36
ATOM     36  C   UNL A   1      36.497  31.430  31.614  1.00  0.00     0.060 A 
ATOM     37  C   UNL A   1      37.451  30.790  32.415  1.00  0.00     0.016 A 
ATOM     38  C   UNL A   1      36.543  31.311  30.223  1.00  0.00     0.016 A 
ATOM     39  C   UNL A   1      38.483  30.062  31.824  1.00  0.00     0.010 A 
ATOM     40  C   UNL A   1      37.591  30.603  29.631  1.00  0.00     0.010 A 
ATOM     41  C   UNL A   1      38.586  30.009  30.428  1.00  0.00    -0.014 A 
BRANCH  41  42
ATOM     42  C   UNL A   1      39.843  29.526  29.806  1.00  0.00     0.031 A 
ATOM     43  C   UNL A   1      40.987  30.494  29.678  1.00  0.00     0.074 A 
ATOM     44  C   UNL A   1      39.979  28.256  29.388  1.00  0.00     0.049 A 
ATOM     45  N   UNL A   1      42.161  30.331  29.126  1.00  0.00    -0.248 NA
ATOM     46  C   UNL A   1      40.772  31.833  30.252  1.00  0.00     0.031 C 
ATOM     47  C   UNL A   1      38.964  27.214  29.502  1.00  0.00     0.029 A 
ATOM     48  N   UNL A   1      41.038  27.634  28.772  1.00  0.00    -0.354 N 
ATOM     49  C   UNL A   1      42.819  31.545  29.278  1.00  0.00     0.074 A 
ATOM     50  C   UNL A   1      41.904  32.445  29.943  1.00  0.00     0.031 C 
ATOM     51  C   UNL A   1      39.443  26.080  28.960  1.00  0.00     0.029 A 
ATOM     52  C   UNL A   1      40.783  26.329  28.428  1.00  0.00     0.049 A 
ATOM     53  H   UNL A   1      41.897  28.080  28.593  1.00  0.00     0.167 HD
ATOM     54  C   UNL A   1      44.078  31.875  28.905  1.00  0.00     0.037 A 
ATOM     55  C   UNL A   1      41.537  25.450  27.740  1.00  0.00     0.037 A 
ATOM     56  C   UNL A   1      44.984  30.976  28.240  1.00  0.00     0.049 A 
ATOM     57  C   UNL A   1      42.905  25.870  27.257  1.00  0.00     0.074 A 
ATOM     58  C   UNL A   1      46.285  31.210  27.832  1.00  0.00     0.029 A 
ATOM     59  N   UNL A   1      44.677  29.674  27.876  1.00  0.00    -0.354 N 
ATOM     60  N   UNL A   1      43.531  27.010  27.423  1.00  0.00    -0.248 NA
ATOM     61  C   UNL A   1      43.672  24.875  26.491  1.00  0.00     0.031 C 
ATOM     62  C   UNL A   1      46.743  30.070  27.164  1.00  0.00     0.029 A 
ATOM     63  C   UNL A   1      45.755  29.101  27.219  1.00  0.00     0.049 A 
ATOM     64  H   UNL A   1      43.821  29.222  28.058  1.00  0.00     0.167 HD
ATOM     65  C   UNL A   1      44.774  26.859  26.819  1.00  0.00     0.074 A 
ATOM     66  C   UNL A   1      44.818  25.511  26.293  1.00  0.00     0.031 C 
ATOM     67  C   UNL A   1      45.788  27.753  26.711  1.00  0.00     0.037 A 
BRANCH  54  68
ATOM     68  C   UNL A   1      44.536  33.279  29.177  1.00  0.00     0.064 A 
ATOM     69  C   UNL A   1      45.182  33.631  30.372  1.00  0.00     0.173 A 
ATOM     70  C   UNL A   1      44.351  34.282  28.212  1.00  0.00     0.173 A 
ATOM     71  F   UNL A   1      45.369  32.714  31.334  1.00  0.00    -0.203 F 
ATOM     72  C   UNL A   1      45.601  34.939  30.603  1.00  0.00     0.198 A 
ATOM     73  C   UNL A   1      44.802  35.581  28.432  1.00  0.00     0.198 A 
ATOM     74  F   UNL A   1      43.741  34.001  27.051  1.00  0.00    -0.203 F 
ATOM     75  F   UNL A   1      46.166  35.264  31.774  1.00  0.00    -0.200 F 
ATOM     76  C   UNL A   1      45.417  35.911  29.630  1.00  0.00     0.200 A 
ATOM     77  F   UNL A   1      44.637  36.515  27.485  1.00  0.00    -0.200 F 
ATOM     78  F   UNL A   1      45.828  37.167  29.850  1.00  0.00    -0.200 F 
ENDBRANCH  54  68
BRANCH  55  79
ATOM     79  C   UNL A   1      41.018  24.087  27.444  1.00  0.00     0.064 A 
ATOM     80  C   UNL A   1      41.590  22.950  28.032  1.00  0.00     0.173 A 
ATOM     81  C   UNL A   1      39.961  23.892  26.543  1.00  0.00     0.173 A 
ATOM     82  F   UNL A   1      42.621  23.081  28.879  1.00  0.00    -0.203 F 
ATOM     83  C   UNL A   1      41.141  21.670  27.710  1.00  0.00     0.198 A 
ATOM     84  C   UNL A   1      39.491  22.613  26.248  1.00  0.00     0.198 A 
ATOM     85  F   UNL A   1      39.380  24.944  25.949  1.00  0.00    -0.203 F 
ATOM     86  F   UNL A   1      41.744  20.598  28.241  1.00  0.00    -0.200 F 
ATOM     87  C   UNL A   1      40.088  21.503  26.823  1.00  0.00     0.200 A 
ATOM     88  F   UNL A   1      38.465  22.458  25.399  1.00  0.00    -0.200 F 
ATOM     89  F   UNL A   1      39.657  20.272  26.514  1.00  0.00    -0.200 F 
ENDBRANCH  55  79
BRANCH  67  90
ATOM     90  C   UNL A   1      47.054  27.291  26.042  1.00  0.00     0.064 A 
ATOM     91  C   UNL A   1      48.046  26.585  26.736  1.00  0.00     0.173 A 
ATOM     92  C   UNL A   1      47.252  27.521  24.670  1.00  0.00     0.173 A 
ATOM     93  F   UNL A   1      47.913  26.349  28.049  1.00  0.00    -0.203 F 
ATOM     94  C   UNL A   1      49.205  26.156  26.092  1.00  0.00     0.198 A 
ATOM     95  C   UNL A   1      48.393  27.058  24.021  1.00  0.00     0.198 A 
ATOM     96  F   UNL A   1      46.329  28.181  23.954  1.00  0.00    -0.203 F 
ATOM     97  F   UNL A   1      50.165  25.533  26.788  1.00  0.00    -0.200 F 
ATOM     98  C   UNL A   1      49.373  26.385  24.734  1.00  0.00     0.200 A 
ATOM     99  F   UNL A   1      48.543  27.263  22.706  1.00  0.00    -0.200 F 
ATOM    100  F   UNL A   1      50.482  25.962  24.114  1.00  0.00    -0.200 F 
ENDBRANCH  67  90
ENDBRANCH  41  42
ENDBRANCH  34  36
ENDBRANCH  33  34
ENDBRANCH  32  33
ENDBRANCH  31  32
ENDBRANCH  30  31
ENDBRANCH  29  30
ENDBRANCH  28  29
ENDBRANCH  27  28
ENDBRANCH   1  27
TORSDOF 24
ENDMDL
MODEL 2
REMARK VINA RESULT:     -10.4      5.312     10.728
REMARK SMILES C[C@@H]1[C@@H](C(=O)OCCOCCOCCOCCOC(=O)c2ccc(-c3c4nc(c(-c5c(F)c(F)c(F)c(F)c5F)c5ccc([nH]5)c(-c5c(F)c(F)c(F)c(F)c5F)c5nc(c(-c6c(F)c(F)c(F)c(F)c6F)c6ccc3[nH]6)C=C5)C=C4)cc2)CCN1C(=O)[C@@H]1CCCN1C(=O)C1CC1
REMARK SMILES IDX 11 1 10 2 9 3 8 4 7 5 6 6 4 7 5 8 3 9 1 10 2 11 86 12 84 13
REMARK SMILES IDX 85 14 87 15 88 16 89 17 90 18 93 19 91 20 92 21 94 22 95 23
REMARK SMILES IDX 96 24 97 25 98 26 12 27 13 28 14 29 15 30 16 31 17 32 18 33
REMARK SMILES IDX 19 34 20 35 21 36 22 37 83 38 23 39 82 40 24 41 25 42 26 43
REMARK SMILES IDX 76 44 27 45 81 46 75 47 77 48 28 49 80 50 74 51 73 52 29 54
REMARK SMILES IDX 61 55 41 56 60 57 42 58 45 59 59 60 78 61 43 62 44 63 58 65
REMARK SMILES IDX 79 66 46 67 30 68 31 69 39 70 32 71 33 72 37 73 40 74 34 75
REMARK SMILES IDX 35 76 38 77 36 78 62 79 63 80 71 81 64 82 65 83 69 84 72 85
REMARK SMILES IDX 66 86 67 87 70 88 68 89 47 90 48 91 56 92 49 93 50 94 54 95
REMARK SMILES IDX 57 96 51 97 52 98 55 99 53 100
REMARK H PARENT 77 53 45 64
REMARK Flexibility Score: inf
ROOT
ATOM      1  C   UNL A   1      40.629  21.132  26.328  1.00  0.00     0.188 C 
ENDROOT
BRANCH   1   2
ATOM      2  C   UNL A   1      39.129  21.205  26.006  1.00  0.00     0.188 C 
BRANCH   2   3
ATOM      3  O   UNL A   1      38.540  20.221  25.178  1.00  0.00    -0.376 OA
BRANCH   3   4
ATOM      4  C   UNL A   1      37.187  20.182  24.754  1.00  0.00     0.202 C 
BRANCH   4   5
ATOM      5  C   UNL A   1      36.089  21.252  24.919  1.00  0.00     0.261 C 
BRANCH   5   6
ATOM      6  O   UNL A   1      34.926  20.917  25.659  1.00  0.00    -0.463 OA
BRANCH   6   7
ATOM      7  C   UNL A   1      33.790  21.396  25.106  1.00  0.00     0.311 C 
ATOM      8  O   UNL A   1      33.603  21.496  23.903  1.00  0.00    -0.252 OA
BRANCH   7   9
ATOM      9  C   UNL A   1      32.767  21.679  26.189  1.00  0.00     0.123 C 
ATOM     10  C   UNL A   1      30.392  22.599  26.330  1.00  0.00     0.032 C 
ATOM     11  C   UNL A   1      31.766  22.717  25.676  1.00  0.00     0.096 C 
ATOM     12  N   UNL A   1      32.414  23.988  25.991  1.00  0.00    -0.337 N 
ATOM     13  C   UNL A   1      33.414  22.349  27.381  1.00  0.00     0.039 C 
ATOM     14  C   UNL A   1      33.562  23.767  26.874  1.00  0.00     0.121 C 
BRANCH  12  15
ATOM     15  C   UNL A   1      32.574  24.890  24.938  1.00  0.00     0.245 C 
ATOM     16  O   UNL A   1      33.218  24.618  23.927  1.00  0.00    -0.272 OA
BRANCH  15  17
ATOM     17  C   UNL A   1      31.948  26.274  25.194  1.00  0.00     0.174 C 
ATOM     18  C   UNL A   1      30.844  26.240  26.254  1.00  0.00     0.037 C 
ATOM     19  N   UNL A   1      31.268  26.712  23.979  1.00  0.00    -0.330 N 
ATOM     20  C   UNL A   1      29.593  25.908  25.456  1.00  0.00     0.024 C 
ATOM     21  C   UNL A   1      29.824  26.626  24.136  1.00  0.00     0.120 C 
BRANCH  19  22
ATOM     22  C   UNL A   1      31.790  27.116  22.763  1.00  0.00     0.226 C 
ATOM     23  O   UNL A   1      31.447  26.554  21.723  1.00  0.00    -0.275 OA
BRANCH  22  24
ATOM     24  C   UNL A   1      32.743  28.257  22.597  1.00  0.00     0.079 C 
ATOM     25  C   UNL A   1      34.028  28.610  23.283  1.00  0.00     0.014 C 
ATOM     26  C   UNL A   1      34.071  28.020  21.905  1.00  0.00     0.014 C 
ENDBRANCH  22  24
ENDBRANCH  19  22
ENDBRANCH  15  17
ENDBRANCH  12  15
ENDBRANCH   7   9
ENDBRANCH   6   7
ENDBRANCH   5   6
ENDBRANCH   4   5
ENDBRANCH   3   4
ENDBRANCH   2   3
ENDBRANCH   1   2
BRANCH   1  27
ATOM     27  O   UNL A   1      41.235  19.932  25.898  1.00  0.00    -0.377 OA
BRANCH  27  28
ATOM     28  C   UNL A   1      42.519  19.636  26.435  1.00  0.00     0.188 C 
BRANCH  28  29
ATOM     29  C   UNL A   1      43.719  19.356  25.496  1.00  0.00     0.188 C 
BRANCH  29  30
ATOM     30  O   UNL A   1      44.189  20.484  24.773  1.00  0.00    -0.376 OA
BRANCH  30  31
ATOM     31  C   UNL A   1      45.353  21.158  25.225  1.00  0.00     0.202 C 
BRANCH  31  32
ATOM     32  C   UNL A   1      45.150  22.317  26.213  1.00  0.00     0.261 C 
BRANCH  32  33
ATOM     33  O   UNL A   1      45.094  23.629  25.635  1.00  0.00    -0.460 OA
BRANCH  33  34
ATOM     34  C   UNL A   1      43.936  23.991  25.044  1.00  0.00     0.338 C 
ATOM     35  O   UNL A   1      43.447  23.519  24.030  1.00  0.00    -0.246 OA
BRANCH  34  36
ATOM     36  C   UNL A   1      43.241  24.933  25.944  1.00  0.00     0.060 A 
ATOM     37  C   UNL A   1      43.713  26.249  26.037  1.00  0.00     0.016 A 
ATOM     38  C   UNL A   1      42.129  24.525  26.683  1.00  0.00     0.016 A 
ATOM     39  C   UNL A   1      43.099  27.151  26.905  1.00  0.00     0.010 A 
ATOM     40  C   UNL A   1      41.530  25.422  27.571  1.00  0.00     0.010 A 
ATOM     41  C   UNL A   1      42.038  26.726  27.714  1.00  0.00    -0.014 A 
BRANCH  41  42
ATOM     42  C   UNL A   1      41.606  27.568  28.855  1.00  0.00     0.031 A 
ATOM     43  C   UNL A   1      42.393  27.484  30.134  1.00  0.00     0.074 A 
ATOM     44  C   UNL A   1      40.560  28.406  28.756  1.00  0.00     0.049 A 
ATOM     45  N   UNL A   1      42.186  28.074  31.283  1.00  0.00    -0.248 NA
ATOM     46  C   UNL A   1      43.578  26.610  30.111  1.00  0.00     0.031 C 
ATOM     47  C   UNL A   1      39.751  28.613  27.559  1.00  0.00     0.029 A 
ATOM     48  N   UNL A   1      39.997  29.236  29.694  1.00  0.00    -0.354 N 
ATOM     49  C   UNL A   1      43.205  27.638  32.118  1.00  0.00     0.074 A 
ATOM     50  C   UNL A   1      44.011  26.708  31.359  1.00  0.00     0.031 C 
ATOM     51  C   UNL A   1      38.783  29.504  27.838  1.00  0.00     0.029 A 
ATOM     52  C   UNL A   1      38.883  29.901  29.242  1.00  0.00     0.049 A 
ATOM     53  H   UNL A   1      40.356  29.345  30.605  1.00  0.00     0.167 HD
ATOM     54  C   UNL A   1      43.453  27.989  33.402  1.00  0.00     0.037 A 
ATOM     55  C   UNL A   1      38.031  30.712  29.898  1.00  0.00     0.037 A 
ATOM     56  C   UNL A   1      42.645  28.911  34.156  1.00  0.00     0.049 A 
ATOM     57  C   UNL A   1      38.278  31.020  31.355  1.00  0.00     0.074 A 
ATOM     58  C   UNL A   1      42.819  29.343  35.459  1.00  0.00     0.029 A 
ATOM     59  N   UNL A   1      41.505  29.536  33.675  1.00  0.00    -0.354 N 
ATOM     60  N   UNL A   1      39.256  30.623  32.134  1.00  0.00    -0.248 NA
ATOM     61  C   UNL A   1      37.302  31.894  32.023  1.00  0.00     0.031 C 
ATOM     62  C   UNL A   1      41.747  30.179  35.787  1.00  0.00     0.029 A 
ATOM     63  C   UNL A   1      40.945  30.326  34.667  1.00  0.00     0.049 A 
ATOM     64  H   UNL A   1      41.145  29.434  32.764  1.00  0.00     0.167 HD
ATOM     65  C   UNL A   1      39.034  31.225  33.368  1.00  0.00     0.074 A 
ATOM     66  C   UNL A   1      37.836  32.024  33.230  1.00  0.00     0.031 C 
ATOM     67  C   UNL A   1      39.757  31.127  34.510  1.00  0.00     0.037 A 
BRANCH  54  68
ATOM     68  C   UNL A   1      44.625  27.343  34.084  1.00  0.00     0.064 A 
ATOM     69  C   UNL A   1      44.502  26.133  34.785  1.00  0.00     0.173 A 
ATOM     70  C   UNL A   1      45.897  27.931  34.011  1.00  0.00     0.173 A 
ATOM     71  F   UNL A   1      43.304  25.538  34.900  1.00  0.00    -0.203 F 
ATOM     72  C   UNL A   1      45.602  25.551  35.409  1.00  0.00     0.198 A 
ATOM     73  C   UNL A   1      47.001  27.328  34.607  1.00  0.00     0.198 A 
ATOM     74  F   UNL A   1      46.072  29.087  33.354  1.00  0.00    -0.203 F 
ATOM     75  F   UNL A   1      45.450  24.423  36.118  1.00  0.00    -0.200 F 
ATOM     76  C   UNL A   1      46.852  26.144  35.313  1.00  0.00     0.200 A 
ATOM     77  F   UNL A   1      48.211  27.895  34.501  1.00  0.00    -0.200 F 
ATOM     78  F   UNL A   1      47.911  25.578  35.906  1.00  0.00    -0.200 F 
ENDBRANCH  54  68
BRANCH  55  79
ATOM     79  C   UNL A   1      36.850  31.283  29.195  1.00  0.00     0.064 A 
ATOM     80  C   UNL A   1      35.724  30.498  28.912  1.00  0.00     0.173 A 
ATOM     81  C   UNL A   1      36.837  32.618  28.763  1.00  0.00     0.173 A 
ATOM     82  F   UNL A   1      35.698  29.208  29.279  1.00  0.00    -0.203 F 
ATOM     83  C   UNL A   1      34.643  31.017  28.203  1.00  0.00     0.198 A 
ATOM     84  C   UNL A   1      35.740  33.146  28.084  1.00  0.00     0.198 A 
ATOM     85  F   UNL A   1      37.890  33.414  29.004  1.00  0.00    -0.203 F 
ATOM     86  F   UNL A   1      33.604  30.228  27.895  1.00  0.00    -0.200 F 
ATOM     87  C   UNL A   1      34.649  32.343  27.795  1.00  0.00     0.200 A 
ATOM     88  F   UNL A   1      35.747  34.431  27.703  1.00  0.00    -0.200 F 
ATOM     89  F   UNL A   1      33.609  32.843  27.113  1.00  0.00    -0.200 F 
ENDBRANCH  55  79
BRANCH  67  90
ATOM     90  C   UNL A   1      39.305  31.941  35.692  1.00  0.00     0.064 A 
ATOM     91  C   UNL A   1      38.413  31.433  36.647  1.00  0.00     0.173 A 
ATOM     92  C   UNL A   1      39.812  33.235  35.894  1.00  0.00     0.173 A 
ATOM     93  F   UNL A   1      37.890  30.207  36.497  1.00  0.00    -0.203 F 
ATOM     94  C   UNL A   1      38.019  32.201  37.740  1.00  0.00     0.198 A 
ATOM     95  C   UNL A   1      39.446  33.986  37.007  1.00  0.00     0.198 A 
ATOM     96  F   UNL A   1      40.678  33.767  35.018  1.00  0.00    -0.203 F 
ATOM     97  F   UNL A   1      37.122  31.715  38.609  1.00  0.00    -0.200 F 
ATOM     98  C   UNL A   1      38.542  33.472  37.924  1.00  0.00     0.200 A 
ATOM     99  F   UNL A   1      39.968  35.206  37.192  1.00  0.00    -0.200 F 
ATOM    100  F   UNL A   1      38.171  34.205  38.982  1.00  0.00    -0.200 F 
ENDBRANCH  67  90
ENDBRANCH  41  42
ENDBRANCH  34  36
ENDBRANCH  33  34
ENDBRANCH  32  33
ENDBRANCH  31  32
ENDBRANCH  30  31
ENDBRANCH  29  30
ENDBRANCH  28  29
ENDBRANCH  27  28
ENDBRANCH   1  27
TORSDOF 24
ENDMDL
MODEL 3
REMARK VINA RESULT:     -10.0      5.384     10.864
REMARK SMILES C[C@@H]1[C@@H](C(=O)OCCOCCOCCOCCOC(=O)c2ccc(-c3c4nc(c(-c5c(F)c(F)c(F)c(F)c5F)c5ccc([nH]5)c(-c5c(F)c(F)c(F)c(F)c5F)c5nc(c(-c6c(F)c(F)c(F)c(F)c6F)c6ccc3[nH]6)C=C5)C=C4)cc2)CCN1C(=O)[C@@H]1CCCN1C(=O)C1CC1
REMARK SMILES IDX 11 1 10 2 9 3 8 4 7 5 6 6 4 7 5 8 3 9 1 10 2 11 86 12 84 13
REMARK SMILES IDX 85 14 87 15 88 16 89 17 90 18 93 19 91 20 92 21 94 22 95 23
REMARK SMILES IDX 96 24 97 25 98 26 12 27 13 28 14 29 15 30 16 31 17 32 18 33
REMARK SMILES IDX 19 34 20 35 21 36 22 37 83 38 23 39 82 40 24 41 25 42 26 43
REMARK SMILES IDX 76 44 27 45 81 46 75 47 77 48 28 49 80 50 74 51 73 52 29 54
REMARK SMILES IDX 61 55 41 56 60 57 42 58 45 59 59 60 78 61 43 62 44 63 58 65
REMARK SMILES IDX 79 66 46 67 30 68 31 69 39 70 32 71 33 72 37 73 40 74 34 75
REMARK SMILES IDX 35 76 38 77 36 78 62 79 63 80 71 81 64 82 65 83 69 84 72 85
REMARK SMILES IDX 66 86 67 87 70 88 68 89 47 90 48 91 56 92 49 93 50 94 54 95
REMARK SMILES IDX 57 96 51 97 52 98 55 99 53 100
REMARK H PARENT 77 53 45 64
REMARK Flexibility Score: inf
ROOT
ATOM      1  C   UNL A   1      40.852  21.412  26.560  1.00  0.00     0.188 C 
ENDROOT
BRANCH   1   2
ATOM      2  C   UNL A   1      39.396  21.698  26.165  1.00  0.00     0.188 C 
BRANCH   2   3
ATOM      3  O   UNL A   1      38.687  20.762  25.378  1.00  0.00    -0.376 OA
BRANCH   3   4
ATOM      4  C   UNL A   1      37.334  20.868  24.963  1.00  0.00     0.202 C 
BRANCH   4   5
ATOM      5  C   UNL A   1      36.145  21.517  25.699  1.00  0.00     0.261 C 
BRANCH   5   6
ATOM      6  O   UNL A   1      34.951  20.765  25.848  1.00  0.00    -0.463 OA
BRANCH   6   7
ATOM      7  C   UNL A   1      33.881  21.348  25.266  1.00  0.00     0.311 C 
ATOM      8  O   UNL A   1      33.746  21.482  24.059  1.00  0.00    -0.252 OA
BRANCH   7   9
ATOM      9  C   UNL A   1      32.846  21.700  26.318  1.00  0.00     0.123 C 
ATOM     10  C   UNL A   1      30.453  22.578  26.373  1.00  0.00     0.032 C 
ATOM     11  C   UNL A   1      31.827  22.670  25.716  1.00  0.00     0.096 C 
ATOM     12  N   UNL A   1      32.447  23.976  25.923  1.00  0.00    -0.337 N 
ATOM     13  C   UNL A   1      33.474  22.482  27.451  1.00  0.00     0.039 C 
ATOM     14  C   UNL A   1      33.595  23.854  26.825  1.00  0.00     0.121 C 
BRANCH  12  15
ATOM     15  C   UNL A   1      32.593  24.789  24.798  1.00  0.00     0.245 C 
ATOM     16  O   UNL A   1      33.692  25.145  24.379  1.00  0.00    -0.272 OA
BRANCH  15  17
ATOM     17  C   UNL A   1      31.261  25.265  24.189  1.00  0.00     0.174 C 
ATOM     18  C   UNL A   1      31.060  24.782  22.751  1.00  0.00     0.037 C 
ATOM     19  N   UNL A   1      31.291  26.720  24.080  1.00  0.00    -0.330 N 
ATOM     20  C   UNL A   1      31.737  25.856  21.914  1.00  0.00     0.024 C 
ATOM     21  C   UNL A   1      31.453  27.130  22.692  1.00  0.00     0.120 C 
BRANCH  19  22
ATOM     22  C   UNL A   1      31.245  27.688  25.067  1.00  0.00     0.226 C 
ATOM     23  O   UNL A   1      31.035  27.371  26.237  1.00  0.00    -0.275 OA
BRANCH  22  24
ATOM     24  C   UNL A   1      31.485  29.145  24.824  1.00  0.00     0.079 C 
ATOM     25  C   UNL A   1      31.726  30.298  25.751  1.00  0.00     0.014 C 
ATOM     26  C   UNL A   1      32.883  29.707  25.002  1.00  0.00     0.014 C 
ENDBRANCH  22  24
ENDBRANCH  19  22
ENDBRANCH  15  17
ENDBRANCH  12  15
ENDBRANCH   7   9
ENDBRANCH   6   7
ENDBRANCH   5   6
ENDBRANCH   4   5
ENDBRANCH   3   4
ENDBRANCH   2   3
ENDBRANCH   1   2
BRANCH   1  27
ATOM     27  O   UNL A   1      41.465  20.421  25.763  1.00  0.00    -0.377 OA
BRANCH  27  28
ATOM     28  C   UNL A   1      42.642  19.817  26.286  1.00  0.00     0.188 C 
BRANCH  28  29
ATOM     29  C   UNL A   1      43.813  19.435  25.347  1.00  0.00     0.188 C 
BRANCH  29  30
ATOM     30  O   UNL A   1      44.374  20.517  24.618  1.00  0.00    -0.376 OA
BRANCH  30  31
ATOM     31  C   UNL A   1      45.449  21.248  25.183  1.00  0.00     0.202 C 
BRANCH  31  32
ATOM     32  C   UNL A   1      45.113  22.200  26.341  1.00  0.00     0.261 C 
BRANCH  32  33
ATOM     33  O   UNL A   1      44.948  23.581  25.987  1.00  0.00    -0.460 OA
BRANCH  33  34
ATOM     34  C   UNL A   1      43.744  23.951  25.504  1.00  0.00     0.338 C 
ATOM     35  O   UNL A   1      43.170  23.495  24.528  1.00  0.00    -0.246 OA
BRANCH  34  36
ATOM     36  C   UNL A   1      43.130  24.877  26.476  1.00  0.00     0.060 A 
ATOM     37  C   UNL A   1      43.500  26.228  26.447  1.00  0.00     0.016 A 
ATOM     38  C   UNL A   1      42.189  24.419  27.401  1.00  0.00     0.016 A 
ATOM     39  C   UNL A   1      42.963  27.119  27.375  1.00  0.00     0.010 A 
ATOM     40  C   UNL A   1      41.671  25.307  28.347  1.00  0.00     0.010 A 
ATOM     41  C   UNL A   1      42.086  26.651  28.362  1.00  0.00    -0.014 A 
BRANCH  41  42
ATOM     42  C   UNL A   1      41.777  27.509  29.532  1.00  0.00     0.031 A 
ATOM     43  C   UNL A   1      40.570  28.403  29.454  1.00  0.00     0.074 A 
ATOM     44  C   UNL A   1      42.528  27.479  30.645  1.00  0.00     0.049 A 
ATOM     45  N   UNL A   1      40.124  29.281  30.316  1.00  0.00    -0.248 NA
ATOM     46  C   UNL A   1      39.757  28.294  28.231  1.00  0.00     0.031 C 
ATOM     47  C   UNL A   1      43.689  26.620  30.860  1.00  0.00     0.029 A 
ATOM     48  N   UNL A   1      42.423  28.204  31.806  1.00  0.00    -0.354 N 
ATOM     49  C   UNL A   1      38.987  29.830  29.738  1.00  0.00     0.074 A 
ATOM     50  C   UNL A   1      38.830  29.216  28.439  1.00  0.00     0.031 C 
ATOM     51  C   UNL A   1      44.200  26.878  32.077  1.00  0.00     0.029 A 
ATOM     52  C   UNL A   1      43.425  27.944  32.709  1.00  0.00     0.049 A 
ATOM     53  H   UNL A   1      41.699  28.850  31.976  1.00  0.00     0.167 HD
ATOM     54  C   UNL A   1      38.145  30.758  30.249  1.00  0.00     0.037 A 
ATOM     55  C   UNL A   1      43.695  28.523  33.895  1.00  0.00     0.037 A 
ATOM     56  C   UNL A   1      38.308  31.370  31.542  1.00  0.00     0.049 A 
ATOM     57  C   UNL A   1      42.790  29.619  34.406  1.00  0.00     0.074 A 
ATOM     58  C   UNL A   1      37.502  32.312  32.158  1.00  0.00     0.029 A 
ATOM     59  N   UNL A   1      39.355  31.108  32.412  1.00  0.00    -0.354 N 
ATOM     60  N   UNL A   1      41.704  30.119  33.866  1.00  0.00    -0.248 NA
ATOM     61  C   UNL A   1      43.149  30.228  35.696  1.00  0.00     0.031 C 
ATOM     62  C   UNL A   1      38.096  32.666  33.372  1.00  0.00     0.029 A 
ATOM     63  C   UNL A   1      39.233  31.893  33.548  1.00  0.00     0.049 A 
ATOM     64  H   UNL A   1      40.078  30.459  32.248  1.00  0.00     0.167 HD
ATOM     65  C   UNL A   1      41.232  31.071  34.763  1.00  0.00     0.074 A 
ATOM     66  C   UNL A   1      42.142  31.069  35.888  1.00  0.00     0.031 C 
ATOM     67  C   UNL A   1      40.142  31.872  34.665  1.00  0.00     0.037 A 
BRANCH  54  68
ATOM     68  C   UNL A   1      36.990  31.194  29.393  1.00  0.00     0.064 A 
ATOM     69  C   UNL A   1      36.949  32.462  28.793  1.00  0.00     0.173 A 
ATOM     70  C   UNL A   1      35.923  30.318  29.146  1.00  0.00     0.173 A 
ATOM     71  F   UNL A   1      37.937  33.345  29.011  1.00  0.00    -0.203 F 
ATOM     72  C   UNL A   1      35.870  32.846  28.001  1.00  0.00     0.198 A 
ATOM     73  C   UNL A   1      34.862  30.692  28.326  1.00  0.00     0.198 A 
ATOM     74  F   UNL A   1      35.911  29.093  29.694  1.00  0.00    -0.203 F 
ATOM     75  F   UNL A   1      35.826  34.082  27.483  1.00  0.00    -0.200 F 
ATOM     76  C   UNL A   1      34.831  31.958  27.762  1.00  0.00     0.200 A 
ATOM     77  F   UNL A   1      33.866  29.828  28.084  1.00  0.00    -0.200 F 
ATOM     78  F   UNL A   1      33.798  32.326  26.993  1.00  0.00    -0.200 F 
ENDBRANCH  54  68
BRANCH  55  79
ATOM     79  C   UNL A   1      44.884  28.098  34.683  1.00  0.00     0.064 A 
ATOM     80  C   UNL A   1      44.791  27.085  35.647  1.00  0.00     0.173 A 
ATOM     81  C   UNL A   1      46.130  28.719  34.510  1.00  0.00     0.173 A 
ATOM     82  F   UNL A   1      43.615  26.479  35.870  1.00  0.00    -0.203 F 
ATOM     83  C   UNL A   1      45.890  26.727  36.425  1.00  0.00     0.198 A 
ATOM     84  C   UNL A   1      47.237  28.337  35.266  1.00  0.00     0.198 A 
ATOM     85  F   UNL A   1      46.275  29.697  33.604  1.00  0.00    -0.203 F 
ATOM     86  F   UNL A   1      45.758  25.797  37.381  1.00  0.00    -0.200 F 
ATOM     87  C   UNL A   1      47.114  27.349  36.230  1.00  0.00     0.200 A 
ATOM     88  F   UNL A   1      48.421  28.933  35.063  1.00  0.00    -0.200 F 
ATOM     89  F   UNL A   1      48.172  27.005  36.977  1.00  0.00    -0.200 F 
ENDBRANCH  55  79
BRANCH  67  90
ATOM     90  C   UNL A   1      39.841  32.781  35.826  1.00  0.00     0.064 A 
ATOM     91  C   UNL A   1      40.401  34.062  35.931  1.00  0.00     0.173 A 
ATOM     92  C   UNL A   1      38.939  32.378  36.824  1.00  0.00     0.173 A 
ATOM     93  F   UNL A   1      41.277  34.493  35.012  1.00  0.00    -0.203 F 
ATOM     94  C   UNL A   1      40.097  34.891  37.008  1.00  0.00     0.198 A 
ATOM     95  C   UNL A   1      38.608  33.222  37.879  1.00  0.00     0.198 A 
ATOM     96  F   UNL A   1      38.365  31.166  36.767  1.00  0.00    -0.203 F 
ATOM     97  F   UNL A   1      40.688  36.089  37.117  1.00  0.00    -0.200 F 
ATOM     98  C   UNL A   1      39.195  34.475  37.976  1.00  0.00     0.200 A 
ATOM     99  F   UNL A   1      37.721  32.825  38.801  1.00  0.00    -0.200 F 
ATOM    100  F   UNL A   1      38.895  35.278  39.005  1.00  0.00    -0.200 F 
ENDBRANCH  67  90
ENDBRANCH  41  42
ENDBRANCH  34  36
ENDBRANCH  33  34
ENDBRANCH  32  33
ENDBRANCH  31  32
ENDBRANCH  30  31
ENDBRANCH  29  30
ENDBRANCH  28  29
ENDBRANCH  27  28
ENDBRANCH   1  27
TORSDOF 24
ENDMDL
