MODEL 1
REMARK VINA RESULT:      -8.5      0.000      0.000
REMARK SMILES CC1=C(CCC(=O)OCCOCCOCCOCCOC(=O)c2ccc(-c3c4nc(c(-c5c(F)c(F)c(F)c(F)c5F)c5ccc([nH]5)c(-c5c(F)c(F)c(F)c(F)c5F)c5nc(c(-c6c(F)c(F)c(F)c(F)c6F)c6ccc3[nH]6)C=C5)C=C4)cc2)N=N[C@H]1C
REMARK SMILES IDX 14 1 13 2 12 3 11 4 10 5 9 6 8 7 6 8 7 9 5 10 4 11 3 12 1 13
REMARK SMILES IDX 2 14 88 15 86 16 87 17 89 18 15 19 16 20 17 21 18 22 19 23
REMARK SMILES IDX 20 24 21 25 22 26 23 27 24 28 85 29 25 30 84 31 26 32 27 33
REMARK SMILES IDX 28 34 78 35 29 36 83 37 77 38 79 39 30 40 82 41 76 42 75 43
REMARK SMILES IDX 31 45 63 46 43 47 62 48 44 49 47 50 61 51 80 52 45 53 46 54
REMARK SMILES IDX 60 56 81 57 48 58 32 59 33 60 41 61 34 62 35 63 39 64 42 65
REMARK SMILES IDX 36 66 37 67 40 68 38 69 64 70 65 71 73 72 66 73 67 74 71 75
REMARK SMILES IDX 74 76 68 77 69 78 72 79 70 80 49 81 50 82 58 83 51 84 52 85
REMARK SMILES IDX 56 86 59 87 53 88 54 89 57 90 55 91
REMARK H PARENT 79 44 47 55
REMARK Flexibility Score: inf
ROOT
ATOM      1  O   UNL A   1      43.930  22.475  24.072  1.00  0.00    -0.377 OA
ENDROOT
BRANCH   1   2
ATOM      2  C   UNL A   1      43.698  23.624  24.875  1.00  0.00     0.188 C 
BRANCH   2   3
ATOM      3  C   UNL A   1      44.782  24.693  25.116  1.00  0.00     0.188 C 
BRANCH   3   4
ATOM      4  O   UNL A   1      44.551  25.464  26.293  1.00  0.00    -0.376 OA
BRANCH   4   5
ATOM      5  C   UNL A   1      45.458  26.518  26.563  1.00  0.00     0.202 C 
BRANCH   5   6
ATOM      6  C   UNL A   1      46.232  26.392  27.877  1.00  0.00     0.261 C 
BRANCH   6   7
ATOM      7  O   UNL A   1      45.681  25.430  28.790  1.00  0.00    -0.463 OA
BRANCH   7   8
ATOM      8  C   UNL A   1      45.888  25.569  30.108  1.00  0.00     0.306 C 
ATOM      9  O   UNL A   1      46.970  25.867  30.598  1.00  0.00    -0.252 OA
BRANCH   8  10
ATOM     10  C   UNL A   1      44.647  25.341  30.963  1.00  0.00     0.129 C 
BRANCH  10  11
ATOM     11  C   UNL A   1      44.299  23.992  31.616  1.00  0.00     0.070 C 
BRANCH  11  12
ATOM     12  C   UNL A   1      44.258  23.893  33.116  1.00  0.00     0.064 C 
ATOM     13  C   UNL A   1      45.765  25.841  33.882  1.00  0.00     0.044 C 
ATOM     14  C   UNL A   1      44.879  24.660  34.020  1.00  0.00    -0.024 C 
ATOM     15  C   UNL A   1      44.435  24.150  35.351  1.00  0.00     0.153 C 
ATOM     16  N   UNL A   1      43.407  23.003  33.722  1.00  0.00    -0.160 NA
ATOM     17  N   UNL A   1      43.438  23.121  34.974  1.00  0.00    -0.181 NA
ATOM     18  C   UNL A   1      45.544  23.465  36.137  1.00  0.00     0.040 C 
ENDBRANCH  11  12
ENDBRANCH  10  11
ENDBRANCH   8  10
ENDBRANCH   7   8
ENDBRANCH   6   7
ENDBRANCH   5   6
ENDBRANCH   4   5
ENDBRANCH   3   4
ENDBRANCH   2   3
ENDBRANCH   1   2
BRANCH   1  19
ATOM     19  C   UNL A   1      44.816  21.500  24.602  1.00  0.00     0.188 C 
BRANCH  19  20
ATOM     20  C   UNL A   1      44.045  20.307  25.198  1.00  0.00     0.188 C 
BRANCH  20  21
ATOM     21  O   UNL A   1      43.116  20.681  26.216  1.00  0.00    -0.376 OA
BRANCH  21  22
ATOM     22  C   UNL A   1      41.776  20.208  26.132  1.00  0.00     0.202 C 
BRANCH  22  23
ATOM     23  C   UNL A   1      40.855  20.383  27.344  1.00  0.00     0.261 C 
BRANCH  23  24
ATOM     24  O   UNL A   1      40.782  21.697  27.884  1.00  0.00    -0.460 OA
BRANCH  24  25
ATOM     25  C   UNL A   1      40.061  22.610  27.219  1.00  0.00     0.338 C 
ATOM     26  O   UNL A   1      38.967  22.471  26.707  1.00  0.00    -0.246 OA
BRANCH  25  27
ATOM     27  C   UNL A   1      40.861  23.838  27.114  1.00  0.00     0.060 A 
ATOM     28  C   UNL A   1      41.826  24.019  28.104  1.00  0.00     0.016 A 
ATOM     29  C   UNL A   1      40.435  24.887  26.282  1.00  0.00     0.016 A 
ATOM     30  C   UNL A   1      42.133  25.307  28.467  1.00  0.00     0.010 A 
ATOM     31  C   UNL A   1      40.732  26.176  26.655  1.00  0.00     0.010 A 
ATOM     32  C   UNL A   1      41.475  26.356  27.816  1.00  0.00    -0.014 A 
BRANCH  32  33
ATOM     33  C   UNL A   1      41.481  27.629  28.495  1.00  0.00     0.031 A 
ATOM     34  C   UNL A   1      42.593  28.530  28.157  1.00  0.00     0.074 A 
ATOM     35  C   UNL A   1      40.517  27.961  29.373  1.00  0.00     0.049 A 
ATOM     36  N   UNL A   1      43.517  28.973  28.942  1.00  0.00    -0.248 NA
ATOM     37  C   UNL A   1      42.734  28.924  26.752  1.00  0.00     0.031 C 
ATOM     38  C   UNL A   1      39.223  27.311  29.598  1.00  0.00     0.029 A 
ATOM     39  N   UNL A   1      40.472  29.043  30.193  1.00  0.00    -0.354 N 
ATOM     40  C   UNL A   1      44.286  29.826  28.164  1.00  0.00     0.074 A 
ATOM     41  C   UNL A   1      43.832  29.675  26.804  1.00  0.00     0.031 C 
ATOM     42  C   UNL A   1      38.440  28.140  30.324  1.00  0.00     0.029 A 
ATOM     43  C   UNL A   1      39.217  29.310  30.706  1.00  0.00     0.049 A 
ATOM     44  H   UNL A   1      41.264  29.590  30.402  1.00  0.00     0.167 HD
ATOM     45  C   UNL A   1      45.113  30.747  28.724  1.00  0.00     0.037 A 
ATOM     46  C   UNL A   1      38.835  30.465  31.299  1.00  0.00     0.037 A 
ATOM     47  C   UNL A   1      45.444  30.428  30.086  1.00  0.00     0.049 A 
ATOM     48  C   UNL A   1      40.064  31.174  31.750  1.00  0.00     0.074 A 
ATOM     49  C   UNL A   1      46.041  29.341  30.699  1.00  0.00     0.029 A 
ATOM     50  N   UNL A   1      44.856  31.141  31.102  1.00  0.00    -0.354 N 
ATOM     51  N   UNL A   1      40.825  30.778  32.734  1.00  0.00    -0.248 NA
ATOM     52  C   UNL A   1      40.690  32.106  30.820  1.00  0.00     0.031 C 
ATOM     53  C   UNL A   1      45.369  29.200  31.948  1.00  0.00     0.029 A 
ATOM     54  C   UNL A   1      44.423  30.222  32.025  1.00  0.00     0.049 A 
ATOM     55  H   UNL A   1      44.764  32.120  31.158  1.00  0.00     0.167 HD
ATOM     56  C   UNL A   1      42.118  31.073  32.327  1.00  0.00     0.074 A 
ATOM     57  C   UNL A   1      41.966  31.978  31.193  1.00  0.00     0.031 C 
ATOM     58  C   UNL A   1      43.187  30.341  32.759  1.00  0.00     0.037 A 
BRANCH  45  59
ATOM     59  C   UNL A   1      45.370  32.089  28.108  1.00  0.00     0.064 A 
ATOM     60  C   UNL A   1      44.334  33.036  28.036  1.00  0.00     0.173 A 
ATOM     61  C   UNL A   1      46.524  32.375  27.346  1.00  0.00     0.173 A 
ATOM     62  F   UNL A   1      43.180  32.833  28.688  1.00  0.00    -0.203 F 
ATOM     63  C   UNL A   1      44.433  34.168  27.225  1.00  0.00     0.198 A 
ATOM     64  C   UNL A   1      46.643  33.534  26.585  1.00  0.00     0.198 A 
ATOM     65  F   UNL A   1      47.527  31.496  27.225  1.00  0.00    -0.203 F 
ATOM     66  F   UNL A   1      43.381  34.988  27.098  1.00  0.00    -0.200 F 
ATOM     67  C   UNL A   1      45.587  34.417  26.503  1.00  0.00     0.200 A 
ATOM     68  F   UNL A   1      47.760  33.745  25.876  1.00  0.00    -0.200 F 
ATOM     69  F   UNL A   1      45.664  35.477  25.689  1.00  0.00    -0.200 F 
ENDBRANCH  45  59
BRANCH  46  70
ATOM     70  C   UNL A   1      37.510  31.120  31.210  1.00  0.00     0.064 A 
ATOM     71  C   UNL A   1      36.760  31.397  32.362  1.00  0.00     0.173 A 
ATOM     72  C   UNL A   1      37.054  31.709  30.012  1.00  0.00     0.173 A 
ATOM     73  F   UNL A   1      37.156  30.926  33.554  1.00  0.00    -0.203 F 
ATOM     74  C   UNL A   1      35.626  32.215  32.319  1.00  0.00     0.198 A 
ATOM     75  C   UNL A   1      35.913  32.509  29.967  1.00  0.00     0.198 A 
ATOM     76  F   UNL A   1      37.754  31.599  28.874  1.00  0.00    -0.203 F 
ATOM     77  F   UNL A   1      34.970  32.506  33.451  1.00  0.00    -0.200 F 
ATOM     78  C   UNL A   1      35.206  32.773  31.123  1.00  0.00     0.200 A 
ATOM     79  F   UNL A   1      35.542  33.070  28.807  1.00  0.00    -0.200 F 
ATOM     80  F   UNL A   1      34.147  33.594  31.089  1.00  0.00    -0.200 F 
ENDBRANCH  46  70
BRANCH  58  81
ATOM     81  C   UNL A   1      42.975  29.378  33.890  1.00  0.00     0.064 A 
ATOM     82  C   UNL A   1      42.432  28.093  33.722  1.00  0.00     0.173 A 
ATOM     83  C   UNL A   1      43.482  29.704  35.157  1.00  0.00     0.173 A 
ATOM     84  F   UNL A   1      42.033  27.665  32.518  1.00  0.00    -0.203 F 
ATOM     85  C   UNL A   1      42.351  27.198  34.788  1.00  0.00     0.198 A 
ATOM     86  C   UNL A   1      43.435  28.794  36.210  1.00  0.00     0.198 A 
ATOM     87  F   UNL A   1      44.071  30.894  35.361  1.00  0.00    -0.203 F 
ATOM     88  F   UNL A   1      41.815  25.983  34.605  1.00  0.00    -0.200 F 
ATOM     89  C   UNL A   1      42.859  27.546  36.029  1.00  0.00     0.200 A 
ATOM     90  F   UNL A   1      43.974  29.115  37.394  1.00  0.00    -0.200 F 
ATOM     91  F   UNL A   1      42.819  26.671  37.043  1.00  0.00    -0.200 F 
ENDBRANCH  58  81
ENDBRANCH  32  33
ENDBRANCH  25  27
ENDBRANCH  24  25
ENDBRANCH  23  24
ENDBRANCH  22  23
ENDBRANCH  21  22
ENDBRANCH  20  21
ENDBRANCH  19  20
ENDBRANCH   1  19
TORSDOF 22
ENDMDL
MODEL 2
REMARK VINA RESULT:      -8.2      3.541      6.532
REMARK SMILES CC1=C(CCC(=O)OCCOCCOCCOCCOC(=O)c2ccc(-c3c4nc(c(-c5c(F)c(F)c(F)c(F)c5F)c5ccc([nH]5)c(-c5c(F)c(F)c(F)c(F)c5F)c5nc(c(-c6c(F)c(F)c(F)c(F)c6F)c6ccc3[nH]6)C=C5)C=C4)cc2)N=N[C@H]1C
REMARK SMILES IDX 14 1 13 2 12 3 11 4 10 5 9 6 8 7 6 8 7 9 5 10 4 11 3 12 1 13
REMARK SMILES IDX 2 14 88 15 86 16 87 17 89 18 15 19 16 20 17 21 18 22 19 23
REMARK SMILES IDX 20 24 21 25 22 26 23 27 24 28 85 29 25 30 84 31 26 32 27 33
REMARK SMILES IDX 28 34 78 35 29 36 83 37 77 38 79 39 30 40 82 41 76 42 75 43
REMARK SMILES IDX 31 45 63 46 43 47 62 48 44 49 47 50 61 51 80 52 45 53 46 54
REMARK SMILES IDX 60 56 81 57 48 58 32 59 33 60 41 61 34 62 35 63 39 64 42 65
REMARK SMILES IDX 36 66 37 67 40 68 38 69 64 70 65 71 73 72 66 73 67 74 71 75
REMARK SMILES IDX 74 76 68 77 69 78 72 79 70 80 49 81 50 82 58 83 51 84 52 85
REMARK SMILES IDX 56 86 59 87 53 88 54 89 57 90 55 91
REMARK H PARENT 79 44 47 55
REMARK Flexibility Score: inf
ROOT
ATOM      1  O   UNL A   1      37.776  22.860  25.509  1.00  0.00    -0.377 OA
ENDROOT
BRANCH   1   2
ATOM      2  C   UNL A   1      37.048  21.651  25.351  1.00  0.00     0.188 C 
BRANCH   2   3
ATOM      3  C   UNL A   1      35.517  21.583  25.517  1.00  0.00     0.188 C 
BRANCH   3   4
ATOM      4  O   UNL A   1      34.813  22.201  24.442  1.00  0.00    -0.376 OA
BRANCH   4   5
ATOM      5  C   UNL A   1      34.095  23.386  24.737  1.00  0.00     0.202 C 
BRANCH   5   6
ATOM      6  C   UNL A   1      32.738  23.516  24.044  1.00  0.00     0.261 C 
BRANCH   6   7
ATOM      7  O   UNL A   1      32.824  23.802  22.638  1.00  0.00    -0.463 OA
BRANCH   7   8
ATOM      8  C   UNL A   1      32.949  25.071  22.226  1.00  0.00     0.306 C 
ATOM      9  O   UNL A   1      34.019  25.586  21.923  1.00  0.00    -0.252 OA
BRANCH   8  10
ATOM     10  C   UNL A   1      31.632  25.834  22.143  1.00  0.00     0.129 C 
BRANCH  10  11
ATOM     11  C   UNL A   1      31.335  27.110  22.951  1.00  0.00     0.070 C 
BRANCH  11  12
ATOM     12  C   UNL A   1      31.845  27.218  24.362  1.00  0.00     0.064 C 
ATOM     13  C   UNL A   1      30.099  25.901  25.728  1.00  0.00     0.044 C 
ATOM     14  C   UNL A   1      31.310  26.720  25.483  1.00  0.00    -0.024 C 
ATOM     15  C   UNL A   1      32.262  27.079  26.575  1.00  0.00     0.153 C 
ATOM     16  N   UNL A   1      33.070  27.785  24.608  1.00  0.00    -0.160 NA
ATOM     17  N   UNL A   1      33.374  27.709  25.825  1.00  0.00    -0.181 NA
ATOM     18  C   UNL A   1      31.707  28.110  27.548  1.00  0.00     0.040 C 
ENDBRANCH  11  12
ENDBRANCH  10  11
ENDBRANCH   8  10
ENDBRANCH   7   8
ENDBRANCH   6   7
ENDBRANCH   5   6
ENDBRANCH   4   5
ENDBRANCH   3   4
ENDBRANCH   2   3
ENDBRANCH   1   2
BRANCH   1  19
ATOM     19  C   UNL A   1      38.920  22.807  26.350  1.00  0.00     0.188 C 
BRANCH  19  20
ATOM     20  C   UNL A   1      39.539  21.397  26.365  1.00  0.00     0.188 C 
BRANCH  20  21
ATOM     21  O   UNL A   1      40.713  21.282  25.561  1.00  0.00    -0.376 OA
BRANCH  21  22
ATOM     22  C   UNL A   1      41.976  21.140  26.204  1.00  0.00     0.202 C 
BRANCH  22  23
ATOM     23  C   UNL A   1      43.190  21.864  25.611  1.00  0.00     0.261 C 
BRANCH  23  24
ATOM     24  O   UNL A   1      42.902  22.988  24.788  1.00  0.00    -0.460 OA
BRANCH  24  25
ATOM     25  C   UNL A   1      43.390  24.180  25.161  1.00  0.00     0.338 C 
ATOM     26  O   UNL A   1      44.444  24.691  24.836  1.00  0.00    -0.246 OA
BRANCH  25  27
ATOM     27  C   UNL A   1      42.464  24.769  26.138  1.00  0.00     0.060 A 
ATOM     28  C   UNL A   1      41.508  25.641  25.617  1.00  0.00     0.016 A 
ATOM     29  C   UNL A   1      42.759  24.712  27.510  1.00  0.00     0.016 A 
ATOM     30  C   UNL A   1      41.077  26.666  26.422  1.00  0.00     0.010 A 
ATOM     31  C   UNL A   1      42.338  25.746  28.310  1.00  0.00     0.010 A 
ATOM     32  C   UNL A   1      41.606  26.767  27.712  1.00  0.00    -0.014 A 
BRANCH  32  33
ATOM     33  C   UNL A   1      41.483  28.055  28.353  1.00  0.00     0.031 A 
ATOM     34  C   UNL A   1      42.587  28.996  28.114  1.00  0.00     0.074 A 
ATOM     35  C   UNL A   1      40.415  28.362  29.111  1.00  0.00     0.049 A 
ATOM     36  N   UNL A   1      43.399  29.498  28.983  1.00  0.00    -0.248 NA
ATOM     37  C   UNL A   1      42.866  29.365  26.722  1.00  0.00     0.031 C 
ATOM     38  C   UNL A   1      39.132  27.660  29.210  1.00  0.00     0.029 A 
ATOM     39  N   UNL A   1      40.235  29.459  29.891  1.00  0.00    -0.354 N 
ATOM     40  C   UNL A   1      44.212  30.367  28.271  1.00  0.00     0.074 A 
ATOM     41  C   UNL A   1      43.918  30.165  26.874  1.00  0.00     0.031 C 
ATOM     42  C   UNL A   1      38.240  28.469  29.824  1.00  0.00     0.029 A 
ATOM     43  C   UNL A   1      38.920  29.681  30.256  1.00  0.00     0.049 A 
ATOM     44  H   UNL A   1      40.975  30.046  30.171  1.00  0.00     0.167 HD
ATOM     45  C   UNL A   1      44.933  31.336  28.892  1.00  0.00     0.037 A 
ATOM     46  C   UNL A   1      38.427  30.831  30.772  1.00  0.00     0.037 A 
ATOM     47  C   UNL A   1      45.125  31.063  30.291  1.00  0.00     0.049 A 
ATOM     48  C   UNL A   1      39.568  31.604  31.335  1.00  0.00     0.074 A 
ATOM     49  C   UNL A   1      45.696  30.018  30.995  1.00  0.00     0.029 A 
ATOM     50  N   UNL A   1      44.399  31.772  31.216  1.00  0.00    -0.354 N 
ATOM     51  N   UNL A   1      40.231  31.265  32.407  1.00  0.00    -0.248 NA
ATOM     52  C   UNL A   1      40.253  32.543  30.455  1.00  0.00     0.031 C 
ATOM     53  C   UNL A   1      44.897  29.875  32.166  1.00  0.00     0.029 A 
ATOM     54  C   UNL A   1      43.906  30.855  32.111  1.00  0.00     0.049 A 
ATOM     55  H   UNL A   1      44.260  32.746  31.235  1.00  0.00     0.167 HD
ATOM     56  C   UNL A   1      41.548  31.609  32.136  1.00  0.00     0.074 A 
ATOM     57  C   UNL A   1      41.483  32.480  30.968  1.00  0.00     0.031 C 
ATOM     58  C   UNL A   1      42.592  30.935  32.702  1.00  0.00     0.037 A 
BRANCH  45  59
ATOM     59  C   UNL A   1      45.199  32.674  28.272  1.00  0.00     0.064 A 
ATOM     60  C   UNL A   1      44.142  33.578  28.077  1.00  0.00     0.173 A 
ATOM     61  C   UNL A   1      46.411  32.989  27.618  1.00  0.00     0.173 A 
ATOM     62  F   UNL A   1      42.938  33.345  28.619  1.00  0.00    -0.203 F 
ATOM     63  C   UNL A   1      44.278  34.697  27.252  1.00  0.00     0.198 A 
ATOM     64  C   UNL A   1      46.562  34.137  26.845  1.00  0.00     0.198 A 
ATOM     65  F   UNL A   1      47.454  32.147  27.616  1.00  0.00    -0.203 F 
ATOM     66  F   UNL A   1      43.214  35.472  27.004  1.00  0.00    -0.200 F 
ATOM     67  C   UNL A   1      45.487  34.976  26.639  1.00  0.00     0.200 A 
ATOM     68  F   UNL A   1      47.735  34.376  26.242  1.00  0.00    -0.200 F 
ATOM     69  F   UNL A   1      45.604  36.021  25.811  1.00  0.00    -0.200 F 
ENDBRANCH  45  59
BRANCH  46  70
ATOM     70  C   UNL A   1      37.094  31.423  30.521  1.00  0.00     0.064 A 
ATOM     71  C   UNL A   1      36.202  31.674  31.575  1.00  0.00     0.173 A 
ATOM     72  C   UNL A   1      36.755  31.982  29.271  1.00  0.00     0.173 A 
ATOM     73  F   UNL A   1      36.477  31.231  32.810  1.00  0.00    -0.203 F 
ATOM     74  C   UNL A   1      35.045  32.439  31.390  1.00  0.00     0.198 A 
ATOM     75  C   UNL A   1      35.592  32.729  29.083  1.00  0.00     0.198 A 
ATOM     76  F   UNL A   1      37.587  31.896  28.224  1.00  0.00    -0.203 F 
ATOM     77  F   UNL A   1      34.248  32.708  32.434  1.00  0.00    -0.200 F 
ATOM     78  C   UNL A   1      34.743  32.968  30.145  1.00  0.00     0.200 A 
ATOM     79  F   UNL A   1      35.334  33.263  27.881  1.00  0.00    -0.200 F 
ATOM     80  F   UNL A   1      33.660  33.739  29.978  1.00  0.00    -0.200 F 
ENDBRANCH  46  70
BRANCH  58  81
ATOM     81  C   UNL A   1      42.298  29.989  33.829  1.00  0.00     0.064 A 
ATOM     82  C   UNL A   1      41.810  28.685  33.639  1.00  0.00     0.173 A 
ATOM     83  C   UNL A   1      42.667  30.357  35.132  1.00  0.00     0.173 A 
ATOM     84  F   UNL A   1      41.545  28.220  32.411  1.00  0.00    -0.203 F 
ATOM     85  C   UNL A   1      41.651  27.810  34.712  1.00  0.00     0.198 A 
ATOM     86  C   UNL A   1      42.543  29.467  36.196  1.00  0.00     0.198 A 
ATOM     87  F   UNL A   1      43.199  31.567  35.364  1.00  0.00    -0.203 F 
ATOM     88  F   UNL A   1      41.171  26.575  34.506  1.00  0.00    -0.200 F 
ATOM     89  C   UNL A   1      42.024  28.199  35.988  1.00  0.00     0.200 A 
ATOM     90  F   UNL A   1      42.954  29.828  37.419  1.00  0.00    -0.200 F 
ATOM     91  F   UNL A   1      41.909  27.343  37.014  1.00  0.00    -0.200 F 
ENDBRANCH  58  81
ENDBRANCH  32  33
ENDBRANCH  25  27
ENDBRANCH  24  25
ENDBRANCH  23  24
ENDBRANCH  22  23
ENDBRANCH  21  22
ENDBRANCH  20  21
ENDBRANCH  19  20
ENDBRANCH   1  19
TORSDOF 22
ENDMDL
MODEL 3
REMARK VINA RESULT:      -8.1      6.504     11.285
REMARK SMILES CC1=C(CCC(=O)OCCOCCOCCOCCOC(=O)c2ccc(-c3c4nc(c(-c5c(F)c(F)c(F)c(F)c5F)c5ccc([nH]5)c(-c5c(F)c(F)c(F)c(F)c5F)c5nc(c(-c6c(F)c(F)c(F)c(F)c6F)c6ccc3[nH]6)C=C5)C=C4)cc2)N=N[C@H]1C
REMARK SMILES IDX 14 1 13 2 12 3 11 4 10 5 9 6 8 7 6 8 7 9 5 10 4 11 3 12 1 13
REMARK SMILES IDX 2 14 88 15 86 16 87 17 89 18 15 19 16 20 17 21 18 22 19 23
REMARK SMILES IDX 20 24 21 25 22 26 23 27 24 28 85 29 25 30 84 31 26 32 27 33
REMARK SMILES IDX 28 34 78 35 29 36 83 37 77 38 79 39 30 40 82 41 76 42 75 43
REMARK SMILES IDX 31 45 63 46 43 47 62 48 44 49 47 50 61 51 80 52 45 53 46 54
REMARK SMILES IDX 60 56 81 57 48 58 32 59 33 60 41 61 34 62 35 63 39 64 42 65
REMARK SMILES IDX 36 66 37 67 40 68 38 69 64 70 65 71 73 72 66 73 67 74 71 75
REMARK SMILES IDX 74 76 68 77 69 78 72 79 70 80 49 81 50 82 58 83 51 84 52 85
REMARK SMILES IDX 56 86 59 87 53 88 54 89 57 90 55 91
REMARK H PARENT 79 44 47 55
REMARK Flexibility Score: inf
ROOT
ATOM      1  O   UNL A   1      36.087  33.631  36.471  1.00  0.00    -0.377 OA
ENDROOT
BRANCH   1   2
ATOM      2  C   UNL A   1      37.195  33.477  37.347  1.00  0.00     0.188 C 
BRANCH   2   3
ATOM      3  C   UNL A   1      37.657  32.097  37.857  1.00  0.00     0.188 C 
BRANCH   3   4
ATOM      4  O   UNL A   1      38.146  32.135  39.195  1.00  0.00    -0.376 OA
BRANCH   4   5
ATOM      5  C   UNL A   1      39.070  33.159  39.517  1.00  0.00     0.202 C 
BRANCH   5   6
ATOM      6  C   UNL A   1      39.021  33.652  40.964  1.00  0.00     0.261 C 
BRANCH   6   7
ATOM      7  O   UNL A   1      37.962  33.072  41.743  1.00  0.00    -0.463 OA
BRANCH   7   8
ATOM      8  C   UNL A   1      37.140  33.867  42.443  1.00  0.00     0.306 C 
ATOM      9  O   UNL A   1      37.189  35.092  42.413  1.00  0.00    -0.252 OA
BRANCH   8  10
ATOM     10  C   UNL A   1      36.109  33.119  43.280  1.00  0.00     0.129 C 
BRANCH  10  11
ATOM     11  C   UNL A   1      34.802  32.544  42.706  1.00  0.00     0.070 C 
BRANCH  11  12
ATOM     12  C   UNL A   1      33.564  33.398  42.709  1.00  0.00     0.064 C 
ATOM     13  C   UNL A   1      32.450  32.825  44.963  1.00  0.00     0.044 C 
ATOM     14  C   UNL A   1      32.611  33.484  43.645  1.00  0.00    -0.024 C 
ATOM     15  C   UNL A   1      31.659  34.523  43.153  1.00  0.00     0.153 C 
ATOM     16  N   UNL A   1      33.365  34.323  41.715  1.00  0.00    -0.160 NA
ATOM     17  N   UNL A   1      32.331  35.006  41.924  1.00  0.00    -0.181 NA
ATOM     18  C   UNL A   1      30.301  33.961  42.757  1.00  0.00     0.040 C 
ENDBRANCH  11  12
ENDBRANCH  10  11
ENDBRANCH   8  10
ENDBRANCH   7   8
ENDBRANCH   6   7
ENDBRANCH   5   6
ENDBRANCH   4   5
ENDBRANCH   3   4
ENDBRANCH   2   3
ENDBRANCH   1   2
BRANCH   1  19
ATOM     19  C   UNL A   1      36.386  33.941  35.118  1.00  0.00     0.188 C 
BRANCH  19  20
ATOM     20  C   UNL A   1      35.153  34.503  34.386  1.00  0.00     0.188 C 
BRANCH  20  21
ATOM     21  O   UNL A   1      35.472  35.503  33.418  1.00  0.00    -0.376 OA
BRANCH  21  22
ATOM     22  C   UNL A   1      34.491  36.482  33.092  1.00  0.00     0.202 C 
BRANCH  22  23
ATOM     23  C   UNL A   1      33.042  36.030  32.879  1.00  0.00     0.261 C 
BRANCH  23  24
ATOM     24  O   UNL A   1      32.830  35.099  31.824  1.00  0.00    -0.460 OA
BRANCH  24  25
ATOM     25  C   UNL A   1      33.294  35.414  30.606  1.00  0.00     0.338 C 
ATOM     26  O   UNL A   1      33.131  36.447  29.988  1.00  0.00    -0.246 OA
BRANCH  25  27
ATOM     27  C   UNL A   1      33.988  34.237  30.063  1.00  0.00     0.060 A 
ATOM     28  C   UNL A   1      34.392  33.286  30.999  1.00  0.00     0.016 A 
ATOM     29  C   UNL A   1      34.493  34.262  28.753  1.00  0.00     0.016 A 
ATOM     30  C   UNL A   1      35.523  32.560  30.722  1.00  0.00     0.010 A 
ATOM     31  C   UNL A   1      35.633  33.545  28.481  1.00  0.00     0.010 A 
ATOM     32  C   UNL A   1      36.192  32.805  29.518  1.00  0.00    -0.014 A 
BRANCH  32  33
ATOM     33  C   UNL A   1      37.567  32.372  29.453  1.00  0.00     0.031 A 
ATOM     34  C   UNL A   1      37.786  31.008  28.951  1.00  0.00     0.074 A 
ATOM     35  C   UNL A   1      38.575  33.181  29.826  1.00  0.00     0.049 A 
ATOM     36  N   UNL A   1      38.301  30.007  29.581  1.00  0.00    -0.248 NA
ATOM     37  C   UNL A   1      37.299  30.704  27.601  1.00  0.00     0.031 C 
ATOM     38  C   UNL A   1      38.546  34.626  30.071  1.00  0.00     0.029 A 
ATOM     39  N   UNL A   1      39.889  32.865  29.966  1.00  0.00    -0.354 N 
ATOM     40  C   UNL A   1      38.342  28.970  28.660  1.00  0.00     0.074 A 
ATOM     41  C   UNL A   1      37.614  29.415  27.497  1.00  0.00     0.031 C 
ATOM     42  C   UNL A   1      39.815  35.087  30.105  1.00  0.00     0.029 A 
ATOM     43  C   UNL A   1      40.731  33.961  30.003  1.00  0.00     0.049 A 
ATOM     44  H   UNL A   1      40.214  31.938  30.033  1.00  0.00     0.167 HD
ATOM     45  C   UNL A   1      39.142  27.888  28.843  1.00  0.00     0.037 A 
ATOM     46  C   UNL A   1      42.075  33.930  29.845  1.00  0.00     0.037 A 
ATOM     47  C   UNL A   1      39.532  27.722  30.216  1.00  0.00     0.049 A 
ATOM     48  C   UNL A   1      42.535  32.542  30.126  1.00  0.00     0.074 A 
ATOM     49  C   UNL A   1      38.833  27.556  31.399  1.00  0.00     0.029 A 
ATOM     50  N   UNL A   1      40.811  28.048  30.592  1.00  0.00    -0.354 N 
ATOM     51  N   UNL A   1      42.539  31.992  31.309  1.00  0.00    -0.248 NA
ATOM     52  C   UNL A   1      42.596  31.608  29.008  1.00  0.00     0.031 C 
ATOM     53  C   UNL A   1      39.585  28.265  32.381  1.00  0.00     0.029 A 
ATOM     54  C   UNL A   1      40.703  28.797  31.738  1.00  0.00     0.049 A 
ATOM     55  H   UNL A   1      41.644  27.795  30.132  1.00  0.00     0.167 HD
ATOM     56  C   UNL A   1      42.190  30.667  31.088  1.00  0.00     0.074 A 
ATOM     57  C   UNL A   1      42.337  30.467  29.651  1.00  0.00     0.031 C 
ATOM     58  C   UNL A   1      41.542  29.932  32.039  1.00  0.00     0.037 A 
BRANCH  45  59
ATOM     59  C   UNL A   1      39.801  27.164  27.708  1.00  0.00     0.064 A 
ATOM     60  C   UNL A   1      39.764  25.760  27.657  1.00  0.00     0.173 A 
ATOM     61  C   UNL A   1      40.698  27.792  26.815  1.00  0.00     0.173 A 
ATOM     62  F   UNL A   1      38.977  25.070  28.495  1.00  0.00    -0.203 F 
ATOM     63  C   UNL A   1      40.595  25.037  26.800  1.00  0.00     0.198 A 
ATOM     64  C   UNL A   1      41.483  27.071  25.921  1.00  0.00     0.198 A 
ATOM     65  F   UNL A   1      40.925  29.112  26.852  1.00  0.00    -0.203 F 
ATOM     66  F   UNL A   1      40.608  23.699  26.861  1.00  0.00    -0.200 F 
ATOM     67  C   UNL A   1      41.451  25.692  25.932  1.00  0.00     0.200 A 
ATOM     68  F   UNL A   1      42.321  27.724  25.104  1.00  0.00    -0.200 F 
ATOM     69  F   UNL A   1      42.283  24.998  25.145  1.00  0.00    -0.200 F 
ENDBRANCH  45  59
BRANCH  46  70
ATOM     70  C   UNL A   1      42.918  34.941  29.169  1.00  0.00     0.064 A 
ATOM     71  C   UNL A   1      44.244  35.164  29.568  1.00  0.00     0.173 A 
ATOM     72  C   UNL A   1      42.524  35.543  27.955  1.00  0.00     0.173 A 
ATOM     73  F   UNL A   1      44.721  34.581  30.679  1.00  0.00    -0.203 F 
ATOM     74  C   UNL A   1      45.121  35.938  28.801  1.00  0.00     0.198 A 
ATOM     75  C   UNL A   1      43.393  36.330  27.200  1.00  0.00     0.198 A 
ATOM     76  F   UNL A   1      41.315  35.308  27.425  1.00  0.00    -0.203 F 
ATOM     77  F   UNL A   1      46.398  36.080  29.185  1.00  0.00    -0.200 F 
ATOM     78  C   UNL A   1      44.695  36.517  27.617  1.00  0.00     0.200 A 
ATOM     79  F   UNL A   1      42.974  36.853  26.039  1.00  0.00    -0.200 F 
ATOM     80  F   UNL A   1      45.548  37.220  26.858  1.00  0.00    -0.200 F 
ENDBRANCH  46  70
BRANCH  58  81
ATOM     81  C   UNL A   1      41.449  30.493  33.428  1.00  0.00     0.064 A 
ATOM     82  C   UNL A   1      40.554  31.513  33.793  1.00  0.00     0.173 A 
ATOM     83  C   UNL A   1      42.176  29.874  34.455  1.00  0.00     0.173 A 
ATOM     84  F   UNL A   1      39.742  32.074  32.888  1.00  0.00    -0.203 F 
ATOM     85  C   UNL A   1      40.434  31.929  35.118  1.00  0.00     0.198 A 
ATOM     86  C   UNL A   1      42.025  30.265  35.784  1.00  0.00     0.198 A 
ATOM     87  F   UNL A   1      42.999  28.850  34.176  1.00  0.00    -0.203 F 
ATOM     88  F   UNL A   1      39.582  32.914  35.438  1.00  0.00    -0.200 F 
ATOM     89  C   UNL A   1      41.164  31.300  36.113  1.00  0.00     0.200 A 
ATOM     90  F   UNL A   1      42.694  29.619  36.749  1.00  0.00    -0.200 F 
ATOM     91  F   UNL A   1      41.018  31.671  37.393  1.00  0.00    -0.200 F 
ENDBRANCH  58  81
ENDBRANCH  32  33
ENDBRANCH  25  27
ENDBRANCH  24  25
ENDBRANCH  23  24
ENDBRANCH  22  23
ENDBRANCH  21  22
ENDBRANCH  20  21
ENDBRANCH  19  20
ENDBRANCH   1  19
TORSDOF 22
ENDMDL
