MODEL 1
REMARK VINA RESULT:     -10.6      0.000      0.000
REMARK SMILES COc1cc(NS(=O)(=O)c2cc(C(=O)OCCOCCOCCOCCOC(=O)c3ccc(-c4c5nc(c(-c6c(F)c(F)c(F)c(F)c6F)c6ccc([nH]6)c(-c6c(F)c(F)c(F)c(F)c6F)c6nc(c(-c7c(F)c(F)c(F)c(F)c7F)c7ccc4[nH]7)C=C6)C=C5)cc3)cc(C)c2C)ccc1N1CCCC1=O
REMARK SMILES IDX 20 1 19 2 18 3 17 4 16 5 15 6 13 7 14 8 12 9 10 10 11 11
REMARK SMILES IDX 96 12 94 13 97 14 93 15 95 16 7 17 8 18 9 19 6 20 5 22 3 23
REMARK SMILES IDX 4 24 100 25 99 26 98 27 2 28 1 29 101 30 102 31 105 32
REMARK SMILES IDX 103 33 104 34 106 35 21 36 22 37 23 38 24 39 25 40 26 41
REMARK SMILES IDX 27 42 28 43 29 44 30 45 31 46 92 47 32 48 91 49 33 50 34 51
REMARK SMILES IDX 35 52 85 53 36 54 90 55 84 56 86 57 37 58 89 59 83 60 82 61
REMARK SMILES IDX 38 63 70 64 50 65 69 66 51 67 54 68 68 69 87 70 52 71 53 72
REMARK SMILES IDX 67 74 88 75 55 76 39 77 40 78 48 79 41 80 42 81 46 82 49 83
REMARK SMILES IDX 43 84 44 85 47 86 45 87 71 88 72 89 80 90 73 91 74 92 78 93
REMARK SMILES IDX 81 94 75 95 76 96 79 97 77 98 56 99 57 100 65 101 58 102
REMARK SMILES IDX 59 103 63 104 66 105 60 106 61 107 64 108 62 109
REMARK H PARENT 6 21 86 62 54 73
REMARK Flexibility Score: inf
ROOT
ATOM      1  C   UNL A   1      35.846  21.095  25.093  1.00  0.00     0.188 C 
ENDROOT
BRANCH   1   2
ATOM      2  C   UNL A   1      34.492  20.351  25.055  1.00  0.00     0.188 C 
BRANCH   2   3
ATOM      3  O   UNL A   1      33.547  20.958  24.186  1.00  0.00    -0.376 OA
BRANCH   3   4
ATOM      4  C   UNL A   1      32.188  20.998  24.578  1.00  0.00     0.202 C 
BRANCH   4   5
ATOM      5  C   UNL A   1      31.748  22.037  25.624  1.00  0.00     0.261 C 
BRANCH   5   6
ATOM      6  O   UNL A   1      31.080  23.200  25.125  1.00  0.00    -0.460 OA
BRANCH   6   7
ATOM      7  C   UNL A   1      30.844  24.176  26.025  1.00  0.00     0.338 C 
ATOM      8  O   UNL A   1      30.958  24.083  27.235  1.00  0.00    -0.246 OA
BRANCH   7   9
ATOM      9  C   UNL A   1      30.697  25.453  25.285  1.00  0.00     0.061 A 
ATOM     10  C   UNL A   1      31.715  27.533  24.541  1.00  0.00     0.091 A 
ATOM     11  C   UNL A   1      31.820  26.273  25.162  1.00  0.00     0.038 A 
ATOM     12  C   UNL A   1      30.486  27.964  23.973  1.00  0.00    -0.028 A 
ATOM     13  C   UNL A   1      29.375  27.075  24.030  1.00  0.00    -0.046 A 
ATOM     14  C   UNL A   1      30.264  29.366  23.461  1.00  0.00     0.046 C 
ATOM     15  C   UNL A   1      29.493  25.833  24.688  1.00  0.00     0.019 A 
ATOM     16  C   UNL A   1      28.010  27.413  23.480  1.00  0.00     0.044 C 
BRANCH  10  17
ATOM     17  S   UNL A   1      33.091  28.638  24.852  1.00  0.00     0.262 S 
ATOM     18  O   UNL A   1      33.432  29.299  23.610  1.00  0.00    -0.201 OA
ATOM     19  O   UNL A   1      34.114  27.916  25.577  1.00  0.00    -0.201 OA
BRANCH  17  20
ATOM     20  N   UNL A   1      32.458  29.828  25.925  1.00  0.00    -0.279 N 
ATOM     21  H   UNL A   1      31.518  30.112  25.860  1.00  0.00     0.180 HD
BRANCH  20  22
ATOM     22  C   UNL A   1      33.331  30.406  26.922  1.00  0.00     0.053 A 
ATOM     23  C   UNL A   1      34.050  32.341  28.218  1.00  0.00     0.144 A 
ATOM     24  C   UNL A   1      33.340  31.772  27.172  1.00  0.00     0.075 A 
ATOM     25  C   UNL A   1      35.008  31.577  28.867  1.00  0.00     0.086 A 
ATOM     26  C   UNL A   1      35.168  30.235  28.492  1.00  0.00     0.032 A 
ATOM     27  C   UNL A   1      34.293  29.635  27.566  1.00  0.00     0.029 A 
BRANCH  23  28
ATOM     28  O   UNL A   1      33.645  33.574  28.643  1.00  0.00    -0.494 OA
ATOM     29  C   UNL A   1      34.175  34.668  27.919  1.00  0.00     0.278 C 
ENDBRANCH  23  28
BRANCH  25  30
ATOM     30  N   UNL A   1      35.915  32.174  29.759  1.00  0.00    -0.309 N 
ATOM     31  C   UNL A   1      37.098  32.803  29.226  1.00  0.00     0.126 C 
ATOM     32  C   UNL A   1      35.543  32.731  30.987  1.00  0.00     0.227 C 
ATOM     33  C   UNL A   1      37.761  33.400  30.448  1.00  0.00     0.032 C 
ATOM     34  C   UNL A   1      36.593  33.751  31.356  1.00  0.00     0.102 C 
ATOM     35  O   UNL A   1      34.549  32.501  31.656  1.00  0.00    -0.275 OA
ENDBRANCH  25  30
ENDBRANCH  20  22
ENDBRANCH  17  20
ENDBRANCH  10  17
ENDBRANCH   7   9
ENDBRANCH   6   7
ENDBRANCH   5   6
ENDBRANCH   4   5
ENDBRANCH   3   4
ENDBRANCH   2   3
ENDBRANCH   1   2
BRANCH   1  36
ATOM     36  O   UNL A   1      37.033  20.333  25.258  1.00  0.00    -0.377 OA
BRANCH  36  37
ATOM     37  C   UNL A   1      38.289  20.953  24.999  1.00  0.00     0.188 C 
BRANCH  37  38
ATOM     38  C   UNL A   1      39.105  21.637  26.126  1.00  0.00     0.188 C 
BRANCH  38  39
ATOM     39  O   UNL A   1      40.485  21.320  26.161  1.00  0.00    -0.376 OA
BRANCH  39  40
ATOM     40  C   UNL A   1      40.869  19.958  26.115  1.00  0.00     0.202 C 
BRANCH  40  41
ATOM     41  C   UNL A   1      42.370  19.639  26.061  1.00  0.00     0.261 C 
BRANCH  41  42
ATOM     42  O   UNL A   1      42.925  19.431  24.754  1.00  0.00    -0.460 OA
BRANCH  42  43
ATOM     43  C   UNL A   1      44.262  19.538  24.622  1.00  0.00     0.338 C 
ATOM     44  O   UNL A   1      45.036  18.699  24.186  1.00  0.00    -0.246 OA
BRANCH  43  45
ATOM     45  C   UNL A   1      44.621  20.936  24.924  1.00  0.00     0.060 A 
ATOM     46  C   UNL A   1      45.304  21.233  26.113  1.00  0.00     0.016 A 
ATOM     47  C   UNL A   1      44.310  21.949  24.014  1.00  0.00     0.016 A 
ATOM     48  C   UNL A   1      45.662  22.549  26.402  1.00  0.00     0.010 A 
ATOM     49  C   UNL A   1      44.643  23.269  24.318  1.00  0.00     0.010 A 
ATOM     50  C   UNL A   1      45.294  23.578  25.525  1.00  0.00    -0.014 A 
BRANCH  50  51
ATOM     51  C   UNL A   1      45.406  24.992  25.953  1.00  0.00     0.031 A 
ATOM     52  C   UNL A   1      46.743  25.665  25.827  1.00  0.00     0.074 A 
ATOM     53  C   UNL A   1      44.349  25.664  26.441  1.00  0.00     0.049 A 
ATOM     54  N   UNL A   1      47.117  26.857  26.215  1.00  0.00    -0.248 NA
ATOM     55  C   UNL A   1      47.806  24.880  25.179  1.00  0.00     0.031 C 
ATOM     56  C   UNL A   1      42.994  25.136  26.564  1.00  0.00     0.029 A 
ATOM     57  N   UNL A   1      44.264  26.940  26.940  1.00  0.00    -0.354 N 
ATOM     58  C   UNL A   1      48.458  26.960  25.867  1.00  0.00     0.074 A 
ATOM     59  C   UNL A   1      48.840  25.700  25.268  1.00  0.00     0.031 C 
ATOM     60  C   UNL A   1      42.211  26.077  27.121  1.00  0.00     0.029 A 
ATOM     61  C   UNL A   1      43.020  27.255  27.430  1.00  0.00     0.049 A 
ATOM     62  H   UNL A   1      45.021  27.569  26.947  1.00  0.00     0.167 HD
ATOM     63  C   UNL A   1      49.292  28.014  26.028  1.00  0.00     0.037 A 
ATOM     64  C   UNL A   1      42.599  28.358  28.081  1.00  0.00     0.037 A 
ATOM     65  C   UNL A   1      48.906  29.261  26.633  1.00  0.00     0.049 A 
ATOM     66  C   UNL A   1      43.572  29.484  28.333  1.00  0.00     0.074 A 
ATOM     67  C   UNL A   1      49.671  30.396  26.832  1.00  0.00     0.029 A 
ATOM     68  N   UNL A   1      47.647  29.531  27.150  1.00  0.00    -0.354 N 
ATOM     69  N   UNL A   1      44.832  29.587  27.983  1.00  0.00    -0.248 NA
ATOM     70  C   UNL A   1      43.062  30.647  29.073  1.00  0.00     0.031 C 
ATOM     71  C   UNL A   1      48.895  31.328  27.527  1.00  0.00     0.029 A 
ATOM     72  C   UNL A   1      47.624  30.803  27.697  1.00  0.00     0.049 A 
ATOM     73  H   UNL A   1      46.883  28.910  27.130  1.00  0.00     0.167 HD
ATOM     74  C   UNL A   1      45.254  30.836  28.427  1.00  0.00     0.074 A 
ATOM     75  C   UNL A   1      44.111  31.458  29.062  1.00  0.00     0.031 C 
ATOM     76  C   UNL A   1      46.475  31.415  28.317  1.00  0.00     0.037 A 
BRANCH  63  77
ATOM     77  C   UNL A   1      50.714  27.846  25.575  1.00  0.00     0.064 A 
ATOM     78  C   UNL A   1      51.092  28.028  24.237  1.00  0.00     0.173 A 
ATOM     79  C   UNL A   1      51.717  27.521  26.501  1.00  0.00     0.173 A 
ATOM     80  F   UNL A   1      50.170  28.325  23.308  1.00  0.00    -0.203 F 
ATOM     81  C   UNL A   1      52.415  27.861  23.837  1.00  0.00     0.198 A 
ATOM     82  C   UNL A   1      53.045  27.389  26.104  1.00  0.00     0.198 A 
ATOM     83  F   UNL A   1      51.411  27.338  27.795  1.00  0.00    -0.203 F 
ATOM     84  F   UNL A   1      52.744  27.985  22.543  1.00  0.00    -0.200 F 
ATOM     85  C   UNL A   1      53.392  27.549  24.772  1.00  0.00     0.200 A 
ATOM     86  F   UNL A   1      53.988  27.103  27.012  1.00  0.00    -0.200 F 
ATOM     87  F   UNL A   1      54.666  27.396  24.387  1.00  0.00    -0.200 F 
ENDBRANCH  63  77
BRANCH  64  88
ATOM     88  C   UNL A   1      41.193  28.451  28.559  1.00  0.00     0.064 A 
ATOM     89  C   UNL A   1      40.833  28.014  29.841  1.00  0.00     0.173 A 
ATOM     90  C   UNL A   1      40.174  28.951  27.733  1.00  0.00     0.173 A 
ATOM     91  F   UNL A   1      41.764  27.501  30.659  1.00  0.00    -0.203 F 
ATOM     92  C   UNL A   1      39.509  28.054  30.271  1.00  0.00     0.198 A 
ATOM     93  C   UNL A   1      38.856  29.022  28.176  1.00  0.00     0.198 A 
ATOM     94  F   UNL A   1      40.461  29.378  26.494  1.00  0.00    -0.203 F 
ATOM     95  F   UNL A   1      39.185  27.579  31.482  1.00  0.00    -0.200 F 
ATOM     96  C   UNL A   1      38.521  28.564  29.441  1.00  0.00     0.200 A 
ATOM     97  F   UNL A   1      37.907  29.527  27.375  1.00  0.00    -0.200 F 
ATOM     98  F   UNL A   1      37.248  28.605  29.855  1.00  0.00    -0.200 F 
ENDBRANCH  64  88
BRANCH  76  99
ATOM     99  C   UNL A   1      46.634  32.811  28.850  1.00  0.00     0.064 A 
ATOM    100  C   UNL A   1      46.356  33.941  28.065  1.00  0.00     0.173 A 
ATOM    101  C   UNL A   1      47.019  33.020  30.184  1.00  0.00     0.173 A 
ATOM    102  F   UNL A   1      45.997  33.799  26.780  1.00  0.00    -0.203 F 
ATOM    103  C   UNL A   1      46.484  35.225  28.589  1.00  0.00     0.198 A 
ATOM    104  C   UNL A   1      47.109  34.304  30.714  1.00  0.00     0.198 A 
ATOM    105  F   UNL A   1      47.287  31.976  30.982  1.00  0.00    -0.203 F 
ATOM    106  F   UNL A   1      46.262  36.290  27.805  1.00  0.00    -0.200 F 
ATOM    107  C   UNL A   1      46.850  35.405  29.914  1.00  0.00     0.200 A 
ATOM    108  F   UNL A   1      47.446  34.474  31.999  1.00  0.00    -0.200 F 
ATOM    109  F   UNL A   1      46.960  36.642  30.418  1.00  0.00    -0.200 F 
ENDBRANCH  76  99
ENDBRANCH  50  51
ENDBRANCH  43  45
ENDBRANCH  42  43
ENDBRANCH  41  42
ENDBRANCH  40  41
ENDBRANCH  39  40
ENDBRANCH  38  39
ENDBRANCH  37  38
ENDBRANCH  36  37
ENDBRANCH   1  36
TORSDOF 25
ENDMDL
MODEL 2
REMARK VINA RESULT:     -10.0      2.899      7.550
REMARK SMILES COc1cc(NS(=O)(=O)c2cc(C(=O)OCCOCCOCCOCCOC(=O)c3ccc(-c4c5nc(c(-c6c(F)c(F)c(F)c(F)c6F)c6ccc([nH]6)c(-c6c(F)c(F)c(F)c(F)c6F)c6nc(c(-c7c(F)c(F)c(F)c(F)c7F)c7ccc4[nH]7)C=C6)C=C5)cc3)cc(C)c2C)ccc1N1CCCC1=O
REMARK SMILES IDX 20 1 19 2 18 3 17 4 16 5 15 6 13 7 14 8 12 9 10 10 11 11
REMARK SMILES IDX 96 12 94 13 97 14 93 15 95 16 7 17 8 18 9 19 6 20 5 22 3 23
REMARK SMILES IDX 4 24 100 25 99 26 98 27 2 28 1 29 101 30 102 31 105 32
REMARK SMILES IDX 103 33 104 34 106 35 21 36 22 37 23 38 24 39 25 40 26 41
REMARK SMILES IDX 27 42 28 43 29 44 30 45 31 46 92 47 32 48 91 49 33 50 34 51
REMARK SMILES IDX 35 52 85 53 36 54 90 55 84 56 86 57 37 58 89 59 83 60 82 61
REMARK SMILES IDX 38 63 70 64 50 65 69 66 51 67 54 68 68 69 87 70 52 71 53 72
REMARK SMILES IDX 67 74 88 75 55 76 39 77 40 78 48 79 41 80 42 81 46 82 49 83
REMARK SMILES IDX 43 84 44 85 47 86 45 87 71 88 72 89 80 90 73 91 74 92 78 93
REMARK SMILES IDX 81 94 75 95 76 96 79 97 77 98 56 99 57 100 65 101 58 102
REMARK SMILES IDX 59 103 63 104 66 105 60 106 61 107 64 108 62 109
REMARK H PARENT 6 21 86 62 54 73
REMARK Flexibility Score: inf
ROOT
ATOM      1  C   UNL A   1      37.644  22.433  25.804  1.00  0.00     0.188 C 
ENDROOT
BRANCH   1   2
ATOM      2  C   UNL A   1      36.579  21.454  25.260  1.00  0.00     0.188 C 
BRANCH   2   3
ATOM      3  O   UNL A   1      35.248  21.873  25.525  1.00  0.00    -0.376 OA
BRANCH   3   4
ATOM      4  C   UNL A   1      35.001  22.680  26.661  1.00  0.00     0.202 C 
BRANCH   4   5
ATOM      5  C   UNL A   1      33.545  23.020  27.026  1.00  0.00     0.261 C 
BRANCH   5   6
ATOM      6  O   UNL A   1      33.042  24.268  26.540  1.00  0.00    -0.460 OA
BRANCH   6   7
ATOM      7  C   UNL A   1      31.703  24.423  26.590  1.00  0.00     0.338 C 
ATOM      8  O   UNL A   1      30.936  23.834  27.332  1.00  0.00    -0.246 OA
BRANCH   7   9
ATOM      9  C   UNL A   1      31.353  25.626  25.796  1.00  0.00     0.061 A 
ATOM     10  C   UNL A   1      31.923  27.896  25.132  1.00  0.00     0.091 A 
ATOM     11  C   UNL A   1      32.246  26.699  25.801  1.00  0.00     0.038 A 
ATOM     12  C   UNL A   1      30.719  28.010  24.386  1.00  0.00    -0.028 A 
ATOM     13  C   UNL A   1      29.864  26.872  24.318  1.00  0.00    -0.046 A 
ATOM     14  C   UNL A   1      30.234  29.314  23.803  1.00  0.00     0.046 C 
ATOM     15  C   UNL A   1      30.190  25.697  25.026  1.00  0.00     0.019 A 
ATOM     16  C   UNL A   1      28.550  26.862  23.574  1.00  0.00     0.044 C 
BRANCH  10  17
ATOM     17  S   UNL A   1      32.926  29.307  25.593  1.00  0.00     0.262 S 
ATOM     18  O   UNL A   1      32.044  30.363  26.041  1.00  0.00    -0.201 OA
ATOM     19  O   UNL A   1      33.872  29.573  24.531  1.00  0.00    -0.201 OA
BRANCH  17  20
ATOM     20  N   UNL A   1      33.834  28.767  26.954  1.00  0.00    -0.279 N 
ATOM     21  H   UNL A   1      33.722  27.853  27.300  1.00  0.00     0.180 HD
BRANCH  20  22
ATOM     22  C   UNL A   1      34.763  29.680  27.581  1.00  0.00     0.053 A 
ATOM     23  C   UNL A   1      35.220  31.856  28.581  1.00  0.00     0.144 A 
ATOM     24  C   UNL A   1      34.414  30.997  27.849  1.00  0.00     0.075 A 
ATOM     25  C   UNL A   1      36.538  31.496  28.815  1.00  0.00     0.086 A 
ATOM     26  C   UNL A   1      36.984  30.242  28.370  1.00  0.00     0.032 A 
ATOM     27  C   UNL A   1      36.085  29.314  27.809  1.00  0.00     0.029 A 
BRANCH  23  28
ATOM     28  O   UNL A   1      34.612  32.934  29.158  1.00  0.00    -0.494 OA
ATOM     29  C   UNL A   1      33.703  33.632  28.328  1.00  0.00     0.278 C 
ENDBRANCH  23  28
BRANCH  25  30
ATOM     30  N   UNL A   1      37.454  32.427  29.332  1.00  0.00    -0.309 N 
ATOM     31  C   UNL A   1      37.623  33.685  28.648  1.00  0.00     0.126 C 
ATOM     32  C   UNL A   1      37.770  32.532  30.691  1.00  0.00     0.227 C 
ATOM     33  C   UNL A   1      38.591  34.440  29.531  1.00  0.00     0.032 C 
ATOM     34  C   UNL A   1      38.271  33.936  30.930  1.00  0.00     0.102 C 
ATOM     35  O   UNL A   1      37.648  31.692  31.566  1.00  0.00    -0.275 OA
ENDBRANCH  25  30
ENDBRANCH  20  22
ENDBRANCH  17  20
ENDBRANCH  10  17
ENDBRANCH   7   9
ENDBRANCH   6   7
ENDBRANCH   5   6
ENDBRANCH   4   5
ENDBRANCH   3   4
ENDBRANCH   2   3
ENDBRANCH   1   2
BRANCH   1  36
ATOM     36  O   UNL A   1      38.976  21.967  25.957  1.00  0.00    -0.377 OA
BRANCH  36  37
ATOM     37  C   UNL A   1      39.278  20.621  25.602  1.00  0.00     0.188 C 
BRANCH  37  38
ATOM     38  C   UNL A   1      40.500  19.877  26.201  1.00  0.00     0.188 C 
BRANCH  38  39
ATOM     39  O   UNL A   1      41.763  20.266  25.690  1.00  0.00    -0.376 OA
BRANCH  39  40
ATOM     40  C   UNL A   1      42.565  21.143  26.460  1.00  0.00     0.202 C 
BRANCH  40  41
ATOM     41  C   UNL A   1      43.300  22.272  25.724  1.00  0.00     0.261 C 
BRANCH  41  42
ATOM     42  O   UNL A   1      42.520  23.436  25.413  1.00  0.00    -0.460 OA
BRANCH  42  43
ATOM     43  C   UNL A   1      42.313  24.329  26.401  1.00  0.00     0.338 C 
ATOM     44  O   UNL A   1      41.426  24.315  27.242  1.00  0.00    -0.246 OA
BRANCH  43  45
ATOM     45  C   UNL A   1      43.469  25.245  26.414  1.00  0.00     0.060 A 
ATOM     46  C   UNL A   1      44.156  25.474  27.615  1.00  0.00     0.016 A 
ATOM     47  C   UNL A   1      43.893  25.849  25.229  1.00  0.00     0.016 A 
ATOM     48  C   UNL A   1      45.260  26.326  27.637  1.00  0.00     0.010 A 
ATOM     49  C   UNL A   1      44.980  26.724  25.257  1.00  0.00     0.010 A 
ATOM     50  C   UNL A   1      45.649  26.988  26.465  1.00  0.00    -0.014 A 
BRANCH  50  51
ATOM     51  C   UNL A   1      46.621  28.105  26.533  1.00  0.00     0.031 A 
ATOM     52  C   UNL A   1      46.091  29.486  26.794  1.00  0.00     0.074 A 
ATOM     53  C   UNL A   1      47.938  27.901  26.366  1.00  0.00     0.049 A 
ATOM     54  N   UNL A   1      46.721  30.632  26.808  1.00  0.00    -0.248 NA
ATOM     55  C   UNL A   1      44.650  29.587  27.073  1.00  0.00     0.031 C 
ATOM     56  C   UNL A   1      48.575  26.604  26.157  1.00  0.00     0.029 A 
ATOM     57  N   UNL A   1      48.977  28.799  26.332  1.00  0.00    -0.354 N 
ATOM     58  C   UNL A   1      45.753  31.588  27.086  1.00  0.00     0.074 A 
ATOM     59  C   UNL A   1      44.490  30.894  27.201  1.00  0.00     0.031 C 
ATOM     60  C   UNL A   1      49.897  26.790  25.999  1.00  0.00     0.029 A 
ATOM     61  C   UNL A   1      50.192  28.221  26.056  1.00  0.00     0.049 A 
ATOM     62  H   UNL A   1      48.862  29.763  26.490  1.00  0.00     0.167 HD
ATOM     63  C   UNL A   1      45.907  32.925  27.237  1.00  0.00     0.037 A 
ATOM     64  C   UNL A   1      51.394  28.793  25.841  1.00  0.00     0.037 A 
ATOM     65  C   UNL A   1      47.166  33.609  27.113  1.00  0.00     0.049 A 
ATOM     66  C   UNL A   1      51.523  30.294  25.923  1.00  0.00     0.074 A 
ATOM     67  C   UNL A   1      47.432  34.958  27.261  1.00  0.00     0.029 A 
ATOM     68  N   UNL A   1      48.370  32.996  26.797  1.00  0.00    -0.354 N 
ATOM     69  N   UNL A   1      50.611  31.192  26.208  1.00  0.00    -0.248 NA
ATOM     70  C   UNL A   1      52.852  30.860  25.652  1.00  0.00     0.031 C 
ATOM     71  C   UNL A   1      48.783  35.171  26.970  1.00  0.00     0.029 A 
ATOM     72  C   UNL A   1      49.376  33.945  26.712  1.00  0.00     0.049 A 
ATOM     73  H   UNL A   1      48.491  32.029  26.654  1.00  0.00     0.167 HD
ATOM     74  C   UNL A   1      51.261  32.421  26.185  1.00  0.00     0.074 A 
ATOM     75  C   UNL A   1      52.648  32.151  25.870  1.00  0.00     0.031 C 
ATOM     76  C   UNL A   1      50.756  33.660  26.408  1.00  0.00     0.037 A 
BRANCH  63  77
ATOM     77  C   UNL A   1      44.675  33.735  27.518  1.00  0.00     0.064 A 
ATOM     78  C   UNL A   1      44.110  33.807  28.800  1.00  0.00     0.173 A 
ATOM     79  C   UNL A   1      44.063  34.470  26.491  1.00  0.00     0.173 A 
ATOM     80  F   UNL A   1      44.647  33.112  29.815  1.00  0.00    -0.203 F 
ATOM     81  C   UNL A   1      42.963  34.560  29.037  1.00  0.00     0.198 A 
ATOM     82  C   UNL A   1      42.936  35.249  26.739  1.00  0.00     0.198 A 
ATOM     83  F   UNL A   1      44.563  34.440  25.246  1.00  0.00    -0.203 F 
ATOM     84  F   UNL A   1      42.409  34.569  30.258  1.00  0.00    -0.200 F 
ATOM     85  C   UNL A   1      42.381  35.286  28.009  1.00  0.00     0.200 A 
ATOM     86  F   UNL A   1      42.386  35.963  25.747  1.00  0.00    -0.200 F 
ATOM     87  F   UNL A   1      41.282  36.016  28.240  1.00  0.00    -0.200 F 
ENDBRANCH  63  77
BRANCH  64  88
ATOM     88  C   UNL A   1      52.573  27.947  25.512  1.00  0.00     0.064 A 
ATOM     89  C   UNL A   1      53.378  27.402  26.521  1.00  0.00     0.173 A 
ATOM     90  C   UNL A   1      52.937  27.691  24.180  1.00  0.00     0.173 A 
ATOM     91  F   UNL A   1      53.091  27.641  27.809  1.00  0.00    -0.203 F 
ATOM     92  C   UNL A   1      54.512  26.652  26.213  1.00  0.00     0.198 A 
ATOM     93  C   UNL A   1      54.051  26.914  23.874  1.00  0.00     0.198 A 
ATOM     94  F   UNL A   1      52.205  28.192  23.174  1.00  0.00    -0.203 F 
ATOM     95  F   UNL A   1      55.294  26.190  27.198  1.00  0.00    -0.200 F 
ATOM     96  C   UNL A   1      54.844  26.402  24.890  1.00  0.00     0.200 A 
ATOM     97  F   UNL A   1      54.361  26.664  22.594  1.00  0.00    -0.200 F 
ATOM     98  F   UNL A   1      55.932  25.680  24.594  1.00  0.00    -0.200 F 
ENDBRANCH  64  88
BRANCH  76  99
ATOM     99  C   UNL A   1      51.712  34.820  26.368  1.00  0.00     0.064 A 
ATOM    100  C   UNL A   1      51.989  35.512  25.179  1.00  0.00     0.173 A 
ATOM    101  C   UNL A   1      52.316  35.279  27.549  1.00  0.00     0.173 A 
ATOM    102  F   UNL A   1      51.448  35.107  24.020  1.00  0.00    -0.203 F 
ATOM    103  C   UNL A   1      52.857  36.601  25.171  1.00  0.00     0.198 A 
ATOM    104  C   UNL A   1      53.154  36.391  27.542  1.00  0.00     0.198 A 
ATOM    105  F   UNL A   1      52.079  34.661  28.716  1.00  0.00    -0.203 F 
ATOM    106  F   UNL A   1      53.147  37.215  24.014  1.00  0.00    -0.200 F 
ATOM    107  C   UNL A   1      53.430  37.045  26.353  1.00  0.00     0.200 A 
ATOM    108  F   UNL A   1      53.692  36.829  28.688  1.00  0.00    -0.200 F 
ATOM    109  F   UNL A   1      54.254  38.102  26.343  1.00  0.00    -0.200 F 
ENDBRANCH  76  99
ENDBRANCH  50  51
ENDBRANCH  43  45
ENDBRANCH  42  43
ENDBRANCH  41  42
ENDBRANCH  40  41
ENDBRANCH  39  40
ENDBRANCH  38  39
ENDBRANCH  37  38
ENDBRANCH  36  37
ENDBRANCH   1  36
TORSDOF 25
ENDMDL
MODEL 3
REMARK VINA RESULT:      -9.5      3.546      9.833
REMARK SMILES COc1cc(NS(=O)(=O)c2cc(C(=O)OCCOCCOCCOCCOC(=O)c3ccc(-c4c5nc(c(-c6c(F)c(F)c(F)c(F)c6F)c6ccc([nH]6)c(-c6c(F)c(F)c(F)c(F)c6F)c6nc(c(-c7c(F)c(F)c(F)c(F)c7F)c7ccc4[nH]7)C=C6)C=C5)cc3)cc(C)c2C)ccc1N1CCCC1=O
REMARK SMILES IDX 20 1 19 2 18 3 17 4 16 5 15 6 13 7 14 8 12 9 10 10 11 11
REMARK SMILES IDX 96 12 94 13 97 14 93 15 95 16 7 17 8 18 9 19 6 20 5 22 3 23
REMARK SMILES IDX 4 24 100 25 99 26 98 27 2 28 1 29 101 30 102 31 105 32
REMARK SMILES IDX 103 33 104 34 106 35 21 36 22 37 23 38 24 39 25 40 26 41
REMARK SMILES IDX 27 42 28 43 29 44 30 45 31 46 92 47 32 48 91 49 33 50 34 51
REMARK SMILES IDX 35 52 85 53 36 54 90 55 84 56 86 57 37 58 89 59 83 60 82 61
REMARK SMILES IDX 38 63 70 64 50 65 69 66 51 67 54 68 68 69 87 70 52 71 53 72
REMARK SMILES IDX 67 74 88 75 55 76 39 77 40 78 48 79 41 80 42 81 46 82 49 83
REMARK SMILES IDX 43 84 44 85 47 86 45 87 71 88 72 89 80 90 73 91 74 92 78 93
REMARK SMILES IDX 81 94 75 95 76 96 79 97 77 98 56 99 57 100 65 101 58 102
REMARK SMILES IDX 59 103 63 104 66 105 60 106 61 107 64 108 62 109
REMARK H PARENT 6 21 86 62 54 73
REMARK Flexibility Score: inf
ROOT
ATOM      1  C   UNL A   1      38.729  30.656  29.741  1.00  0.00     0.188 C 
ENDROOT
BRANCH   1   2
ATOM      2  C   UNL A   1      37.656  30.597  28.631  1.00  0.00     0.188 C 
BRANCH   2   3
ATOM      3  O   UNL A   1      36.723  31.664  28.699  1.00  0.00    -0.376 OA
BRANCH   3   4
ATOM      4  C   UNL A   1      35.343  31.360  28.776  1.00  0.00     0.202 C 
BRANCH   4   5
ATOM      5  C   UNL A   1      34.428  31.766  27.608  1.00  0.00     0.261 C 
BRANCH   5   6
ATOM      6  O   UNL A   1      33.379  30.852  27.274  1.00  0.00    -0.460 OA
BRANCH   6   7
ATOM      7  C   UNL A   1      33.770  29.607  26.932  1.00  0.00     0.338 C 
ATOM      8  O   UNL A   1      34.588  28.921  27.520  1.00  0.00    -0.246 OA
BRANCH   7   9
ATOM      9  C   UNL A   1      32.838  29.106  25.892  1.00  0.00     0.061 A 
ATOM     10  C   UNL A   1      32.225  27.317  24.362  1.00  0.00     0.091 A 
ATOM     11  C   UNL A   1      33.029  27.811  25.408  1.00  0.00     0.038 A 
ATOM     12  C   UNL A   1      31.166  28.098  23.828  1.00  0.00    -0.028 A 
ATOM     13  C   UNL A   1      30.929  29.382  24.397  1.00  0.00    -0.046 A 
ATOM     14  C   UNL A   1      30.392  27.700  22.596  1.00  0.00     0.046 C 
ATOM     15  C   UNL A   1      31.769  29.871  25.419  1.00  0.00     0.019 A 
ATOM     16  C   UNL A   1      29.848  30.320  23.915  1.00  0.00     0.044 C 
BRANCH  10  17
ATOM     17  S   UNL A   1      32.864  25.850  23.555  1.00  0.00     0.262 S 
ATOM     18  O   UNL A   1      34.031  25.403  24.284  1.00  0.00    -0.201 OA
ATOM     19  O   UNL A   1      32.969  26.109  22.135  1.00  0.00    -0.201 OA
BRANCH  17  20
ATOM     20  N   UNL A   1      31.628  24.668  23.762  1.00  0.00    -0.279 N 
ATOM     21  H   UNL A   1      30.679  24.928  23.751  1.00  0.00     0.180 HD
BRANCH  20  22
ATOM     22  C   UNL A   1      32.008  23.286  23.953  1.00  0.00     0.053 A 
ATOM     23  C   UNL A   1      32.806  21.510  25.421  1.00  0.00     0.144 A 
ATOM     24  C   UNL A   1      32.569  22.848  25.147  1.00  0.00     0.075 A 
ATOM     25  C   UNL A   1      32.754  20.597  24.379  1.00  0.00     0.086 A 
ATOM     26  C   UNL A   1      32.387  21.049  23.103  1.00  0.00     0.032 A 
ATOM     27  C   UNL A   1      31.958  22.376  22.904  1.00  0.00     0.029 A 
BRANCH  23  28
ATOM     28  O   UNL A   1      32.922  21.159  26.735  1.00  0.00    -0.494 OA
ATOM     29  C   UNL A   1      33.964  21.804  27.444  1.00  0.00     0.278 C 
ENDBRANCH  23  28
BRANCH  25  30
ATOM     30  N   UNL A   1      33.222  19.284  24.554  1.00  0.00    -0.309 N 
ATOM     31  C   UNL A   1      32.413  18.190  24.077  1.00  0.00     0.126 C 
ATOM     32  C   UNL A   1      34.579  18.943  24.594  1.00  0.00     0.227 C 
ATOM     33  C   UNL A   1      33.269  16.973  24.350  1.00  0.00     0.032 C 
ATOM     34  C   UNL A   1      34.691  17.491  24.199  1.00  0.00     0.102 C 
ATOM     35  O   UNL A   1      35.534  19.656  24.855  1.00  0.00    -0.275 OA
ENDBRANCH  25  30
ENDBRANCH  20  22
ENDBRANCH  17  20
ENDBRANCH  10  17
ENDBRANCH   7   9
ENDBRANCH   6   7
ENDBRANCH   5   6
ENDBRANCH   4   5
ENDBRANCH   3   4
ENDBRANCH   2   3
ENDBRANCH   1   2
BRANCH   1  36
ATOM     36  O   UNL A   1      39.858  29.802  29.639  1.00  0.00    -0.377 OA
BRANCH  36  37
ATOM     37  C   UNL A   1      39.765  28.635  28.827  1.00  0.00     0.188 C 
BRANCH  37  38
ATOM     38  C   UNL A   1      40.391  28.580  27.410  1.00  0.00     0.188 C 
BRANCH  38  39
ATOM     39  O   UNL A   1      41.201  27.449  27.143  1.00  0.00    -0.376 OA
BRANCH  39  40
ATOM     40  C   UNL A   1      41.333  27.011  25.802  1.00  0.00     0.202 C 
BRANCH  40  41
ATOM     41  C   UNL A   1      41.687  25.536  25.564  1.00  0.00     0.261 C 
BRANCH  41  42
ATOM     42  O   UNL A   1      42.300  24.846  26.663  1.00  0.00    -0.460 OA
BRANCH  42  43
ATOM     43  C   UNL A   1      43.429  24.156  26.412  1.00  0.00     0.338 C 
ATOM     44  O   UNL A   1      43.528  22.978  26.103  1.00  0.00    -0.246 OA
BRANCH  43  45
ATOM     45  C   UNL A   1      44.541  25.126  26.392  1.00  0.00     0.060 A 
ATOM     46  C   UNL A   1      45.092  25.570  27.603  1.00  0.00     0.016 A 
ATOM     47  C   UNL A   1      45.058  25.568  25.173  1.00  0.00     0.016 A 
ATOM     48  C   UNL A   1      46.153  26.475  27.596  1.00  0.00     0.010 A 
ATOM     49  C   UNL A   1      46.100  26.496  25.168  1.00  0.00     0.010 A 
ATOM     50  C   UNL A   1      46.632  26.975  26.378  1.00  0.00    -0.014 A 
BRANCH  50  51
ATOM     51  C   UNL A   1      47.546  28.141  26.363  1.00  0.00     0.031 A 
ATOM     52  C   UNL A   1      46.954  29.505  26.579  1.00  0.00     0.074 A 
ATOM     53  C   UNL A   1      48.866  27.996  26.163  1.00  0.00     0.049 A 
ATOM     54  N   UNL A   1      47.524  30.681  26.521  1.00  0.00    -0.248 NA
ATOM     55  C   UNL A   1      45.518  29.545  26.901  1.00  0.00     0.031 C 
ATOM     56  C   UNL A   1      49.563  26.725  25.991  1.00  0.00     0.029 A 
ATOM     57  N   UNL A   1      49.856  28.943  26.054  1.00  0.00    -0.354 N 
ATOM     58  C   UNL A   1      46.516  31.598  26.788  1.00  0.00     0.074 A 
ATOM     59  C   UNL A   1      45.295  30.847  26.975  1.00  0.00     0.031 C 
ATOM     60  C   UNL A   1      50.868  26.969  25.782  1.00  0.00     0.029 A 
ATOM     61  C   UNL A   1      51.090  28.415  25.764  1.00  0.00     0.049 A 
ATOM     62  H   UNL A   1      49.696  29.907  26.172  1.00  0.00     0.167 HD
ATOM     63  C   UNL A   1      46.605  32.947  26.874  1.00  0.00     0.037 A 
ATOM     64  C   UNL A   1      52.254  29.036  25.484  1.00  0.00     0.037 A 
ATOM     65  C   UNL A   1      47.823  33.687  26.677  1.00  0.00     0.049 A 
ATOM     66  C   UNL A   1      52.307  30.544  25.494  1.00  0.00     0.074 A 
ATOM     67  C   UNL A   1      48.023  35.053  26.755  1.00  0.00     0.029 A 
ATOM     68  N   UNL A   1      49.047  33.121  26.350  1.00  0.00    -0.354 N 
ATOM     69  N   UNL A   1      51.359  31.407  25.769  1.00  0.00    -0.248 NA
ATOM     70  C   UNL A   1      53.596  31.163  25.154  1.00  0.00     0.031 C 
ATOM     71  C   UNL A   1      49.352  35.320  26.411  1.00  0.00     0.029 A 
ATOM     72  C   UNL A   1      49.999  34.115  26.189  1.00  0.00     0.049 A 
ATOM     73  H   UNL A   1      49.214  32.156  26.246  1.00  0.00     0.167 HD
ATOM     74  C   UNL A   1      51.943  32.665  25.669  1.00  0.00     0.074 A 
ATOM     75  C   UNL A   1      53.332  32.451  25.320  1.00  0.00     0.031 C 
ATOM     76  C   UNL A   1      51.382  33.886  25.852  1.00  0.00     0.037 A 
BRANCH  63  77
ATOM     77  C   UNL A   1      45.342  33.706  27.158  1.00  0.00     0.064 A 
ATOM     78  C   UNL A   1      44.994  34.106  28.457  1.00  0.00     0.173 A 
ATOM     79  C   UNL A   1      44.478  34.059  26.110  1.00  0.00     0.173 A 
ATOM     80  F   UNL A   1      45.777  33.783  29.497  1.00  0.00    -0.203 F 
ATOM     81  C   UNL A   1      43.814  34.805  28.699  1.00  0.00     0.198 A 
ATOM     82  C   UNL A   1      43.316  34.787  26.352  1.00  0.00     0.198 A 
ATOM     83  F   UNL A   1      44.763  33.703  24.848  1.00  0.00    -0.203 F 
ATOM     84  F   UNL A   1      43.474  35.129  29.955  1.00  0.00    -0.200 F 
ATOM     85  C   UNL A   1      42.980  35.151  27.646  1.00  0.00     0.200 A 
ATOM     86  F   UNL A   1      42.520  35.133  25.331  1.00  0.00    -0.200 F 
ATOM     87  F   UNL A   1      41.848  35.830  27.880  1.00  0.00    -0.200 F 
ENDBRANCH  63  77
BRANCH  64  88
ATOM     88  C   UNL A   1      53.464  28.237  25.154  1.00  0.00     0.064 A 
ATOM     89  C   UNL A   1      54.317  27.763  26.161  1.00  0.00     0.173 A 
ATOM     90  C   UNL A   1      53.811  27.955  23.823  1.00  0.00     0.173 A 
ATOM     91  F   UNL A   1      54.045  28.030  27.447  1.00  0.00    -0.203 F 
ATOM     92  C   UNL A   1      55.477  27.058  25.851  1.00  0.00     0.198 A 
ATOM     93  C   UNL A   1      54.954  27.221  23.516  1.00  0.00     0.198 A 
ATOM     94  F   UNL A   1      53.034  28.388  22.819  1.00  0.00    -0.203 F 
ATOM     95  F   UNL A   1      56.302  26.664  26.832  1.00  0.00    -0.200 F 
ATOM     96  C   UNL A   1      55.792  26.780  24.529  1.00  0.00     0.200 A 
ATOM     97  F   UNL A   1      55.248  26.945  22.238  1.00  0.00    -0.200 F 
ATOM     98  F   UNL A   1      56.907  26.101  24.231  1.00  0.00    -0.200 F 
ENDBRANCH  64  88
BRANCH  76  99
ATOM     99  C   UNL A   1      52.274  35.089  25.729  1.00  0.00     0.064 A 
ATOM    100  C   UNL A   1      52.872  35.688  26.848  1.00  0.00     0.173 A 
ATOM    101  C   UNL A   1      52.579  35.616  24.464  1.00  0.00     0.173 A 
ATOM    102  F   UNL A   1      52.605  35.231  28.081  1.00  0.00    -0.203 F 
ATOM    103  C   UNL A   1      53.718  36.785  26.707  1.00  0.00     0.198 A 
ATOM    104  C   UNL A   1      53.455  36.690  24.324  1.00  0.00     0.198 A 
ATOM    105  F   UNL A   1      52.043  35.077  23.358  1.00  0.00    -0.203 F 
ATOM    106  F   UNL A   1      54.237  37.372  27.795  1.00  0.00    -0.200 F 
ATOM    107  C   UNL A   1      54.016  37.278  25.446  1.00  0.00     0.200 A 
ATOM    108  F   UNL A   1      53.755  37.153  23.103  1.00  0.00    -0.200 F 
ATOM    109  F   UNL A   1      54.841  38.326  25.312  1.00  0.00    -0.200 F 
ENDBRANCH  76  99
ENDBRANCH  50  51
ENDBRANCH  43  45
ENDBRANCH  42  43
ENDBRANCH  41  42
ENDBRANCH  40  41
ENDBRANCH  39  40
ENDBRANCH  38  39
ENDBRANCH  37  38
ENDBRANCH  36  37
ENDBRANCH   1  36
TORSDOF 25
ENDMDL
