MODEL 1
REMARK VINA RESULT:     -10.2      0.000      0.000
REMARK SMILES CC(C)(C)c1ccc(NS(=O)(=O)c2cccc(C(=O)OCCOCCOCCOCCOC(=O)c3ccc(-c4c5nc(c(-c6c(F)c(F)c(F)c(F)c6F)c6ccc([nH]6)c(-c6c(F)c(F)c(F)c(F)c6F)c6nc(c(-c7c(F)c(F)c(F)c(F)c7F)c7ccc4[nH]7)C=C6)C=C5)cc3)c2)cc1
REMARK SMILES IDX 25 1 24 2 23 3 22 4 21 5 20 6 18 7 19 8 17 9 13 10 14 11
REMARK SMILES IDX 98 12 15 13 16 14 10 15 11 16 12 17 9 18 8 20 5 21 6 22
REMARK SMILES IDX 100 23 7 24 99 25 2 26 1 27 3 28 4 29 26 30 27 31 28 32
REMARK SMILES IDX 29 33 30 34 31 35 32 36 33 37 34 38 35 39 36 40 97 41 37 42
REMARK SMILES IDX 96 43 38 44 39 45 40 46 90 47 41 48 95 49 89 50 91 51 42 52
REMARK SMILES IDX 94 53 88 54 87 55 43 57 75 58 55 59 74 60 56 61 59 62 73 63
REMARK SMILES IDX 92 64 57 65 58 66 72 68 93 69 60 70 44 71 45 72 53 73 46 74
REMARK SMILES IDX 47 75 51 76 54 77 48 78 49 79 52 80 50 81 76 82 77 83 85 84
REMARK SMILES IDX 78 85 79 86 83 87 86 88 80 89 81 90 84 91 82 92 61 93 62 94
REMARK SMILES IDX 70 95 63 96 64 97 68 98 71 99 65 100 66 101 69 102 67 103
REMARK H PARENT 9 19 91 56 59 67
REMARK Flexibility Score: inf
ROOT
ATOM      1  C   UNL A   1      35.246  24.084  24.369  1.00  0.00     0.188 C 
ENDROOT
BRANCH   1   2
ATOM      2  C   UNL A   1      36.655  23.878  24.961  1.00  0.00     0.188 C 
BRANCH   2   3
ATOM      3  O   UNL A   1      36.755  22.759  25.825  1.00  0.00    -0.376 OA
BRANCH   3   4
ATOM      4  C   UNL A   1      37.460  21.613  25.388  1.00  0.00     0.202 C 
BRANCH   4   5
ATOM      5  C   UNL A   1      36.672  20.347  25.006  1.00  0.00     0.261 C 
BRANCH   5   6
ATOM      6  O   UNL A   1      35.434  20.557  24.313  1.00  0.00    -0.460 OA
BRANCH   6   7
ATOM      7  C   UNL A   1      34.331  20.095  24.937  1.00  0.00     0.338 C 
ATOM      8  O   UNL A   1      34.036  18.921  25.092  1.00  0.00    -0.246 OA
BRANCH   7   9
ATOM      9  C   UNL A   1      33.585  21.213  25.572  1.00  0.00     0.061 A 
ATOM     10  C   UNL A   1      31.904  22.970  25.607  1.00  0.00     0.088 A 
ATOM     11  C   UNL A   1      32.043  23.056  26.990  1.00  0.00     0.022 A 
ATOM     12  C   UNL A   1      32.660  22.019  24.892  1.00  0.00     0.038 A 
ATOM     13  C   UNL A   1      33.068  22.363  27.636  1.00  0.00     0.002 A 
ATOM     14  C   UNL A   1      33.839  21.448  26.928  1.00  0.00     0.016 A 
BRANCH  10  15
ATOM     15  S   UNL A   1      30.806  24.015  24.671  1.00  0.00     0.261 S 
ATOM     16  O   UNL A   1      29.910  24.605  25.647  1.00  0.00    -0.201 OA
ATOM     17  O   UNL A   1      30.278  23.202  23.595  1.00  0.00    -0.201 OA
BRANCH  15  18
ATOM     18  N   UNL A   1      31.543  25.343  23.923  1.00  0.00    -0.280 N 
ATOM     19  H   UNL A   1      32.519  25.307  23.803  1.00  0.00     0.180 HD
BRANCH  18  20
ATOM     20  C   UNL A   1      30.875  26.509  23.451  1.00  0.00     0.049 A 
ATOM     21  C   UNL A   1      29.518  28.924  22.853  1.00  0.00    -0.042 A 
ATOM     22  C   UNL A   1      30.815  28.666  22.367  1.00  0.00     0.006 A 
ATOM     23  C   UNL A   1      28.864  27.864  23.501  1.00  0.00     0.006 A 
ATOM     24  C   UNL A   1      31.473  27.452  22.625  1.00  0.00     0.027 A 
ATOM     25  C   UNL A   1      29.535  26.676  23.803  1.00  0.00     0.027 A 
BRANCH  21  26
ATOM     26  C   UNL A   1      28.814  30.281  22.667  1.00  0.00    -0.013 C 
ATOM     27  C   UNL A   1      27.276  30.153  22.808  1.00  0.00     0.016 C 
ATOM     28  C   UNL A   1      29.140  30.818  21.262  1.00  0.00     0.016 C 
ATOM     29  C   UNL A   1      29.249  31.336  23.710  1.00  0.00     0.016 C 
ENDBRANCH  21  26
ENDBRANCH  18  20
ENDBRANCH  15  18
ENDBRANCH  10  15
ENDBRANCH   7   9
ENDBRANCH   6   7
ENDBRANCH   5   6
ENDBRANCH   4   5
ENDBRANCH   3   4
ENDBRANCH   2   3
ENDBRANCH   1   2
BRANCH   1  30
ATOM     30  O   UNL A   1      34.617  25.342  24.561  1.00  0.00    -0.377 OA
BRANCH  30  31
ATOM     31  C   UNL A   1      34.211  25.748  25.867  1.00  0.00     0.188 C 
BRANCH  31  32
ATOM     32  C   UNL A   1      33.409  27.048  26.122  1.00  0.00     0.188 C 
BRANCH  32  33
ATOM     33  O   UNL A   1      34.029  28.229  25.645  1.00  0.00    -0.376 OA
BRANCH  33  34
ATOM     34  C   UNL A   1      33.231  29.144  24.918  1.00  0.00     0.202 C 
BRANCH  34  35
ATOM     35  C   UNL A   1      32.336  30.082  25.739  1.00  0.00     0.261 C 
BRANCH  35  36
ATOM     36  O   UNL A   1      32.747  30.324  27.093  1.00  0.00    -0.460 OA
BRANCH  36  37
ATOM     37  C   UNL A   1      33.437  31.456  27.342  1.00  0.00     0.338 C 
ATOM     38  O   UNL A   1      33.030  32.605  27.264  1.00  0.00    -0.246 OA
BRANCH  37  39
ATOM     39  C   UNL A   1      34.742  31.065  27.913  1.00  0.00     0.060 A 
ATOM     40  C   UNL A   1      34.939  29.746  28.342  1.00  0.00     0.016 A 
ATOM     41  C   UNL A   1      35.774  32.002  28.006  1.00  0.00     0.016 A 
ATOM     42  C   UNL A   1      36.163  29.368  28.898  1.00  0.00     0.010 A 
ATOM     43  C   UNL A   1      36.990  31.629  28.582  1.00  0.00     0.010 A 
ATOM     44  C   UNL A   1      37.177  30.319  29.061  1.00  0.00    -0.014 A 
BRANCH  44  45
ATOM     45  C   UNL A   1      38.355  30.009  29.908  1.00  0.00     0.031 A 
ATOM     46  C   UNL A   1      39.383  29.051  29.372  1.00  0.00     0.074 A 
ATOM     47  C   UNL A   1      38.516  30.564  31.122  1.00  0.00     0.049 A 
ATOM     48  N   UNL A   1      40.456  28.571  29.945  1.00  0.00    -0.248 NA
ATOM     49  C   UNL A   1      39.164  28.567  27.999  1.00  0.00     0.031 C 
ATOM     50  C   UNL A   1      37.612  31.535  31.733  1.00  0.00     0.029 A 
ATOM     51  N   UNL A   1      39.498  30.376  32.062  1.00  0.00    -0.354 N 
ATOM     52  C   UNL A   1      41.033  27.721  29.009  1.00  0.00     0.074 A 
ATOM     53  C   UNL A   1      40.175  27.726  27.844  1.00  0.00     0.031 C 
ATOM     54  C   UNL A   1      38.075  31.847  32.957  1.00  0.00     0.029 A 
ATOM     55  C   UNL A   1      39.284  31.070  33.227  1.00  0.00     0.049 A 
ATOM     56  H   UNL A   1      40.282  29.798  31.915  1.00  0.00     0.167 HD
ATOM     57  C   UNL A   1      42.179  27.007  29.110  1.00  0.00     0.037 A 
ATOM     58  C   UNL A   1      39.972  31.055  34.386  1.00  0.00     0.037 A 
ATOM     59  C   UNL A   1      43.025  27.001  30.274  1.00  0.00     0.049 A 
ATOM     60  C   UNL A   1      41.201  30.187  34.504  1.00  0.00     0.074 A 
ATOM     61  C   UNL A   1      44.216  26.325  30.471  1.00  0.00     0.029 A 
ATOM     62  N   UNL A   1      42.759  27.695  31.446  1.00  0.00    -0.354 N 
ATOM     63  N   UNL A   1      41.759  29.410  33.608  1.00  0.00    -0.248 NA
ATOM     64  C   UNL A   1      41.900  30.200  35.798  1.00  0.00     0.031 C 
ATOM     65  C   UNL A   1      44.638  26.558  31.783  1.00  0.00     0.029 A 
ATOM     66  C   UNL A   1      43.750  27.439  32.381  1.00  0.00     0.049 A 
ATOM     67  H   UNL A   1      41.984  28.283  31.591  1.00  0.00     0.167 HD
ATOM     68  C   UNL A   1      42.889  28.870  34.214  1.00  0.00     0.074 A 
ATOM     69  C   UNL A   1      42.943  29.419  35.552  1.00  0.00     0.031 C 
ATOM     70  C   UNL A   1      43.799  28.003  33.706  1.00  0.00     0.037 A 
BRANCH  57  71
ATOM     71  C   UNL A   1      42.564  26.146  27.941  1.00  0.00     0.064 A 
ATOM     72  C   UNL A   1      42.033  24.859  27.761  1.00  0.00     0.173 A 
ATOM     73  C   UNL A   1      43.458  26.627  26.972  1.00  0.00     0.173 A 
ATOM     74  F   UNL A   1      41.186  24.345  28.665  1.00  0.00    -0.203 F 
ATOM     75  C   UNL A   1      42.409  24.076  26.673  1.00  0.00     0.198 A 
ATOM     76  C   UNL A   1      43.803  25.854  25.867  1.00  0.00     0.198 A 
ATOM     77  F   UNL A   1      43.994  27.852  27.094  1.00  0.00    -0.203 F 
ATOM     78  F   UNL A   1      41.932  22.829  26.550  1.00  0.00    -0.200 F 
ATOM     79  C   UNL A   1      43.287  24.577  25.723  1.00  0.00     0.200 A 
ATOM     80  F   UNL A   1      44.641  26.347  24.943  1.00  0.00    -0.200 F 
ATOM     81  F   UNL A   1      43.639  23.825  24.671  1.00  0.00    -0.200 F 
ENDBRANCH  57  71
BRANCH  58  82
ATOM     82  C   UNL A   1      39.511  31.876  35.538  1.00  0.00     0.064 A 
ATOM     83  C   UNL A   1      38.591  31.369  36.466  1.00  0.00     0.173 A 
ATOM     84  C   UNL A   1      39.962  33.191  35.721  1.00  0.00     0.173 A 
ATOM     85  F   UNL A   1      38.108  30.127  36.320  1.00  0.00    -0.203 F 
ATOM     86  C   UNL A   1      38.123  32.153  37.519  1.00  0.00     0.198 A 
ATOM     87  C   UNL A   1      39.518  33.964  36.793  1.00  0.00     0.198 A 
ATOM     88  F   UNL A   1      40.837  33.728  34.859  1.00  0.00    -0.203 F 
ATOM     89  F   UNL A   1      37.202  31.661  38.359  1.00  0.00    -0.200 F 
ATOM     90  C   UNL A   1      38.591  33.447  37.686  1.00  0.00     0.200 A 
ATOM     91  F   UNL A   1      39.983  35.210  36.957  1.00  0.00    -0.200 F 
ATOM     92  F   UNL A   1      38.143  34.199  38.699  1.00  0.00    -0.200 F 
ENDBRANCH  58  82
BRANCH  70  93
ATOM     93  C   UNL A   1      44.967  27.630  34.578  1.00  0.00     0.064 A 
ATOM     94  C   UNL A   1      44.943  26.501  35.411  1.00  0.00     0.173 A 
ATOM     95  C   UNL A   1      46.147  28.389  34.539  1.00  0.00     0.173 A 
ATOM     96  F   UNL A   1      43.836  25.747  35.495  1.00  0.00    -0.203 F 
ATOM     97  C   UNL A   1      46.046  26.165  36.193  1.00  0.00     0.198 A 
ATOM     98  C   UNL A   1      47.260  28.029  35.294  1.00  0.00     0.198 A 
ATOM     99  F   UNL A   1      46.229  29.473  33.752  1.00  0.00    -0.203 F 
ATOM    100  F   UNL A   1      45.981  25.113  37.020  1.00  0.00    -0.200 F 
ATOM    101  C   UNL A   1      47.205  26.923  36.126  1.00  0.00     0.200 A 
ATOM    102  F   UNL A   1      48.385  28.752  35.213  1.00  0.00    -0.200 F 
ATOM    103  F   UNL A   1      48.268  26.590  36.871  1.00  0.00    -0.200 F 
ENDBRANCH  70  93
ENDBRANCH  44  45
ENDBRANCH  37  39
ENDBRANCH  36  37
ENDBRANCH  35  36
ENDBRANCH  34  35
ENDBRANCH  33  34
ENDBRANCH  32  33
ENDBRANCH  31  32
ENDBRANCH  30  31
ENDBRANCH   1  30
TORSDOF 24
ENDMDL
MODEL 2
REMARK VINA RESULT:     -10.1      0.794      7.041
REMARK SMILES CC(C)(C)c1ccc(NS(=O)(=O)c2cccc(C(=O)OCCOCCOCCOCCOC(=O)c3ccc(-c4c5nc(c(-c6c(F)c(F)c(F)c(F)c6F)c6ccc([nH]6)c(-c6c(F)c(F)c(F)c(F)c6F)c6nc(c(-c7c(F)c(F)c(F)c(F)c7F)c7ccc4[nH]7)C=C6)C=C5)cc3)c2)cc1
REMARK SMILES IDX 25 1 24 2 23 3 22 4 21 5 20 6 18 7 19 8 17 9 13 10 14 11
REMARK SMILES IDX 98 12 15 13 16 14 10 15 11 16 12 17 9 18 8 20 5 21 6 22
REMARK SMILES IDX 100 23 7 24 99 25 2 26 1 27 3 28 4 29 26 30 27 31 28 32
REMARK SMILES IDX 29 33 30 34 31 35 32 36 33 37 34 38 35 39 36 40 97 41 37 42
REMARK SMILES IDX 96 43 38 44 39 45 40 46 90 47 41 48 95 49 89 50 91 51 42 52
REMARK SMILES IDX 94 53 88 54 87 55 43 57 75 58 55 59 74 60 56 61 59 62 73 63
REMARK SMILES IDX 92 64 57 65 58 66 72 68 93 69 60 70 44 71 45 72 53 73 46 74
REMARK SMILES IDX 47 75 51 76 54 77 48 78 49 79 52 80 50 81 76 82 77 83 85 84
REMARK SMILES IDX 78 85 79 86 83 87 86 88 80 89 81 90 84 91 82 92 61 93 62 94
REMARK SMILES IDX 70 95 63 96 64 97 68 98 71 99 65 100 66 101 69 102 67 103
REMARK H PARENT 9 19 91 56 59 67
REMARK Flexibility Score: inf
ROOT
ATOM      1  C   UNL A   1      35.058  24.661  25.009  1.00  0.00     0.188 C 
ENDROOT
BRANCH   1   2
ATOM      2  C   UNL A   1      36.403  24.033  25.425  1.00  0.00     0.188 C 
BRANCH   2   3
ATOM      3  O   UNL A   1      36.284  22.725  25.960  1.00  0.00    -0.376 OA
BRANCH   3   4
ATOM      4  C   UNL A   1      36.870  21.641  25.264  1.00  0.00     0.202 C 
BRANCH   4   5
ATOM      5  C   UNL A   1      36.028  20.381  24.993  1.00  0.00     0.261 C 
BRANCH   5   6
ATOM      6  O   UNL A   1      34.810  20.578  24.261  1.00  0.00    -0.460 OA
BRANCH   6   7
ATOM      7  C   UNL A   1      33.675  20.286  24.928  1.00  0.00     0.338 C 
ATOM      8  O   UNL A   1      33.301  19.170  25.251  1.00  0.00    -0.246 OA
BRANCH   7   9
ATOM      9  C   UNL A   1      33.001  21.532  25.378  1.00  0.00     0.061 A 
ATOM     10  C   UNL A   1      31.608  23.498  25.051  1.00  0.00     0.088 A 
ATOM     11  C   UNL A   1      31.524  23.652  26.433  1.00  0.00     0.022 A 
ATOM     12  C   UNL A   1      32.329  22.410  24.517  1.00  0.00     0.038 A 
ATOM     13  C   UNL A   1      32.316  22.870  27.274  1.00  0.00     0.002 A 
ATOM     14  C   UNL A   1      33.055  21.816  26.748  1.00  0.00     0.016 A 
BRANCH  10  15
ATOM     15  S   UNL A   1      30.843  24.619  23.896  1.00  0.00     0.261 S 
ATOM     16  O   UNL A   1      29.870  23.824  23.173  1.00  0.00    -0.201 OA
ATOM     17  O   UNL A   1      31.918  25.279  23.186  1.00  0.00    -0.201 OA
BRANCH  15  18
ATOM     18  N   UNL A   1      29.929  25.860  24.599  1.00  0.00    -0.280 N 
ATOM     19  H   UNL A   1      29.551  25.689  25.491  1.00  0.00     0.180 HD
BRANCH  18  20
ATOM     20  C   UNL A   1      29.660  27.130  24.013  1.00  0.00     0.049 A 
ATOM     21  C   UNL A   1      28.890  29.704  23.111  1.00  0.00    -0.042 A 
ATOM     22  C   UNL A   1      30.219  29.418  23.480  1.00  0.00     0.006 A 
ATOM     23  C   UNL A   1      28.004  28.617  23.047  1.00  0.00     0.006 A 
ATOM     24  C   UNL A   1      30.613  28.131  23.886  1.00  0.00     0.027 A 
ATOM     25  C   UNL A   1      28.381  27.349  23.499  1.00  0.00     0.027 A 
BRANCH  21  26
ATOM     26  C   UNL A   1      28.412  31.124  22.756  1.00  0.00    -0.013 C 
ATOM     27  C   UNL A   1      28.057  31.251  21.253  1.00  0.00     0.016 C 
ATOM     28  C   UNL A   1      29.537  32.121  23.086  1.00  0.00     0.016 C 
ATOM     29  C   UNL A   1      27.140  31.545  23.528  1.00  0.00     0.016 C 
ENDBRANCH  21  26
ENDBRANCH  18  20
ENDBRANCH  15  18
ENDBRANCH  10  15
ENDBRANCH   7   9
ENDBRANCH   6   7
ENDBRANCH   5   6
ENDBRANCH   4   5
ENDBRANCH   3   4
ENDBRANCH   2   3
ENDBRANCH   1   2
BRANCH   1  30
ATOM     30  O   UNL A   1      34.368  25.456  25.962  1.00  0.00    -0.377 OA
BRANCH  30  31
ATOM     31  C   UNL A   1      33.691  26.641  25.549  1.00  0.00     0.188 C 
BRANCH  31  32
ATOM     32  C   UNL A   1      33.545  27.879  26.469  1.00  0.00     0.188 C 
BRANCH  32  33
ATOM     33  O   UNL A   1      32.226  28.127  26.923  1.00  0.00    -0.376 OA
BRANCH  33  34
ATOM     34  C   UNL A   1      31.782  29.470  26.947  1.00  0.00     0.202 C 
BRANCH  34  35
ATOM     35  C   UNL A   1      32.845  30.553  26.721  1.00  0.00     0.261 C 
BRANCH  35  36
ATOM     36  O   UNL A   1      32.910  31.592  27.709  1.00  0.00    -0.460 OA
BRANCH  36  37
ATOM     37  C   UNL A   1      33.921  32.480  27.615  1.00  0.00     0.338 C 
ATOM     38  O   UNL A   1      33.843  33.665  27.332  1.00  0.00    -0.246 OA
BRANCH  37  39
ATOM     39  C   UNL A   1      35.147  31.812  28.097  1.00  0.00     0.060 A 
ATOM     40  C   UNL A   1      35.108  30.448  28.416  1.00  0.00     0.016 A 
ATOM     41  C   UNL A   1      36.337  32.533  28.216  1.00  0.00     0.016 A 
ATOM     42  C   UNL A   1      36.255  29.808  28.888  1.00  0.00     0.010 A 
ATOM     43  C   UNL A   1      37.478  31.898  28.709  1.00  0.00     0.010 A 
ATOM     44  C   UNL A   1      37.433  30.541  29.079  1.00  0.00    -0.014 A 
BRANCH  44  45
ATOM     45  C   UNL A   1      38.557  29.952  29.849  1.00  0.00     0.031 A 
ATOM     46  C   UNL A   1      38.774  30.423  31.260  1.00  0.00     0.074 A 
ATOM     47  C   UNL A   1      39.364  29.020  29.314  1.00  0.00     0.049 A 
ATOM     48  N   UNL A   1      39.722  30.114  32.107  1.00  0.00    -0.248 NA
ATOM     49  C   UNL A   1      37.785  31.379  31.785  1.00  0.00     0.031 C 
ATOM     50  C   UNL A   1      39.230  28.455  27.974  1.00  0.00     0.029 A 
ATOM     51  N   UNL A   1      40.467  28.393  29.839  1.00  0.00    -0.354 N 
ATOM     52  C   UNL A   1      39.450  30.844  33.257  1.00  0.00     0.074 A 
ATOM     53  C   UNL A   1      38.269  31.635  32.990  1.00  0.00     0.031 C 
ATOM     54  C   UNL A   1      40.227  27.573  27.775  1.00  0.00     0.029 A 
ATOM     55  C   UNL A   1      41.086  27.542  28.958  1.00  0.00     0.049 A 
ATOM     56  H   UNL A   1      40.785  28.541  30.759  1.00  0.00     0.167 HD
ATOM     57  C   UNL A   1      40.121  30.848  34.433  1.00  0.00     0.037 A 
ATOM     58  C   UNL A   1      42.231  26.842  29.086  1.00  0.00     0.037 A 
ATOM     59  C   UNL A   1      41.300  30.064  34.691  1.00  0.00     0.049 A 
ATOM     60  C   UNL A   1      43.008  26.926  30.378  1.00  0.00     0.074 A 
ATOM     61  C   UNL A   1      42.045  29.983  35.854  1.00  0.00     0.029 A 
ATOM     62  N   UNL A   1      41.914  29.234  33.763  1.00  0.00    -0.354 N 
ATOM     63  N   UNL A   1      42.731  27.593  31.472  1.00  0.00    -0.248 NA
ATOM     64  C   UNL A   1      44.257  26.153  30.452  1.00  0.00     0.031 C 
ATOM     65  C   UNL A   1      43.146  29.156  35.611  1.00  0.00     0.029 A 
ATOM     66  C   UNL A   1      43.047  28.661  34.320  1.00  0.00     0.049 A 
ATOM     67  H   UNL A   1      41.593  29.075  32.847  1.00  0.00     0.167 HD
ATOM     68  C   UNL A   1      43.747  27.294  32.373  1.00  0.00     0.074 A 
ATOM     69  C   UNL A   1      44.641  26.375  31.700  1.00  0.00     0.031 C 
ATOM     70  C   UNL A   1      43.922  27.737  33.642  1.00  0.00     0.037 A 
BRANCH  57  71
ATOM     71  C   UNL A   1      39.615  31.756  35.518  1.00  0.00     0.064 A 
ATOM     72  C   UNL A   1      40.113  33.056  35.689  1.00  0.00     0.173 A 
ATOM     73  C   UNL A   1      38.597  31.325  36.382  1.00  0.00     0.173 A 
ATOM     74  F   UNL A   1      41.097  33.513  34.899  1.00  0.00    -0.203 F 
ATOM     75  C   UNL A   1      39.633  33.879  36.704  1.00  0.00     0.198 A 
ATOM     76  C   UNL A   1      38.094  32.164  37.373  1.00  0.00     0.198 A 
ATOM     77  F   UNL A   1      38.082  30.091  36.261  1.00  0.00    -0.203 F 
ATOM     78  F   UNL A   1      40.162  35.098  36.884  1.00  0.00    -0.200 F 
ATOM     79  C   UNL A   1      38.619  33.435  37.540  1.00  0.00     0.200 A 
ATOM     80  F   UNL A   1      37.104  31.738  38.170  1.00  0.00    -0.200 F 
ATOM     81  F   UNL A   1      38.151  34.232  38.511  1.00  0.00    -0.200 F 
ENDBRANCH  57  71
BRANCH  58  82
ATOM     82  C   UNL A   1      42.726  26.008  27.957  1.00  0.00     0.064 A 
ATOM     83  C   UNL A   1      43.599  26.536  26.996  1.00  0.00     0.173 A 
ATOM     84  C   UNL A   1      42.317  24.676  27.803  1.00  0.00     0.173 A 
ATOM     85  F   UNL A   1      43.997  27.814  27.083  1.00  0.00    -0.203 F 
ATOM     86  C   UNL A   1      44.026  25.771  25.913  1.00  0.00     0.198 A 
ATOM     87  C   UNL A   1      42.771  23.901  26.736  1.00  0.00     0.198 A 
ATOM     88  F   UNL A   1      41.477  24.122  28.690  1.00  0.00    -0.203 F 
ATOM     89  F   UNL A   1      44.817  26.318  24.979  1.00  0.00    -0.200 F 
ATOM     90  C   UNL A   1      43.618  24.452  25.787  1.00  0.00     0.200 A 
ATOM     91  F   UNL A   1      42.382  22.623  26.626  1.00  0.00    -0.200 F 
ATOM     92  F   UNL A   1      44.030  23.716  24.747  1.00  0.00    -0.200 F 
ENDBRANCH  58  82
BRANCH  70  93
ATOM     93  C   UNL A   1      45.094  27.196  34.414  1.00  0.00     0.064 A 
ATOM     94  C   UNL A   1      44.988  26.060  35.229  1.00  0.00     0.173 A 
ATOM     95  C   UNL A   1      46.356  27.800  34.295  1.00  0.00     0.173 A 
ATOM     96  F   UNL A   1      43.802  25.451  35.388  1.00  0.00    -0.203 F 
ATOM     97  C   UNL A   1      46.094  25.566  35.918  1.00  0.00     0.198 A 
ATOM     98  C   UNL A   1      47.467  27.282  34.955  1.00  0.00     0.198 A 
ATOM     99  F   UNL A   1      46.518  28.884  33.521  1.00  0.00    -0.203 F 
ATOM    100  F   UNL A   1      45.956  24.511  36.731  1.00  0.00    -0.200 F 
ATOM    101  C   UNL A   1      47.332  26.171  35.773  1.00  0.00     0.200 A 
ATOM    102  F   UNL A   1      48.667  27.857  34.798  1.00  0.00    -0.200 F 
ATOM    103  F   UNL A   1      48.397  25.687  36.427  1.00  0.00    -0.200 F 
ENDBRANCH  70  93
ENDBRANCH  44  45
ENDBRANCH  37  39
ENDBRANCH  36  37
ENDBRANCH  35  36
ENDBRANCH  34  35
ENDBRANCH  33  34
ENDBRANCH  32  33
ENDBRANCH  31  32
ENDBRANCH  30  31
ENDBRANCH   1  30
TORSDOF 24
ENDMDL
MODEL 3
REMARK VINA RESULT:      -9.4      5.145      9.788
REMARK SMILES CC(C)(C)c1ccc(NS(=O)(=O)c2cccc(C(=O)OCCOCCOCCOCCOC(=O)c3ccc(-c4c5nc(c(-c6c(F)c(F)c(F)c(F)c6F)c6ccc([nH]6)c(-c6c(F)c(F)c(F)c(F)c6F)c6nc(c(-c7c(F)c(F)c(F)c(F)c7F)c7ccc4[nH]7)C=C6)C=C5)cc3)c2)cc1
REMARK SMILES IDX 25 1 24 2 23 3 22 4 21 5 20 6 18 7 19 8 17 9 13 10 14 11
REMARK SMILES IDX 98 12 15 13 16 14 10 15 11 16 12 17 9 18 8 20 5 21 6 22
REMARK SMILES IDX 100 23 7 24 99 25 2 26 1 27 3 28 4 29 26 30 27 31 28 32
REMARK SMILES IDX 29 33 30 34 31 35 32 36 33 37 34 38 35 39 36 40 97 41 37 42
REMARK SMILES IDX 96 43 38 44 39 45 40 46 90 47 41 48 95 49 89 50 91 51 42 52
REMARK SMILES IDX 94 53 88 54 87 55 43 57 75 58 55 59 74 60 56 61 59 62 73 63
REMARK SMILES IDX 92 64 57 65 58 66 72 68 93 69 60 70 44 71 45 72 53 73 46 74
REMARK SMILES IDX 47 75 51 76 54 77 48 78 49 79 52 80 50 81 76 82 77 83 85 84
REMARK SMILES IDX 78 85 79 86 83 87 86 88 80 89 81 90 84 91 82 92 61 93 62 94
REMARK SMILES IDX 70 95 63 96 64 97 68 98 71 99 65 100 66 101 69 102 67 103
REMARK H PARENT 9 19 91 56 59 67
REMARK Flexibility Score: inf
ROOT
ATOM      1  C   UNL A   1      39.940  21.459  26.498  1.00  0.00     0.188 C 
ENDROOT
BRANCH   1   2
ATOM      2  C   UNL A   1      38.570  21.785  25.869  1.00  0.00     0.188 C 
BRANCH   2   3
ATOM      3  O   UNL A   1      38.199  23.149  25.980  1.00  0.00    -0.376 OA
BRANCH   3   4
ATOM      4  C   UNL A   1      36.851  23.515  25.759  1.00  0.00     0.202 C 
BRANCH   4   5
ATOM      5  C   UNL A   1      36.029  22.754  24.703  1.00  0.00     0.261 C 
BRANCH   5   6
ATOM      6  O   UNL A   1      34.617  23.005  24.698  1.00  0.00    -0.460 OA
BRANCH   6   7
ATOM      7  C   UNL A   1      34.210  24.039  23.934  1.00  0.00     0.338 C 
ATOM      8  O   UNL A   1      34.424  24.174  22.740  1.00  0.00    -0.246 OA
BRANCH   7   9
ATOM      9  C   UNL A   1      33.307  24.933  24.705  1.00  0.00     0.061 A 
ATOM     10  C   UNL A   1      32.116  27.017  25.098  1.00  0.00     0.088 A 
ATOM     11  C   UNL A   1      31.343  26.377  26.063  1.00  0.00     0.022 A 
ATOM     12  C   UNL A   1      33.089  26.282  24.389  1.00  0.00     0.038 A 
ATOM     13  C   UNL A   1      31.667  25.084  26.477  1.00  0.00     0.002 A 
ATOM     14  C   UNL A   1      32.649  24.367  25.803  1.00  0.00     0.016 A 
BRANCH  10  15
ATOM     15  S   UNL A   1      31.945  28.745  24.700  1.00  0.00     0.261 S 
ATOM     16  O   UNL A   1      30.553  28.920  24.331  1.00  0.00    -0.201 OA
ATOM     17  O   UNL A   1      32.995  29.058  23.753  1.00  0.00    -0.201 OA
BRANCH  15  18
ATOM     18  N   UNL A   1      32.169  29.806  26.000  1.00  0.00    -0.280 N 
ATOM     19  H   UNL A   1      31.383  30.311  26.308  1.00  0.00     0.180 HD
BRANCH  18  20
ATOM     20  C   UNL A   1      33.396  30.033  26.688  1.00  0.00     0.049 A 
ATOM     21  C   UNL A   1      35.639  30.509  28.352  1.00  0.00    -0.042 A 
ATOM     22  C   UNL A   1      35.515  29.323  27.602  1.00  0.00     0.006 A 
ATOM     23  C   UNL A   1      34.691  31.514  28.107  1.00  0.00     0.006 A 
ATOM     24  C   UNL A   1      34.425  29.103  26.743  1.00  0.00     0.027 A 
ATOM     25  C   UNL A   1      33.580  31.277  27.293  1.00  0.00     0.027 A 
BRANCH  21  26
ATOM     26  C   UNL A   1      36.771  30.733  29.373  1.00  0.00    -0.013 C 
ATOM     27  C   UNL A   1      37.649  29.468  29.543  1.00  0.00     0.016 C 
ATOM     28  C   UNL A   1      36.145  31.089  30.733  1.00  0.00     0.016 C 
ATOM     29  C   UNL A   1      37.738  31.868  28.964  1.00  0.00     0.016 C 
ENDBRANCH  21  26
ENDBRANCH  18  20
ENDBRANCH  15  18
ENDBRANCH  10  15
ENDBRANCH   7   9
ENDBRANCH   6   7
ENDBRANCH   5   6
ENDBRANCH   4   5
ENDBRANCH   3   4
ENDBRANCH   2   3
ENDBRANCH   1   2
BRANCH   1  30
ATOM     30  O   UNL A   1      41.041  22.293  26.172  1.00  0.00    -0.377 OA
BRANCH  30  31
ATOM     31  C   UNL A   1      42.368  21.772  26.205  1.00  0.00     0.188 C 
BRANCH  31  32
ATOM     32  C   UNL A   1      43.578  22.608  26.692  1.00  0.00     0.188 C 
BRANCH  32  33
ATOM     33  O   UNL A   1      43.284  23.963  26.982  1.00  0.00    -0.376 OA
BRANCH  33  34
ATOM     34  C   UNL A   1      43.459  24.910  25.945  1.00  0.00     0.202 C 
BRANCH  34  35
ATOM     35  C   UNL A   1      42.238  25.200  25.063  1.00  0.00     0.261 C 
BRANCH  35  36
ATOM     36  O   UNL A   1      41.452  26.345  25.426  1.00  0.00    -0.460 OA
BRANCH  36  37
ATOM     37  C   UNL A   1      40.724  26.268  26.559  1.00  0.00     0.338 C 
ATOM     38  O   UNL A   1      40.014  25.343  26.922  1.00  0.00    -0.246 OA
BRANCH  37  39
ATOM     39  C   UNL A   1      41.076  27.434  27.396  1.00  0.00     0.060 A 
ATOM     40  C   UNL A   1      40.537  28.689  27.088  1.00  0.00     0.016 A 
ATOM     41  C   UNL A   1      41.924  27.276  28.493  1.00  0.00     0.016 A 
ATOM     42  C   UNL A   1      40.873  29.802  27.861  1.00  0.00     0.010 A 
ATOM     43  C   UNL A   1      42.278  28.394  29.252  1.00  0.00     0.010 A 
ATOM     44  C   UNL A   1      41.781  29.667  28.919  1.00  0.00    -0.014 A 
BRANCH  44  45
ATOM     45  C   UNL A   1      42.368  30.874  29.551  1.00  0.00     0.031 A 
ATOM     46  C   UNL A   1      41.620  31.516  30.686  1.00  0.00     0.074 A 
ATOM     47  C   UNL A   1      43.539  31.387  29.135  1.00  0.00     0.049 A 
ATOM     48  N   UNL A   1      41.889  32.610  31.351  1.00  0.00    -0.248 NA
ATOM     49  C   UNL A   1      40.395  30.829  31.126  1.00  0.00     0.031 C 
ATOM     50  C   UNL A   1      44.376  30.832  28.075  1.00  0.00     0.029 A 
ATOM     51  N   UNL A   1      44.218  32.504  29.554  1.00  0.00    -0.354 N 
ATOM     52  C   UNL A   1      40.864  32.747  32.278  1.00  0.00     0.074 A 
ATOM     53  C   UNL A   1      39.951  31.645  32.070  1.00  0.00     0.031 C 
ATOM     54  C   UNL A   1      45.453  31.623  27.915  1.00  0.00     0.029 A 
ATOM     55  C   UNL A   1      45.359  32.756  28.834  1.00  0.00     0.049 A 
ATOM     56  H   UNL A   1      43.915  33.072  30.300  1.00  0.00     0.167 HD
ATOM     57  C   UNL A   1      40.703  33.703  33.223  1.00  0.00     0.037 A 
ATOM     58  C   UNL A   1      46.212  33.798  28.896  1.00  0.00     0.037 A 
ATOM     59  C   UNL A   1      41.611  34.802  33.421  1.00  0.00     0.049 A 
ATOM     60  C   UNL A   1      45.967  34.895  29.902  1.00  0.00     0.074 A 
ATOM     61  C   UNL A   1      41.548  35.814  34.362  1.00  0.00     0.029 A 
ATOM     62  N   UNL A   1      42.742  35.039  32.653  1.00  0.00    -0.354 N 
ATOM     63  N   UNL A   1      45.015  35.006  30.796  1.00  0.00    -0.248 NA
ATOM     64  C   UNL A   1      46.923  36.014  29.910  1.00  0.00     0.031 C 
ATOM     65  C   UNL A   1      42.603  36.699  34.122  1.00  0.00     0.029 A 
ATOM     66  C   UNL A   1      43.368  36.200  33.080  1.00  0.00     0.049 A 
ATOM     67  H   UNL A   1      43.054  34.468  31.915  1.00  0.00     0.167 HD
ATOM     68  C   UNL A   1      45.274  36.181  31.494  1.00  0.00     0.074 A 
ATOM     69  C   UNL A   1      46.482  36.742  30.926  1.00  0.00     0.031 C 
ATOM     70  C   UNL A   1      44.578  36.741  32.514  1.00  0.00     0.037 A 
BRANCH  57  71
ATOM     71  C   UNL A   1      39.480  33.621  34.092  1.00  0.00     0.064 A 
ATOM     72  C   UNL A   1      39.481  32.924  35.310  1.00  0.00     0.173 A 
ATOM     73  C   UNL A   1      38.297  34.271  33.710  1.00  0.00     0.173 A 
ATOM     74  F   UNL A   1      40.582  32.272  35.715  1.00  0.00    -0.203 F 
ATOM     75  C   UNL A   1      38.334  32.855  36.096  1.00  0.00     0.198 A 
ATOM     76  C   UNL A   1      37.163  34.230  34.516  1.00  0.00     0.198 A 
ATOM     77  F   UNL A   1      38.241  34.954  32.556  1.00  0.00    -0.203 F 
ATOM     78  F   UNL A   1      38.342  32.137  37.229  1.00  0.00    -0.200 F 
ATOM     79  C   UNL A   1      37.179  33.514  35.703  1.00  0.00     0.200 A 
ATOM     80  F   UNL A   1      36.052  34.880  34.141  1.00  0.00    -0.200 F 
ATOM     81  F   UNL A   1      36.079  33.455  36.466  1.00  0.00    -0.200 F 
ENDBRANCH  57  71
BRANCH  58  82
ATOM     82  C   UNL A   1      47.373  33.867  27.968  1.00  0.00     0.064 A 
ATOM     83  C   UNL A   1      47.265  34.494  26.719  1.00  0.00     0.173 A 
ATOM     84  C   UNL A   1      48.606  33.286  28.299  1.00  0.00     0.173 A 
ATOM     85  F   UNL A   1      46.100  35.040  26.342  1.00  0.00    -0.203 F 
ATOM     86  C   UNL A   1      48.338  34.518  25.829  1.00  0.00     0.198 A 
ATOM     87  C   UNL A   1      49.688  33.339  27.422  1.00  0.00     0.198 A 
ATOM     88  F   UNL A   1      48.762  32.667  29.479  1.00  0.00    -0.203 F 
ATOM     89  F   UNL A   1      48.190  35.077  24.620  1.00  0.00    -0.200 F 
ATOM     90  C   UNL A   1      49.551  33.947  26.184  1.00  0.00     0.200 A 
ATOM     91  F   UNL A   1      50.862  32.796  27.775  1.00  0.00    -0.200 F 
ATOM     92  F   UNL A   1      50.582  33.973  25.330  1.00  0.00    -0.200 F 
ENDBRANCH  58  82
BRANCH  70  93
ATOM     93  C   UNL A   1      45.129  38.000  33.124  1.00  0.00     0.064 A 
ATOM     94  C   UNL A   1      44.722  39.273  32.697  1.00  0.00     0.173 A 
ATOM     95  C   UNL A   1      46.041  37.928  34.188  1.00  0.00     0.173 A 
ATOM     96  F   UNL A   1      43.861  39.400  31.675  1.00  0.00    -0.203 F 
ATOM     97  C   UNL A   1      45.231  40.425  33.292  1.00  0.00     0.198 A 
ATOM     98  C   UNL A   1      46.520  39.081  34.806  1.00  0.00     0.198 A 
ATOM     99  F   UNL A   1      46.456  36.737  34.644  1.00  0.00    -0.203 F 
ATOM    100  F   UNL A   1      44.869  41.630  32.832  1.00  0.00    -0.200 F 
ATOM    101  C   UNL A   1      46.121  40.327  34.351  1.00  0.00     0.200 A 
ATOM    102  F   UNL A   1      47.364  38.983  35.842  1.00  0.00    -0.200 F 
ATOM    103  F   UNL A   1      46.600  41.437  34.930  1.00  0.00    -0.200 F 
ENDBRANCH  70  93
ENDBRANCH  44  45
ENDBRANCH  37  39
ENDBRANCH  36  37
ENDBRANCH  35  36
ENDBRANCH  34  35
ENDBRANCH  33  34
ENDBRANCH  32  33
ENDBRANCH  31  32
ENDBRANCH  30  31
ENDBRANCH   1  30
TORSDOF 24
ENDMDL
