MODEL 1
REMARK VINA RESULT:     -10.0      0.000      0.000
REMARK SMILES C=Cc1cccc(-c2ccc([C@@H](C)C(=O)OCCOCCOCCOCCOC(=O)c3ccc(-c4c5nc(c(-c6c(F)c(F)c(F)c(F)c6F)c6ccc([nH]6)c(-c6c(F)c(F)c(F)c(F)c6F)c6nc(c(-c7c(F)c(F)c(F)c(F)c7F)c7ccc4[nH]7)C=C6)C=C5)cc3)cc2)c1
REMARK SMILES IDX 21 1 20 2 19 3 18 4 17 5 16 6 14 7 15 8 12 9 13 10 11 11
REMARK SMILES IDX 8 12 9 13 95 14 10 15 94 16 7 17 3 18 4 19 96 20 5 21 6 22
REMARK SMILES IDX 2 23 1 24 22 25 23 26 24 27 25 28 26 29 27 30 28 31 29 32
REMARK SMILES IDX 30 33 31 34 32 35 93 36 33 37 92 38 34 39 35 40 36 41 86 42
REMARK SMILES IDX 37 43 91 44 85 45 87 46 38 47 90 48 84 49 83 50 39 52 71 53
REMARK SMILES IDX 51 54 70 55 52 56 55 57 69 58 88 59 53 60 54 61 68 63 89 64
REMARK SMILES IDX 56 65 40 66 41 67 49 68 42 69 43 70 47 71 50 72 44 73 45 74
REMARK SMILES IDX 48 75 46 76 72 77 73 78 81 79 74 80 75 81 79 82 82 83 76 84
REMARK SMILES IDX 77 85 80 86 78 87 57 88 58 89 66 90 59 91 60 92 64 93 67 94
REMARK SMILES IDX 61 95 62 96 65 97 63 98
REMARK H PARENT 87 51 55 62
REMARK Flexibility Score: inf
ROOT
ATOM      1  C   UNL A   1      37.379  22.245  25.180  1.00  0.00     0.188 C 
ENDROOT
BRANCH   1   2
ATOM      2  C   UNL A   1      36.203  21.445  25.760  1.00  0.00     0.188 C 
BRANCH   2   3
ATOM      3  O   UNL A   1      35.051  22.106  26.262  1.00  0.00    -0.376 OA
BRANCH   3   4
ATOM      4  C   UNL A   1      34.133  22.737  25.381  1.00  0.00     0.202 C 
BRANCH   4   5
ATOM      5  C   UNL A   1      33.668  24.191  25.601  1.00  0.00     0.261 C 
BRANCH   5   6
ATOM      6  O   UNL A   1      32.619  24.686  24.743  1.00  0.00    -0.463 OA
BRANCH   6   7
ATOM      7  C   UNL A   1      32.649  26.008  24.461  1.00  0.00     0.313 C 
ATOM      8  O   UNL A   1      33.257  26.476  23.499  1.00  0.00    -0.252 OA
BRANCH   7   9
ATOM      9  C   UNL A   1      31.903  26.924  25.431  1.00  0.00     0.126 C 
ATOM     10  C   UNL A   1      30.551  27.268  24.819  1.00  0.00     0.025 C 
BRANCH   9  11
ATOM     11  C   UNL A   1      32.568  28.162  26.037  1.00  0.00    -0.034 A 
ATOM     12  C   UNL A   1      33.939  30.418  27.166  1.00  0.00    -0.018 A 
ATOM     13  C   UNL A   1      32.563  30.457  26.876  1.00  0.00     0.009 A 
ATOM     14  C   UNL A   1      34.619  29.229  26.879  1.00  0.00     0.009 A 
ATOM     15  C   UNL A   1      31.886  29.350  26.325  1.00  0.00     0.005 A 
ATOM     16  C   UNL A   1      33.947  28.120  26.339  1.00  0.00     0.005 A 
BRANCH  12  17
ATOM     17  C   UNL A   1      34.625  31.553  27.820  1.00  0.00    -0.018 A 
ATOM     18  C   UNL A   1      36.612  32.592  28.829  1.00  0.00    -0.026 A 
ATOM     19  C   UNL A   1      35.846  33.711  29.172  1.00  0.00     0.008 A 
ATOM     20  C   UNL A   1      35.994  31.516  28.164  1.00  0.00     0.016 A 
ATOM     21  C   UNL A   1      34.496  33.770  28.837  1.00  0.00     0.001 A 
ATOM     22  C   UNL A   1      33.895  32.702  28.167  1.00  0.00     0.009 A 
BRANCH  18  23
ATOM     23  C   UNL A   1      38.021  32.575  29.245  1.00  0.00     0.000 C 
ATOM     24  C   UNL A   1      38.454  32.187  30.451  1.00  0.00     0.009 C 
ENDBRANCH  18  23
ENDBRANCH  12  17
ENDBRANCH   9  11
ENDBRANCH   7   9
ENDBRANCH   6   7
ENDBRANCH   5   6
ENDBRANCH   4   5
ENDBRANCH   3   4
ENDBRANCH   2   3
ENDBRANCH   1   2
BRANCH   1  25
ATOM     25  O   UNL A   1      38.427  22.505  26.091  1.00  0.00    -0.377 OA
BRANCH  25  26
ATOM     26  C   UNL A   1      39.472  21.550  26.145  1.00  0.00     0.188 C 
BRANCH  26  27
ATOM     27  C   UNL A   1      40.914  22.082  26.236  1.00  0.00     0.188 C 
BRANCH  27  28
ATOM     28  O   UNL A   1      41.770  21.288  27.048  1.00  0.00    -0.376 OA
BRANCH  28  29
ATOM     29  C   UNL A   1      41.606  19.879  27.052  1.00  0.00     0.202 C 
BRANCH  29  30
ATOM     30  C   UNL A   1      42.632  19.012  26.303  1.00  0.00     0.261 C 
BRANCH  30  31
ATOM     31  O   UNL A   1      42.969  19.395  24.962  1.00  0.00    -0.460 OA
BRANCH  31  32
ATOM     32  C   UNL A   1      44.269  19.500  24.622  1.00  0.00     0.338 C 
ATOM     33  O   UNL A   1      44.973  18.641  24.119  1.00  0.00    -0.246 OA
BRANCH  32  34
ATOM     34  C   UNL A   1      44.659  20.916  24.798  1.00  0.00     0.060 A 
ATOM     35  C   UNL A   1      45.573  21.260  25.806  1.00  0.00     0.016 A 
ATOM     36  C   UNL A   1      44.133  21.897  23.957  1.00  0.00     0.016 A 
ATOM     37  C   UNL A   1      45.932  22.596  26.002  1.00  0.00     0.010 A 
ATOM     38  C   UNL A   1      44.469  23.234  24.171  1.00  0.00     0.010 A 
ATOM     39  C   UNL A   1      45.340  23.594  25.217  1.00  0.00    -0.014 A 
BRANCH  39  40
ATOM     40  C   UNL A   1      45.411  25.019  25.621  1.00  0.00     0.031 A 
ATOM     41  C   UNL A   1      46.756  25.689  25.565  1.00  0.00     0.074 A 
ATOM     42  C   UNL A   1      44.336  25.689  26.071  1.00  0.00     0.049 A 
ATOM     43  N   UNL A   1      47.135  26.846  26.042  1.00  0.00    -0.248 NA
ATOM     44  C   UNL A   1      47.824  24.938  24.886  1.00  0.00     0.031 C 
ATOM     45  C   UNL A   1      42.972  25.174  26.112  1.00  0.00     0.029 A 
ATOM     46  N   UNL A   1      44.240  26.949  26.611  1.00  0.00    -0.354 N 
ATOM     47  C   UNL A   1      48.487  26.946  25.745  1.00  0.00     0.074 A 
ATOM     48  C   UNL A   1      48.869  25.730  25.065  1.00  0.00     0.031 C 
ATOM     49  C   UNL A   1      42.176  26.098  26.679  1.00  0.00     0.029 A 
ATOM     50  C   UNL A   1      42.986  27.247  27.086  1.00  0.00     0.049 A 
ATOM     51  H   UNL A   1      44.997  27.577  26.653  1.00  0.00     0.167 HD
ATOM     52  C   UNL A   1      49.335  27.965  26.018  1.00  0.00     0.037 A 
ATOM     53  C   UNL A   1      42.560  28.305  27.805  1.00  0.00     0.037 A 
ATOM     54  C   UNL A   1      48.947  29.170  26.700  1.00  0.00     0.049 A 
ATOM     55  C   UNL A   1      43.544  29.387  28.183  1.00  0.00     0.074 A 
ATOM     56  C   UNL A   1      49.725  30.267  27.021  1.00  0.00     0.029 A 
ATOM     57  N   UNL A   1      47.670  29.428  27.176  1.00  0.00    -0.354 N 
ATOM     58  N   UNL A   1      44.820  29.485  27.898  1.00  0.00    -0.248 NA
ATOM     59  C   UNL A   1      43.029  30.506  28.990  1.00  0.00     0.031 C 
ATOM     60  C   UNL A   1      48.935  31.161  27.747  1.00  0.00     0.029 A 
ATOM     61  C   UNL A   1      47.645  30.657  27.812  1.00  0.00     0.049 A 
ATOM     62  H   UNL A   1      46.897  28.826  27.077  1.00  0.00     0.167 HD
ATOM     63  C   UNL A   1      45.247  30.690  28.446  1.00  0.00     0.074 A 
ATOM     64  C   UNL A   1      44.096  31.287  29.086  1.00  0.00     0.031 C 
ATOM     65  C   UNL A   1      46.480  31.253  28.413  1.00  0.00     0.037 A 
BRANCH  52  66
ATOM     66  C   UNL A   1      50.772  27.801  25.617  1.00  0.00     0.064 A 
ATOM     67  C   UNL A   1      51.208  28.041  24.305  1.00  0.00     0.173 A 
ATOM     68  C   UNL A   1      51.733  27.423  26.568  1.00  0.00     0.173 A 
ATOM     69  F   UNL A   1      50.328  28.389  23.354  1.00  0.00    -0.203 F 
ATOM     70  C   UNL A   1      52.546  27.880  23.955  1.00  0.00     0.198 A 
ATOM     71  C   UNL A   1      53.075  27.299  26.223  1.00  0.00     0.198 A 
ATOM     72  F   UNL A   1      51.371  27.184  27.838  1.00  0.00    -0.203 F 
ATOM     73  F   UNL A   1      52.930  28.062  22.684  1.00  0.00    -0.200 F 
ATOM     74  C   UNL A   1      53.479  27.519  24.914  1.00  0.00     0.200 A 
ATOM     75  F   UNL A   1      53.977  26.964  27.156  1.00  0.00    -0.200 F 
ATOM     76  F   UNL A   1      54.768  27.373  24.578  1.00  0.00    -0.200 F 
ENDBRANCH  52  66
BRANCH  53  77
ATOM     77  C   UNL A   1      41.141  28.388  28.244  1.00  0.00     0.064 A 
ATOM     78  C   UNL A   1      40.157  28.934  27.407  1.00  0.00     0.173 A 
ATOM     79  C   UNL A   1      40.741  27.954  29.517  1.00  0.00     0.173 A 
ATOM     80  F   UNL A   1      40.492  29.391  26.191  1.00  0.00    -0.203 F 
ATOM     81  C   UNL A   1      38.837  29.064  27.833  1.00  0.00     0.198 A 
ATOM     82  C   UNL A   1      39.413  28.054  29.931  1.00  0.00     0.198 A 
ATOM     83  F   UNL A   1      41.640  27.427  30.361  1.00  0.00    -0.203 F 
ATOM     84  F   UNL A   1      37.930  29.641  27.033  1.00  0.00    -0.200 F 
ATOM     85  C   UNL A   1      38.464  28.617  29.092  1.00  0.00     0.200 A 
ATOM     86  F   UNL A   1      39.057  27.610  31.144  1.00  0.00    -0.200 F 
ATOM     87  F   UNL A   1      37.194  28.741  29.501  1.00  0.00    -0.200 F 
ENDBRANCH  53  77
BRANCH  65  88
ATOM     88  C   UNL A   1      46.650  32.620  29.013  1.00  0.00     0.064 A 
ATOM     89  C   UNL A   1      47.078  32.805  30.334  1.00  0.00     0.173 A 
ATOM     90  C   UNL A   1      46.480  33.760  28.211  1.00  0.00     0.173 A 
ATOM     91  F   UNL A   1      47.243  31.750  31.145  1.00  0.00    -0.203 F 
ATOM     92  C   UNL A   1      47.324  34.082  30.833  1.00  0.00     0.198 A 
ATOM     93  C   UNL A   1      46.758  35.032  28.702  1.00  0.00     0.198 A 
ATOM     94  F   UNL A   1      46.081  33.636  26.936  1.00  0.00    -0.203 F 
ATOM     95  F   UNL A   1      47.706  34.240  32.107  1.00  0.00    -0.200 F 
ATOM     96  C   UNL A   1      47.177  35.192  30.013  1.00  0.00     0.200 A 
ATOM     97  F   UNL A   1      46.636  36.100  27.901  1.00  0.00    -0.200 F 
ATOM     98  F   UNL A   1      47.442  36.418  30.488  1.00  0.00    -0.200 F 
ENDBRANCH  65  88
ENDBRANCH  39  40
ENDBRANCH  32  34
ENDBRANCH  31  32
ENDBRANCH  30  31
ENDBRANCH  29  30
ENDBRANCH  28  29
ENDBRANCH  27  28
ENDBRANCH  26  27
ENDBRANCH  25  26
ENDBRANCH   1  25
TORSDOF 23
ENDMDL
MODEL 2
REMARK VINA RESULT:      -9.1      5.302     10.938
REMARK SMILES C=Cc1cccc(-c2ccc([C@@H](C)C(=O)OCCOCCOCCOCCOC(=O)c3ccc(-c4c5nc(c(-c6c(F)c(F)c(F)c(F)c6F)c6ccc([nH]6)c(-c6c(F)c(F)c(F)c(F)c6F)c6nc(c(-c7c(F)c(F)c(F)c(F)c7F)c7ccc4[nH]7)C=C6)C=C5)cc3)cc2)c1
REMARK SMILES IDX 21 1 20 2 19 3 18 4 17 5 16 6 14 7 15 8 12 9 13 10 11 11
REMARK SMILES IDX 8 12 9 13 95 14 10 15 94 16 7 17 3 18 4 19 96 20 5 21 6 22
REMARK SMILES IDX 2 23 1 24 22 25 23 26 24 27 25 28 26 29 27 30 28 31 29 32
REMARK SMILES IDX 30 33 31 34 32 35 93 36 33 37 92 38 34 39 35 40 36 41 86 42
REMARK SMILES IDX 37 43 91 44 85 45 87 46 38 47 90 48 84 49 83 50 39 52 71 53
REMARK SMILES IDX 51 54 70 55 52 56 55 57 69 58 88 59 53 60 54 61 68 63 89 64
REMARK SMILES IDX 56 65 40 66 41 67 49 68 42 69 43 70 47 71 50 72 44 73 45 74
REMARK SMILES IDX 48 75 46 76 72 77 73 78 81 79 74 80 75 81 79 82 82 83 76 84
REMARK SMILES IDX 77 85 80 86 78 87 57 88 58 89 66 90 59 91 60 92 64 93 67 94
REMARK SMILES IDX 61 95 62 96 65 97 63 98
REMARK H PARENT 87 51 55 62
REMARK Flexibility Score: inf
ROOT
ATOM      1  C   UNL A   1      51.028  26.929  27.190  1.00  0.00     0.188 C 
ENDROOT
BRANCH   1   2
ATOM      2  C   UNL A   1      49.933  26.259  26.349  1.00  0.00     0.188 C 
BRANCH   2   3
ATOM      3  O   UNL A   1      49.994  26.275  24.930  1.00  0.00    -0.376 OA
BRANCH   3   4
ATOM      4  C   UNL A   1      48.807  26.294  24.152  1.00  0.00     0.202 C 
BRANCH   4   5
ATOM      5  C   UNL A   1      47.913  27.548  24.068  1.00  0.00     0.261 C 
BRANCH   5   6
ATOM      6  O   UNL A   1      46.699  27.548  24.848  1.00  0.00    -0.463 OA
BRANCH   6   7
ATOM      7  C   UNL A   1      46.578  28.532  25.766  1.00  0.00     0.313 C 
ATOM      8  O   UNL A   1      46.451  29.720  25.467  1.00  0.00    -0.252 OA
BRANCH   7   9
ATOM      9  C   UNL A   1      46.638  28.102  27.232  1.00  0.00     0.126 C 
ATOM     10  C   UNL A   1      46.232  26.636  27.317  1.00  0.00     0.025 C 
BRANCH   9  11
ATOM     11  C   UNL A   1      45.975  28.926  28.338  1.00  0.00    -0.034 A 
ATOM     12  C   UNL A   1      44.628  30.507  30.321  1.00  0.00    -0.018 A 
ATOM     13  C   UNL A   1      45.765  29.741  30.632  1.00  0.00     0.009 A 
ATOM     14  C   UNL A   1      44.173  30.466  28.998  1.00  0.00     0.009 A 
ATOM     15  C   UNL A   1      46.431  28.966  29.660  1.00  0.00     0.005 A 
ATOM     16  C   UNL A   1      44.839  29.704  28.024  1.00  0.00     0.005 A 
BRANCH  12  17
ATOM     17  C   UNL A   1      43.984  31.381  31.324  1.00  0.00    -0.018 A 
ATOM     18  C   UNL A   1      43.884  32.410  33.555  1.00  0.00    -0.026 A 
ATOM     19  C   UNL A   1      42.644  32.972  33.235  1.00  0.00     0.008 A 
ATOM     20  C   UNL A   1      44.541  31.610  32.601  1.00  0.00     0.016 A 
ATOM     21  C   UNL A   1      42.080  32.764  31.978  1.00  0.00     0.001 A 
ATOM     22  C   UNL A   1      42.745  31.978  31.035  1.00  0.00     0.009 A 
BRANCH  18  23
ATOM     23  C   UNL A   1      44.406  32.634  34.910  1.00  0.00     0.000 C 
ATOM     24  C   UNL A   1      43.685  33.103  35.936  1.00  0.00     0.009 C 
ENDBRANCH  18  23
ENDBRANCH  12  17
ENDBRANCH   9  11
ENDBRANCH   7   9
ENDBRANCH   6   7
ENDBRANCH   5   6
ENDBRANCH   4   5
ENDBRANCH   3   4
ENDBRANCH   2   3
ENDBRANCH   1   2
BRANCH   1  25
ATOM     25  O   UNL A   1      50.579  27.508  28.399  1.00  0.00    -0.377 OA
BRANCH  25  26
ATOM     26  C   UNL A   1      51.558  28.150  29.197  1.00  0.00     0.188 C 
BRANCH  26  27
ATOM     27  C   UNL A   1      51.748  27.633  30.635  1.00  0.00     0.188 C 
BRANCH  27  28
ATOM     28  O   UNL A   1      50.568  27.085  31.209  1.00  0.00    -0.376 OA
BRANCH  28  29
ATOM     29  C   UNL A   1      50.648  25.851  31.905  1.00  0.00     0.202 C 
BRANCH  29  30
ATOM     30  C   UNL A   1      49.488  25.447  32.831  1.00  0.00     0.261 C 
BRANCH  30  31
ATOM     31  O   UNL A   1      49.059  26.403  33.810  1.00  0.00    -0.460 OA
BRANCH  31  32
ATOM     32  C   UNL A   1      48.232  25.999  34.795  1.00  0.00     0.338 C 
ATOM     33  O   UNL A   1      48.525  25.358  35.789  1.00  0.00    -0.246 OA
BRANCH  32  34
ATOM     34  C   UNL A   1      46.917  26.632  34.556  1.00  0.00     0.060 A 
ATOM     35  C   UNL A   1      45.747  25.961  34.943  1.00  0.00     0.016 A 
ATOM     36  C   UNL A   1      46.844  27.894  33.963  1.00  0.00     0.016 A 
ATOM     37  C   UNL A   1      44.496  26.534  34.700  1.00  0.00     0.010 A 
ATOM     38  C   UNL A   1      45.594  28.452  33.695  1.00  0.00     0.010 A 
ATOM     39  C   UNL A   1      44.415  27.759  34.028  1.00  0.00    -0.014 A 
BRANCH  39  40
ATOM     40  C   UNL A   1      43.134  28.218  33.438  1.00  0.00     0.031 A 
ATOM     41  C   UNL A   1      42.852  27.836  32.012  1.00  0.00     0.074 A 
ATOM     42  C   UNL A   1      42.268  28.989  34.120  1.00  0.00     0.049 A 
ATOM     43  N   UNL A   1      41.921  28.264  31.199  1.00  0.00    -0.248 NA
ATOM     44  C   UNL A   1      43.761  26.843  31.417  1.00  0.00     0.031 C 
ATOM     45  C   UNL A   1      42.395  29.371  35.521  1.00  0.00     0.029 A 
ATOM     46  N   UNL A   1      41.119  29.614  33.698  1.00  0.00    -0.354 N 
ATOM     47  C   UNL A   1      42.149  27.612  29.995  1.00  0.00     0.074 A 
ATOM     48  C   UNL A   1      43.315  26.777  30.173  1.00  0.00     0.031 C 
ATOM     49  C   UNL A   1      41.379  30.194  35.840  1.00  0.00     0.029 A 
ATOM     50  C   UNL A   1      40.563  30.434  34.650  1.00  0.00     0.049 A 
ATOM     51  H   UNL A   1      40.732  29.486  32.803  1.00  0.00     0.167 HD
ATOM     52  C   UNL A   1      41.448  27.706  28.841  1.00  0.00     0.037 A 
ATOM     53  C   UNL A   1      39.542  31.309  34.550  1.00  0.00     0.037 A 
ATOM     54  C   UNL A   1      40.292  28.544  28.672  1.00  0.00     0.049 A 
ATOM     55  C   UNL A   1      38.831  31.470  33.226  1.00  0.00     0.074 A 
ATOM     56  C   UNL A   1      39.503  28.707  27.548  1.00  0.00     0.029 A 
ATOM     57  N   UNL A   1      39.768  29.369  29.657  1.00  0.00    -0.354 N 
ATOM     58  N   UNL A   1      39.043  30.851  32.091  1.00  0.00    -0.248 NA
ATOM     59  C   UNL A   1      37.741  32.457  33.170  1.00  0.00     0.031 C 
ATOM     60  C   UNL A   1      38.541  29.679  27.831  1.00  0.00     0.029 A 
ATOM     61  C   UNL A   1      38.680  30.064  29.156  1.00  0.00     0.049 A 
ATOM     62  H   UNL A   1      40.117  29.448  30.573  1.00  0.00     0.167 HD
ATOM     63  C   UNL A   1      38.089  31.335  31.203  1.00  0.00     0.074 A 
ATOM     64  C   UNL A   1      37.299  32.305  31.929  1.00  0.00     0.031 C 
ATOM     65  C   UNL A   1      37.882  31.000  29.906  1.00  0.00     0.037 A 
BRANCH  52  66
ATOM     66  C   UNL A   1      41.936  26.915  27.664  1.00  0.00     0.064 A 
ATOM     67  C   UNL A   1      42.575  27.524  26.573  1.00  0.00     0.173 A 
ATOM     68  C   UNL A   1      41.786  25.519  27.639  1.00  0.00     0.173 A 
ATOM     69  F   UNL A   1      42.730  28.857  26.539  1.00  0.00    -0.203 F 
ATOM     70  C   UNL A   1      43.019  26.769  25.490  1.00  0.00     0.198 A 
ATOM     71  C   UNL A   1      42.264  24.764  26.571  1.00  0.00     0.198 A 
ATOM     72  F   UNL A   1      41.185  24.885  28.657  1.00  0.00    -0.203 F 
ATOM     73  F   UNL A   1      43.577  27.380  24.436  1.00  0.00    -0.200 F 
ATOM     74  C   UNL A   1      42.871  25.391  25.493  1.00  0.00     0.200 A 
ATOM     75  F   UNL A   1      42.132  23.431  26.584  1.00  0.00    -0.200 F 
ATOM     76  F   UNL A   1      43.306  24.666  24.455  1.00  0.00    -0.200 F 
ENDBRANCH  52  66
BRANCH  53  77
ATOM     77  C   UNL A   1      39.140  32.127  35.727  1.00  0.00     0.064 A 
ATOM     78  C   UNL A   1      38.281  31.609  36.707  1.00  0.00     0.173 A 
ATOM     79  C   UNL A   1      39.578  33.450  35.884  1.00  0.00     0.173 A 
ATOM     80  F   UNL A   1      37.809  30.358  36.589  1.00  0.00    -0.203 F 
ATOM     81  C   UNL A   1      37.858  32.387  37.782  1.00  0.00     0.198 A 
ATOM     82  C   UNL A   1      39.182  34.219  36.977  1.00  0.00     0.198 A 
ATOM     83  F   UNL A   1      40.398  33.999  34.975  1.00  0.00    -0.203 F 
ATOM     84  F   UNL A   1      36.992  31.884  38.672  1.00  0.00    -0.200 F 
ATOM     85  C   UNL A   1      38.315  33.689  37.921  1.00  0.00     0.200 A 
ATOM     86  F   UNL A   1      39.636  35.472  37.112  1.00  0.00    -0.200 F 
ATOM     87  F   UNL A   1      37.910  34.438  38.956  1.00  0.00    -0.200 F 
ENDBRANCH  53  77
BRANCH  65  88
ATOM     88  C   UNL A   1      36.711  31.616  29.193  1.00  0.00     0.064 A 
ATOM     89  C   UNL A   1      35.572  30.875  28.853  1.00  0.00     0.173 A 
ATOM     90  C   UNL A   1      36.694  32.998  28.946  1.00  0.00     0.173 A 
ATOM     91  F   UNL A   1      35.543  29.549  29.058  1.00  0.00    -0.203 F 
ATOM     92  C   UNL A   1      34.462  31.493  28.284  1.00  0.00     0.198 A 
ATOM     93  C   UNL A   1      35.570  33.618  28.408  1.00  0.00     0.198 A 
ATOM     94  F   UNL A   1      37.756  33.755  29.263  1.00  0.00    -0.203 F 
ATOM     95  F   UNL A   1      33.393  30.760  27.940  1.00  0.00    -0.200 F 
ATOM     96  C   UNL A   1      34.456  32.864  28.075  1.00  0.00     0.200 A 
ATOM     97  F   UNL A   1      35.560  34.946  28.227  1.00  0.00    -0.200 F 
ATOM     98  F   UNL A   1      33.374  33.460  27.554  1.00  0.00    -0.200 F 
ENDBRANCH  65  88
ENDBRANCH  39  40
ENDBRANCH  32  34
ENDBRANCH  31  32
ENDBRANCH  30  31
ENDBRANCH  29  30
ENDBRANCH  28  29
ENDBRANCH  27  28
ENDBRANCH  26  27
ENDBRANCH  25  26
ENDBRANCH   1  25
TORSDOF 23
ENDMDL
MODEL 3
REMARK VINA RESULT:      -9.1      5.474     10.682
REMARK SMILES C=Cc1cccc(-c2ccc([C@@H](C)C(=O)OCCOCCOCCOCCOC(=O)c3ccc(-c4c5nc(c(-c6c(F)c(F)c(F)c(F)c6F)c6ccc([nH]6)c(-c6c(F)c(F)c(F)c(F)c6F)c6nc(c(-c7c(F)c(F)c(F)c(F)c7F)c7ccc4[nH]7)C=C6)C=C5)cc3)cc2)c1
REMARK SMILES IDX 21 1 20 2 19 3 18 4 17 5 16 6 14 7 15 8 12 9 13 10 11 11
REMARK SMILES IDX 8 12 9 13 95 14 10 15 94 16 7 17 3 18 4 19 96 20 5 21 6 22
REMARK SMILES IDX 2 23 1 24 22 25 23 26 24 27 25 28 26 29 27 30 28 31 29 32
REMARK SMILES IDX 30 33 31 34 32 35 93 36 33 37 92 38 34 39 35 40 36 41 86 42
REMARK SMILES IDX 37 43 91 44 85 45 87 46 38 47 90 48 84 49 83 50 39 52 71 53
REMARK SMILES IDX 51 54 70 55 52 56 55 57 69 58 88 59 53 60 54 61 68 63 89 64
REMARK SMILES IDX 56 65 40 66 41 67 49 68 42 69 43 70 47 71 50 72 44 73 45 74
REMARK SMILES IDX 48 75 46 76 72 77 73 78 81 79 74 80 75 81 79 82 82 83 76 84
REMARK SMILES IDX 77 85 80 86 78 87 57 88 58 89 66 90 59 91 60 92 64 93 67 94
REMARK SMILES IDX 61 95 62 96 65 97 63 98
REMARK H PARENT 87 51 55 62
REMARK Flexibility Score: inf
ROOT
ATOM      1  C   UNL A   1      43.552  38.261  33.285  1.00  0.00     0.188 C 
ENDROOT
BRANCH   1   2
ATOM      2  C   UNL A   1      43.283  36.752  33.363  1.00  0.00     0.188 C 
BRANCH   2   3
ATOM      3  O   UNL A   1      42.386  36.222  34.328  1.00  0.00    -0.376 OA
BRANCH   3   4
ATOM      4  C   UNL A   1      41.621  35.059  34.048  1.00  0.00     0.202 C 
BRANCH   4   5
ATOM      5  C   UNL A   1      41.747  33.781  34.902  1.00  0.00     0.261 C 
BRANCH   5   6
ATOM      6  O   UNL A   1      41.209  32.561  34.350  1.00  0.00    -0.463 OA
BRANCH   6   7
ATOM      7  C   UNL A   1      40.205  31.981  35.045  1.00  0.00     0.313 C 
ATOM      8  O   UNL A   1      40.122  30.765  35.218  1.00  0.00    -0.252 OA
BRANCH   7   9
ATOM      9  C   UNL A   1      39.131  32.920  35.595  1.00  0.00     0.126 C 
ATOM     10  C   UNL A   1      38.563  32.303  36.867  1.00  0.00     0.025 C 
BRANCH   9  11
ATOM     11  C   UNL A   1      38.018  33.476  34.704  1.00  0.00    -0.034 A 
ATOM     12  C   UNL A   1      35.845  34.525  33.147  1.00  0.00    -0.018 A 
ATOM     13  C   UNL A   1      37.114  34.294  32.587  1.00  0.00     0.009 A 
ATOM     14  C   UNL A   1      35.682  34.223  34.504  1.00  0.00     0.009 A 
ATOM     15  C   UNL A   1      38.182  33.776  33.347  1.00  0.00     0.005 A 
ATOM     16  C   UNL A   1      36.740  33.697  35.263  1.00  0.00     0.005 A 
BRANCH  12  17
ATOM     17  C   UNL A   1      34.707  34.990  32.325  1.00  0.00    -0.018 A 
ATOM     18  C   UNL A   1      33.508  35.160  30.186  1.00  0.00    -0.026 A 
ATOM     19  C   UNL A   1      32.569  36.006  30.786  1.00  0.00     0.008 A 
ATOM     20  C   UNL A   1      34.576  34.666  30.958  1.00  0.00     0.016 A 
ATOM     21  C   UNL A   1      32.677  36.334  32.135  1.00  0.00     0.001 A 
ATOM     22  C   UNL A   1      33.734  35.828  32.894  1.00  0.00     0.009 A 
BRANCH  18  23
ATOM     23  C   UNL A   1      33.360  34.885  28.750  1.00  0.00     0.000 C 
ATOM     24  C   UNL A   1      33.674  33.724  28.162  1.00  0.00     0.009 C 
ENDBRANCH  18  23
ENDBRANCH  12  17
ENDBRANCH   9  11
ENDBRANCH   7   9
ENDBRANCH   6   7
ENDBRANCH   5   6
ENDBRANCH   4   5
ENDBRANCH   3   4
ENDBRANCH   2   3
ENDBRANCH   1   2
BRANCH   1  25
ATOM     25  O   UNL A   1      44.794  38.673  33.818  1.00  0.00    -0.377 OA
BRANCH  25  26
ATOM     26  C   UNL A   1      45.778  39.085  32.887  1.00  0.00     0.188 C 
BRANCH  26  27
ATOM     27  C   UNL A   1      45.443  40.290  31.989  1.00  0.00     0.188 C 
BRANCH  27  28
ATOM     28  O   UNL A   1      45.445  39.990  30.599  1.00  0.00    -0.376 OA
BRANCH  28  29
ATOM     29  C   UNL A   1      46.322  38.988  30.110  1.00  0.00     0.202 C 
BRANCH  29  30
ATOM     30  C   UNL A   1      45.771  37.931  29.137  1.00  0.00     0.261 C 
BRANCH  30  31
ATOM     31  O   UNL A   1      46.425  37.795  27.868  1.00  0.00    -0.460 OA
BRANCH  31  32
ATOM     32  C   UNL A   1      47.212  36.722  27.654  1.00  0.00     0.338 C 
ATOM     33  O   UNL A   1      48.408  36.717  27.418  1.00  0.00    -0.246 OA
BRANCH  32  34
ATOM     34  C   UNL A   1      46.403  35.516  27.938  1.00  0.00     0.060 A 
ATOM     35  C   UNL A   1      46.671  34.760  29.090  1.00  0.00     0.016 A 
ATOM     36  C   UNL A   1      45.372  35.145  27.074  1.00  0.00     0.016 A 
ATOM     37  C   UNL A   1      45.933  33.605  29.359  1.00  0.00     0.010 A 
ATOM     38  C   UNL A   1      44.654  33.975  27.328  1.00  0.00     0.010 A 
ATOM     39  C   UNL A   1      44.956  33.181  28.450  1.00  0.00    -0.014 A 
BRANCH  39  40
ATOM     40  C   UNL A   1      44.415  31.801  28.506  1.00  0.00     0.031 A 
ATOM     41  C   UNL A   1      45.173  30.729  27.773  1.00  0.00     0.074 A 
ATOM     42  C   UNL A   1      43.266  31.509  29.140  1.00  0.00     0.049 A 
ATOM     43  N   UNL A   1      44.825  29.500  27.493  1.00  0.00    -0.248 NA
ATOM     44  C   UNL A   1      46.505  31.107  27.274  1.00  0.00     0.031 C 
ATOM     45  C   UNL A   1      42.476  32.440  29.937  1.00  0.00     0.029 A 
ATOM     46  N   UNL A   1      42.550  30.336  29.179  1.00  0.00    -0.354 N 
ATOM     47  C   UNL A   1      45.882  28.970  26.765  1.00  0.00     0.074 A 
ATOM     48  C   UNL A   1      46.873  30.012  26.629  1.00  0.00     0.031 C 
ATOM     49  C   UNL A   1      41.365  31.813  30.363  1.00  0.00     0.029 A 
ATOM     50  C   UNL A   1      41.343  30.453  29.824  1.00  0.00     0.049 A 
ATOM     51  H   UNL A   1      42.872  29.494  28.783  1.00  0.00     0.167 HD
ATOM     52  C   UNL A   1      46.009  27.723  26.254  1.00  0.00     0.037 A 
ATOM     53  C   UNL A   1      40.325  29.575  29.925  1.00  0.00     0.037 A 
ATOM     54  C   UNL A   1      45.014  26.695  26.391  1.00  0.00     0.049 A 
ATOM     55  C   UNL A   1      40.448  28.221  29.266  1.00  0.00     0.074 A 
ATOM     56  C   UNL A   1      45.046  25.396  25.919  1.00  0.00     0.029 A 
ATOM     57  N   UNL A   1      43.800  26.858  27.042  1.00  0.00    -0.354 N 
ATOM     58  N   UNL A   1      41.448  27.718  28.583  1.00  0.00    -0.248 NA
ATOM     59  C   UNL A   1      39.296  27.312  29.387  1.00  0.00     0.031 C 
ATOM     60  C   UNL A   1      43.826  24.792  26.227  1.00  0.00     0.029 A 
ATOM     61  C   UNL A   1      43.063  25.688  26.960  1.00  0.00     0.049 A 
ATOM     62  H   UNL A   1      43.506  27.682  27.494  1.00  0.00     0.167 HD
ATOM     63  C   UNL A   1      41.068  26.426  28.236  1.00  0.00     0.074 A 
ATOM     64  C   UNL A   1      39.742  26.222  28.778  1.00  0.00     0.031 C 
ATOM     65  C   UNL A   1      41.758  25.492  27.538  1.00  0.00     0.037 A 
BRANCH  52  66
ATOM     66  C   UNL A   1      47.249  27.419  25.467  1.00  0.00     0.064 A 
ATOM     67  C   UNL A   1      47.349  27.708  24.097  1.00  0.00     0.173 A 
ATOM     68  C   UNL A   1      48.367  26.851  26.099  1.00  0.00     0.173 A 
ATOM     69  F   UNL A   1      46.305  28.236  23.441  1.00  0.00    -0.203 F 
ATOM     70  C   UNL A   1      48.510  27.415  23.386  1.00  0.00     0.198 A 
ATOM     71  C   UNL A   1      49.538  26.593  25.393  1.00  0.00     0.198 A 
ATOM     72  F   UNL A   1      48.326  26.556  27.408  1.00  0.00    -0.203 F 
ATOM     73  F   UNL A   1      48.562  27.650  22.068  1.00  0.00    -0.200 F 
ATOM     74  C   UNL A   1      49.605  26.866  24.035  1.00  0.00     0.200 A 
ATOM     75  F   UNL A   1      50.599  26.076  26.027  1.00  0.00    -0.200 F 
ATOM     76  F   UNL A   1      50.724  26.592  23.352  1.00  0.00    -0.200 F 
ENDBRANCH  52  66
BRANCH  53  77
ATOM     77  C   UNL A   1      39.083  29.950  30.655  1.00  0.00     0.064 A 
ATOM     78  C   UNL A   1      38.050  30.647  30.011  1.00  0.00     0.173 A 
ATOM     79  C   UNL A   1      38.914  29.650  32.015  1.00  0.00     0.173 A 
ATOM     80  F   UNL A   1      38.175  30.984  28.719  1.00  0.00    -0.203 F 
ATOM     81  C   UNL A   1      36.909  31.047  30.703  1.00  0.00     0.198 A 
ATOM     82  C   UNL A   1      37.757  30.021  32.698  1.00  0.00     0.198 A 
ATOM     83  F   UNL A   1      39.871  28.988  32.682  1.00  0.00    -0.203 F 
ATOM     84  F   UNL A   1      35.964  31.761  30.076  1.00  0.00    -0.200 F 
ATOM     85  C   UNL A   1      36.760  30.728  32.044  1.00  0.00     0.200 A 
ATOM     86  F   UNL A   1      37.613  29.700  33.991  1.00  0.00    -0.200 F 
ATOM     87  F   UNL A   1      35.662  31.113  32.709  1.00  0.00    -0.200 F 
ENDBRANCH  53  77
BRANCH  65  88
ATOM     88  C   UNL A   1      41.144  24.129  27.379  1.00  0.00     0.064 A 
ATOM     89  C   UNL A   1      40.064  23.896  26.518  1.00  0.00     0.173 A 
ATOM     90  C   UNL A   1      41.723  23.024  28.023  1.00  0.00     0.173 A 
ATOM     91  F   UNL A   1      39.469  24.920  25.888  1.00  0.00    -0.203 F 
ATOM     92  C   UNL A   1      39.579  22.606  26.314  1.00  0.00     0.198 A 
ATOM     93  C   UNL A   1      41.257  21.733  27.792  1.00  0.00     0.198 A 
ATOM     94  F   UNL A   1      42.766  23.193  28.850  1.00  0.00    -0.203 F 
ATOM     95  F   UNL A   1      38.527  22.407  25.508  1.00  0.00    -0.200 F 
ATOM     96  C   UNL A   1      40.185  21.525  26.939  1.00  0.00     0.200 A 
ATOM     97  F   UNL A   1      41.858  20.690  28.381  1.00  0.00    -0.200 F 
ATOM     98  F   UNL A   1      39.734  20.282  26.719  1.00  0.00    -0.200 F 
ENDBRANCH  65  88
ENDBRANCH  39  40
ENDBRANCH  32  34
ENDBRANCH  31  32
ENDBRANCH  30  31
ENDBRANCH  29  30
ENDBRANCH  28  29
ENDBRANCH  27  28
ENDBRANCH  26  27
ENDBRANCH  25  26
ENDBRANCH   1  25
TORSDOF 23
ENDMDL
