MODEL 1
REMARK VINA RESULT:     -10.2      0.000      0.000
REMARK SMILES CC[C@H]([NH2+]C1c2ccccc2-c2ccccc21)C(=O)OCCOCCOCCOCCOC(=O)c1ccc(-c2c3nc(c(-c4c(F)c(F)c(F)c(F)c4F)c4ccc([nH]4)c(-c4c(F)c(F)c(F)c(F)c4F)c4nc(c(-c5c(F)c(F)c(F)c(F)c5F)c5ccc2[nH]5)C=C4)C=C3)cc1
REMARK SMILES IDX 26 1 25 2 24 3 23 4 22 5 21 6 20 7 18 8 19 9 3 10 2 11 1 12
REMARK SMILES IDX 4 13 5 16 6 17 17 18 7 19 11 20 12 21 16 22 8 23 10 24 13 25
REMARK SMILES IDX 15 26 9 27 14 28 27 29 28 30 29 31 30 32 31 33 32 34 33 35
REMARK SMILES IDX 34 36 35 37 36 38 97 39 37 40 96 41 38 42 39 43 40 44 90 45
REMARK SMILES IDX 41 46 95 47 89 48 91 49 42 50 94 51 88 52 87 53 43 55 75 56
REMARK SMILES IDX 55 57 74 58 56 59 59 60 73 61 92 62 57 63 58 64 72 66 93 67
REMARK SMILES IDX 60 68 44 69 45 70 53 71 46 72 47 73 51 74 54 75 48 76 49 77
REMARK SMILES IDX 52 78 50 79 76 80 77 81 85 82 78 83 79 84 83 85 86 86 80 87
REMARK SMILES IDX 81 88 84 89 82 90 61 91 62 92 70 93 63 94 64 95 68 96 71 97
REMARK SMILES IDX 65 98 66 99 69 100 67 101
REMARK H PARENT 4 14 4 15 91 54 59 65
REMARK Flexibility Score: inf
ROOT
ATOM      1  O   UNL A   1      29.736  27.694  23.549  1.00  0.00    -0.377 OA
ENDROOT
BRANCH   1   2
ATOM      2  C   UNL A   1      30.022  26.668  24.479  1.00  0.00     0.188 C 
BRANCH   2   3
ATOM      3  C   UNL A   1      30.743  25.456  23.873  1.00  0.00     0.188 C 
BRANCH   3   4
ATOM      4  O   UNL A   1      30.969  25.361  22.477  1.00  0.00    -0.376 OA
BRANCH   4   5
ATOM      5  C   UNL A   1      32.256  25.294  21.882  1.00  0.00     0.202 C 
BRANCH   5   6
ATOM      6  C   UNL A   1      33.531  25.991  22.388  1.00  0.00     0.261 C 
BRANCH   6   7
ATOM      7  O   UNL A   1      34.171  25.428  23.531  1.00  0.00    -0.459 OA
BRANCH   7   8
ATOM      8  C   UNL A   1      34.395  24.089  23.447  1.00  0.00     0.364 C 
ATOM      9  O   UNL A   1      35.273  23.591  22.748  1.00  0.00    -0.245 OA
BRANCH   8  10
ATOM     10  C   UNL A   1      33.504  23.270  24.420  1.00  0.00     0.293 C 
BRANCH  10  11
ATOM     11  C   UNL A   1      33.610  23.977  25.781  1.00  0.00     0.074 C 
ATOM     12  C   UNL A   1      32.448  23.728  26.720  1.00  0.00     0.011 C 
ENDBRANCH  10  11
BRANCH  10  13
ATOM     13  N   UNL A   1      33.646  21.803  24.192  1.00  0.00    -0.325 N 
ATOM     14  H   UNL A   1      34.238  21.717  23.366  1.00  0.00     0.347 HD
ATOM     15  H   UNL A   1      32.664  21.530  24.195  1.00  0.00     0.347 HD
BRANCH  13  16
ATOM     16  C   UNL A   1      34.173  20.840  25.141  1.00  0.00     0.246 C 
ATOM     17  C   UNL A   1      33.801  19.414  24.823  1.00  0.00     0.022 A 
ATOM     18  C   UNL A   1      35.687  20.788  25.215  1.00  0.00     0.022 A 
ATOM     19  C   UNL A   1      32.529  18.912  24.592  1.00  0.00     0.011 A 
ATOM     20  C   UNL A   1      34.975  18.656  24.605  1.00  0.00    -0.008 A 
ATOM     21  C   UNL A   1      36.133  19.486  24.891  1.00  0.00    -0.008 A 
ATOM     22  C   UNL A   1      36.575  21.811  25.530  1.00  0.00     0.011 A 
ATOM     23  C   UNL A   1      32.435  17.646  24.026  1.00  0.00     0.001 A 
ATOM     24  C   UNL A   1      34.873  17.396  24.048  1.00  0.00     0.009 A 
ATOM     25  C   UNL A   1      37.490  19.218  24.824  1.00  0.00     0.009 A 
ATOM     26  C   UNL A   1      37.941  21.533  25.468  1.00  0.00     0.001 A 
ATOM     27  C   UNL A   1      33.596  16.905  23.738  1.00  0.00     0.001 A 
ATOM     28  C   UNL A   1      38.393  20.253  25.107  1.00  0.00     0.001 A 
ENDBRANCH  13  16
ENDBRANCH  10  13
ENDBRANCH   8  10
ENDBRANCH   7   8
ENDBRANCH   6   7
ENDBRANCH   5   6
ENDBRANCH   4   5
ENDBRANCH   3   4
ENDBRANCH   2   3
ENDBRANCH   1   2
BRANCH   1  29
ATOM     29  C   UNL A   1      30.453  28.916  23.702  1.00  0.00     0.188 C 
BRANCH  29  30
ATOM     30  C   UNL A   1      31.895  29.040  23.154  1.00  0.00     0.188 C 
BRANCH  30  31
ATOM     31  O   UNL A   1      32.867  29.438  24.106  1.00  0.00    -0.376 OA
BRANCH  31  32
ATOM     32  C   UNL A   1      33.387  28.479  25.015  1.00  0.00     0.202 C 
BRANCH  32  33
ATOM     33  C   UNL A   1      33.073  28.643  26.512  1.00  0.00     0.261 C 
BRANCH  33  34
ATOM     34  O   UNL A   1      34.197  28.712  27.404  1.00  0.00    -0.460 OA
BRANCH  34  35
ATOM     35  C   UNL A   1      34.611  29.927  27.812  1.00  0.00     0.338 C 
ATOM     36  O   UNL A   1      33.932  30.932  27.947  1.00  0.00    -0.246 OA
BRANCH  35  37
ATOM     37  C   UNL A   1      36.009  29.797  28.272  1.00  0.00     0.060 A 
ATOM     38  C   UNL A   1      37.049  30.043  27.365  1.00  0.00     0.016 A 
ATOM     39  C   UNL A   1      36.294  29.429  29.589  1.00  0.00     0.016 A 
ATOM     40  C   UNL A   1      38.376  29.879  27.760  1.00  0.00     0.010 A 
ATOM     41  C   UNL A   1      37.625  29.241  29.977  1.00  0.00     0.010 A 
ATOM     42  C   UNL A   1      38.669  29.426  29.052  1.00  0.00    -0.014 A 
BRANCH  42  43
ATOM     43  C   UNL A   1      40.036  28.945  29.372  1.00  0.00     0.031 A 
ATOM     44  C   UNL A   1      40.928  29.835  30.196  1.00  0.00     0.074 A 
ATOM     45  C   UNL A   1      40.475  27.743  28.963  1.00  0.00     0.049 A 
ATOM     46  N   UNL A   1      42.177  29.668  30.550  1.00  0.00    -0.248 NA
ATOM     47  C   UNL A   1      40.326  31.086  30.686  1.00  0.00     0.031 C 
ATOM     48  C   UNL A   1      39.694  26.771  28.204  1.00  0.00     0.029 A 
ATOM     49  N   UNL A   1      41.699  27.141  29.124  1.00  0.00    -0.354 N 
ATOM     50  C   UNL A   1      42.511  30.795  31.290  1.00  0.00     0.074 A 
ATOM     51  C   UNL A   1      41.345  31.652  31.310  1.00  0.00     0.031 C 
ATOM     52  C   UNL A   1      40.464  25.697  27.950  1.00  0.00     0.029 A 
ATOM     53  C   UNL A   1      41.802  25.924  28.497  1.00  0.00     0.049 A 
ATOM     54  H   UNL A   1      42.435  27.545  29.641  1.00  0.00     0.167 HD
ATOM     55  C   UNL A   1      43.681  31.085  31.906  1.00  0.00     0.037 A 
ATOM     56  C   UNL A   1      42.863  25.106  28.356  1.00  0.00     0.037 A 
ATOM     57  C   UNL A   1      44.839  30.230  31.884  1.00  0.00     0.049 A 
ATOM     58  C   UNL A   1      44.183  25.492  28.980  1.00  0.00     0.074 A 
ATOM     59  C   UNL A   1      46.066  30.426  32.490  1.00  0.00     0.029 A 
ATOM     60  N   UNL A   1      44.914  29.021  31.209  1.00  0.00    -0.354 N 
ATOM     61  N   UNL A   1      44.486  26.545  29.699  1.00  0.00    -0.248 NA
ATOM     62  C   UNL A   1      45.309  24.570  28.772  1.00  0.00     0.031 C 
ATOM     63  C   UNL A   1      46.907  29.368  32.128  1.00  0.00     0.029 A 
ATOM     64  C   UNL A   1      46.180  28.476  31.357  1.00  0.00     0.049 A 
ATOM     65  H   UNL A   1      44.178  28.611  30.699  1.00  0.00     0.167 HD
ATOM     66  C   UNL A   1      45.821  26.395  30.059  1.00  0.00     0.074 A 
ATOM     67  C   UNL A   1      46.266  25.141  29.489  1.00  0.00     0.031 C 
ATOM     68  C   UNL A   1      46.607  27.219  30.795  1.00  0.00     0.037 A 
BRANCH  55  69
ATOM     69  C   UNL A   1      43.781  32.398  32.628  1.00  0.00     0.064 A 
ATOM     70  C   UNL A   1      43.414  32.534  33.976  1.00  0.00     0.173 A 
ATOM     71  C   UNL A   1      44.286  33.531  31.970  1.00  0.00     0.173 A 
ATOM     72  F   UNL A   1      42.911  31.487  34.647  1.00  0.00    -0.203 F 
ATOM     73  C   UNL A   1      43.523  33.759  34.629  1.00  0.00     0.198 A 
ATOM     74  C   UNL A   1      44.426  34.745  32.636  1.00  0.00     0.198 A 
ATOM     75  F   UNL A   1      44.654  33.457  30.682  1.00  0.00    -0.203 F 
ATOM     76  F   UNL A   1      43.118  33.877  35.901  1.00  0.00    -0.200 F 
ATOM     77  C   UNL A   1      44.038  34.861  33.961  1.00  0.00     0.200 A 
ATOM     78  F   UNL A   1      44.938  35.804  31.992  1.00  0.00    -0.200 F 
ATOM     79  F   UNL A   1      44.152  36.036  34.594  1.00  0.00    -0.200 F 
ENDBRANCH  55  69
BRANCH  56  80
ATOM     80  C   UNL A   1      42.737  23.844  27.578  1.00  0.00     0.064 A 
ATOM     81  C   UNL A   1      43.065  23.796  26.215  1.00  0.00     0.173 A 
ATOM     82  C   UNL A   1      42.250  22.669  28.170  1.00  0.00     0.173 A 
ATOM     83  F   UNL A   1      43.509  24.899  25.595  1.00  0.00    -0.203 F 
ATOM     84  C   UNL A   1      42.888  22.631  25.472  1.00  0.00     0.198 A 
ATOM     85  C   UNL A   1      42.105  21.495  27.433  1.00  0.00     0.198 A 
ATOM     86  F   UNL A   1      41.916  22.659  29.469  1.00  0.00    -0.203 F 
ATOM     87  F   UNL A   1      43.155  22.631  24.159  1.00  0.00    -0.200 F 
ATOM     88  C   UNL A   1      42.415  21.480  26.082  1.00  0.00     0.200 A 
ATOM     89  F   UNL A   1      41.660  20.382  28.031  1.00  0.00    -0.200 F 
ATOM     90  F   UNL A   1      42.245  20.360  25.366  1.00  0.00    -0.200 F 
ENDBRANCH  56  80
BRANCH  68  91
ATOM     91  C   UNL A   1      48.015  26.773  31.077  1.00  0.00     0.064 A 
ATOM     92  C   UNL A   1      48.326  25.929  32.153  1.00  0.00     0.173 A 
ATOM     93  C   UNL A   1      49.063  27.160  30.226  1.00  0.00     0.173 A 
ATOM     94  F   UNL A   1      47.364  25.538  33.004  1.00  0.00    -0.203 F 
ATOM     95  C   UNL A   1      49.636  25.517  32.386  1.00  0.00     0.198 A 
ATOM     96  C   UNL A   1      50.365  26.716  30.440  1.00  0.00     0.198 A 
ATOM     97  F   UNL A   1      48.822  27.959  29.175  1.00  0.00    -0.203 F 
ATOM     98  F   UNL A   1      49.916  24.755  33.453  1.00  0.00    -0.200 F 
ATOM     99  C   UNL A   1      50.652  25.902  31.525  1.00  0.00     0.200 A 
ATOM    100  F   UNL A   1      51.341  27.074  29.595  1.00  0.00    -0.200 F 
ATOM    101  F   UNL A   1      51.910  25.496  31.745  1.00  0.00    -0.200 F 
ENDBRANCH  68  91
ENDBRANCH  42  43
ENDBRANCH  35  37
ENDBRANCH  34  35
ENDBRANCH  33  34
ENDBRANCH  32  33
ENDBRANCH  31  32
ENDBRANCH  30  31
ENDBRANCH  29  30
ENDBRANCH   1  29
TORSDOF 23
ENDMDL
MODEL 2
REMARK VINA RESULT:     -10.0      4.187      9.526
REMARK SMILES CC[C@H]([NH2+]C1c2ccccc2-c2ccccc21)C(=O)OCCOCCOCCOCCOC(=O)c1ccc(-c2c3nc(c(-c4c(F)c(F)c(F)c(F)c4F)c4ccc([nH]4)c(-c4c(F)c(F)c(F)c(F)c4F)c4nc(c(-c5c(F)c(F)c(F)c(F)c5F)c5ccc2[nH]5)C=C4)C=C3)cc1
REMARK SMILES IDX 26 1 25 2 24 3 23 4 22 5 21 6 20 7 18 8 19 9 3 10 2 11 1 12
REMARK SMILES IDX 4 13 5 16 6 17 17 18 7 19 11 20 12 21 16 22 8 23 10 24 13 25
REMARK SMILES IDX 15 26 9 27 14 28 27 29 28 30 29 31 30 32 31 33 32 34 33 35
REMARK SMILES IDX 34 36 35 37 36 38 97 39 37 40 96 41 38 42 39 43 40 44 90 45
REMARK SMILES IDX 41 46 95 47 89 48 91 49 42 50 94 51 88 52 87 53 43 55 75 56
REMARK SMILES IDX 55 57 74 58 56 59 59 60 73 61 92 62 57 63 58 64 72 66 93 67
REMARK SMILES IDX 60 68 44 69 45 70 53 71 46 72 47 73 51 74 54 75 48 76 49 77
REMARK SMILES IDX 52 78 50 79 76 80 77 81 85 82 78 83 79 84 83 85 86 86 80 87
REMARK SMILES IDX 81 88 84 89 82 90 61 91 62 92 70 93 63 94 64 95 68 96 71 97
REMARK SMILES IDX 65 98 66 99 69 100 67 101
REMARK H PARENT 4 14 4 15 91 54 59 65
REMARK Flexibility Score: inf
ROOT
ATOM      1  O   UNL A   1      41.626  19.289  25.439  1.00  0.00    -0.377 OA
ENDROOT
BRANCH   1   2
ATOM      2  C   UNL A   1      40.743  19.696  26.466  1.00  0.00     0.188 C 
BRANCH   2   3
ATOM      3  C   UNL A   1      39.806  20.846  26.068  1.00  0.00     0.188 C 
BRANCH   3   4
ATOM      4  O   UNL A   1      39.596  21.951  26.930  1.00  0.00    -0.376 OA
BRANCH   4   5
ATOM      5  C   UNL A   1      39.430  23.288  26.485  1.00  0.00     0.202 C 
BRANCH   5   6
ATOM      6  C   UNL A   1      38.092  24.009  26.246  1.00  0.00     0.261 C 
BRANCH   6   7
ATOM      7  O   UNL A   1      37.307  23.576  25.137  1.00  0.00    -0.459 OA
BRANCH   7   8
ATOM      8  C   UNL A   1      36.093  23.063  25.472  1.00  0.00     0.364 C 
ATOM      9  O   UNL A   1      35.922  22.276  26.399  1.00  0.00    -0.245 OA
BRANCH   8  10
ATOM     10  C   UNL A   1      34.933  23.672  24.637  1.00  0.00     0.293 C 
BRANCH  10  11
ATOM     11  C   UNL A   1      35.048  23.041  23.241  1.00  0.00     0.074 C 
ATOM     12  C   UNL A   1      33.786  23.108  22.406  1.00  0.00     0.011 C 
ENDBRANCH  10  11
BRANCH  10  13
ATOM     13  N   UNL A   1      34.757  25.125  24.920  1.00  0.00    -0.325 N 
ATOM     14  H   UNL A   1      34.475  25.539  24.031  1.00  0.00     0.347 HD
ATOM     15  H   UNL A   1      35.655  25.328  25.359  1.00  0.00     0.347 HD
BRANCH  13  16
ATOM     16  C   UNL A   1      33.863  25.699  25.908  1.00  0.00     0.246 C 
ATOM     17  C   UNL A   1      33.242  27.003  25.474  1.00  0.00     0.022 A 
ATOM     18  C   UNL A   1      32.656  24.844  26.242  1.00  0.00     0.022 A 
ATOM     19  C   UNL A   1      33.902  28.130  25.006  1.00  0.00     0.011 A 
ATOM     20  C   UNL A   1      31.835  26.868  25.435  1.00  0.00    -0.008 A 
ATOM     21  C   UNL A   1      31.472  25.559  25.951  1.00  0.00    -0.008 A 
ATOM     22  C   UNL A   1      32.626  23.548  26.746  1.00  0.00     0.011 A 
ATOM     23  C   UNL A   1      33.135  29.107  24.384  1.00  0.00     0.001 A 
ATOM     24  C   UNL A   1      31.078  27.847  24.820  1.00  0.00     0.009 A 
ATOM     25  C   UNL A   1      30.239  24.948  26.110  1.00  0.00     0.009 A 
ATOM     26  C   UNL A   1      31.381  22.940  26.912  1.00  0.00     0.001 A 
ATOM     27  C   UNL A   1      31.740  28.956  24.273  1.00  0.00     0.001 A 
ATOM     28  C   UNL A   1      30.200  23.629  26.587  1.00  0.00     0.001 A 
ENDBRANCH  13  16
ENDBRANCH  10  13
ENDBRANCH   8  10
ENDBRANCH   7   8
ENDBRANCH   6   7
ENDBRANCH   5   6
ENDBRANCH   4   5
ENDBRANCH   3   4
ENDBRANCH   2   3
ENDBRANCH   1   2
BRANCH   1  29
ATOM     29  C   UNL A   1      43.020  19.453  25.689  1.00  0.00     0.188 C 
BRANCH  29  30
ATOM     30  C   UNL A   1      43.637  20.872  25.722  1.00  0.00     0.188 C 
BRANCH  30  31
ATOM     31  O   UNL A   1      44.973  20.956  25.254  1.00  0.00    -0.376 OA
BRANCH  31  32
ATOM     32  C   UNL A   1      45.259  21.726  24.097  1.00  0.00     0.202 C 
BRANCH  32  33
ATOM     33  C   UNL A   1      45.896  23.114  24.279  1.00  0.00     0.261 C 
BRANCH  33  34
ATOM     34  O   UNL A   1      45.179  24.050  25.101  1.00  0.00    -0.460 OA
BRANCH  34  35
ATOM     35  C   UNL A   1      45.594  25.331  25.115  1.00  0.00     0.338 C 
ATOM     36  O   UNL A   1      46.446  25.840  24.405  1.00  0.00    -0.246 OA
BRANCH  35  37
ATOM     37  C   UNL A   1      44.694  26.088  26.011  1.00  0.00     0.060 A 
ATOM     38  C   UNL A   1      44.711  27.489  25.966  1.00  0.00     0.016 A 
ATOM     39  C   UNL A   1      43.843  25.421  26.894  1.00  0.00     0.016 A 
ATOM     40  C   UNL A   1      43.909  28.227  26.835  1.00  0.00     0.010 A 
ATOM     41  C   UNL A   1      43.057  26.163  27.782  1.00  0.00     0.010 A 
ATOM     42  C   UNL A   1      43.117  27.568  27.783  1.00  0.00    -0.014 A 
BRANCH  42  43
ATOM     43  C   UNL A   1      42.521  28.335  28.905  1.00  0.00     0.031 A 
ATOM     44  C   UNL A   1      43.298  28.432  30.191  1.00  0.00     0.074 A 
ATOM     45  C   UNL A   1      41.332  28.949  28.788  1.00  0.00     0.049 A 
ATOM     46  N   UNL A   1      42.964  28.986  31.329  1.00  0.00    -0.248 NA
ATOM     47  C   UNL A   1      44.634  27.816  30.192  1.00  0.00     0.031 C 
ATOM     48  C   UNL A   1      40.507  28.972  27.583  1.00  0.00     0.029 A 
ATOM     49  N   UNL A   1      40.606  29.667  29.708  1.00  0.00    -0.354 N 
ATOM     50  C   UNL A   1      44.041  28.775  32.180  1.00  0.00     0.074 A 
ATOM     51  C   UNL A   1      45.026  28.016  31.440  1.00  0.00     0.031 C 
ATOM     52  C   UNL A   1      39.378  29.656  27.842  1.00  0.00     0.029 A 
ATOM     53  C   UNL A   1      39.386  30.086  29.240  1.00  0.00     0.049 A 
ATOM     54  H   UNL A   1      40.931  29.862  30.617  1.00  0.00     0.167 HD
ATOM     55  C   UNL A   1      44.199  29.185  33.460  1.00  0.00     0.037 A 
ATOM     56  C   UNL A   1      38.381  30.717  29.879  1.00  0.00     0.037 A 
ATOM     57  C   UNL A   1      43.217  29.939  34.194  1.00  0.00     0.049 A 
ATOM     58  C   UNL A   1      38.546  31.088  31.334  1.00  0.00     0.074 A 
ATOM     59  C   UNL A   1      43.288  30.416  35.490  1.00  0.00     0.029 A 
ATOM     60  N   UNL A   1      41.978  30.315  33.697  1.00  0.00    -0.354 N 
ATOM     61  N   UNL A   1      39.575  30.908  32.125  1.00  0.00    -0.248 NA
ATOM     62  C   UNL A   1      37.406  31.754  31.982  1.00  0.00     0.031 C 
ATOM     63  C   UNL A   1      42.068  31.024  35.800  1.00  0.00     0.029 A 
ATOM     64  C   UNL A   1      41.263  30.991  34.673  1.00  0.00     0.049 A 
ATOM     65  H   UNL A   1      41.654  30.130  32.785  1.00  0.00     0.167 HD
ATOM     66  C   UNL A   1      39.223  31.469  33.348  1.00  0.00     0.074 A 
ATOM     67  C   UNL A   1      37.889  32.007  33.190  1.00  0.00     0.031 C 
ATOM     68  C   UNL A   1      39.939  31.533  34.498  1.00  0.00     0.037 A 
BRANCH  55  69
ATOM     69  C   UNL A   1      45.467  28.796  34.164  1.00  0.00     0.064 A 
ATOM     70  C   UNL A   1      45.577  27.597  34.887  1.00  0.00     0.173 A 
ATOM     71  C   UNL A   1      46.602  29.617  34.084  1.00  0.00     0.173 A 
ATOM     72  F   UNL A   1      44.518  26.783  35.009  1.00  0.00    -0.203 F 
ATOM     73  C   UNL A   1      46.765  27.252  35.525  1.00  0.00     0.198 A 
ATOM     74  C   UNL A   1      47.798  29.252  34.694  1.00  0.00     0.198 A 
ATOM     75  F   UNL A   1      46.553  30.773  33.404  1.00  0.00    -0.203 F 
ATOM     76  F   UNL A   1      46.831  26.128  36.253  1.00  0.00    -0.200 F 
ATOM     77  C   UNL A   1      47.877  28.074  35.421  1.00  0.00     0.200 A 
ATOM     78  F   UNL A   1      48.875  30.041  34.578  1.00  0.00    -0.200 F 
ATOM     79  F   UNL A   1      49.023  27.734  36.026  1.00  0.00    -0.200 F 
ENDBRANCH  55  69
BRANCH  56  80
ATOM     80  C   UNL A   1      37.115  31.027  29.161  1.00  0.00     0.064 A 
ATOM     81  C   UNL A   1      36.154  30.033  28.922  1.00  0.00     0.173 A 
ATOM     82  C   UNL A   1      36.856  32.314  28.665  1.00  0.00     0.173 A 
ATOM     83  F   UNL A   1      36.367  28.780  29.351  1.00  0.00    -0.203 F 
ATOM     84  C   UNL A   1      34.998  30.309  28.195  1.00  0.00     0.198 A 
ATOM     85  C   UNL A   1      35.683  32.596  27.967  1.00  0.00     0.198 A 
ATOM     86  F   UNL A   1      37.742  33.301  28.860  1.00  0.00    -0.203 F 
ATOM     87  F   UNL A   1      34.126  29.327  27.932  1.00  0.00    -0.200 F 
ATOM     88  C   UNL A   1      34.760  31.590  27.724  1.00  0.00     0.200 A 
ATOM     89  F   UNL A   1      35.451  33.839  27.526  1.00  0.00    -0.200 F 
ATOM     90  F   UNL A   1      33.647  31.855  27.026  1.00  0.00    -0.200 F 
ENDBRANCH  56  80
BRANCH  68  91
ATOM     91  C   UNL A   1      39.322  32.255  35.664  1.00  0.00     0.064 A 
ATOM     92  C   UNL A   1      38.504  31.600  36.596  1.00  0.00     0.173 A 
ATOM     93  C   UNL A   1      39.593  33.617  35.877  1.00  0.00     0.173 A 
ATOM     94  F   UNL A   1      38.203  30.302  36.435  1.00  0.00    -0.203 F 
ATOM     95  C   UNL A   1      37.955  32.286  37.677  1.00  0.00     0.198 A 
ATOM     96  C   UNL A   1      39.074  34.291  36.979  1.00  0.00     0.198 A 
ATOM     97  F   UNL A   1      40.378  34.292  35.023  1.00  0.00    -0.203 F 
ATOM     98  F   UNL A   1      37.132  31.651  38.523  1.00  0.00    -0.200 F 
ATOM     99  C   UNL A   1      38.248  33.627  37.873  1.00  0.00     0.200 A 
ATOM    100  F   UNL A   1      39.374  35.582  37.176  1.00  0.00    -0.200 F 
ATOM    101  F   UNL A   1      37.727  34.283  38.919  1.00  0.00    -0.200 F 
ENDBRANCH  68  91
ENDBRANCH  42  43
ENDBRANCH  35  37
ENDBRANCH  34  35
ENDBRANCH  33  34
ENDBRANCH  32  33
ENDBRANCH  31  32
ENDBRANCH  30  31
ENDBRANCH  29  30
ENDBRANCH   1  29
TORSDOF 23
ENDMDL
MODEL 3
REMARK VINA RESULT:      -9.3      1.642      2.433
REMARK SMILES CC[C@H]([NH2+]C1c2ccccc2-c2ccccc21)C(=O)OCCOCCOCCOCCOC(=O)c1ccc(-c2c3nc(c(-c4c(F)c(F)c(F)c(F)c4F)c4ccc([nH]4)c(-c4c(F)c(F)c(F)c(F)c4F)c4nc(c(-c5c(F)c(F)c(F)c(F)c5F)c5ccc2[nH]5)C=C4)C=C3)cc1
REMARK SMILES IDX 26 1 25 2 24 3 23 4 22 5 21 6 20 7 18 8 19 9 3 10 2 11 1 12
REMARK SMILES IDX 4 13 5 16 6 17 17 18 7 19 11 20 12 21 16 22 8 23 10 24 13 25
REMARK SMILES IDX 15 26 9 27 14 28 27 29 28 30 29 31 30 32 31 33 32 34 33 35
REMARK SMILES IDX 34 36 35 37 36 38 97 39 37 40 96 41 38 42 39 43 40 44 90 45
REMARK SMILES IDX 41 46 95 47 89 48 91 49 42 50 94 51 88 52 87 53 43 55 75 56
REMARK SMILES IDX 55 57 74 58 56 59 59 60 73 61 92 62 57 63 58 64 72 66 93 67
REMARK SMILES IDX 60 68 44 69 45 70 53 71 46 72 47 73 51 74 54 75 48 76 49 77
REMARK SMILES IDX 52 78 50 79 76 80 77 81 85 82 78 83 79 84 83 85 86 86 80 87
REMARK SMILES IDX 81 88 84 89 82 90 61 91 62 92 70 93 63 94 64 95 68 96 71 97
REMARK SMILES IDX 65 98 66 99 69 100 67 101
REMARK H PARENT 4 14 4 15 91 54 59 65
REMARK Flexibility Score: inf
ROOT
ATOM      1  O   UNL A   1      30.387  27.993  24.804  1.00  0.00    -0.377 OA
ENDROOT
BRANCH   1   2
ATOM      2  C   UNL A   1      31.128  27.802  25.993  1.00  0.00     0.188 C 
BRANCH   2   3
ATOM      3  C   UNL A   1      31.204  26.340  26.457  1.00  0.00     0.188 C 
BRANCH   3   4
ATOM      4  O   UNL A   1      30.298  25.368  25.962  1.00  0.00    -0.376 OA
BRANCH   4   5
ATOM      5  C   UNL A   1      30.611  24.438  24.937  1.00  0.00     0.202 C 
BRANCH   5   6
ATOM      6  C   UNL A   1      31.166  24.774  23.542  1.00  0.00     0.261 C 
BRANCH   6   7
ATOM      7  O   UNL A   1      32.416  25.457  23.485  1.00  0.00    -0.459 OA
BRANCH   7   8
ATOM      8  C   UNL A   1      33.358  24.845  22.720  1.00  0.00     0.364 C 
ATOM      9  O   UNL A   1      33.309  24.797  21.494  1.00  0.00    -0.245 OA
BRANCH   8  10
ATOM     10  C   UNL A   1      34.560  24.320  23.553  1.00  0.00     0.293 C 
BRANCH  10  11
ATOM     11  C   UNL A   1      35.127  23.129  22.764  1.00  0.00     0.074 C 
ATOM     12  C   UNL A   1      36.639  23.083  22.680  1.00  0.00     0.011 C 
ENDBRANCH  10  11
BRANCH  10  13
ATOM     13  N   UNL A   1      34.261  24.330  25.014  1.00  0.00    -0.325 N 
ATOM     14  H   UNL A   1      33.245  24.393  25.079  1.00  0.00     0.347 HD
ATOM     15  H   UNL A   1      34.878  25.084  25.313  1.00  0.00     0.347 HD
BRANCH  13  16
ATOM     16  C   UNL A   1      34.642  23.305  25.968  1.00  0.00     0.246 C 
ATOM     17  C   UNL A   1      34.044  21.953  25.671  1.00  0.00     0.022 A 
ATOM     18  C   UNL A   1      36.129  23.015  26.026  1.00  0.00     0.022 A 
ATOM     19  C   UNL A   1      32.706  21.657  25.461  1.00  0.00     0.011 A 
ATOM     20  C   UNL A   1      35.081  21.016  25.450  1.00  0.00    -0.008 A 
ATOM     21  C   UNL A   1      36.359  21.655  25.712  1.00  0.00    -0.008 A 
ATOM     22  C   UNL A   1      37.171  23.886  26.317  1.00  0.00     0.011 A 
ATOM     23  C   UNL A   1      32.405  20.416  24.912  1.00  0.00     0.001 A 
ATOM     24  C   UNL A   1      34.773  19.782  24.909  1.00  0.00     0.009 A 
ATOM     25  C   UNL A   1      37.655  21.175  25.632  1.00  0.00     0.009 A 
ATOM     26  C   UNL A   1      38.475  23.395  26.244  1.00  0.00     0.001 A 
ATOM     27  C   UNL A   1      33.429  19.498  24.619  1.00  0.00     0.001 A 
ATOM     28  C   UNL A   1      38.715  22.055  25.893  1.00  0.00     0.001 A 
ENDBRANCH  13  16
ENDBRANCH  10  13
ENDBRANCH   8  10
ENDBRANCH   7   8
ENDBRANCH   6   7
ENDBRANCH   5   6
ENDBRANCH   4   5
ENDBRANCH   3   4
ENDBRANCH   2   3
ENDBRANCH   1   2
BRANCH   1  29
ATOM     29  C   UNL A   1      30.811  29.050  23.947  1.00  0.00     0.188 C 
BRANCH  29  30
ATOM     30  C   UNL A   1      31.617  28.729  22.666  1.00  0.00     0.188 C 
BRANCH  30  31
ATOM     31  O   UNL A   1      33.023  28.878  22.788  1.00  0.00    -0.376 OA
BRANCH  31  32
ATOM     32  C   UNL A   1      33.672  28.424  23.966  1.00  0.00     0.202 C 
BRANCH  32  33
ATOM     33  C   UNL A   1      34.159  29.470  24.983  1.00  0.00     0.261 C 
BRANCH  33  34
ATOM     34  O   UNL A   1      34.412  29.004  26.318  1.00  0.00    -0.460 OA
BRANCH  34  35
ATOM     35  C   UNL A   1      34.429  29.909  27.316  1.00  0.00     0.338 C 
ATOM     36  O   UNL A   1      33.501  30.602  27.701  1.00  0.00    -0.246 OA
BRANCH  35  37
ATOM     37  C   UNL A   1      35.723  29.783  28.019  1.00  0.00     0.060 A 
ATOM     38  C   UNL A   1      36.907  30.030  27.311  1.00  0.00     0.016 A 
ATOM     39  C   UNL A   1      35.769  29.418  29.366  1.00  0.00     0.016 A 
ATOM     40  C   UNL A   1      38.143  29.869  27.936  1.00  0.00     0.010 A 
ATOM     41  C   UNL A   1      37.010  29.235  29.985  1.00  0.00     0.010 A 
ATOM     42  C   UNL A   1      38.201  29.420  29.261  1.00  0.00    -0.014 A 
BRANCH  42  43
ATOM     43  C   UNL A   1      39.491  28.943  29.821  1.00  0.00     0.031 A 
ATOM     44  C   UNL A   1      40.080  29.692  30.987  1.00  0.00     0.074 A 
ATOM     45  C   UNL A   1      40.118  27.863  29.326  1.00  0.00     0.049 A 
ATOM     46  N   UNL A   1      41.219  29.511  31.605  1.00  0.00    -0.248 NA
ATOM     47  C   UNL A   1      39.271  30.797  31.526  1.00  0.00     0.031 C 
ATOM     48  C   UNL A   1      39.628  27.025  28.236  1.00  0.00     0.029 A 
ATOM     49  N   UNL A   1      41.317  27.292  29.678  1.00  0.00    -0.354 N 
ATOM     50  C   UNL A   1      41.267  30.485  32.595  1.00  0.00     0.074 A 
ATOM     51  C   UNL A   1      40.060  31.273  32.475  1.00  0.00     0.031 C 
ATOM     52  C   UNL A   1      40.528  26.054  27.995  1.00  0.00     0.029 A 
ATOM     53  C   UNL A   1      41.672  26.226  28.890  1.00  0.00     0.049 A 
ATOM     54  H   UNL A   1      41.871  27.617  30.426  1.00  0.00     0.167 HD
ATOM     55  C   UNL A   1      42.228  30.698  33.524  1.00  0.00     0.037 A 
ATOM     56  C   UNL A   1      42.804  25.495  28.875  1.00  0.00     0.037 A 
ATOM     57  C   UNL A   1      43.428  29.912  33.640  1.00  0.00     0.049 A 
ATOM     58  C   UNL A   1      43.900  25.807  29.866  1.00  0.00     0.074 A 
ATOM     59  C   UNL A   1      44.454  30.037  34.558  1.00  0.00     0.029 A 
ATOM     60  N   UNL A   1      43.768  28.862  32.800  1.00  0.00    -0.354 N 
ATOM     61  N   UNL A   1      43.929  26.711  30.814  1.00  0.00    -0.248 NA
ATOM     62  C   UNL A   1      45.119  24.990  29.785  1.00  0.00     0.031 C 
ATOM     63  C   UNL A   1      45.447  29.105  34.235  1.00  0.00     0.029 A 
ATOM     64  C   UNL A   1      45.005  28.351  33.160  1.00  0.00     0.049 A 
ATOM     65  H   UNL A   1      43.212  28.529  32.058  1.00  0.00     0.167 HD
ATOM     66  C   UNL A   1      45.148  26.549  31.463  1.00  0.00     0.074 A 
ATOM     67  C   UNL A   1      45.825  25.450  30.809  1.00  0.00     0.031 C 
ATOM     68  C   UNL A   1      45.662  27.246  32.507  1.00  0.00     0.037 A 
BRANCH  55  69
ATOM     69  C   UNL A   1      42.038  31.848  34.470  1.00  0.00     0.064 A 
ATOM     70  C   UNL A   1      41.251  31.735  35.627  1.00  0.00     0.173 A 
ATOM     71  C   UNL A   1      42.683  33.072  34.235  1.00  0.00     0.173 A 
ATOM     72  F   UNL A   1      40.600  30.593  35.892  1.00  0.00    -0.203 F 
ATOM     73  C   UNL A   1      41.095  32.812  36.496  1.00  0.00     0.198 A 
ATOM     74  C   UNL A   1      42.553  34.135  35.124  1.00  0.00     0.198 A 
ATOM     75  F   UNL A   1      43.449  33.234  33.146  1.00  0.00    -0.203 F 
ATOM     76  F   UNL A   1      40.297  32.697  37.567  1.00  0.00    -0.200 F 
ATOM     77  C   UNL A   1      41.754  34.008  36.249  1.00  0.00     0.200 A 
ATOM     78  F   UNL A   1      43.203  35.285  34.890  1.00  0.00    -0.200 F 
ATOM     79  F   UNL A   1      41.611  35.040  37.092  1.00  0.00    -0.200 F 
ENDBRANCH  55  69
BRANCH  56  80
ATOM     80  C   UNL A   1      42.978  24.404  27.877  1.00  0.00     0.064 A 
ATOM     81  C   UNL A   1      43.554  24.654  26.623  1.00  0.00     0.173 A 
ATOM     82  C   UNL A   1      42.537  23.099  28.141  1.00  0.00     0.173 A 
ATOM     83  F   UNL A   1      43.967  25.891  26.310  1.00  0.00    -0.203 F 
ATOM     84  C   UNL A   1      43.660  23.647  25.665  1.00  0.00     0.198 A 
ATOM     85  C   UNL A   1      42.674  22.085  27.195  1.00  0.00     0.198 A 
ATOM     86  F   UNL A   1      41.974  22.806  29.323  1.00  0.00    -0.203 F 
ATOM     87  F   UNL A   1      44.161  23.927  24.455  1.00  0.00    -0.200 F 
ATOM     88  C   UNL A   1      43.226  22.363  25.954  1.00  0.00     0.200 A 
ATOM     89  F   UNL A   1      42.265  20.843  27.484  1.00  0.00    -0.200 F 
ATOM     90  F   UNL A   1      43.329  21.395  25.033  1.00  0.00    -0.200 F 
ENDBRANCH  56  80
BRANCH  68  91
ATOM     91  C   UNL A   1      46.996  26.812  33.047  1.00  0.00     0.064 A 
ATOM     92  C   UNL A   1      48.201  27.360  32.580  1.00  0.00     0.173 A 
ATOM     93  C   UNL A   1      47.068  25.865  34.081  1.00  0.00     0.173 A 
ATOM     94  F   UNL A   1      48.192  28.261  31.586  1.00  0.00    -0.203 F 
ATOM     95  C   UNL A   1      49.425  26.953  33.105  1.00  0.00     0.198 A 
ATOM     96  C   UNL A   1      48.290  25.488  34.630  1.00  0.00     0.198 A 
ATOM     97  F   UNL A   1      45.946  25.315  34.572  1.00  0.00    -0.203 F 
ATOM     98  F   UNL A   1      50.565  27.450  32.605  1.00  0.00    -0.200 F 
ATOM     99  C   UNL A   1      49.468  26.025  34.135  1.00  0.00     0.200 A 
ATOM    100  F   UNL A   1      48.327  24.605  35.637  1.00  0.00    -0.200 F 
ATOM    101  F   UNL A   1      50.647  25.643  34.646  1.00  0.00    -0.200 F 
ENDBRANCH  68  91
ENDBRANCH  42  43
ENDBRANCH  35  37
ENDBRANCH  34  35
ENDBRANCH  33  34
ENDBRANCH  32  33
ENDBRANCH  31  32
ENDBRANCH  30  31
ENDBRANCH  29  30
ENDBRANCH   1  29
TORSDOF 23
ENDMDL
