MODEL 1
REMARK VINA RESULT:      -8.8      0.000      0.000
REMARK SMILES O=C(CSc1nnnn1-c1ccc(C(=O)OCCOCCOCCOCCOC(=O)c2ccc(-c3c4nc(c(-c5c(F)c(F)c(F)c(F)c5F)c5ccc([nH]5)c(-c5c(F)c(F)c(F)c(F)c5F)c5nc(c(-c6c(F)c(F)c(F)c(F)c6F)c6ccc3[nH]6)C=C5)C=C4)cc2)cc1)Nc1nc(-c2ccccc2)cs1
REMARK SMILES IDX 20 1 19 2 18 3 17 4 16 5 14 6 15 7 13 8 10 9 11 10 95 11
REMARK SMILES IDX 12 12 94 13 9 14 5 15 6 16 7 17 8 18 4 19 3 20 2 21 1 22
REMARK SMILES IDX 96 23 97 25 98 26 107 27 99 28 106 29 100 30 101 31 105 32
REMARK SMILES IDX 102 33 104 34 103 35 21 36 22 37 23 38 24 39 25 40 26 41
REMARK SMILES IDX 27 42 28 43 29 44 30 45 31 46 32 47 93 48 33 49 92 50 34 51
REMARK SMILES IDX 35 52 36 53 86 54 37 55 91 56 85 57 87 58 38 59 90 60 84 61
REMARK SMILES IDX 83 62 39 64 71 65 51 66 70 67 52 68 55 69 69 70 88 71 53 72
REMARK SMILES IDX 54 73 68 75 89 76 56 77 40 78 41 79 49 80 42 81 43 82 47 83
REMARK SMILES IDX 50 84 44 85 45 86 48 87 46 88 72 89 73 90 81 91 74 92 75 93
REMARK SMILES IDX 79 94 82 95 76 96 77 97 80 98 78 99 57 100 58 101 66 102
REMARK SMILES IDX 59 103 60 104 64 105 67 106 61 107 62 108 65 109 63 110
REMARK H PARENT 96 24 87 63 55 74
REMARK Flexibility Score: inf
ROOT
ATOM      1  C   UNL A   1      46.356  29.727  26.715  1.00  0.00     0.188 C 
ENDROOT
BRANCH   1   2
ATOM      2  O   UNL A   1      47.034  29.229  25.576  1.00  0.00    -0.376 OA
BRANCH   2   3
ATOM      3  C   UNL A   1      46.395  28.295  24.736  1.00  0.00     0.202 C 
BRANCH   3   4
ATOM      4  C   UNL A   1      45.373  27.338  25.362  1.00  0.00     0.261 C 
BRANCH   4   5
ATOM      5  O   UNL A   1      45.912  26.319  26.211  1.00  0.00    -0.460 OA
BRANCH   5   6
ATOM      6  C   UNL A   1      46.759  25.439  25.648  1.00  0.00     0.338 C 
ATOM      7  O   UNL A   1      47.957  25.596  25.434  1.00  0.00    -0.246 OA
BRANCH   6   8
ATOM      8  C   UNL A   1      46.049  24.153  25.490  1.00  0.00     0.060 A 
ATOM      9  C   UNL A   1      44.899  21.652  25.170  1.00  0.00     0.069 A 
ATOM     10  C   UNL A   1      45.397  22.011  26.425  1.00  0.00     0.029 A 
ATOM     11  C   UNL A   1      44.840  22.582  24.122  1.00  0.00     0.029 A 
ATOM     12  C   UNL A   1      46.008  23.258  26.570  1.00  0.00     0.018 A 
ATOM     13  C   UNL A   1      45.409  23.841  24.286  1.00  0.00     0.018 A 
BRANCH   9  14
ATOM     14  N   UNL A   1      44.655  20.289  24.903  1.00  0.00    -0.187 N 
ATOM     15  C   UNL A   1      43.739  19.457  25.529  1.00  0.00     0.214 A 
ATOM     16  N   UNL A   1      43.703  18.310  24.895  1.00  0.00    -0.101 NA
ATOM     17  N   UNL A   1      44.557  18.449  23.827  1.00  0.00    -0.022 NA
ATOM     18  N   UNL A   1      45.075  19.672  23.778  1.00  0.00    -0.039 NA
BRANCH  15  19
ATOM     19  S   UNL A   1      42.650  19.989  26.774  1.00  0.00    -0.074 SA
BRANCH  19  20
ATOM     20  C   UNL A   1      41.724  21.307  25.964  1.00  0.00     0.178 C 
BRANCH  20  21
ATOM     21  C   UNL A   1      41.340  22.482  26.849  1.00  0.00     0.236 C 
ATOM     22  O   UNL A   1      41.634  22.446  28.043  1.00  0.00    -0.274 OA
ATOM     23  N   UNL A   1      40.755  23.551  26.201  1.00  0.00    -0.301 N 
ATOM     24  H   UNL A   1      40.487  23.454  25.259  1.00  0.00     0.172 HD
BRANCH  23  25
ATOM     25  C   UNL A   1      40.538  24.743  26.842  1.00  0.00     0.189 A 
ATOM     26  N   UNL A   1      41.371  25.730  27.048  1.00  0.00    -0.220 NA
ATOM     27  S   UNL A   1      38.949  24.961  27.429  1.00  0.00    -0.105 S 
ATOM     28  C   UNL A   1      40.746  26.721  27.779  1.00  0.00     0.084 A 
ATOM     29  C   UNL A   1      39.429  26.466  28.111  1.00  0.00     0.097 A 
BRANCH  28  30
ATOM     30  C   UNL A   1      41.439  27.944  28.139  1.00  0.00     0.001 A 
ATOM     31  C   UNL A   1      41.345  28.438  29.446  1.00  0.00     0.010 A 
ATOM     32  C   UNL A   1      42.188  28.651  27.189  1.00  0.00     0.010 A 
ATOM     33  C   UNL A   1      42.007  29.615  29.805  1.00  0.00     0.001 A 
ATOM     34  C   UNL A   1      42.840  29.833  27.549  1.00  0.00     0.001 A 
ATOM     35  C   UNL A   1      42.753  30.312  28.856  1.00  0.00     0.000 A 
ENDBRANCH  28  30
ENDBRANCH  23  25
ENDBRANCH  20  21
ENDBRANCH  19  20
ENDBRANCH  15  19
ENDBRANCH   9  14
ENDBRANCH   6   8
ENDBRANCH   5   6
ENDBRANCH   4   5
ENDBRANCH   3   4
ENDBRANCH   2   3
ENDBRANCH   1   2
BRANCH   1  36
ATOM     36  C   UNL A   1      46.081  31.247  26.650  1.00  0.00     0.188 C 
BRANCH  36  37
ATOM     37  O   UNL A   1      45.381  31.795  25.540  1.00  0.00    -0.377 OA
BRANCH  37  38
ATOM     38  C   UNL A   1      44.306  32.709  25.747  1.00  0.00     0.188 C 
BRANCH  38  39
ATOM     39  C   UNL A   1      44.360  33.855  26.795  1.00  0.00     0.188 C 
BRANCH  39  40
ATOM     40  O   UNL A   1      44.909  35.079  26.337  1.00  0.00    -0.376 OA
BRANCH  40  41
ATOM     41  C   UNL A   1      45.284  36.118  27.218  1.00  0.00     0.202 C 
BRANCH  41  42
ATOM     42  C   UNL A   1      44.665  36.123  28.608  1.00  0.00     0.261 C 
BRANCH  42  43
ATOM     43  O   UNL A   1      44.852  37.338  29.305  1.00  0.00    -0.460 OA
BRANCH  43  44
ATOM     44  C   UNL A   1      45.824  37.311  30.224  1.00  0.00     0.338 C 
ATOM     45  O   UNL A   1      46.961  37.771  30.124  1.00  0.00    -0.246 OA
BRANCH  44  46
ATOM     46  C   UNL A   1      45.356  36.517  31.352  1.00  0.00     0.060 A 
ATOM     47  C   UNL A   1      45.885  35.232  31.457  1.00  0.00     0.016 A 
ATOM     48  C   UNL A   1      44.154  36.900  31.969  1.00  0.00     0.016 A 
ATOM     49  C   UNL A   1      45.051  34.248  31.918  1.00  0.00     0.010 A 
ATOM     50  C   UNL A   1      43.313  35.914  32.401  1.00  0.00     0.010 A 
ATOM     51  C   UNL A   1      43.741  34.599  32.261  1.00  0.00    -0.014 A 
BRANCH  51  52
ATOM     52  C   UNL A   1      42.811  33.526  32.496  1.00  0.00     0.031 A 
ATOM     53  C   UNL A   1      41.659  33.568  31.583  1.00  0.00     0.074 A 
ATOM     54  C   UNL A   1      43.042  32.578  33.419  1.00  0.00     0.049 A 
ATOM     55  N   UNL A   1      40.432  33.822  31.886  1.00  0.00    -0.248 NA
ATOM     56  C   UNL A   1      41.933  33.499  30.140  1.00  0.00     0.031 C 
ATOM     57  C   UNL A   1      44.271  32.305  34.168  1.00  0.00     0.029 A 
ATOM     58  N   UNL A   1      42.215  31.578  33.812  1.00  0.00    -0.354 N 
ATOM     59  C   UNL A   1      39.740  33.761  30.685  1.00  0.00     0.074 A 
ATOM     60  C   UNL A   1      40.725  33.748  29.637  1.00  0.00     0.031 C 
ATOM     61  C   UNL A   1      44.176  31.081  34.737  1.00  0.00     0.029 A 
ATOM     62  C   UNL A   1      42.845  30.551  34.495  1.00  0.00     0.049 A 
ATOM     63  H   UNL A   1      41.248  31.582  33.627  1.00  0.00     0.167 HD
ATOM     64  C   UNL A   1      38.417  33.460  30.664  1.00  0.00     0.037 A 
ATOM     65  C   UNL A   1      42.311  29.326  34.728  1.00  0.00     0.037 A 
ATOM     66  C   UNL A   1      37.807  33.667  31.952  1.00  0.00     0.049 A 
ATOM     67  C   UNL A   1      40.834  29.446  34.566  1.00  0.00     0.074 A 
ATOM     68  C   UNL A   1      37.645  34.766  32.775  1.00  0.00     0.029 A 
ATOM     69  N   UNL A   1      37.589  32.570  32.748  1.00  0.00    -0.354 N 
ATOM     70  N   UNL A   1      40.066  30.110  35.383  1.00  0.00    -0.248 NA
ATOM     71  C   UNL A   1      40.278  29.219  33.237  1.00  0.00     0.031 C 
ATOM     72  C   UNL A   1      37.805  34.267  34.101  1.00  0.00     0.029 A 
ATOM     73  C   UNL A   1      38.002  32.889  34.017  1.00  0.00     0.049 A 
ATOM     74  H   UNL A   1      37.205  31.710  32.460  1.00  0.00     0.167 HD
ATOM     75  C   UNL A   1      39.143  30.747  34.566  1.00  0.00     0.074 A 
ATOM     76  C   UNL A   1      39.268  30.092  33.266  1.00  0.00     0.031 C 
ATOM     77  C   UNL A   1      38.577  31.933  34.935  1.00  0.00     0.037 A 
BRANCH  64  78
ATOM     78  C   UNL A   1      37.786  32.622  29.588  1.00  0.00     0.064 A 
ATOM     79  C   UNL A   1      36.691  33.141  28.874  1.00  0.00     0.173 A 
ATOM     80  C   UNL A   1      38.019  31.237  29.435  1.00  0.00     0.173 A 
ATOM     81  F   UNL A   1      36.365  34.439  28.973  1.00  0.00    -0.203 F 
ATOM     82  C   UNL A   1      35.853  32.318  28.119  1.00  0.00     0.198 A 
ATOM     83  C   UNL A   1      37.218  30.432  28.632  1.00  0.00     0.198 A 
ATOM     84  F   UNL A   1      38.951  30.584  30.140  1.00  0.00    -0.203 F 
ATOM     85  F   UNL A   1      34.750  32.831  27.560  1.00  0.00    -0.200 F 
ATOM     86  C   UNL A   1      36.116  30.964  28.001  1.00  0.00     0.200 A 
ATOM     87  F   UNL A   1      37.479  29.120  28.548  1.00  0.00    -0.200 F 
ATOM     88  F   UNL A   1      35.280  30.165  27.326  1.00  0.00    -0.200 F 
ENDBRANCH  64  78
BRANCH  65  89
ATOM     89  C   UNL A   1      43.008  28.017  34.711  1.00  0.00     0.064 A 
ATOM     90  C   UNL A   1      42.976  27.172  35.832  1.00  0.00     0.173 A 
ATOM     91  C   UNL A   1      43.484  27.446  33.514  1.00  0.00     0.173 A 
ATOM     92  F   UNL A   1      42.495  27.619  37.001  1.00  0.00    -0.203 F 
ATOM     93  C   UNL A   1      43.367  25.830  35.751  1.00  0.00     0.198 A 
ATOM     94  C   UNL A   1      43.884  26.112  33.437  1.00  0.00     0.198 A 
ATOM     95  F   UNL A   1      43.480  28.141  32.367  1.00  0.00    -0.203 F 
ATOM     96  F   UNL A   1      43.256  25.036  36.826  1.00  0.00    -0.200 F 
ATOM     97  C   UNL A   1      43.810  25.300  34.552  1.00  0.00     0.200 A 
ATOM     98  F   UNL A   1      44.277  25.604  32.260  1.00  0.00    -0.200 F 
ATOM     99  F   UNL A   1      44.126  24.000  34.458  1.00  0.00    -0.200 F 
ENDBRANCH  65  89
BRANCH  77 100
ATOM    100  C   UNL A   1      38.774  32.387  36.353  1.00  0.00     0.064 A 
ATOM    101  C   UNL A   1      38.033  31.901  37.445  1.00  0.00     0.173 A 
ATOM    102  C   UNL A   1      39.846  33.247  36.634  1.00  0.00     0.173 A 
ATOM    103  F   UNL A   1      37.065  30.992  37.272  1.00  0.00    -0.203 F 
ATOM    104  C   UNL A   1      38.320  32.302  38.749  1.00  0.00     0.198 A 
ATOM    105  C   UNL A   1      40.154  33.614  37.940  1.00  0.00     0.198 A 
ATOM    106  F   UNL A   1      40.625  33.695  35.638  1.00  0.00    -0.203 F 
ATOM    107  F   UNL A   1      37.586  31.838  39.772  1.00  0.00    -0.200 F 
ATOM    108  C   UNL A   1      39.384  33.153  38.996  1.00  0.00     0.200 A 
ATOM    109  F   UNL A   1      41.216  34.396  38.178  1.00  0.00    -0.200 F 
ATOM    110  F   UNL A   1      39.686  33.508  40.253  1.00  0.00    -0.200 F 
ENDBRANCH  77 100
ENDBRANCH  51  52
ENDBRANCH  44  46
ENDBRANCH  43  44
ENDBRANCH  42  43
ENDBRANCH  41  42
ENDBRANCH  40  41
ENDBRANCH  39  40
ENDBRANCH  38  39
ENDBRANCH  37  38
ENDBRANCH  36  37
ENDBRANCH   1  36
TORSDOF 26
ENDMDL
MODEL 2
REMARK VINA RESULT:      -8.4      5.155     11.554
REMARK SMILES O=C(CSc1nnnn1-c1ccc(C(=O)OCCOCCOCCOCCOC(=O)c2ccc(-c3c4nc(c(-c5c(F)c(F)c(F)c(F)c5F)c5ccc([nH]5)c(-c5c(F)c(F)c(F)c(F)c5F)c5nc(c(-c6c(F)c(F)c(F)c(F)c6F)c6ccc3[nH]6)C=C5)C=C4)cc2)cc1)Nc1nc(-c2ccccc2)cs1
REMARK SMILES IDX 20 1 19 2 18 3 17 4 16 5 14 6 15 7 13 8 10 9 11 10 95 11
REMARK SMILES IDX 12 12 94 13 9 14 5 15 6 16 7 17 8 18 4 19 3 20 2 21 1 22
REMARK SMILES IDX 96 23 97 25 98 26 107 27 99 28 106 29 100 30 101 31 105 32
REMARK SMILES IDX 102 33 104 34 103 35 21 36 22 37 23 38 24 39 25 40 26 41
REMARK SMILES IDX 27 42 28 43 29 44 30 45 31 46 32 47 93 48 33 49 92 50 34 51
REMARK SMILES IDX 35 52 36 53 86 54 37 55 91 56 85 57 87 58 38 59 90 60 84 61
REMARK SMILES IDX 83 62 39 64 71 65 51 66 70 67 52 68 55 69 69 70 88 71 53 72
REMARK SMILES IDX 54 73 68 75 89 76 56 77 40 78 41 79 49 80 42 81 43 82 47 83
REMARK SMILES IDX 50 84 44 85 45 86 48 87 46 88 72 89 73 90 81 91 74 92 75 93
REMARK SMILES IDX 79 94 82 95 76 96 77 97 80 98 78 99 57 100 58 101 66 102
REMARK SMILES IDX 59 103 60 104 64 105 67 106 61 107 62 108 65 109 63 110
REMARK H PARENT 96 24 87 63 55 74
REMARK Flexibility Score: inf
ROOT
ATOM      1  C   UNL A   1      47.554  34.407  27.805  1.00  0.00     0.188 C 
ENDROOT
BRANCH   1   2
ATOM      2  O   UNL A   1      46.580  35.282  28.344  1.00  0.00    -0.376 OA
BRANCH   2   3
ATOM      3  C   UNL A   1      45.253  35.227  27.871  1.00  0.00     0.202 C 
BRANCH   3   4
ATOM      4  C   UNL A   1      44.888  36.062  26.639  1.00  0.00     0.261 C 
BRANCH   4   5
ATOM      5  O   UNL A   1      44.590  37.441  26.887  1.00  0.00    -0.460 OA
BRANCH   5   6
ATOM      6  C   UNL A   1      43.320  37.744  27.210  1.00  0.00     0.338 C 
ATOM      7  O   UNL A   1      42.299  37.241  26.753  1.00  0.00    -0.246 OA
BRANCH   6   8
ATOM      8  C   UNL A   1      43.346  38.670  28.361  1.00  0.00     0.060 A 
ATOM      9  C   UNL A   1      43.334  40.253  30.637  1.00  0.00     0.069 A 
ATOM     10  C   UNL A   1      44.437  39.430  30.391  1.00  0.00     0.029 A 
ATOM     11  C   UNL A   1      42.314  40.397  29.685  1.00  0.00     0.029 A 
ATOM     12  C   UNL A   1      44.421  38.609  29.263  1.00  0.00     0.018 A 
ATOM     13  C   UNL A   1      42.326  39.610  28.538  1.00  0.00     0.018 A 
BRANCH   9  14
ATOM     14  N   UNL A   1      43.149  40.769  31.935  1.00  0.00    -0.187 N 
ATOM     15  C   UNL A   1      42.992  42.097  32.301  1.00  0.00     0.214 A 
ATOM     16  N   UNL A   1      42.691  42.155  33.576  1.00  0.00    -0.101 NA
ATOM     17  N   UNL A   1      42.598  40.848  33.995  1.00  0.00    -0.022 NA
ATOM     18  N   UNL A   1      42.793  40.003  32.989  1.00  0.00    -0.039 NA
BRANCH  15  19
ATOM     19  S   UNL A   1      42.945  43.410  31.165  1.00  0.00    -0.074 SA
BRANCH  19  20
ATOM     20  C   UNL A   1      44.670  43.929  31.077  1.00  0.00     0.178 C 
BRANCH  20  21
ATOM     21  C   UNL A   1      45.333  43.784  29.716  1.00  0.00     0.236 C 
ATOM     22  O   UNL A   1      45.438  42.660  29.225  1.00  0.00    -0.274 OA
ATOM     23  N   UNL A   1      45.693  44.964  29.099  1.00  0.00    -0.301 N 
ATOM     24  H   UNL A   1      45.642  45.807  29.605  1.00  0.00     0.172 HD
BRANCH  23  25
ATOM     25  C   UNL A   1      46.119  44.987  27.796  1.00  0.00     0.189 A 
ATOM     26  N   UNL A   1      45.497  44.582  26.720  1.00  0.00    -0.220 NA
ATOM     27  S   UNL A   1      47.671  45.662  27.563  1.00  0.00    -0.105 S 
ATOM     28  C   UNL A   1      46.316  44.749  25.619  1.00  0.00     0.084 A 
ATOM     29  C   UNL A   1      47.557  45.294  25.886  1.00  0.00     0.097 A 
BRANCH  28  30
ATOM     30  C   UNL A   1      45.870  44.392  24.286  1.00  0.00     0.001 A 
ATOM     31  C   UNL A   1      45.113  45.305  23.538  1.00  0.00     0.010 A 
ATOM     32  C   UNL A   1      46.170  43.138  23.739  1.00  0.00     0.010 A 
ATOM     33  C   UNL A   1      44.678  44.974  22.253  1.00  0.00     0.001 A 
ATOM     34  C   UNL A   1      45.723  42.807  22.457  1.00  0.00     0.001 A 
ATOM     35  C   UNL A   1      44.982  43.725  21.714  1.00  0.00     0.000 A 
ENDBRANCH  28  30
ENDBRANCH  23  25
ENDBRANCH  20  21
ENDBRANCH  19  20
ENDBRANCH  15  19
ENDBRANCH   9  14
ENDBRANCH   6   8
ENDBRANCH   5   6
ENDBRANCH   4   5
ENDBRANCH   3   4
ENDBRANCH   2   3
ENDBRANCH   1   2
BRANCH   1  36
ATOM     36  C   UNL A   1      46.973  33.052  27.340  1.00  0.00     0.188 C 
BRANCH  36  37
ATOM     37  O   UNL A   1      47.647  31.843  27.662  1.00  0.00    -0.377 OA
BRANCH  37  38
ATOM     38  C   UNL A   1      47.500  30.693  26.832  1.00  0.00     0.188 C 
BRANCH  38  39
ATOM     39  C   UNL A   1      46.150  30.291  26.175  1.00  0.00     0.188 C 
BRANCH  39  40
ATOM     40  O   UNL A   1      46.250  29.530  24.984  1.00  0.00    -0.376 OA
BRANCH  40  41
ATOM     41  C   UNL A   1      46.375  28.123  24.991  1.00  0.00     0.202 C 
BRANCH  41  42
ATOM     42  C   UNL A   1      45.199  27.313  25.515  1.00  0.00     0.261 C 
BRANCH  42  43
ATOM     43  O   UNL A   1      43.949  27.742  25.016  1.00  0.00    -0.460 OA
BRANCH  43  44
ATOM     44  C   UNL A   1      42.948  26.871  25.188  1.00  0.00     0.338 C 
ATOM     45  O   UNL A   1      42.868  25.726  24.744  1.00  0.00    -0.246 OA
BRANCH  44  46
ATOM     46  C   UNL A   1      41.875  27.552  25.900  1.00  0.00     0.060 A 
ATOM     47  C   UNL A   1      41.929  28.945  25.898  1.00  0.00     0.016 A 
ATOM     48  C   UNL A   1      41.151  26.817  26.852  1.00  0.00     0.016 A 
ATOM     49  C   UNL A   1      41.515  29.588  27.034  1.00  0.00     0.010 A 
ATOM     50  C   UNL A   1      40.765  27.457  27.996  1.00  0.00     0.010 A 
ATOM     51  C   UNL A   1      41.058  28.811  28.104  1.00  0.00    -0.014 A 
BRANCH  51  52
ATOM     52  C   UNL A   1      40.871  29.474  29.367  1.00  0.00     0.031 A 
ATOM     53  C   UNL A   1      39.668  30.319  29.390  1.00  0.00     0.074 A 
ATOM     54  C   UNL A   1      41.699  29.267  30.405  1.00  0.00     0.049 A 
ATOM     55  N   UNL A   1      39.618  31.605  29.452  1.00  0.00    -0.248 NA
ATOM     56  C   UNL A   1      38.375  29.667  29.131  1.00  0.00     0.031 C 
ATOM     57  C   UNL A   1      42.742  28.250  30.559  1.00  0.00     0.029 A 
ATOM     58  N   UNL A   1      41.702  29.893  31.608  1.00  0.00    -0.354 N 
ATOM     59  C   UNL A   1      38.267  31.920  29.425  1.00  0.00     0.074 A 
ATOM     60  C   UNL A   1      37.568  30.722  29.041  1.00  0.00     0.031 C 
ATOM     61  C   UNL A   1      43.104  28.185  31.862  1.00  0.00     0.029 A 
ATOM     62  C   UNL A   1      42.412  29.231  32.595  1.00  0.00     0.049 A 
ATOM     63  H   UNL A   1      41.238  30.747  31.765  1.00  0.00     0.167 HD
ATOM     64  C   UNL A   1      37.815  33.074  29.979  1.00  0.00     0.037 A 
ATOM     65  C   UNL A   1      42.325  29.486  33.924  1.00  0.00     0.037 A 
ATOM     66  C   UNL A   1      38.877  34.032  30.144  1.00  0.00     0.049 A 
ATOM     67  C   UNL A   1      41.744  30.850  34.078  1.00  0.00     0.074 A 
ATOM     68  C   UNL A   1      39.740  34.672  29.275  1.00  0.00     0.029 A 
ATOM     69  N   UNL A   1      39.432  34.173  31.393  1.00  0.00    -0.354 N 
ATOM     70  N   UNL A   1      42.368  31.947  33.748  1.00  0.00    -0.248 NA
ATOM     71  C   UNL A   1      40.292  30.963  34.160  1.00  0.00     0.031 C 
ATOM     72  C   UNL A   1      40.983  34.748  29.971  1.00  0.00     0.029 A 
ATOM     73  C   UNL A   1      40.795  34.200  31.240  1.00  0.00     0.049 A 
ATOM     74  H   UNL A   1      38.940  34.242  32.243  1.00  0.00     0.167 HD
ATOM     75  C   UNL A   1      41.395  32.750  33.170  1.00  0.00     0.074 A 
ATOM     76  C   UNL A   1      40.123  32.129  33.530  1.00  0.00     0.031 C 
ATOM     77  C   UNL A   1      41.719  33.669  32.214  1.00  0.00     0.037 A 
BRANCH  64  78
ATOM     78  C   UNL A   1      36.506  33.172  30.710  1.00  0.00     0.064 A 
ATOM     79  C   UNL A   1      35.474  33.951  30.159  1.00  0.00     0.173 A 
ATOM     80  C   UNL A   1      36.329  32.779  32.056  1.00  0.00     0.173 A 
ATOM     81  F   UNL A   1      35.558  34.401  28.898  1.00  0.00    -0.203 F 
ATOM     82  C   UNL A   1      34.380  34.363  30.923  1.00  0.00     0.198 A 
ATOM     83  C   UNL A   1      35.207  33.139  32.795  1.00  0.00     0.198 A 
ATOM     84  F   UNL A   1      37.278  32.133  32.746  1.00  0.00    -0.203 F 
ATOM     85  F   UNL A   1      33.486  35.210  30.397  1.00  0.00    -0.200 F 
ATOM     86  C   UNL A   1      34.249  33.959  32.241  1.00  0.00     0.200 A 
ATOM     87  F   UNL A   1      35.111  32.755  34.075  1.00  0.00    -0.200 F 
ATOM     88  F   UNL A   1      33.232  34.402  32.990  1.00  0.00    -0.200 F 
ENDBRANCH  64  78
BRANCH  65  89
ATOM     89  C   UNL A   1      42.358  28.508  35.038  1.00  0.00     0.064 A 
ATOM     90  C   UNL A   1      41.606  27.323  34.977  1.00  0.00     0.173 A 
ATOM     91  C   UNL A   1      43.332  28.575  36.054  1.00  0.00     0.173 A 
ATOM     92  F   UNL A   1      40.689  27.156  34.013  1.00  0.00    -0.203 F 
ATOM     93  C   UNL A   1      41.835  26.261  35.860  1.00  0.00     0.198 A 
ATOM     94  C   UNL A   1      43.553  27.521  36.941  1.00  0.00     0.198 A 
ATOM     95  F   UNL A   1      44.160  29.626  36.150  1.00  0.00    -0.203 F 
ATOM     96  F   UNL A   1      41.144  25.121  35.726  1.00  0.00    -0.200 F 
ATOM     97  C   UNL A   1      42.815  26.358  36.833  1.00  0.00     0.200 A 
ATOM     98  F   UNL A   1      44.529  27.615  37.855  1.00  0.00    -0.200 F 
ATOM     99  F   UNL A   1      43.078  25.319  37.638  1.00  0.00    -0.200 F 
ENDBRANCH  65  89
BRANCH  77 100
ATOM    100  C   UNL A   1      43.176  33.971  32.003  1.00  0.00     0.064 A 
ATOM    101  C   UNL A   1      43.876  34.985  32.681  1.00  0.00     0.173 A 
ATOM    102  C   UNL A   1      43.923  33.111  31.184  1.00  0.00     0.173 A 
ATOM    103  F   UNL A   1      43.256  35.778  33.565  1.00  0.00    -0.203 F 
ATOM    104  C   UNL A   1      45.247  35.162  32.501  1.00  0.00     0.198 A 
ATOM    105  C   UNL A   1      45.297  33.266  31.039  1.00  0.00     0.198 A 
ATOM    106  F   UNL A   1      43.319  32.088  30.560  1.00  0.00    -0.203 F 
ATOM    107  F   UNL A   1      45.888  36.149  33.146  1.00  0.00    -0.200 F 
ATOM    108  C   UNL A   1      45.957  34.297  31.685  1.00  0.00     0.200 A 
ATOM    109  F   UNL A   1      45.988  32.396  30.289  1.00  0.00    -0.200 F 
ATOM    110  F   UNL A   1      47.283  34.442  31.544  1.00  0.00    -0.200 F 
ENDBRANCH  77 100
ENDBRANCH  51  52
ENDBRANCH  44  46
ENDBRANCH  43  44
ENDBRANCH  42  43
ENDBRANCH  41  42
ENDBRANCH  40  41
ENDBRANCH  39  40
ENDBRANCH  38  39
ENDBRANCH  37  38
ENDBRANCH  36  37
ENDBRANCH   1  36
TORSDOF 26
ENDMDL
MODEL 3
REMARK VINA RESULT:      -8.3      8.013     13.987
REMARK SMILES O=C(CSc1nnnn1-c1ccc(C(=O)OCCOCCOCCOCCOC(=O)c2ccc(-c3c4nc(c(-c5c(F)c(F)c(F)c(F)c5F)c5ccc([nH]5)c(-c5c(F)c(F)c(F)c(F)c5F)c5nc(c(-c6c(F)c(F)c(F)c(F)c6F)c6ccc3[nH]6)C=C5)C=C4)cc2)cc1)Nc1nc(-c2ccccc2)cs1
REMARK SMILES IDX 20 1 19 2 18 3 17 4 16 5 14 6 15 7 13 8 10 9 11 10 95 11
REMARK SMILES IDX 12 12 94 13 9 14 5 15 6 16 7 17 8 18 4 19 3 20 2 21 1 22
REMARK SMILES IDX 96 23 97 25 98 26 107 27 99 28 106 29 100 30 101 31 105 32
REMARK SMILES IDX 102 33 104 34 103 35 21 36 22 37 23 38 24 39 25 40 26 41
REMARK SMILES IDX 27 42 28 43 29 44 30 45 31 46 32 47 93 48 33 49 92 50 34 51
REMARK SMILES IDX 35 52 36 53 86 54 37 55 91 56 85 57 87 58 38 59 90 60 84 61
REMARK SMILES IDX 83 62 39 64 71 65 51 66 70 67 52 68 55 69 69 70 88 71 53 72
REMARK SMILES IDX 54 73 68 75 89 76 56 77 40 78 41 79 49 80 42 81 43 82 47 83
REMARK SMILES IDX 50 84 44 85 45 86 48 87 46 88 72 89 73 90 81 91 74 92 75 93
REMARK SMILES IDX 79 94 82 95 76 96 77 97 80 98 78 99 57 100 58 101 66 102
REMARK SMILES IDX 59 103 60 104 64 105 67 106 61 107 62 108 65 109 63 110
REMARK H PARENT 96 24 87 63 55 74
REMARK Flexibility Score: inf
ROOT
ATOM      1  C   UNL A   1      42.568  28.047  35.711  1.00  0.00     0.188 C 
ENDROOT
BRANCH   1   2
ATOM      2  O   UNL A   1      41.532  27.146  35.365  1.00  0.00    -0.376 OA
BRANCH   2   3
ATOM      3  C   UNL A   1      41.743  25.758  35.490  1.00  0.00     0.202 C 
BRANCH   3   4
ATOM      4  C   UNL A   1      42.257  25.222  36.831  1.00  0.00     0.261 C 
BRANCH   4   5
ATOM      5  O   UNL A   1      43.350  24.300  36.757  1.00  0.00    -0.460 OA
BRANCH   5   6
ATOM      6  C   UNL A   1      44.502  24.668  37.345  1.00  0.00     0.338 C 
ATOM      7  O   UNL A   1      44.861  25.808  37.623  1.00  0.00    -0.246 OA
BRANCH   6   8
ATOM      8  C   UNL A   1      45.207  23.445  37.782  1.00  0.00     0.060 A 
ATOM      9  C   UNL A   1      46.696  21.266  38.628  1.00  0.00     0.069 A 
ATOM     10  C   UNL A   1      46.143  22.120  39.587  1.00  0.00     0.029 A 
ATOM     11  C   UNL A   1      46.388  21.410  37.267  1.00  0.00     0.029 A 
ATOM     12  C   UNL A   1      45.425  23.235  39.153  1.00  0.00     0.018 A 
ATOM     13  C   UNL A   1      45.633  22.499  36.845  1.00  0.00     0.018 A 
BRANCH   9  14
ATOM     14  N   UNL A   1      47.732  20.393  39.017  1.00  0.00    -0.187 N 
ATOM     15  C   UNL A   1      47.607  19.149  39.617  1.00  0.00     0.214 A 
ATOM     16  N   UNL A   1      48.790  18.585  39.678  1.00  0.00    -0.101 NA
ATOM     17  N   UNL A   1      49.649  19.458  39.053  1.00  0.00    -0.022 NA
ATOM     18  N   UNL A   1      49.003  20.516  38.579  1.00  0.00    -0.039 NA
BRANCH  15  19
ATOM     19  S   UNL A   1      46.081  18.396  39.964  1.00  0.00    -0.074 SA
BRANCH  19  20
ATOM     20  C   UNL A   1      45.826  18.786  41.707  1.00  0.00     0.178 C 
BRANCH  20  21
ATOM     21  C   UNL A   1      44.940  17.820  42.476  1.00  0.00     0.236 C 
ATOM     22  O   UNL A   1      43.759  17.711  42.149  1.00  0.00    -0.274 OA
ATOM     23  N   UNL A   1      45.575  17.069  43.443  1.00  0.00    -0.301 N 
ATOM     24  H   UNL A   1      46.504  17.284  43.687  1.00  0.00     0.172 HD
BRANCH  23  25
ATOM     25  C   UNL A   1      44.939  16.030  44.072  1.00  0.00     0.189 A 
ATOM     26  N   UNL A   1      44.580  14.870  43.587  1.00  0.00    -0.220 NA
ATOM     27  S   UNL A   1      44.595  16.296  45.724  1.00  0.00    -0.105 S 
ATOM     28  C   UNL A   1      43.923  14.142  44.559  1.00  0.00     0.084 A 
ATOM     29  C   UNL A   1      43.804  14.769  45.785  1.00  0.00     0.097 A 
BRANCH  28  30
ATOM     30  C   UNL A   1      43.427  12.804  44.295  1.00  0.00     0.001 A 
ATOM     31  C   UNL A   1      43.840  11.737  45.102  1.00  0.00     0.010 A 
ATOM     32  C   UNL A   1      42.551  12.562  43.230  1.00  0.00     0.010 A 
ATOM     33  C   UNL A   1      43.369  10.445  44.858  1.00  0.00     0.001 A 
ATOM     34  C   UNL A   1      42.090  11.265  42.982  1.00  0.00     0.001 A 
ATOM     35  C   UNL A   1      42.495  10.209  43.798  1.00  0.00     0.000 A 
ENDBRANCH  28  30
ENDBRANCH  23  25
ENDBRANCH  20  21
ENDBRANCH  19  20
ENDBRANCH  15  19
ENDBRANCH   9  14
ENDBRANCH   6   8
ENDBRANCH   5   6
ENDBRANCH   4   5
ENDBRANCH   3   4
ENDBRANCH   2   3
ENDBRANCH   1   2
BRANCH   1  36
ATOM     36  C   UNL A   1      42.051  29.417  36.207  1.00  0.00     0.188 C 
BRANCH  36  37
ATOM     37  O   UNL A   1      40.689  29.775  36.008  1.00  0.00    -0.377 OA
BRANCH  37  38
ATOM     38  C   UNL A   1      40.241  30.219  34.729  1.00  0.00     0.188 C 
BRANCH  38  39
ATOM     39  C   UNL A   1      38.974  31.099  34.536  1.00  0.00     0.188 C 
BRANCH  39  40
ATOM     40  O   UNL A   1      37.959  30.542  33.720  1.00  0.00    -0.376 OA
BRANCH  40  41
ATOM     41  C   UNL A   1      37.781  30.916  32.370  1.00  0.00     0.202 C 
BRANCH  41  42
ATOM     42  C   UNL A   1      39.025  31.057  31.506  1.00  0.00     0.261 C 
BRANCH  42  43
ATOM     43  O   UNL A   1      39.091  30.117  30.453  1.00  0.00    -0.460 OA
BRANCH  43  44
ATOM     44  C   UNL A   1      38.832  30.617  29.239  1.00  0.00     0.338 C 
ATOM     45  O   UNL A   1      37.914  31.372  28.921  1.00  0.00    -0.246 OA
BRANCH  44  46
ATOM     46  C   UNL A   1      39.761  30.011  28.295  1.00  0.00     0.060 A 
ATOM     47  C   UNL A   1      39.446  28.722  27.869  1.00  0.00     0.016 A 
ATOM     48  C   UNL A   1      41.057  30.545  28.216  1.00  0.00     0.016 A 
ATOM     49  C   UNL A   1      40.490  27.860  27.658  1.00  0.00     0.010 A 
ATOM     50  C   UNL A   1      42.097  29.678  28.033  1.00  0.00     0.010 A 
ATOM     51  C   UNL A   1      41.790  28.333  27.868  1.00  0.00    -0.014 A 
BRANCH  51  52
ATOM     52  C   UNL A   1      42.849  27.360  27.892  1.00  0.00     0.031 A 
ATOM     53  C   UNL A   1      43.713  27.494  29.075  1.00  0.00     0.074 A 
ATOM     54  C   UNL A   1      42.963  26.413  26.946  1.00  0.00     0.049 A 
ATOM     55  N   UNL A   1      44.946  27.870  29.103  1.00  0.00    -0.248 NA
ATOM     56  C   UNL A   1      43.079  27.370  30.396  1.00  0.00     0.031 C 
ATOM     57  C   UNL A   1      42.006  26.038  25.902  1.00  0.00     0.029 A 
ATOM     58  N   UNL A   1      43.958  25.505  26.789  1.00  0.00    -0.354 N 
ATOM     59  C   UNL A   1      45.302  27.853  30.443  1.00  0.00     0.074 A 
ATOM     60  C   UNL A   1      44.083  27.724  31.197  1.00  0.00     0.031 C 
ATOM     61  C   UNL A   1      42.365  24.840  25.385  1.00  0.00     0.029 A 
ATOM     62  C   UNL A   1      43.632  24.436  25.971  1.00  0.00     0.049 A 
ATOM     63  H   UNL A   1      44.837  25.598  27.222  1.00  0.00     0.167 HD
ATOM     64  C   UNL A   1      46.596  27.680  30.813  1.00  0.00     0.037 A 
ATOM     65  C   UNL A   1      44.326  23.273  25.893  1.00  0.00     0.037 A 
ATOM     66  C   UNL A   1      47.499  27.971  29.729  1.00  0.00     0.049 A 
ATOM     67  C   UNL A   1      45.690  23.531  26.437  1.00  0.00     0.074 A 
ATOM     68  C   UNL A   1      47.762  29.096  28.971  1.00  0.00     0.029 A 
ATOM     69  N   UNL A   1      48.024  26.915  29.024  1.00  0.00    -0.354 N 
ATOM     70  N   UNL A   1      46.576  24.283  25.845  1.00  0.00    -0.248 NA
ATOM     71  C   UNL A   1      45.898  23.332  27.866  1.00  0.00     0.031 C 
ATOM     72  C   UNL A   1      48.004  28.611  27.652  1.00  0.00     0.029 A 
ATOM     73  C   UNL A   1      47.927  27.219  27.690  1.00  0.00     0.049 A 
ATOM     74  H   UNL A   1      48.401  26.091  29.407  1.00  0.00     0.167 HD
ATOM     75  C   UNL A   1      47.186  24.989  26.873  1.00  0.00     0.074 A 
ATOM     76  C   UNL A   1      46.790  24.299  28.098  1.00  0.00     0.031 C 
ATOM     77  C   UNL A   1      47.710  26.231  26.659  1.00  0.00     0.037 A 
BRANCH  64  78
ATOM     78  C   UNL A   1      47.003  26.885  32.021  1.00  0.00     0.064 A 
ATOM     79  C   UNL A   1      46.495  25.585  32.185  1.00  0.00     0.173 A 
ATOM     80  C   UNL A   1      47.627  27.449  33.157  1.00  0.00     0.173 A 
ATOM     81  F   UNL A   1      45.857  24.969  31.177  1.00  0.00    -0.203 F 
ATOM     82  C   UNL A   1      46.546  24.928  33.416  1.00  0.00     0.198 A 
ATOM     83  C   UNL A   1      47.732  26.767  34.365  1.00  0.00     0.198 A 
ATOM     84  F   UNL A   1      48.055  28.717  33.184  1.00  0.00    -0.203 F 
ATOM     85  F   UNL A   1      45.936  23.745  33.562  1.00  0.00    -0.200 F 
ATOM     86  C   UNL A   1      47.162  25.521  34.505  1.00  0.00     0.200 A 
ATOM     87  F   UNL A   1      48.314  27.368  35.412  1.00  0.00    -0.200 F 
ATOM     88  F   UNL A   1      47.160  24.917  35.700  1.00  0.00    -0.200 F 
ENDBRANCH  64  78
BRANCH  65  89
ATOM     89  C   UNL A   1      43.781  21.903  25.734  1.00  0.00     0.064 A 
ATOM     90  C   UNL A   1      44.452  20.949  24.952  1.00  0.00     0.173 A 
ATOM     91  C   UNL A   1      42.747  21.417  26.559  1.00  0.00     0.173 A 
ATOM     92  F   UNL A   1      45.479  21.318  24.173  1.00  0.00    -0.203 F 
ATOM     93  C   UNL A   1      44.129  19.589  25.016  1.00  0.00     0.198 A 
ATOM     94  C   UNL A   1      42.418  20.062  26.613  1.00  0.00     0.198 A 
ATOM     95  F   UNL A   1      42.097  22.228  27.405  1.00  0.00    -0.203 F 
ATOM     96  F   UNL A   1      44.839  18.700  24.306  1.00  0.00    -0.200 F 
ATOM     97  C   UNL A   1      43.120  19.146  25.853  1.00  0.00     0.200 A 
ATOM     98  F   UNL A   1      41.463  19.644  27.456  1.00  0.00    -0.200 F 
ATOM     99  F   UNL A   1      42.851  17.837  25.962  1.00  0.00    -0.200 F 
ENDBRANCH  65  89
BRANCH  77 100
ATOM    100  C   UNL A   1      47.847  26.693  25.235  1.00  0.00     0.064 A 
ATOM    101  C   UNL A   1      46.899  27.493  24.573  1.00  0.00     0.173 A 
ATOM    102  C   UNL A   1      49.049  26.428  24.563  1.00  0.00     0.173 A 
ATOM    103  F   UNL A   1      45.775  27.882  25.186  1.00  0.00    -0.203 F 
ATOM    104  C   UNL A   1      47.124  27.956  23.277  1.00  0.00     0.198 A 
ATOM    105  C   UNL A   1      49.286  26.926  23.286  1.00  0.00     0.198 A 
ATOM    106  F   UNL A   1      50.015  25.721  25.169  1.00  0.00    -0.203 F 
ATOM    107  F   UNL A   1      46.196  28.703  22.659  1.00  0.00    -0.200 F 
ATOM    108  C   UNL A   1      48.321  27.678  22.638  1.00  0.00     0.200 A 
ATOM    109  F   UNL A   1      50.466  26.697  22.692  1.00  0.00    -0.200 F 
ATOM    110  F   UNL A   1      48.554  28.157  21.408  1.00  0.00    -0.200 F 
ENDBRANCH  77 100
ENDBRANCH  51  52
ENDBRANCH  44  46
ENDBRANCH  43  44
ENDBRANCH  42  43
ENDBRANCH  41  42
ENDBRANCH  40  41
ENDBRANCH  39  40
ENDBRANCH  38  39
ENDBRANCH  37  38
ENDBRANCH  36  37
ENDBRANCH   1  36
TORSDOF 26
ENDMDL
