MODEL 1
REMARK VINA RESULT:     -10.5      0.000      0.000
REMARK SMILES O=C(C[C@@H](NC(=O)C1CCC1)c1ccc(Cl)cc1)OCCOCCOCCOCCOC(=O)c1ccc(-c2c3nc(c(-c4c(F)c(F)c(F)c(F)c4F)c4ccc([nH]4)c(-c4c(F)c(F)c(F)c(F)c4F)c4nc(c(-c5c(F)c(F)c(F)c(F)c5F)c5ccc2[nH]5)C=C4)C=C3)cc1
REMARK SMILES IDX 24 1 23 2 22 3 21 4 20 5 19 6 2 7 1 8 3 9 4 10 5 11 6 12
REMARK SMILES IDX 7 14 8 15 9 16 11 17 10 18 12 19 13 20 18 21 14 22 17 23
REMARK SMILES IDX 15 24 16 25 25 26 26 27 27 28 28 29 29 30 30 31 31 32 32 33
REMARK SMILES IDX 33 34 34 35 35 36 96 37 36 38 95 39 37 40 38 41 39 42 89 43
REMARK SMILES IDX 40 44 94 45 88 46 90 47 41 48 93 49 87 50 86 51 42 53 74 54
REMARK SMILES IDX 54 55 73 56 55 57 58 58 72 59 91 60 56 61 57 62 71 64 92 65
REMARK SMILES IDX 59 66 43 67 44 68 52 69 45 70 46 71 50 72 53 73 47 74 48 75
REMARK SMILES IDX 51 76 49 77 75 78 76 79 84 80 77 81 78 82 82 83 85 84 79 85
REMARK SMILES IDX 80 86 83 87 81 88 60 89 61 90 69 91 62 92 63 93 67 94 70 95
REMARK SMILES IDX 64 96 65 97 68 98 66 99
REMARK H PARENT 5 13 90 52 58 63
REMARK Flexibility Score: inf
ROOT
ATOM      1  C   UNL A   1      37.659  23.188  25.773  1.00  0.00     0.188 C 
ENDROOT
BRANCH   1   2
ATOM      2  C   UNL A   1      36.142  22.988  25.764  1.00  0.00     0.188 C 
BRANCH   2   3
ATOM      3  O   UNL A   1      35.660  21.666  25.598  1.00  0.00    -0.376 OA
BRANCH   3   4
ATOM      4  C   UNL A   1      34.307  21.280  25.720  1.00  0.00     0.202 C 
BRANCH   4   5
ATOM      5  C   UNL A   1      33.363  21.978  26.678  1.00  0.00     0.261 C 
BRANCH   5   6
ATOM      6  O   UNL A   1      32.380  22.904  26.160  1.00  0.00    -0.463 OA
BRANCH   6   7
ATOM      7  C   UNL A   1      31.454  23.649  26.791  1.00  0.00     0.308 C 
ATOM      8  O   UNL A   1      30.689  23.115  27.592  1.00  0.00    -0.252 OA
BRANCH   7   9
ATOM      9  C   UNL A   1      31.267  25.090  26.427  1.00  0.00     0.152 C 
BRANCH   9  10
ATOM     10  C   UNL A   1      32.488  25.752  25.785  1.00  0.00     0.123 C 
BRANCH  10  11
ATOM     11  N   UNL A   1      32.467  25.694  24.309  1.00  0.00    -0.348 N 
ATOM     12  C   UNL A   1      31.670  26.210  23.308  1.00  0.00     0.223 C 
ATOM     13  H   UNL A   1      33.205  25.150  23.950  1.00  0.00     0.164 HD
ATOM     14  O   UNL A   1      31.795  25.651  22.209  1.00  0.00    -0.275 OA
BRANCH  12  15
ATOM     15  C   UNL A   1      30.722  27.408  23.535  1.00  0.00     0.078 C 
ATOM     16  C   UNL A   1      30.432  28.347  22.319  1.00  0.00     0.013 C 
ATOM     17  C   UNL A   1      29.178  27.193  23.559  1.00  0.00     0.013 C 
ATOM     18  C   UNL A   1      29.059  28.614  22.971  1.00  0.00     0.002 C 
ENDBRANCH  12  15
ENDBRANCH  10  11
BRANCH  10  19
ATOM     19  C   UNL A   1      32.762  27.135  26.358  1.00  0.00    -0.025 A 
ATOM     20  C   UNL A   1      31.770  27.912  26.990  1.00  0.00     0.007 A 
ATOM     21  C   UNL A   1      34.040  27.695  26.197  1.00  0.00     0.007 A 
ATOM     22  C   UNL A   1      32.027  29.227  27.383  1.00  0.00     0.021 A 
ATOM     23  C   UNL A   1      34.293  29.015  26.579  1.00  0.00     0.021 A 
ATOM     24  C   UNL A   1      33.281  29.780  27.154  1.00  0.00     0.041 A 
ATOM     25  Cl  UNL A   1      33.569  31.428  27.550  1.00  0.00    -0.084 Cl
ENDBRANCH  10  19
ENDBRANCH   9  10
ENDBRANCH   7   9
ENDBRANCH   6   7
ENDBRANCH   5   6
ENDBRANCH   4   5
ENDBRANCH   3   4
ENDBRANCH   2   3
ENDBRANCH   1   2
BRANCH   1  26
ATOM     26  O   UNL A   1      38.459  22.019  25.916  1.00  0.00    -0.377 OA
BRANCH  26  27
ATOM     27  C   UNL A   1      39.707  22.224  26.567  1.00  0.00     0.188 C 
BRANCH  27  28
ATOM     28  C   UNL A   1      40.764  21.160  26.208  1.00  0.00     0.188 C 
BRANCH  28  29
ATOM     29  O   UNL A   1      41.896  21.698  25.526  1.00  0.00    -0.376 OA
BRANCH  29  30
ATOM     30  C   UNL A   1      42.828  22.395  26.347  1.00  0.00     0.202 C 
BRANCH  30  31
ATOM     31  C   UNL A   1      43.021  23.885  26.017  1.00  0.00     0.261 C 
BRANCH  31  32
ATOM     32  O   UNL A   1      42.212  24.802  26.779  1.00  0.00    -0.460 OA
BRANCH  32  33
ATOM     33  C   UNL A   1      41.359  25.604  26.112  1.00  0.00     0.338 C 
ATOM     34  O   UNL A   1      40.974  25.481  24.962  1.00  0.00    -0.246 OA
BRANCH  33  35
ATOM     35  C   UNL A   1      40.765  26.548  27.090  1.00  0.00     0.060 A 
ATOM     36  C   UNL A   1      41.086  27.908  26.982  1.00  0.00     0.016 A 
ATOM     37  C   UNL A   1      39.857  26.115  28.063  1.00  0.00     0.016 A 
ATOM     38  C   UNL A   1      40.552  28.829  27.884  1.00  0.00     0.010 A 
ATOM     39  C   UNL A   1      39.338  27.033  28.981  1.00  0.00     0.010 A 
ATOM     40  C   UNL A   1      39.726  28.384  28.926  1.00  0.00    -0.014 A 
BRANCH  40  41
ATOM     41  C   UNL A   1      39.550  29.256  30.113  1.00  0.00     0.031 A 
ATOM     42  C   UNL A   1      40.504  29.050  31.261  1.00  0.00     0.074 A 
ATOM     43  C   UNL A   1      38.624  30.228  30.171  1.00  0.00     0.049 A 
ATOM     44  N   UNL A   1      40.602  29.695  32.395  1.00  0.00    -0.248 NA
ATOM     45  C   UNL A   1      41.485  27.963  31.103  1.00  0.00     0.031 C 
ATOM     46  C   UNL A   1      37.666  30.553  29.118  1.00  0.00     0.029 A 
ATOM     47  N   UNL A   1      38.346  31.128  31.170  1.00  0.00    -0.354 N 
ATOM     48  C   UNL A   1      41.652  29.092  33.077  1.00  0.00     0.074 A 
ATOM     49  C   UNL A   1      42.134  28.007  32.254  1.00  0.00     0.031 C 
ATOM     50  C   UNL A   1      36.906  31.586  29.526  1.00  0.00     0.029 A 
ATOM     51  C   UNL A   1      37.310  31.979  30.877  1.00  0.00     0.049 A 
ATOM     52  H   UNL A   1      38.845  31.160  32.018  1.00  0.00     0.167 HD
ATOM     53  C   UNL A   1      42.180  29.419  34.279  1.00  0.00     0.037 A 
ATOM     54  C   UNL A   1      36.756  32.959  31.620  1.00  0.00     0.037 A 
ATOM     55  C   UNL A   1      41.701  30.492  35.105  1.00  0.00     0.049 A 
ATOM     56  C   UNL A   1      37.316  33.257  32.991  1.00  0.00     0.074 A 
ATOM     57  C   UNL A   1      42.178  30.916  36.331  1.00  0.00     0.029 A 
ATOM     58  N   UNL A   1      40.621  31.302  34.791  1.00  0.00    -0.354 N 
ATOM     59  N   UNL A   1      38.339  32.715  33.608  1.00  0.00    -0.248 NA
ATOM     60  C   UNL A   1      36.644  34.312  33.764  1.00  0.00     0.031 C 
ATOM     61  C   UNL A   1      41.352  31.949  36.785  1.00  0.00     0.029 A 
ATOM     62  C   UNL A   1      40.398  32.207  35.814  1.00  0.00     0.049 A 
ATOM     63  H   UNL A   1      40.091  31.242  33.963  1.00  0.00     0.167 HD
ATOM     64  C   UNL A   1      38.457  33.388  34.819  1.00  0.00     0.074 A 
ATOM     65  C   UNL A   1      37.407  34.384  34.846  1.00  0.00     0.031 C 
ATOM     66  C   UNL A   1      39.357  33.203  35.817  1.00  0.00     0.037 A 
BRANCH  53  67
ATOM     67  C   UNL A   1      43.315  28.575  34.781  1.00  0.00     0.064 A 
ATOM     68  C   UNL A   1      43.094  27.403  35.521  1.00  0.00     0.173 A 
ATOM     69  C   UNL A   1      44.641  28.947  34.520  1.00  0.00     0.173 A 
ATOM     70  F   UNL A   1      41.844  27.017  35.817  1.00  0.00    -0.203 F 
ATOM     71  C   UNL A   1      44.161  26.652  36.007  1.00  0.00     0.198 A 
ATOM     72  C   UNL A   1      45.705  28.177  34.980  1.00  0.00     0.198 A 
ATOM     73  F   UNL A   1      44.906  30.061  33.819  1.00  0.00    -0.203 F 
ATOM     74  F   UNL A   1      43.928  25.569  36.761  1.00  0.00    -0.200 F 
ATOM     75  C   UNL A   1      45.465  27.036  35.731  1.00  0.00     0.200 A 
ATOM     76  F   UNL A   1      46.964  28.546  34.706  1.00  0.00    -0.200 F 
ATOM     77  F   UNL A   1      46.492  26.313  36.199  1.00  0.00    -0.200 F 
ENDBRANCH  53  67
BRANCH  54  78
ATOM     78  C   UNL A   1      35.612  33.748  31.090  1.00  0.00     0.064 A 
ATOM     79  C   UNL A   1      35.698  34.407  29.854  1.00  0.00     0.173 A 
ATOM     80  C   UNL A   1      34.427  33.897  31.825  1.00  0.00     0.173 A 
ATOM     81  F   UNL A   1      36.821  34.320  29.127  1.00  0.00    -0.203 F 
ATOM     82  C   UNL A   1      34.652  35.200  29.385  1.00  0.00     0.198 A 
ATOM     83  C   UNL A   1      33.371  34.669  31.343  1.00  0.00     0.198 A 
ATOM     84  F   UNL A   1      34.296  33.297  33.017  1.00  0.00    -0.203 F 
ATOM     85  F   UNL A   1      34.783  35.860  28.227  1.00  0.00    -0.200 F 
ATOM     86  C   UNL A   1      33.487  35.326  30.127  1.00  0.00     0.200 A 
ATOM     87  F   UNL A   1      32.245  34.784  32.060  1.00  0.00    -0.200 F 
ATOM     88  F   UNL A   1      32.483  36.092  29.677  1.00  0.00    -0.200 F 
ENDBRANCH  54  78
BRANCH  66  89
ATOM     89  C   UNL A   1      39.283  34.128  37.000  1.00  0.00     0.064 A 
ATOM     90  C   UNL A   1      38.591  33.783  38.170  1.00  0.00     0.173 A 
ATOM     91  C   UNL A   1      39.952  35.362  36.974  1.00  0.00     0.173 A 
ATOM     92  F   UNL A   1      37.925  32.620  38.242  1.00  0.00    -0.203 F 
ATOM     93  C   UNL A   1      38.546  34.651  39.257  1.00  0.00     0.198 A 
ATOM     94  C   UNL A   1      39.933  36.213  38.075  1.00  0.00     0.198 A 
ATOM     95  F   UNL A   1      40.640  35.736  35.883  1.00  0.00    -0.203 F 
ATOM     96  F   UNL A   1      37.834  34.324  40.344  1.00  0.00    -0.200 F 
ATOM     97  C   UNL A   1      39.221  35.861  39.212  1.00  0.00     0.200 A 
ATOM     98  F   UNL A   1      40.602  37.374  38.036  1.00  0.00    -0.200 F 
ATOM     99  F   UNL A   1      39.182  36.694  40.261  1.00  0.00    -0.200 F 
ENDBRANCH  66  89
ENDBRANCH  40  41
ENDBRANCH  33  35
ENDBRANCH  32  33
ENDBRANCH  31  32
ENDBRANCH  30  31
ENDBRANCH  29  30
ENDBRANCH  28  29
ENDBRANCH  27  28
ENDBRANCH  26  27
ENDBRANCH   1  26
TORSDOF 24
ENDMDL
MODEL 2
REMARK VINA RESULT:     -10.0      2.649      4.293
REMARK SMILES O=C(C[C@@H](NC(=O)C1CCC1)c1ccc(Cl)cc1)OCCOCCOCCOCCOC(=O)c1ccc(-c2c3nc(c(-c4c(F)c(F)c(F)c(F)c4F)c4ccc([nH]4)c(-c4c(F)c(F)c(F)c(F)c4F)c4nc(c(-c5c(F)c(F)c(F)c(F)c5F)c5ccc2[nH]5)C=C4)C=C3)cc1
REMARK SMILES IDX 24 1 23 2 22 3 21 4 20 5 19 6 2 7 1 8 3 9 4 10 5 11 6 12
REMARK SMILES IDX 7 14 8 15 9 16 11 17 10 18 12 19 13 20 18 21 14 22 17 23
REMARK SMILES IDX 15 24 16 25 25 26 26 27 27 28 28 29 29 30 30 31 31 32 32 33
REMARK SMILES IDX 33 34 34 35 35 36 96 37 36 38 95 39 37 40 38 41 39 42 89 43
REMARK SMILES IDX 40 44 94 45 88 46 90 47 41 48 93 49 87 50 86 51 42 53 74 54
REMARK SMILES IDX 54 55 73 56 55 57 58 58 72 59 91 60 56 61 57 62 71 64 92 65
REMARK SMILES IDX 59 66 43 67 44 68 52 69 45 70 46 71 50 72 53 73 47 74 48 75
REMARK SMILES IDX 51 76 49 77 75 78 76 79 84 80 77 81 78 82 82 83 85 84 79 85
REMARK SMILES IDX 80 86 83 87 81 88 60 89 61 90 69 91 62 92 63 93 67 94 70 95
REMARK SMILES IDX 64 96 65 97 68 98 66 99
REMARK H PARENT 5 13 90 52 58 63
REMARK Flexibility Score: inf
ROOT
ATOM      1  C   UNL A   1      37.129  22.780  25.403  1.00  0.00     0.188 C 
ENDROOT
BRANCH   1   2
ATOM      2  C   UNL A   1      35.865  23.282  26.103  1.00  0.00     0.188 C 
BRANCH   2   3
ATOM      3  O   UNL A   1      34.918  22.312  26.514  1.00  0.00    -0.376 OA
BRANCH   3   4
ATOM      4  C   UNL A   1      34.080  22.431  27.645  1.00  0.00     0.202 C 
BRANCH   4   5
ATOM      5  C   UNL A   1      32.591  22.679  27.510  1.00  0.00     0.261 C 
BRANCH   5   6
ATOM      6  O   UNL A   1      31.892  22.196  26.339  1.00  0.00    -0.463 OA
BRANCH   6   7
ATOM      7  C   UNL A   1      31.222  22.857  25.378  1.00  0.00     0.308 C 
ATOM      8  O   UNL A   1      30.671  23.923  25.647  1.00  0.00    -0.252 OA
BRANCH   7   9
ATOM      9  C   UNL A   1      31.034  22.240  24.026  1.00  0.00     0.152 C 
BRANCH   9  10
ATOM     10  C   UNL A   1      32.330  21.854  23.312  1.00  0.00     0.123 C 
BRANCH  10  11
ATOM     11  N   UNL A   1      33.415  22.837  23.515  1.00  0.00    -0.348 N 
ATOM     12  C   UNL A   1      33.686  24.118  23.077  1.00  0.00     0.223 C 
ATOM     13  H   UNL A   1      34.119  22.494  24.110  1.00  0.00     0.164 HD
ATOM     14  O   UNL A   1      34.868  24.468  23.210  1.00  0.00    -0.275 OA
BRANCH  12  15
ATOM     15  C   UNL A   1      32.597  25.047  22.496  1.00  0.00     0.078 C 
ATOM     16  C   UNL A   1      31.989  26.134  23.441  1.00  0.00     0.013 C 
ATOM     17  C   UNL A   1      32.995  26.253  21.593  1.00  0.00     0.013 C 
ATOM     18  C   UNL A   1      31.763  26.979  22.170  1.00  0.00     0.002 C 
ENDBRANCH  12  15
ENDBRANCH  10  11
BRANCH  10  19
ATOM     19  C   UNL A   1      32.730  20.411  23.577  1.00  0.00    -0.025 A 
ATOM     20  C   UNL A   1      33.776  20.055  24.452  1.00  0.00     0.007 A 
ATOM     21  C   UNL A   1      32.074  19.385  22.876  1.00  0.00     0.007 A 
ATOM     22  C   UNL A   1      34.200  18.730  24.568  1.00  0.00     0.021 A 
ATOM     23  C   UNL A   1      32.507  18.061  22.983  1.00  0.00     0.021 A 
ATOM     24  C   UNL A   1      33.578  17.741  23.814  1.00  0.00     0.041 A 
ATOM     25  Cl  UNL A   1      34.160  16.126  23.883  1.00  0.00    -0.084 Cl
ENDBRANCH  10  19
ENDBRANCH   9  10
ENDBRANCH   7   9
ENDBRANCH   6   7
ENDBRANCH   5   6
ENDBRANCH   4   5
ENDBRANCH   3   4
ENDBRANCH   2   3
ENDBRANCH   1   2
BRANCH   1  26
ATOM     26  O   UNL A   1      37.614  21.501  25.796  1.00  0.00    -0.377 OA
BRANCH  26  27
ATOM     27  C   UNL A   1      39.009  21.303  25.597  1.00  0.00     0.188 C 
BRANCH  27  28
ATOM     28  C   UNL A   1      39.436  19.825  25.702  1.00  0.00     0.188 C 
BRANCH  28  29
ATOM     29  O   UNL A   1      40.768  19.657  26.185  1.00  0.00    -0.376 OA
BRANCH  29  30
ATOM     30  C   UNL A   1      41.361  20.819  26.757  1.00  0.00     0.202 C 
BRANCH  30  31
ATOM     31  C   UNL A   1      42.811  21.104  26.330  1.00  0.00     0.261 C 
BRANCH  31  32
ATOM     32  O   UNL A   1      43.312  22.414  26.659  1.00  0.00    -0.460 OA
BRANCH  32  33
ATOM     33  C   UNL A   1      43.119  23.411  25.773  1.00  0.00     0.338 C 
ATOM     34  O   UNL A   1      43.246  23.359  24.562  1.00  0.00    -0.246 OA
BRANCH  33  35
ATOM     35  C   UNL A   1      42.485  24.541  26.494  1.00  0.00     0.060 A 
ATOM     36  C   UNL A   1      43.050  25.818  26.360  1.00  0.00     0.016 A 
ATOM     37  C   UNL A   1      41.316  24.367  27.244  1.00  0.00     0.016 A 
ATOM     38  C   UNL A   1      42.487  26.908  27.023  1.00  0.00     0.010 A 
ATOM     39  C   UNL A   1      40.763  25.454  27.927  1.00  0.00     0.010 A 
ATOM     40  C   UNL A   1      41.379  26.717  27.860  1.00  0.00    -0.014 A 
BRANCH  40  41
ATOM     41  C   UNL A   1      41.085  27.741  28.893  1.00  0.00     0.031 A 
ATOM     42  C   UNL A   1      42.049  27.847  30.046  1.00  0.00     0.074 A 
ATOM     43  C   UNL A   1      40.042  28.584  28.804  1.00  0.00     0.049 A 
ATOM     44  N   UNL A   1      42.055  28.675  31.059  1.00  0.00    -0.248 NA
ATOM     45  C   UNL A   1      43.161  26.882  30.053  1.00  0.00     0.031 C 
ATOM     46  C   UNL A   1      39.059  28.610  27.725  1.00  0.00     0.029 A 
ATOM     47  N   UNL A   1      39.645  29.592  29.648  1.00  0.00    -0.354 N 
ATOM     48  C   UNL A   1      43.168  28.330  31.816  1.00  0.00     0.074 A 
ATOM     49  C   UNL A   1      43.790  27.195  31.173  1.00  0.00     0.031 C 
ATOM     50  C   UNL A   1      38.170  29.590  27.970  1.00  0.00     0.029 A 
ATOM     51  C   UNL A   1      38.511  30.246  29.233  1.00  0.00     0.049 A 
ATOM     52  H   UNL A   1      40.129  29.825  30.472  1.00  0.00     0.167 HD
ATOM     53  C   UNL A   1      43.641  28.912  32.942  1.00  0.00     0.037 A 
ATOM     54  C   UNL A   1      37.831  31.256  29.815  1.00  0.00     0.037 A 
ATOM     55  C   UNL A   1      43.023  30.035  33.588  1.00  0.00     0.049 A 
ATOM     56  C   UNL A   1      38.338  31.841  31.112  1.00  0.00     0.074 A 
ATOM     57  C   UNL A   1      43.433  30.710  34.723  1.00  0.00     0.029 A 
ATOM     58  N   UNL A   1      41.851  30.640  33.161  1.00  0.00    -0.354 N 
ATOM     59  N   UNL A   1      39.417  31.541  31.795  1.00  0.00    -0.248 NA
ATOM     60  C   UNL A   1      37.532  32.915  31.712  1.00  0.00     0.031 C 
ATOM     61  C   UNL A   1      42.479  31.691  35.014  1.00  0.00     0.029 A 
ATOM     62  C   UNL A   1      41.507  31.665  34.027  1.00  0.00     0.049 A 
ATOM     63  H   UNL A   1      41.340  30.380  32.361  1.00  0.00     0.167 HD
ATOM     64  C   UNL A   1      39.439  32.412  32.879  1.00  0.00     0.074 A 
ATOM     65  C   UNL A   1      38.271  33.258  32.757  1.00  0.00     0.031 C 
ATOM     66  C   UNL A   1      40.348  32.508  33.882  1.00  0.00     0.037 A 
BRANCH  53  67
ATOM     67  C   UNL A   1      44.870  28.312  33.558  1.00  0.00     0.064 A 
ATOM     68  C   UNL A   1      46.158  28.765  33.231  1.00  0.00     0.173 A 
ATOM     69  C   UNL A   1      44.757  27.267  34.487  1.00  0.00     0.173 A 
ATOM     70  F   UNL A   1      46.321  29.746  32.331  1.00  0.00    -0.203 F 
ATOM     71  C   UNL A   1      47.288  28.171  33.788  1.00  0.00     0.198 A 
ATOM     72  C   UNL A   1      45.887  26.697  35.065  1.00  0.00     0.198 A 
ATOM     73  F   UNL A   1      43.548  26.795  34.830  1.00  0.00    -0.203 F 
ATOM     74  F   UNL A   1      48.509  28.580  33.417  1.00  0.00    -0.200 F 
ATOM     75  C   UNL A   1      47.151  27.143  34.709  1.00  0.00     0.200 A 
ATOM     76  F   UNL A   1      45.753  25.710  35.961  1.00  0.00    -0.200 F 
ATOM     77  F   UNL A   1      48.239  26.573  35.246  1.00  0.00    -0.200 F 
ENDBRANCH  53  67
BRANCH  54  78
ATOM     78  C   UNL A   1      36.600  31.797  29.179  1.00  0.00     0.064 A 
ATOM     79  C   UNL A   1      35.467  30.991  28.995  1.00  0.00     0.173 A 
ATOM     80  C   UNL A   1      36.545  33.115  28.702  1.00  0.00     0.173 A 
ATOM     81  F   UNL A   1      35.481  29.715  29.405  1.00  0.00    -0.203 F 
ATOM     82  C   UNL A   1      34.336  31.476  28.341  1.00  0.00     0.198 A 
ATOM     83  C   UNL A   1      35.404  33.607  28.073  1.00  0.00     0.198 A 
ATOM     84  F   UNL A   1      37.604  33.925  28.844  1.00  0.00    -0.203 F 
ATOM     85  F   UNL A   1      33.288  30.667  28.132  1.00  0.00    -0.200 F 
ATOM     86  C   UNL A   1      34.302  32.785  27.886  1.00  0.00     0.200 A 
ATOM     87  F   UNL A   1      35.372  34.875  27.639  1.00  0.00    -0.200 F 
ATOM     88  F   UNL A   1      33.215  33.250  27.254  1.00  0.00    -0.200 F 
ENDBRANCH  54  78
BRANCH  66  89
ATOM     89  C   UNL A   1      40.148  33.596  34.899  1.00  0.00     0.064 A 
ATOM     90  C   UNL A   1      40.677  34.883  34.722  1.00  0.00     0.173 A 
ATOM     91  C   UNL A   1      39.380  33.355  36.049  1.00  0.00     0.173 A 
ATOM     92  F   UNL A   1      41.428  35.162  33.646  1.00  0.00    -0.203 F 
ATOM     93  C   UNL A   1      40.470  35.878  35.673  1.00  0.00     0.198 A 
ATOM     94  C   UNL A   1      39.147  34.361  36.981  1.00  0.00     0.198 A 
ATOM     95  F   UNL A   1      38.841  32.144  36.261  1.00  0.00    -0.203 F 
ATOM     96  F   UNL A   1      41.029  37.085  35.510  1.00  0.00    -0.200 F 
ATOM     97  C   UNL A   1      39.700  35.620  36.798  1.00  0.00     0.200 A 
ATOM     98  F   UNL A   1      38.388  34.114  38.058  1.00  0.00    -0.200 F 
ATOM     99  F   UNL A   1      39.496  36.581  37.709  1.00  0.00    -0.200 F 
ENDBRANCH  66  89
ENDBRANCH  40  41
ENDBRANCH  33  35
ENDBRANCH  32  33
ENDBRANCH  31  32
ENDBRANCH  30  31
ENDBRANCH  29  30
ENDBRANCH  28  29
ENDBRANCH  27  28
ENDBRANCH  26  27
ENDBRANCH   1  26
TORSDOF 24
ENDMDL
MODEL 3
REMARK VINA RESULT:      -9.9      4.293      5.987
REMARK SMILES O=C(C[C@@H](NC(=O)C1CCC1)c1ccc(Cl)cc1)OCCOCCOCCOCCOC(=O)c1ccc(-c2c3nc(c(-c4c(F)c(F)c(F)c(F)c4F)c4ccc([nH]4)c(-c4c(F)c(F)c(F)c(F)c4F)c4nc(c(-c5c(F)c(F)c(F)c(F)c5F)c5ccc2[nH]5)C=C4)C=C3)cc1
REMARK SMILES IDX 24 1 23 2 22 3 21 4 20 5 19 6 2 7 1 8 3 9 4 10 5 11 6 12
REMARK SMILES IDX 7 14 8 15 9 16 11 17 10 18 12 19 13 20 18 21 14 22 17 23
REMARK SMILES IDX 15 24 16 25 25 26 26 27 27 28 28 29 29 30 30 31 31 32 32 33
REMARK SMILES IDX 33 34 34 35 35 36 96 37 36 38 95 39 37 40 38 41 39 42 89 43
REMARK SMILES IDX 40 44 94 45 88 46 90 47 41 48 93 49 87 50 86 51 42 53 74 54
REMARK SMILES IDX 54 55 73 56 55 57 58 58 72 59 91 60 56 61 57 62 71 64 92 65
REMARK SMILES IDX 59 66 43 67 44 68 52 69 45 70 46 71 50 72 53 73 47 74 48 75
REMARK SMILES IDX 51 76 49 77 75 78 76 79 84 80 77 81 78 82 82 83 85 84 79 85
REMARK SMILES IDX 80 86 83 87 81 88 60 89 61 90 69 91 62 92 63 93 67 94 70 95
REMARK SMILES IDX 64 96 65 97 68 98 66 99
REMARK H PARENT 5 13 90 52 58 63
REMARK Flexibility Score: inf
ROOT
ATOM      1  C   UNL A   1      35.877  23.526  25.705  1.00  0.00     0.188 C 
ENDROOT
BRANCH   1   2
ATOM      2  C   UNL A   1      34.394  23.790  25.975  1.00  0.00     0.188 C 
BRANCH   2   3
ATOM      3  O   UNL A   1      33.503  22.695  25.850  1.00  0.00    -0.376 OA
BRANCH   3   4
ATOM      4  C   UNL A   1      32.408  22.446  26.706  1.00  0.00     0.202 C 
BRANCH   4   5
ATOM      5  C   UNL A   1      31.036  23.031  26.435  1.00  0.00     0.261 C 
BRANCH   5   6
ATOM      6  O   UNL A   1      30.922  24.405  25.997  1.00  0.00    -0.463 OA
BRANCH   6   7
ATOM      7  C   UNL A   1      29.855  25.221  25.928  1.00  0.00     0.308 C 
ATOM      8  O   UNL A   1      29.067  25.271  26.871  1.00  0.00    -0.252 OA
BRANCH   7   9
ATOM      9  C   UNL A   1      29.553  25.965  24.663  1.00  0.00     0.152 C 
BRANCH   9  10
ATOM     10  C   UNL A   1      30.442  27.183  24.408  1.00  0.00     0.123 C 
BRANCH  10  11
ATOM     11  N   UNL A   1      31.848  26.822  24.128  1.00  0.00    -0.348 N 
ATOM     12  C   UNL A   1      33.072  27.081  24.712  1.00  0.00     0.223 C 
ATOM     13  H   UNL A   1      31.933  26.257  23.327  1.00  0.00     0.164 HD
ATOM     14  O   UNL A   1      34.048  26.870  23.977  1.00  0.00    -0.275 OA
BRANCH  12  15
ATOM     15  C   UNL A   1      33.212  27.565  26.172  1.00  0.00     0.078 C 
ATOM     16  C   UNL A   1      34.322  28.619  26.485  1.00  0.00     0.013 C 
ATOM     17  C   UNL A   1      32.230  28.634  26.741  1.00  0.00     0.013 C 
ATOM     18  C   UNL A   1      33.402  29.114  27.621  1.00  0.00     0.002 C 
ENDBRANCH  12  15
ENDBRANCH  10  11
BRANCH  10  19
ATOM     19  C   UNL A   1      29.828  28.148  23.405  1.00  0.00    -0.025 A 
ATOM     20  C   UNL A   1      30.601  28.981  22.572  1.00  0.00     0.007 A 
ATOM     21  C   UNL A   1      28.429  28.265  23.345  1.00  0.00     0.007 A 
ATOM     22  C   UNL A   1      30.001  29.947  21.762  1.00  0.00     0.021 A 
ATOM     23  C   UNL A   1      27.830  29.240  22.544  1.00  0.00     0.021 A 
ATOM     24  C   UNL A   1      28.618  30.087  21.769  1.00  0.00     0.041 A 
ATOM     25  Cl  UNL A   1      27.886  31.338  20.845  1.00  0.00    -0.084 Cl
ENDBRANCH  10  19
ENDBRANCH   9  10
ENDBRANCH   7   9
ENDBRANCH   6   7
ENDBRANCH   5   6
ENDBRANCH   4   5
ENDBRANCH   3   4
ENDBRANCH   2   3
ENDBRANCH   1   2
BRANCH   1  26
ATOM     26  O   UNL A   1      36.325  22.184  25.849  1.00  0.00    -0.377 OA
BRANCH  26  27
ATOM     27  C   UNL A   1      37.548  21.886  25.186  1.00  0.00     0.188 C 
BRANCH  27  28
ATOM     28  C   UNL A   1      37.746  20.380  24.920  1.00  0.00     0.188 C 
BRANCH  28  29
ATOM     29  O   UNL A   1      38.971  19.872  25.446  1.00  0.00    -0.376 OA
BRANCH  29  30
ATOM     30  C   UNL A   1      39.786  20.824  26.124  1.00  0.00     0.202 C 
BRANCH  30  31
ATOM     31  C   UNL A   1      40.947  20.240  26.946  1.00  0.00     0.261 C 
BRANCH  31  32
ATOM     32  O   UNL A   1      42.038  21.142  27.213  1.00  0.00    -0.460 OA
BRANCH  32  33
ATOM     33  C   UNL A   1      42.351  22.058  26.275  1.00  0.00     0.338 C 
ATOM     34  O   UNL A   1      42.587  21.858  25.096  1.00  0.00    -0.246 OA
BRANCH  33  35
ATOM     35  C   UNL A   1      42.128  23.402  26.861  1.00  0.00     0.060 A 
ATOM     36  C   UNL A   1      41.916  24.482  25.992  1.00  0.00     0.016 A 
ATOM     37  C   UNL A   1      42.065  23.593  28.246  1.00  0.00     0.016 A 
ATOM     38  C   UNL A   1      41.706  25.763  26.502  1.00  0.00     0.010 A 
ATOM     39  C   UNL A   1      41.876  24.879  28.759  1.00  0.00     0.010 A 
ATOM     40  C   UNL A   1      41.749  25.976  27.887  1.00  0.00    -0.014 A 
BRANCH  40  41
ATOM     41  C   UNL A   1      41.989  27.352  28.386  1.00  0.00     0.031 A 
ATOM     42  C   UNL A   1      43.417  27.832  28.411  1.00  0.00     0.074 A 
ATOM     43  C   UNL A   1      40.993  28.175  28.758  1.00  0.00     0.049 A 
ATOM     44  N   UNL A   1      43.905  28.996  28.758  1.00  0.00    -0.248 NA
ATOM     45  C   UNL A   1      44.436  26.859  27.982  1.00  0.00     0.031 C 
ATOM     46  C   UNL A   1      39.571  27.847  28.747  1.00  0.00     0.029 A 
ATOM     47  N   UNL A   1      41.039  29.470  29.214  1.00  0.00    -0.354 N 
ATOM     48  C   UNL A   1      45.279  28.890  28.586  1.00  0.00     0.074 A 
ATOM     49  C   UNL A   1      45.556  27.542  28.145  1.00  0.00     0.031 C 
ATOM     50  C   UNL A   1      38.875  28.917  29.176  1.00  0.00     0.029 A 
ATOM     51  C   UNL A   1      39.806  29.996  29.509  1.00  0.00     0.049 A 
ATOM     52  H   UNL A   1      41.878  29.973  29.319  1.00  0.00     0.167 HD
ATOM     53  C   UNL A   1      46.230  29.835  28.767  1.00  0.00     0.037 A 
ATOM     54  C   UNL A   1      39.476  31.210  29.995  1.00  0.00     0.037 A 
ATOM     55  C   UNL A   1      45.962  31.174  29.212  1.00  0.00     0.049 A 
ATOM     56  C   UNL A   1      40.563  32.224  30.259  1.00  0.00     0.074 A 
ATOM     57  C   UNL A   1      46.853  32.213  29.409  1.00  0.00     0.029 A 
ATOM     58  N   UNL A   1      44.704  31.654  29.542  1.00  0.00    -0.354 N 
ATOM     59  N   UNL A   1      41.855  32.134  30.049  1.00  0.00    -0.248 NA
ATOM     60  C   UNL A   1      40.140  33.515  30.822  1.00  0.00     0.031 C 
ATOM     61  C   UNL A   1      46.141  33.307  29.912  1.00  0.00     0.029 A 
ATOM     62  C   UNL A   1      44.798  32.968  29.970  1.00  0.00     0.049 A 
ATOM     63  H   UNL A   1      43.868  31.137  29.481  1.00  0.00     0.167 HD
ATOM     64  C   UNL A   1      42.391  33.364  30.415  1.00  0.00     0.074 A 
ATOM     65  C   UNL A   1      41.283  34.187  30.852  1.00  0.00     0.031 C 
ATOM     66  C   UNL A   1      43.683  33.778  30.386  1.00  0.00     0.037 A 
BRANCH  53  67
ATOM     67  C   UNL A   1      47.653  29.431  28.515  1.00  0.00     0.064 A 
ATOM     68  C   UNL A   1      48.212  29.454  27.228  1.00  0.00     0.173 A 
ATOM     69  C   UNL A   1      48.467  29.012  29.577  1.00  0.00     0.173 A 
ATOM     70  F   UNL A   1      47.467  29.824  26.175  1.00  0.00    -0.203 F 
ATOM     71  C   UNL A   1      49.524  29.042  27.010  1.00  0.00     0.198 A 
ATOM     72  C   UNL A   1      49.788  28.631  29.360  1.00  0.00     0.198 A 
ATOM     73  F   UNL A   1      47.980  28.969  30.827  1.00  0.00    -0.203 F 
ATOM     74  F   UNL A   1      50.018  29.016  25.764  1.00  0.00    -0.200 F 
ATOM     75  C   UNL A   1      50.313  28.637  28.076  1.00  0.00     0.200 A 
ATOM     76  F   UNL A   1      50.551  28.249  30.393  1.00  0.00    -0.200 F 
ATOM     77  F   UNL A   1      51.576  28.242  27.866  1.00  0.00    -0.200 F 
ENDBRANCH  53  67
BRANCH  54  78
ATOM     78  C   UNL A   1      38.052  31.553  30.256  1.00  0.00     0.064 A 
ATOM     79  C   UNL A   1      37.498  31.416  31.538  1.00  0.00     0.173 A 
ATOM     80  C   UNL A   1      37.204  31.981  29.224  1.00  0.00     0.173 A 
ATOM     81  F   UNL A   1      38.260  30.981  32.552  1.00  0.00    -0.203 F 
ATOM     82  C   UNL A   1      36.149  31.674  31.772  1.00  0.00     0.198 A 
ATOM     83  C   UNL A   1      35.861  32.265  29.465  1.00  0.00     0.198 A 
ATOM     84  F   UNL A   1      37.679  32.120  27.978  1.00  0.00    -0.203 F 
ATOM     85  F   UNL A   1      35.636  31.484  32.995  1.00  0.00    -0.200 F 
ATOM     86  C   UNL A   1      35.332  32.104  30.737  1.00  0.00     0.200 A 
ATOM     87  F   UNL A   1      35.076  32.685  28.464  1.00  0.00    -0.200 F 
ATOM     88  F   UNL A   1      34.034  32.348  30.962  1.00  0.00    -0.200 F 
ENDBRANCH  54  78
BRANCH  66  89
ATOM     89  C   UNL A   1      43.966  35.198  30.788  1.00  0.00     0.064 A 
ATOM     90  C   UNL A   1      44.360  35.536  32.091  1.00  0.00     0.173 A 
ATOM     91  C   UNL A   1      43.882  36.230  29.840  1.00  0.00     0.173 A 
ATOM     92  F   UNL A   1      44.445  34.589  33.038  1.00  0.00    -0.203 F 
ATOM     93  C   UNL A   1      44.628  36.858  32.437  1.00  0.00     0.198 A 
ATOM     94  C   UNL A   1      44.184  37.545  30.181  1.00  0.00     0.198 A 
ATOM     95  F   UNL A   1      43.522  35.959  28.576  1.00  0.00    -0.203 F 
ATOM     96  F   UNL A   1      44.950  37.165  33.701  1.00  0.00    -0.200 F 
ATOM     97  C   UNL A   1      44.547  37.860  31.482  1.00  0.00     0.200 A 
ATOM     98  F   UNL A   1      44.122  38.509  29.251  1.00  0.00    -0.200 F 
ATOM     99  F   UNL A   1      44.812  39.130  31.815  1.00  0.00    -0.200 F 
ENDBRANCH  66  89
ENDBRANCH  40  41
ENDBRANCH  33  35
ENDBRANCH  32  33
ENDBRANCH  31  32
ENDBRANCH  30  31
ENDBRANCH  29  30
ENDBRANCH  28  29
ENDBRANCH  27  28
ENDBRANCH  26  27
ENDBRANCH   1  26
TORSDOF 24
ENDMDL
