MODEL 1
REMARK VINA RESULT:      -9.6      0.000      0.000
REMARK SMILES CC[C@@](C)(C(=O)OCCOCCOCCOCCOC(=O)c1ccc(-c2c3nc(c(-c4c(F)c(F)c(F)c(F)c4F)c4ccc([nH]4)c(-c4c(F)c(F)c(F)c(F)c4F)c4nc(c(-c5c(F)c(F)c(F)c(F)c5F)c5ccc2[nH]5)C=C4)C=C3)cc1)n1nnnc1Cc1cccs1
REMARK SMILES IDX 12 1 11 2 10 3 9 4 8 5 7 6 5 7 6 8 3 9 4 10 2 11 1 12 85 13
REMARK SMILES IDX 86 14 89 15 87 16 88 17 90 18 91 19 92 20 95 21 93 22 94 23
REMARK SMILES IDX 13 24 14 25 15 26 16 27 17 28 18 29 19 30 20 31 21 32 22 33
REMARK SMILES IDX 23 34 84 35 24 36 83 37 25 38 26 39 27 40 77 41 28 42 82 43
REMARK SMILES IDX 76 44 78 45 29 46 81 47 75 48 74 49 30 51 62 52 42 53 61 54
REMARK SMILES IDX 43 55 46 56 60 57 79 58 44 59 45 60 59 62 80 63 47 64 31 65
REMARK SMILES IDX 32 66 40 67 33 68 34 69 38 70 41 71 35 72 36 73 39 74 37 75
REMARK SMILES IDX 63 76 64 77 72 78 65 79 66 80 70 81 73 82 67 83 68 84 71 85
REMARK SMILES IDX 69 86 48 87 49 88 57 89 50 90 51 91 55 92 58 93 52 94 53 95
REMARK SMILES IDX 56 96 54 97
REMARK H PARENT 78 50 46 61
REMARK Flexibility Score: inf
ROOT
ATOM      1  C   UNL A   1      40.416  21.419  27.264  1.00  0.00     0.188 C 
ENDROOT
BRANCH   1   2
ATOM      2  C   UNL A   1      39.586  22.019  26.123  1.00  0.00     0.188 C 
BRANCH   2   3
ATOM      3  O   UNL A   1      38.592  21.195  25.554  1.00  0.00    -0.376 OA
BRANCH   3   4
ATOM      4  C   UNL A   1      37.247  21.637  25.471  1.00  0.00     0.202 C 
BRANCH   4   5
ATOM      5  C   UNL A   1      36.713  22.770  24.569  1.00  0.00     0.261 C 
BRANCH   5   6
ATOM      6  O   UNL A   1      35.321  22.769  24.214  1.00  0.00    -0.461 OA
BRANCH   6   7
ATOM      7  C   UNL A   1      34.448  23.177  25.176  1.00  0.00     0.334 C 
ATOM      8  O   UNL A   1      34.677  24.127  25.923  1.00  0.00    -0.249 OA
BRANCH   7   9
ATOM      9  C   UNL A   1      33.161  22.299  25.303  1.00  0.00     0.160 C 
ATOM     10  C   UNL A   1      33.648  21.209  26.275  1.00  0.00     0.050 C 
BRANCH   9  11
ATOM     11  C   UNL A   1      32.738  21.630  23.954  1.00  0.00     0.039 C 
ATOM     12  C   UNL A   1      32.511  20.123  23.925  1.00  0.00     0.007 C 
ENDBRANCH   9  11
BRANCH   9  13
ATOM     13  N   UNL A   1      32.101  23.149  25.870  1.00  0.00    -0.212 N 
ATOM     14  N   UNL A   1      31.712  22.934  27.150  1.00  0.00    -0.044 NA
ATOM     15  C   UNL A   1      31.384  24.231  25.398  1.00  0.00     0.157 A 
ATOM     16  N   UNL A   1      30.774  23.819  27.422  1.00  0.00    -0.024 NA
ATOM     17  N   UNL A   1      30.569  24.635  26.358  1.00  0.00    -0.113 NA
BRANCH  15  18
ATOM     18  C   UNL A   1      31.498  24.920  24.089  1.00  0.00     0.125 C 
BRANCH  18  19
ATOM     19  C   UNL A   1      31.679  26.403  24.217  1.00  0.00     0.012 A 
ATOM     20  C   UNL A   1      32.822  27.099  24.563  1.00  0.00     0.016 A 
ATOM     21  S   UNL A   1      30.385  27.468  23.860  1.00  0.00    -0.148 S 
ATOM     22  C   UNL A   1      32.615  28.508  24.569  1.00  0.00     0.012 A 
ATOM     23  C   UNL A   1      31.325  28.841  24.227  1.00  0.00     0.065 A 
ENDBRANCH  18  19
ENDBRANCH  15  18
ENDBRANCH   9  13
ENDBRANCH   7   9
ENDBRANCH   6   7
ENDBRANCH   5   6
ENDBRANCH   4   5
ENDBRANCH   3   4
ENDBRANCH   2   3
ENDBRANCH   1   2
BRANCH   1  24
ATOM     24  O   UNL A   1      41.703  20.933  26.919  1.00  0.00    -0.377 OA
BRANCH  24  25
ATOM     25  C   UNL A   1      41.809  19.723  26.181  1.00  0.00     0.188 C 
BRANCH  25  26
ATOM     26  C   UNL A   1      43.184  19.184  25.739  1.00  0.00     0.188 C 
BRANCH  26  27
ATOM     27  O   UNL A   1      43.729  19.799  24.587  1.00  0.00    -0.376 OA
BRANCH  27  28
ATOM     28  C   UNL A   1      44.870  20.634  24.710  1.00  0.00     0.202 C 
BRANCH  28  29
ATOM     29  C   UNL A   1      44.866  21.740  25.777  1.00  0.00     0.261 C 
BRANCH  29  30
ATOM     30  O   UNL A   1      43.808  22.710  25.697  1.00  0.00    -0.460 OA
BRANCH  30  31
ATOM     31  C   UNL A   1      44.136  23.993  25.434  1.00  0.00     0.338 C 
ATOM     32  O   UNL A   1      44.428  24.479  24.364  1.00  0.00    -0.246 OA
BRANCH  31  33
ATOM     33  C   UNL A   1      43.888  24.773  26.667  1.00  0.00     0.060 A 
ATOM     34  C   UNL A   1      42.960  24.290  27.598  1.00  0.00     0.016 A 
ATOM     35  C   UNL A   1      44.559  25.975  26.893  1.00  0.00     0.016 A 
ATOM     36  C   UNL A   1      42.667  25.032  28.743  1.00  0.00     0.010 A 
ATOM     37  C   UNL A   1      44.247  26.731  28.027  1.00  0.00     0.010 A 
ATOM     38  C   UNL A   1      43.272  26.280  28.934  1.00  0.00    -0.014 A 
BRANCH  38  39
ATOM     39  C   UNL A   1      42.726  27.205  29.957  1.00  0.00     0.031 A 
ATOM     40  C   UNL A   1      43.428  27.287  31.285  1.00  0.00     0.074 A 
ATOM     41  C   UNL A   1      41.653  27.974  29.708  1.00  0.00     0.049 A 
ATOM     42  N   UNL A   1      43.114  27.973  32.354  1.00  0.00    -0.248 NA
ATOM     43  C   UNL A   1      44.650  26.478  31.426  1.00  0.00     0.031 C 
ATOM     44  C   UNL A   1      40.923  28.024  28.444  1.00  0.00     0.029 A 
ATOM     45  N   UNL A   1      40.986  28.858  30.520  1.00  0.00    -0.354 N 
ATOM     46  C   UNL A   1      44.091  27.671  33.293  1.00  0.00     0.074 A 
ATOM     47  C   UNL A   1      44.990  26.717  32.682  1.00  0.00     0.031 C 
ATOM     48  C   UNL A   1      39.901  28.888  28.567  1.00  0.00     0.029 A 
ATOM     49  C   UNL A   1      39.882  29.420  29.930  1.00  0.00     0.049 A 
ATOM     50  H   UNL A   1      41.274  29.070  31.437  1.00  0.00     0.167 HD
ATOM     51  C   UNL A   1      44.229  28.151  34.552  1.00  0.00     0.037 A 
ATOM     52  C   UNL A   1      38.951  30.248  30.444  1.00  0.00     0.037 A 
ATOM     53  C   UNL A   1      43.331  29.101  35.154  1.00  0.00     0.049 A 
ATOM     54  C   UNL A   1      39.079  30.702  31.878  1.00  0.00     0.074 A 
ATOM     55  C   UNL A   1      43.393  29.666  36.416  1.00  0.00     0.029 A 
ATOM     56  N   UNL A   1      42.199  29.616  34.540  1.00  0.00    -0.354 N 
ATOM     57  N   UNL A   1      40.015  30.432  32.755  1.00  0.00    -0.248 NA
ATOM     58  C   UNL A   1      38.016  31.579  32.391  1.00  0.00     0.031 C 
ATOM     59  C   UNL A   1      42.262  30.470  36.590  1.00  0.00     0.029 A 
ATOM     60  C   UNL A   1      41.534  30.465  35.411  1.00  0.00     0.049 A 
ATOM     61  H   UNL A   1      41.910  29.408  33.622  1.00  0.00     0.167 HD
ATOM     62  C   UNL A   1      39.677  31.132  33.907  1.00  0.00     0.074 A 
ATOM     63  C   UNL A   1      38.454  31.849  33.613  1.00  0.00     0.031 C 
ATOM     64  C   UNL A   1      40.321  31.180  35.100  1.00  0.00     0.037 A 
BRANCH  51  65
ATOM     65  C   UNL A   1      45.369  27.625  35.375  1.00  0.00     0.064 A 
ATOM     66  C   UNL A   1      46.620  28.260  35.408  1.00  0.00     0.173 A 
ATOM     67  C   UNL A   1      45.198  26.476  36.164  1.00  0.00     0.173 A 
ATOM     68  F   UNL A   1      46.843  29.352  34.661  1.00  0.00    -0.203 F 
ATOM     69  C   UNL A   1      47.664  27.749  36.176  1.00  0.00     0.198 A 
ATOM     70  C   UNL A   1      46.233  25.989  36.957  1.00  0.00     0.198 A 
ATOM     71  F   UNL A   1      44.023  25.830  36.171  1.00  0.00    -0.203 F 
ATOM     72  F   UNL A   1      48.865  28.341  36.148  1.00  0.00    -0.200 F 
ATOM     73  C   UNL A   1      47.467  26.619  36.956  1.00  0.00     0.200 A 
ATOM     74  F   UNL A   1      46.036  24.905  37.720  1.00  0.00    -0.200 F 
ATOM     75  F   UNL A   1      48.470  26.134  37.700  1.00  0.00    -0.200 F 
ENDBRANCH  51  65
BRANCH  52  76
ATOM     76  C   UNL A   1      37.806  30.695  29.607  1.00  0.00     0.064 A 
ATOM     77  C   UNL A   1      36.762  29.818  29.278  1.00  0.00     0.173 A 
ATOM     78  C   UNL A   1      37.744  31.999  29.093  1.00  0.00     0.173 A 
ATOM     79  F   UNL A   1      36.787  28.553  29.722  1.00  0.00    -0.203 F 
ATOM     80  C   UNL A   1      35.714  30.222  28.453  1.00  0.00     0.198 A 
ATOM     81  C   UNL A   1      36.679  32.412  28.295  1.00  0.00     0.198 A 
ATOM     82  F   UNL A   1      38.718  32.879  29.373  1.00  0.00    -0.203 F 
ATOM     83  F   UNL A   1      34.758  29.347  28.112  1.00  0.00    -0.200 F 
ATOM     84  C   UNL A   1      35.670  31.520  27.968  1.00  0.00     0.200 A 
ATOM     85  F   UNL A   1      36.635  33.671  27.840  1.00  0.00    -0.200 F 
ATOM     86  F   UNL A   1      34.661  31.909  27.177  1.00  0.00    -0.200 F 
ENDBRANCH  52  76
BRANCH  64  87
ATOM     87  C   UNL A   1      39.748  32.073  36.166  1.00  0.00     0.064 A 
ATOM     88  C   UNL A   1      40.263  33.354  36.417  1.00  0.00     0.173 A 
ATOM     89  C   UNL A   1      38.638  31.656  36.916  1.00  0.00     0.173 A 
ATOM     90  F   UNL A   1      41.330  33.799  35.736  1.00  0.00    -0.203 F 
ATOM     91  C   UNL A   1      39.707  34.170  37.400  1.00  0.00     0.198 A 
ATOM     92  C   UNL A   1      38.062  32.487  37.872  1.00  0.00     0.198 A 
ATOM     93  F   UNL A   1      38.099  30.444  36.711  1.00  0.00    -0.203 F 
ATOM     94  F   UNL A   1      40.249  35.367  37.660  1.00  0.00    -0.200 F 
ATOM     95  C   UNL A   1      38.601  33.740  38.119  1.00  0.00     0.200 A 
ATOM     96  F   UNL A   1      36.982  32.077  38.553  1.00  0.00    -0.200 F 
ATOM     97  F   UNL A   1      38.062  34.530  39.057  1.00  0.00    -0.200 F 
ENDBRANCH  64  87
ENDBRANCH  38  39
ENDBRANCH  31  33
ENDBRANCH  30  31
ENDBRANCH  29  30
ENDBRANCH  28  29
ENDBRANCH  27  28
ENDBRANCH  26  27
ENDBRANCH  25  26
ENDBRANCH  24  25
ENDBRANCH   1  24
TORSDOF 24
ENDMDL
MODEL 2
REMARK VINA RESULT:      -9.6      0.586      2.014
REMARK SMILES CC[C@@](C)(C(=O)OCCOCCOCCOCCOC(=O)c1ccc(-c2c3nc(c(-c4c(F)c(F)c(F)c(F)c4F)c4ccc([nH]4)c(-c4c(F)c(F)c(F)c(F)c4F)c4nc(c(-c5c(F)c(F)c(F)c(F)c5F)c5ccc2[nH]5)C=C4)C=C3)cc1)n1nnnc1Cc1cccs1
REMARK SMILES IDX 12 1 11 2 10 3 9 4 8 5 7 6 5 7 6 8 3 9 4 10 2 11 1 12 85 13
REMARK SMILES IDX 86 14 89 15 87 16 88 17 90 18 91 19 92 20 95 21 93 22 94 23
REMARK SMILES IDX 13 24 14 25 15 26 16 27 17 28 18 29 19 30 20 31 21 32 22 33
REMARK SMILES IDX 23 34 84 35 24 36 83 37 25 38 26 39 27 40 77 41 28 42 82 43
REMARK SMILES IDX 76 44 78 45 29 46 81 47 75 48 74 49 30 51 62 52 42 53 61 54
REMARK SMILES IDX 43 55 46 56 60 57 79 58 44 59 45 60 59 62 80 63 47 64 31 65
REMARK SMILES IDX 32 66 40 67 33 68 34 69 38 70 41 71 35 72 36 73 39 74 37 75
REMARK SMILES IDX 63 76 64 77 72 78 65 79 66 80 70 81 73 82 67 83 68 84 71 85
REMARK SMILES IDX 69 86 48 87 49 88 57 89 50 90 51 91 55 92 58 93 52 94 53 95
REMARK SMILES IDX 56 96 54 97
REMARK H PARENT 78 50 46 61
REMARK Flexibility Score: inf
ROOT
ATOM      1  C   UNL A   1      40.737  20.617  27.018  1.00  0.00     0.188 C 
ENDROOT
BRANCH   1   2
ATOM      2  C   UNL A   1      39.916  21.743  26.378  1.00  0.00     0.188 C 
BRANCH   2   3
ATOM      3  O   UNL A   1      38.774  21.363  25.643  1.00  0.00    -0.376 OA
BRANCH   3   4
ATOM      4  C   UNL A   1      37.666  22.241  25.522  1.00  0.00     0.202 C 
BRANCH   4   5
ATOM      5  C   UNL A   1      36.700  22.330  24.322  1.00  0.00     0.261 C 
BRANCH   5   6
ATOM      6  O   UNL A   1      35.312  22.026  24.532  1.00  0.00    -0.461 OA
BRANCH   6   7
ATOM      7  C   UNL A   1      34.474  23.088  24.691  1.00  0.00     0.334 C 
ATOM      8  O   UNL A   1      34.863  24.192  25.070  1.00  0.00    -0.249 OA
BRANCH   7   9
ATOM      9  C   UNL A   1      32.966  22.776  24.424  1.00  0.00     0.160 C 
ATOM     10  C   UNL A   1      32.998  21.238  24.349  1.00  0.00     0.050 C 
BRANCH   9  11
ATOM     11  C   UNL A   1      32.454  23.344  23.059  1.00  0.00     0.039 C 
ATOM     12  C   UNL A   1      33.409  23.363  21.870  1.00  0.00     0.007 C 
ENDBRANCH   9  11
BRANCH   9  13
ATOM     13  N   UNL A   1      32.198  23.284  25.572  1.00  0.00    -0.212 N 
ATOM     14  N   UNL A   1      32.352  22.679  26.774  1.00  0.00    -0.044 NA
ATOM     15  C   UNL A   1      31.331  24.343  25.752  1.00  0.00     0.157 A 
ATOM     16  N   UNL A   1      31.579  23.318  27.629  1.00  0.00    -0.024 NA
ATOM     17  N   UNL A   1      30.953  24.355  27.019  1.00  0.00    -0.113 NA
BRANCH  15  18
ATOM     18  C   UNL A   1      30.905  25.371  24.769  1.00  0.00     0.125 C 
BRANCH  18  19
ATOM     19  C   UNL A   1      31.865  26.518  24.662  1.00  0.00     0.012 A 
ATOM     20  C   UNL A   1      32.528  27.177  25.679  1.00  0.00     0.016 A 
ATOM     21  S   UNL A   1      32.310  27.134  23.126  1.00  0.00    -0.148 S 
ATOM     22  C   UNL A   1      33.373  28.213  25.190  1.00  0.00     0.012 A 
ATOM     23  C   UNL A   1      33.329  28.310  23.818  1.00  0.00     0.065 A 
ENDBRANCH  18  19
ENDBRANCH  15  18
ENDBRANCH   9  13
ENDBRANCH   7   9
ENDBRANCH   6   7
ENDBRANCH   5   6
ENDBRANCH   4   5
ENDBRANCH   3   4
ENDBRANCH   2   3
ENDBRANCH   1   2
BRANCH   1  24
ATOM     24  O   UNL A   1      42.081  20.491  26.584  1.00  0.00    -0.377 OA
BRANCH  24  25
ATOM     25  C   UNL A   1      42.468  19.328  25.863  1.00  0.00     0.188 C 
BRANCH  25  26
ATOM     26  C   UNL A   1      43.904  19.172  25.326  1.00  0.00     0.188 C 
BRANCH  26  27
ATOM     27  O   UNL A   1      44.201  19.936  24.172  1.00  0.00    -0.376 OA
BRANCH  27  28
ATOM     28  C   UNL A   1      45.077  21.049  24.272  1.00  0.00     0.202 C 
BRANCH  28  29
ATOM     29  C   UNL A   1      45.155  21.811  25.605  1.00  0.00     0.261 C 
BRANCH  29  30
ATOM     30  O   UNL A   1      44.049  22.673  25.922  1.00  0.00    -0.460 OA
BRANCH  30  31
ATOM     31  C   UNL A   1      44.129  23.972  25.564  1.00  0.00     0.338 C 
ATOM     32  O   UNL A   1      44.230  24.429  24.447  1.00  0.00    -0.246 OA
BRANCH  31  33
ATOM     33  C   UNL A   1      43.874  24.780  26.777  1.00  0.00     0.060 A 
ATOM     34  C   UNL A   1      43.012  24.274  27.759  1.00  0.00     0.016 A 
ATOM     35  C   UNL A   1      44.472  26.030  26.937  1.00  0.00     0.016 A 
ATOM     36  C   UNL A   1      42.711  25.037  28.886  1.00  0.00     0.010 A 
ATOM     37  C   UNL A   1      44.151  26.806  28.055  1.00  0.00     0.010 A 
ATOM     38  C   UNL A   1      43.239  26.327  29.012  1.00  0.00    -0.014 A 
BRANCH  38  39
ATOM     39  C   UNL A   1      42.670  27.253  30.022  1.00  0.00     0.031 A 
ATOM     40  C   UNL A   1      43.347  27.342  31.362  1.00  0.00     0.074 A 
ATOM     41  C   UNL A   1      41.598  28.015  29.751  1.00  0.00     0.049 A 
ATOM     42  N   UNL A   1      43.011  28.030  32.423  1.00  0.00    -0.248 NA
ATOM     43  C   UNL A   1      44.571  26.541  31.528  1.00  0.00     0.031 C 
ATOM     44  C   UNL A   1      40.891  28.059  28.473  1.00  0.00     0.029 A 
ATOM     45  N   UNL A   1      40.912  28.899  30.547  1.00  0.00    -0.354 N 
ATOM     46  C   UNL A   1      43.972  27.736  33.381  1.00  0.00     0.074 A 
ATOM     47  C   UNL A   1      44.886  26.785  32.790  1.00  0.00     0.031 C 
ATOM     48  C   UNL A   1      39.863  28.917  28.575  1.00  0.00     0.029 A 
ATOM     49  C   UNL A   1      39.817  29.454  29.936  1.00  0.00     0.049 A 
ATOM     50  H   UNL A   1      41.182  29.115  31.469  1.00  0.00     0.167 HD
ATOM     51  C   UNL A   1      44.083  28.221  34.641  1.00  0.00     0.037 A 
ATOM     52  C   UNL A   1      38.872  30.279  30.430  1.00  0.00     0.037 A 
ATOM     53  C   UNL A   1      43.170  29.168  35.223  1.00  0.00     0.049 A 
ATOM     54  C   UNL A   1      38.971  30.738  31.864  1.00  0.00     0.074 A 
ATOM     55  C   UNL A   1      43.206  29.738  36.484  1.00  0.00     0.029 A 
ATOM     56  N   UNL A   1      42.047  29.676  34.587  1.00  0.00    -0.354 N 
ATOM     57  N   UNL A   1      39.892  30.475  32.760  1.00  0.00    -0.248 NA
ATOM     58  C   UNL A   1      37.895  31.611  32.355  1.00  0.00     0.031 C 
ATOM     59  C   UNL A   1      42.068  30.536  36.634  1.00  0.00     0.029 A 
ATOM     60  C   UNL A   1      41.362  30.524  35.442  1.00  0.00     0.049 A 
ATOM     61  H   UNL A   1      41.776  29.463  33.664  1.00  0.00     0.167 HD
ATOM     62  C   UNL A   1      39.529  31.177  33.903  1.00  0.00     0.074 A 
ATOM     63  C   UNL A   1      38.309  31.887  33.584  1.00  0.00     0.031 C 
ATOM     64  C   UNL A   1      40.151  31.232  35.107  1.00  0.00     0.037 A 
BRANCH  51  65
ATOM     65  C   UNL A   1      45.211  27.703  35.486  1.00  0.00     0.064 A 
ATOM     66  C   UNL A   1      45.154  26.453  36.120  1.00  0.00     0.173 A 
ATOM     67  C   UNL A   1      46.380  28.464  35.644  1.00  0.00     0.173 A 
ATOM     68  F   UNL A   1      44.054  25.692  36.016  1.00  0.00    -0.203 F 
ATOM     69  C   UNL A   1      46.212  25.996  36.904  1.00  0.00     0.198 A 
ATOM     70  C   UNL A   1      47.449  27.989  36.400  1.00  0.00     0.198 A 
ATOM     71  F   UNL A   1      46.489  29.666  35.059  1.00  0.00    -0.203 F 
ATOM     72  F   UNL A   1      46.112  24.824  37.544  1.00  0.00    -0.200 F 
ATOM     73  C   UNL A   1      47.361  26.761  37.036  1.00  0.00     0.200 A 
ATOM     74  F   UNL A   1      48.564  28.725  36.514  1.00  0.00    -0.200 F 
ATOM     75  F   UNL A   1      48.381  26.318  37.784  1.00  0.00    -0.200 F 
ENDBRANCH  51  65
BRANCH  52  76
ATOM     76  C   UNL A   1      37.740  30.717  29.570  1.00  0.00     0.064 A 
ATOM     77  C   UNL A   1      37.661  32.034  29.093  1.00  0.00     0.173 A 
ATOM     78  C   UNL A   1      36.699  29.841  29.233  1.00  0.00     0.173 A 
ATOM     79  F   UNL A   1      38.617  32.919  29.409  1.00  0.00    -0.203 F 
ATOM     80  C   UNL A   1      36.575  32.459  28.328  1.00  0.00     0.198 A 
ATOM     81  C   UNL A   1      35.630  30.257  28.441  1.00  0.00     0.198 A 
ATOM     82  F   UNL A   1      36.722  28.571  29.666  1.00  0.00    -0.203 F 
ATOM     83  F   UNL A   1      36.499  33.736  27.930  1.00  0.00    -0.200 F 
ATOM     84  C   UNL A   1      35.565  31.570  27.998  1.00  0.00     0.200 A 
ATOM     85  F   UNL A   1      34.664  29.390  28.113  1.00  0.00    -0.200 F 
ATOM     86  F   UNL A   1      34.524  31.978  27.261  1.00  0.00    -0.200 F 
ENDBRANCH  52  76
BRANCH  64  87
ATOM     87  C   UNL A   1      39.555  32.126  36.159  1.00  0.00     0.064 A 
ATOM     88  C   UNL A   1      38.483  31.712  36.965  1.00  0.00     0.173 A 
ATOM     89  C   UNL A   1      40.094  33.400  36.392  1.00  0.00     0.173 A 
ATOM     90  F   UNL A   1      37.922  30.508  36.776  1.00  0.00    -0.203 F 
ATOM     91  C   UNL A   1      37.956  32.552  37.943  1.00  0.00     0.198 A 
ATOM     92  C   UNL A   1      39.590  34.223  37.396  1.00  0.00     0.198 A 
ATOM     93  F   UNL A   1      41.126  33.844  35.658  1.00  0.00    -0.203 F 
ATOM     94  F   UNL A   1      36.898  32.157  38.663  1.00  0.00    -0.200 F 
ATOM     95  C   UNL A   1      38.515  33.802  38.164  1.00  0.00     0.200 A 
ATOM     96  F   UNL A   1      40.144  35.423  37.620  1.00  0.00    -0.200 F 
ATOM     97  F   UNL A   1      38.013  34.604  39.113  1.00  0.00    -0.200 F 
ENDBRANCH  64  87
ENDBRANCH  38  39
ENDBRANCH  31  33
ENDBRANCH  30  31
ENDBRANCH  29  30
ENDBRANCH  28  29
ENDBRANCH  27  28
ENDBRANCH  26  27
ENDBRANCH  25  26
ENDBRANCH  24  25
ENDBRANCH   1  24
TORSDOF 24
ENDMDL
MODEL 3
REMARK VINA RESULT:      -9.5      5.008      7.550
REMARK SMILES CC[C@@](C)(C(=O)OCCOCCOCCOCCOC(=O)c1ccc(-c2c3nc(c(-c4c(F)c(F)c(F)c(F)c4F)c4ccc([nH]4)c(-c4c(F)c(F)c(F)c(F)c4F)c4nc(c(-c5c(F)c(F)c(F)c(F)c5F)c5ccc2[nH]5)C=C4)C=C3)cc1)n1nnnc1Cc1cccs1
REMARK SMILES IDX 12 1 11 2 10 3 9 4 8 5 7 6 5 7 6 8 3 9 4 10 2 11 1 12 85 13
REMARK SMILES IDX 86 14 89 15 87 16 88 17 90 18 91 19 92 20 95 21 93 22 94 23
REMARK SMILES IDX 13 24 14 25 15 26 16 27 17 28 18 29 19 30 20 31 21 32 22 33
REMARK SMILES IDX 23 34 84 35 24 36 83 37 25 38 26 39 27 40 77 41 28 42 82 43
REMARK SMILES IDX 76 44 78 45 29 46 81 47 75 48 74 49 30 51 62 52 42 53 61 54
REMARK SMILES IDX 43 55 46 56 60 57 79 58 44 59 45 60 59 62 80 63 47 64 31 65
REMARK SMILES IDX 32 66 40 67 33 68 34 69 38 70 41 71 35 72 36 73 39 74 37 75
REMARK SMILES IDX 63 76 64 77 72 78 65 79 66 80 70 81 73 82 67 83 68 84 71 85
REMARK SMILES IDX 69 86 48 87 49 88 57 89 50 90 51 91 55 92 58 93 52 94 53 95
REMARK SMILES IDX 56 96 54 97
REMARK H PARENT 78 50 46 61
REMARK Flexibility Score: inf
ROOT
ATOM      1  C   UNL A   1      36.374  20.862  25.029  1.00  0.00     0.188 C 
ENDROOT
BRANCH   1   2
ATOM      2  C   UNL A   1      35.529  21.630  26.052  1.00  0.00     0.188 C 
BRANCH   2   3
ATOM      3  O   UNL A   1      34.223  21.152  26.290  1.00  0.00    -0.376 OA
BRANCH   3   4
ATOM      4  C   UNL A   1      33.421  20.677  25.222  1.00  0.00     0.202 C 
BRANCH   4   5
ATOM      5  C   UNL A   1      32.146  21.350  24.669  1.00  0.00     0.261 C 
BRANCH   5   6
ATOM      6  O   UNL A   1      32.013  22.776  24.793  1.00  0.00    -0.461 OA
BRANCH   6   7
ATOM      7  C   UNL A   1      32.964  23.531  24.177  1.00  0.00     0.334 C 
ATOM      8  O   UNL A   1      33.698  23.088  23.295  1.00  0.00    -0.249 OA
BRANCH   7   9
ATOM      9  C   UNL A   1      33.098  24.988  24.729  1.00  0.00     0.160 C 
ATOM     10  C   UNL A   1      34.623  25.091  24.908  1.00  0.00     0.050 C 
BRANCH   9  11
ATOM     11  C   UNL A   1      32.404  25.185  26.117  1.00  0.00     0.039 C 
ATOM     12  C   UNL A   1      31.175  26.083  26.199  1.00  0.00     0.007 C 
ENDBRANCH   9  11
BRANCH   9  13
ATOM     13  N   UNL A   1      32.572  25.900  23.700  1.00  0.00    -0.212 N 
ATOM     14  N   UNL A   1      31.530  25.488  22.939  1.00  0.00    -0.044 NA
ATOM     15  C   UNL A   1      32.870  27.195  23.325  1.00  0.00     0.157 A 
ATOM     16  N   UNL A   1      31.241  26.475  22.114  1.00  0.00    -0.024 NA
ATOM     17  N   UNL A   1      32.048  27.540  22.348  1.00  0.00    -0.113 NA
BRANCH  15  18
ATOM     18  C   UNL A   1      33.868  28.125  23.910  1.00  0.00     0.125 C 
BRANCH  18  19
ATOM     19  C   UNL A   1      33.342  28.888  25.089  1.00  0.00     0.012 A 
ATOM     20  C   UNL A   1      32.276  29.766  25.134  1.00  0.00     0.016 A 
ATOM     21  S   UNL A   1      34.044  28.679  26.639  1.00  0.00    -0.148 S 
ATOM     22  C   UNL A   1      32.065  30.291  26.440  1.00  0.00     0.012 A 
ATOM     23  C   UNL A   1      32.973  29.799  27.348  1.00  0.00     0.065 A 
ENDBRANCH  18  19
ENDBRANCH  15  18
ENDBRANCH   9  13
ENDBRANCH   7   9
ENDBRANCH   6   7
ENDBRANCH   5   6
ENDBRANCH   4   5
ENDBRANCH   3   4
ENDBRANCH   2   3
ENDBRANCH   1   2
BRANCH   1  24
ATOM     24  O   UNL A   1      37.772  20.829  25.264  1.00  0.00    -0.377 OA
BRANCH  24  25
ATOM     25  C   UNL A   1      38.436  22.024  25.655  1.00  0.00     0.188 C 
BRANCH  25  26
ATOM     26  C   UNL A   1      39.659  21.978  26.591  1.00  0.00     0.188 C 
BRANCH  26  27
ATOM     27  O   UNL A   1      40.765  21.245  26.100  1.00  0.00    -0.376 OA
BRANCH  27  28
ATOM     28  C   UNL A   1      41.312  20.193  26.880  1.00  0.00     0.202 C 
BRANCH  28  29
ATOM     29  C   UNL A   1      42.331  19.243  26.231  1.00  0.00     0.261 C 
BRANCH  29  30
ATOM     30  O   UNL A   1      42.777  19.581  24.906  1.00  0.00    -0.460 OA
BRANCH  30  31
ATOM     31  C   UNL A   1      44.106  19.634  24.673  1.00  0.00     0.338 C 
ATOM     32  O   UNL A   1      44.809  18.773  24.192  1.00  0.00    -0.246 OA
BRANCH  31  33
ATOM     33  C   UNL A   1      44.544  21.023  24.932  1.00  0.00     0.060 A 
ATOM     34  C   UNL A   1      45.279  21.297  26.092  1.00  0.00     0.016 A 
ATOM     35  C   UNL A   1      44.220  22.047  24.040  1.00  0.00     0.016 A 
ATOM     36  C   UNL A   1      45.657  22.606  26.388  1.00  0.00     0.010 A 
ATOM     37  C   UNL A   1      44.578  23.363  24.349  1.00  0.00     0.010 A 
ATOM     38  C   UNL A   1      45.263  23.650  25.543  1.00  0.00    -0.014 A 
BRANCH  38  39
ATOM     39  C   UNL A   1      45.373  25.051  26.016  1.00  0.00     0.031 A 
ATOM     40  C   UNL A   1      46.716  25.724  25.933  1.00  0.00     0.074 A 
ATOM     41  C   UNL A   1      44.306  25.722  26.480  1.00  0.00     0.049 A 
ATOM     42  N   UNL A   1      47.079  26.916  26.332  1.00  0.00    -0.248 NA
ATOM     43  C   UNL A   1      47.800  24.939  25.319  1.00  0.00     0.031 C 
ATOM     44  C   UNL A   1      42.945  25.198  26.556  1.00  0.00     0.029 A 
ATOM     45  N   UNL A   1      44.208  26.995  26.985  1.00  0.00    -0.354 N 
ATOM     46  C   UNL A   1      48.430  27.018  26.028  1.00  0.00     0.074 A 
ATOM     47  C   UNL A   1      48.832  25.759  25.441  1.00  0.00     0.031 C 
ATOM     48  C   UNL A   1      42.146  26.140  27.088  1.00  0.00     0.029 A 
ATOM     49  C   UNL A   1      42.948  27.316  27.425  1.00  0.00     0.049 A 
ATOM     50  H   UNL A   1      44.968  27.619  27.026  1.00  0.00     0.167 HD
ATOM     51  C   UNL A   1      49.260  28.071  26.218  1.00  0.00     0.037 A 
ATOM     52  C   UNL A   1      42.504  28.424  28.052  1.00  0.00     0.037 A 
ATOM     53  C   UNL A   1      48.854  29.322  26.801  1.00  0.00     0.049 A 
ATOM     54  C   UNL A   1      43.469  29.551  28.329  1.00  0.00     0.074 A 
ATOM     55  C   UNL A   1      49.613  30.459  27.019  1.00  0.00     0.029 A 
ATOM     56  N   UNL A   1      47.578  29.596  27.274  1.00  0.00    -0.354 N 
ATOM     57  N   UNL A   1      44.740  29.653  28.021  1.00  0.00    -0.248 NA
ATOM     58  C   UNL A   1      42.934  30.719  29.044  1.00  0.00     0.031 C 
ATOM     59  C   UNL A   1      48.815  31.395  27.684  1.00  0.00     0.029 A 
ATOM     60  C   UNL A   1      47.539  30.870  27.816  1.00  0.00     0.049 A 
ATOM     61  H   UNL A   1      46.815  28.974  27.232  1.00  0.00     0.167 HD
ATOM     62  C   UNL A   1      45.145  30.905  28.468  1.00  0.00     0.074 A 
ATOM     63  C   UNL A   1      43.982  31.531  29.059  1.00  0.00     0.031 C 
ATOM     64  C   UNL A   1      46.369  31.485  28.393  1.00  0.00     0.037 A 
BRANCH  51  65
ATOM     65  C   UNL A   1      50.700  27.900  25.825  1.00  0.00     0.064 A 
ATOM     66  C   UNL A   1      51.135  28.060  24.501  1.00  0.00     0.173 A 
ATOM     67  C   UNL A   1      51.663  27.593  26.799  1.00  0.00     0.173 A 
ATOM     68  F   UNL A   1      50.253  28.337  23.529  1.00  0.00    -0.203 F 
ATOM     69  C   UNL A   1      52.476  27.890  24.161  1.00  0.00     0.198 A 
ATOM     70  C   UNL A   1      53.007  27.459  26.461  1.00  0.00     0.198 A 
ATOM     71  F   UNL A   1      51.302  27.431  28.081  1.00  0.00    -0.203 F 
ATOM     72  F   UNL A   1      52.859  27.993  22.883  1.00  0.00    -0.200 F 
ATOM     73  C   UNL A   1      53.411  27.598  25.143  1.00  0.00     0.200 A 
ATOM     74  F   UNL A   1      53.911  27.191  27.414  1.00  0.00    -0.200 F 
ATOM     75  F   UNL A   1      54.702  27.443  24.816  1.00  0.00    -0.200 F 
ENDBRANCH  51  65
BRANCH  52  76
ATOM     76  C   UNL A   1      41.082  28.523  28.475  1.00  0.00     0.064 A 
ATOM     77  C   UNL A   1      40.673  28.097  29.747  1.00  0.00     0.173 A 
ATOM     78  C   UNL A   1      40.097  29.017  27.607  1.00  0.00     0.173 A 
ATOM     79  F   UNL A   1      41.571  27.592  30.604  1.00  0.00    -0.203 F 
ATOM     80  C   UNL A   1      39.332  28.144  30.126  1.00  0.00     0.198 A 
ATOM     81  C   UNL A   1      38.761  29.094  27.998  1.00  0.00     0.198 A 
ATOM     82  F   UNL A   1      40.432  29.434  26.377  1.00  0.00    -0.203 F 
ATOM     83  F   UNL A   1      38.962  27.681  31.328  1.00  0.00    -0.200 F 
ATOM     84  C   UNL A   1      38.379  28.648  29.254  1.00  0.00     0.200 A 
ATOM     85  F   UNL A   1      37.847  29.594  27.158  1.00  0.00    -0.200 F 
ATOM     86  F   UNL A   1      37.091  28.696  29.620  1.00  0.00    -0.200 F 
ENDBRANCH  52  76
BRANCH  64  87
ATOM     87  C   UNL A   1      46.508  32.888  28.918  1.00  0.00     0.064 A 
ATOM     88  C   UNL A   1      46.886  33.151  30.242  1.00  0.00     0.173 A 
ATOM     89  C   UNL A   1      46.301  33.985  28.066  1.00  0.00     0.173 A 
ATOM     90  F   UNL A   1      47.085  32.140  31.102  1.00  0.00    -0.203 F 
ATOM     91  C   UNL A   1      47.023  34.458  30.703  1.00  0.00     0.198 A 
ATOM     92  C   UNL A   1      46.475  35.289  28.519  1.00  0.00     0.198 A 
ATOM     93  F   UNL A   1      45.947  33.791  26.787  1.00  0.00    -0.203 F 
ATOM     94  F   UNL A   1      47.332  34.686  31.986  1.00  0.00    -0.200 F 
ATOM     95  C   UNL A   1      46.826  35.525  29.839  1.00  0.00     0.200 A 
ATOM     96  F   UNL A   1      46.302  36.319  27.677  1.00  0.00    -0.200 F 
ATOM     97  F   UNL A   1      46.968  36.782  30.281  1.00  0.00    -0.200 F 
ENDBRANCH  64  87
ENDBRANCH  38  39
ENDBRANCH  31  33
ENDBRANCH  30  31
ENDBRANCH  29  30
ENDBRANCH  28  29
ENDBRANCH  27  28
ENDBRANCH  26  27
ENDBRANCH  25  26
ENDBRANCH  24  25
ENDBRANCH   1  24
TORSDOF 24
ENDMDL
