MODEL 1
REMARK VINA RESULT:     -11.4      0.000      0.000
REMARK SMILES O=C(OCCOCCOCCOCCOC(=O)c1nccnc1C(=O)Nc1n[nH]c2ncccc12)c1ccc(-c2c3nc(c(-c4c(F)c(F)c(F)c(F)c4F)c4ccc([nH]4)c(-c4c(F)c(F)c(F)c(F)c4F)c4nc(c(-c5c(F)c(F)c(F)c(F)c5F)c5ccc2[nH]5)C=C4)C=C3)cc1
REMARK SMILES IDX 9 1 8 2 7 3 6 4 5 5 4 6 3 7 2 8 1 9 36 10 37 11 98 12 38 13
REMARK SMILES IDX 97 14 39 15 40 16 41 17 91 18 42 19 96 20 90 21 92 22 43 23
REMARK SMILES IDX 95 24 89 25 88 26 44 28 76 29 56 30 75 31 57 32 60 33 74 34
REMARK SMILES IDX 93 35 58 36 59 37 73 39 94 40 61 41 45 42 46 43 54 44 47 45
REMARK SMILES IDX 48 46 52 47 55 48 49 49 50 50 53 51 51 52 77 53 78 54 86 55
REMARK SMILES IDX 79 56 80 57 84 58 87 59 81 60 82 61 85 62 83 63 62 64 63 65
REMARK SMILES IDX 71 66 64 67 65 68 69 69 72 70 66 71 67 72 70 73 68 74 10 75
REMARK SMILES IDX 11 76 12 77 13 78 14 79 15 80 16 81 17 82 18 83 19 84 23 85
REMARK SMILES IDX 20 86 22 87 21 88 24 89 25 90 26 91 27 93 28 94 35 95 29 96
REMARK SMILES IDX 30 97 34 98 31 100 33 101 32 102
REMARK H PARENT 92 27 60 38 26 92 29 99
REMARK Flexibility Score: inf
ROOT
ATOM      1  O   UNL A   1      42.105  20.771  26.803  1.00  0.00    -0.377 OA
ENDROOT
BRANCH   1   2
ATOM      2  C   UNL A   1      42.181  19.438  26.312  1.00  0.00     0.188 C 
BRANCH   2   3
ATOM      3  C   UNL A   1      43.379  19.231  25.416  1.00  0.00     0.188 C 
BRANCH   3   4
ATOM      4  O   UNL A   1      43.778  20.475  24.864  1.00  0.00    -0.376 OA
BRANCH   4   5
ATOM      5  C   UNL A   1      45.158  20.779  24.858  1.00  0.00     0.202 C 
BRANCH   5   6
ATOM      6  C   UNL A   1      45.354  22.025  25.726  1.00  0.00     0.261 C 
BRANCH   6   7
ATOM      7  O   UNL A   1      44.240  22.950  25.659  1.00  0.00    -0.460 OA
BRANCH   7   8
ATOM      8  C   UNL A   1      44.289  24.297  25.486  1.00  0.00     0.338 C 
ATOM      9  O   UNL A   1      44.990  24.746  24.579  1.00  0.00    -0.246 OA
BRANCH   8  10
ATOM     10  C   UNL A   1      43.429  25.273  26.253  1.00  0.00     0.060 A 
ATOM     11  C   UNL A   1      43.631  26.656  26.341  1.00  0.00     0.016 A 
ATOM     12  C   UNL A   1      42.300  24.740  26.911  1.00  0.00     0.016 A 
ATOM     13  C   UNL A   1      42.770  27.479  27.059  1.00  0.00     0.010 A 
ATOM     14  C   UNL A   1      41.461  25.548  27.688  1.00  0.00     0.010 A 
ATOM     15  C   UNL A   1      41.734  26.914  27.799  1.00  0.00    -0.014 A 
BRANCH  15  16
ATOM     16  C   UNL A   1      41.256  27.698  28.953  1.00  0.00     0.031 A 
ATOM     17  C   UNL A   1      42.113  27.637  30.188  1.00  0.00     0.074 A 
ATOM     18  C   UNL A   1      40.221  28.544  28.848  1.00  0.00     0.049 A 
ATOM     19  N   UNL A   1      41.980  28.252  31.331  1.00  0.00    -0.248 NA
ATOM     20  C   UNL A   1      43.312  26.779  30.106  1.00  0.00     0.031 C 
ATOM     21  C   UNL A   1      39.431  28.770  27.640  1.00  0.00     0.029 A 
ATOM     22  N   UNL A   1      39.679  29.397  29.772  1.00  0.00    -0.354 N 
ATOM     23  C   UNL A   1      43.068  27.849  32.095  1.00  0.00     0.074 A 
ATOM     24  C   UNL A   1      43.855  26.943  31.297  1.00  0.00     0.031 C 
ATOM     25  C   UNL A   1      38.505  29.712  27.896  1.00  0.00     0.029 A 
ATOM     26  C   UNL A   1      38.612  30.118  29.295  1.00  0.00     0.049 A 
ATOM     27  H   UNL A   1      40.022  29.485  30.690  1.00  0.00     0.167 HD
ATOM     28  C   UNL A   1      43.374  28.196  33.366  1.00  0.00     0.037 A 
ATOM     29  C   UNL A   1      37.812  30.987  29.943  1.00  0.00     0.037 A 
ATOM     30  C   UNL A   1      42.553  29.069  34.153  1.00  0.00     0.049 A 
ATOM     31  C   UNL A   1      38.101  31.261  31.400  1.00  0.00     0.074 A 
ATOM     32  C   UNL A   1      42.691  29.432  35.478  1.00  0.00     0.029 A 
ATOM     33  N   UNL A   1      41.420  29.710  33.669  1.00  0.00    -0.354 N 
ATOM     34  N   UNL A   1      39.093  30.832  32.146  1.00  0.00    -0.248 NA
ATOM     35  C   UNL A   1      37.152  32.129  32.110  1.00  0.00     0.031 C 
ATOM     36  C   UNL A   1      41.609  30.254  35.810  1.00  0.00     0.029 A 
ATOM     37  C   UNL A   1      40.832  30.452  34.677  1.00  0.00     0.049 A 
ATOM     38  H   UNL A   1      41.085  29.646  32.746  1.00  0.00     0.167 HD
ATOM     39  C   UNL A   1      38.907  31.396  33.400  1.00  0.00     0.074 A 
ATOM     40  C   UNL A   1      37.710  32.211  33.310  1.00  0.00     0.031 C 
ATOM     41  C   UNL A   1      39.647  31.258  34.528  1.00  0.00     0.037 A 
BRANCH  28  42
ATOM     42  C   UNL A   1      44.576  27.537  33.975  1.00  0.00     0.064 A 
ATOM     43  C   UNL A   1      45.851  28.122  33.931  1.00  0.00     0.173 A 
ATOM     44  C   UNL A   1      44.461  26.256  34.536  1.00  0.00     0.173 A 
ATOM     45  F   UNL A   1      46.022  29.328  33.366  1.00  0.00    -0.203 F 
ATOM     46  C   UNL A   1      46.970  27.434  34.394  1.00  0.00     0.198 A 
ATOM     47  C   UNL A   1      45.578  25.583  35.022  1.00  0.00     0.198 A 
ATOM     48  F   UNL A   1      43.269  25.644  34.584  1.00  0.00    -0.203 F 
ATOM     49  F   UNL A   1      48.188  27.982  34.274  1.00  0.00    -0.200 F 
ATOM     50  C   UNL A   1      46.833  26.167  34.941  1.00  0.00     0.200 A 
ATOM     51  F   UNL A   1      45.443  24.358  35.548  1.00  0.00    -0.200 F 
ATOM     52  F   UNL A   1      47.914  25.499  35.370  1.00  0.00    -0.200 F 
ENDBRANCH  28  42
BRANCH  29  53
ATOM     53  C   UNL A   1      36.659  31.622  29.250  1.00  0.00     0.064 A 
ATOM     54  C   UNL A   1      36.633  32.998  28.982  1.00  0.00     0.173 A 
ATOM     55  C   UNL A   1      35.536  30.870  28.867  1.00  0.00     0.173 A 
ATOM     56  F   UNL A   1      37.666  33.771  29.351  1.00  0.00    -0.203 F 
ATOM     57  C   UNL A   1      35.528  33.598  28.378  1.00  0.00     0.198 A 
ATOM     58  C   UNL A   1      34.444  31.465  28.237  1.00  0.00     0.198 A 
ATOM     59  F   UNL A   1      35.497  29.551  29.106  1.00  0.00    -0.203 F 
ATOM     60  F   UNL A   1      35.511  34.924  28.184  1.00  0.00    -0.200 F 
ATOM     61  C   UNL A   1      34.437  32.831  28.001  1.00  0.00     0.200 A 
ATOM     62  F   UNL A   1      33.396  30.716  27.867  1.00  0.00    -0.200 F 
ATOM     63  F   UNL A   1      33.374  33.408  27.424  1.00  0.00    -0.200 F 
ENDBRANCH  29  53
BRANCH  41  64
ATOM     64  C   UNL A   1      39.207  32.038  35.731  1.00  0.00     0.064 A 
ATOM     65  C   UNL A   1      39.597  33.370  35.928  1.00  0.00     0.173 A 
ATOM     66  C   UNL A   1      38.335  31.457  36.664  1.00  0.00     0.173 A 
ATOM     67  F   UNL A   1      40.437  33.962  35.065  1.00  0.00    -0.203 F 
ATOM     68  C   UNL A   1      39.150  34.085  37.033  1.00  0.00     0.198 A 
ATOM     69  C   UNL A   1      37.865  32.186  37.751  1.00  0.00     0.198 A 
ATOM     70  F   UNL A   1      37.925  30.189  36.509  1.00  0.00    -0.203 F 
ATOM     71  F   UNL A   1      39.570  35.343  37.229  1.00  0.00    -0.200 F 
ATOM     72  C   UNL A   1      38.279  33.497  37.939  1.00  0.00     0.200 A 
ATOM     73  F   UNL A   1      37.010  31.622  38.614  1.00  0.00    -0.200 F 
ATOM     74  F   UNL A   1      37.841  34.192  38.997  1.00  0.00    -0.200 F 
ENDBRANCH  41  64
ENDBRANCH  15  16
ENDBRANCH   8  10
ENDBRANCH   7   8
ENDBRANCH   6   7
ENDBRANCH   5   6
ENDBRANCH   4   5
ENDBRANCH   3   4
ENDBRANCH   2   3
ENDBRANCH   1   2
BRANCH   1  75
ATOM     75  C   UNL A   1      40.851  21.288  27.224  1.00  0.00     0.188 C 
BRANCH  75  76
ATOM     76  C   UNL A   1      39.855  21.600  26.087  1.00  0.00     0.188 C 
BRANCH  76  77
ATOM     77  O   UNL A   1      38.978  22.712  26.381  1.00  0.00    -0.376 OA
BRANCH  77  78
ATOM     78  C   UNL A   1      37.598  22.526  25.998  1.00  0.00     0.202 C 
BRANCH  78  79
ATOM     79  C   UNL A   1      37.057  23.704  25.109  1.00  0.00     0.261 C 
BRANCH  79  80
ATOM     80  O   UNL A   1      35.922  24.460  25.650  1.00  0.00    -0.458 OA
BRANCH  80  81
ATOM     81  C   UNL A   1      34.707  23.870  25.917  1.00  0.00     0.359 C 
ATOM     82  O   UNL A   1      34.369  23.438  27.008  1.00  0.00    -0.244 OA
BRANCH  81  83
ATOM     83  C   UNL A   1      33.805  23.888  24.697  1.00  0.00     0.179 A 
ATOM     84  N   UNL A   1      34.121  24.838  23.755  1.00  0.00    -0.245 NA
ATOM     85  C   UNL A   1      32.657  23.097  24.529  1.00  0.00     0.161 A 
ATOM     86  C   UNL A   1      33.263  24.970  22.711  1.00  0.00     0.132 A 
ATOM     87  N   UNL A   1      31.799  23.254  23.464  1.00  0.00    -0.247 NA
ATOM     88  C   UNL A   1      32.125  24.202  22.570  1.00  0.00     0.132 A 
BRANCH  85  89
ATOM     89  C   UNL A   1      32.080  22.123  25.497  1.00  0.00     0.278 C 
ATOM     90  O   UNL A   1      30.958  22.309  25.959  1.00  0.00    -0.267 OA
ATOM     91  N   UNL A   1      32.907  21.113  25.992  1.00  0.00    -0.303 N 
ATOM     92  H   UNL A   1      32.914  20.874  26.947  1.00  0.00     0.172 HD
BRANCH  91  93
ATOM     93  C   UNL A   1      33.710  20.468  25.083  1.00  0.00     0.164 A 
ATOM     94  N   UNL A   1      35.003  20.510  25.384  1.00  0.00    -0.155 NA
ATOM     95  C   UNL A   1      33.395  19.410  24.181  1.00  0.00     0.063 A 
ATOM     96  N   UNL A   1      35.384  19.274  25.062  1.00  0.00    -0.259 N 
ATOM     97  C   UNL A   1      34.478  18.567  24.325  1.00  0.00     0.157 A 
ATOM     98  C   UNL A   1      32.323  18.918  23.421  1.00  0.00     0.017 A 
ATOM     99  H   UNL A   1      36.252  18.899  25.334  1.00  0.00     0.192 HD
ATOM    100  N   UNL A   1      34.599  17.293  23.901  1.00  0.00    -0.237 NA
ATOM    101  C   UNL A   1      32.432  17.621  22.895  1.00  0.00     0.021 A 
ATOM    102  C   UNL A   1      33.548  16.857  23.193  1.00  0.00     0.113 A 
ENDBRANCH  91  93
ENDBRANCH  85  89
ENDBRANCH  81  83
ENDBRANCH  80  81
ENDBRANCH  79  80
ENDBRANCH  78  79
ENDBRANCH  77  78
ENDBRANCH  76  77
ENDBRANCH  75  76
ENDBRANCH   1  75
TORSDOF 22
ENDMDL
MODEL 2
REMARK VINA RESULT:     -10.8      0.746      2.011
REMARK SMILES O=C(OCCOCCOCCOCCOC(=O)c1nccnc1C(=O)Nc1n[nH]c2ncccc12)c1ccc(-c2c3nc(c(-c4c(F)c(F)c(F)c(F)c4F)c4ccc([nH]4)c(-c4c(F)c(F)c(F)c(F)c4F)c4nc(c(-c5c(F)c(F)c(F)c(F)c5F)c5ccc2[nH]5)C=C4)C=C3)cc1
REMARK SMILES IDX 9 1 8 2 7 3 6 4 5 5 4 6 3 7 2 8 1 9 36 10 37 11 98 12 38 13
REMARK SMILES IDX 97 14 39 15 40 16 41 17 91 18 42 19 96 20 90 21 92 22 43 23
REMARK SMILES IDX 95 24 89 25 88 26 44 28 76 29 56 30 75 31 57 32 60 33 74 34
REMARK SMILES IDX 93 35 58 36 59 37 73 39 94 40 61 41 45 42 46 43 54 44 47 45
REMARK SMILES IDX 48 46 52 47 55 48 49 49 50 50 53 51 51 52 77 53 78 54 86 55
REMARK SMILES IDX 79 56 80 57 84 58 87 59 81 60 82 61 85 62 83 63 62 64 63 65
REMARK SMILES IDX 71 66 64 67 65 68 69 69 72 70 66 71 67 72 70 73 68 74 10 75
REMARK SMILES IDX 11 76 12 77 13 78 14 79 15 80 16 81 17 82 18 83 19 84 23 85
REMARK SMILES IDX 20 86 22 87 21 88 24 89 25 90 26 91 27 93 28 94 35 95 29 96
REMARK SMILES IDX 30 97 34 98 31 100 33 101 32 102
REMARK H PARENT 92 27 60 38 26 92 29 99
REMARK Flexibility Score: inf
ROOT
ATOM      1  O   UNL A   1      42.015  20.664  27.029  1.00  0.00    -0.377 OA
ENDROOT
BRANCH   1   2
ATOM      2  C   UNL A   1      42.536  19.906  25.943  1.00  0.00     0.188 C 
BRANCH   2   3
ATOM      3  C   UNL A   1      43.831  20.481  25.420  1.00  0.00     0.188 C 
BRANCH   3   4
ATOM      4  O   UNL A   1      43.628  21.831  25.033  1.00  0.00    -0.376 OA
BRANCH   4   5
ATOM      5  C   UNL A   1      44.329  22.302  23.901  1.00  0.00     0.202 C 
BRANCH   5   6
ATOM      6  C   UNL A   1      45.398  23.278  24.399  1.00  0.00     0.261 C 
BRANCH   6   7
ATOM      7  O   UNL A   1      44.940  24.122  25.485  1.00  0.00    -0.460 OA
BRANCH   7   8
ATOM      8  C   UNL A   1      44.888  25.480  25.516  1.00  0.00     0.338 C 
ATOM      9  O   UNL A   1      45.623  26.112  24.757  1.00  0.00    -0.246 OA
BRANCH   8  10
ATOM     10  C   UNL A   1      43.886  26.262  26.331  1.00  0.00     0.060 A 
ATOM     11  C   UNL A   1      43.769  27.657  26.373  1.00  0.00     0.016 A 
ATOM     12  C   UNL A   1      42.963  25.511  27.088  1.00  0.00     0.016 A 
ATOM     13  C   UNL A   1      42.797  28.289  27.143  1.00  0.00     0.010 A 
ATOM     14  C   UNL A   1      42.019  26.134  27.914  1.00  0.00     0.010 A 
ATOM     15  C   UNL A   1      41.978  27.530  27.975  1.00  0.00    -0.014 A 
BRANCH  15  16
ATOM     16  C   UNL A   1      41.419  28.227  29.148  1.00  0.00     0.031 A 
ATOM     17  C   UNL A   1      42.250  28.175  30.401  1.00  0.00     0.074 A 
ATOM     18  C   UNL A   1      40.327  29.001  29.051  1.00  0.00     0.049 A 
ATOM     19  N   UNL A   1      42.047  28.729  31.565  1.00  0.00    -0.248 NA
ATOM     20  C   UNL A   1      43.509  27.410  30.313  1.00  0.00     0.031 C 
ATOM     21  C   UNL A   1      39.550  29.222  27.834  1.00  0.00     0.029 A 
ATOM     22  N   UNL A   1      39.704  29.773  29.996  1.00  0.00    -0.354 N 
ATOM     23  C   UNL A   1      43.144  28.373  32.339  1.00  0.00     0.074 A 
ATOM     24  C   UNL A   1      44.012  27.561  31.524  1.00  0.00     0.031 C 
ATOM     25  C   UNL A   1      38.552  30.083  28.105  1.00  0.00     0.029 A 
ATOM     26  C   UNL A   1      38.599  30.436  29.522  1.00  0.00     0.049 A 
ATOM     27  H   UNL A   1      40.019  29.845  30.926  1.00  0.00     0.167 HD
ATOM     28  C   UNL A   1      43.396  28.686  33.630  1.00  0.00     0.037 A 
ATOM     29  C   UNL A   1      37.724  31.216  30.185  1.00  0.00     0.037 A 
ATOM     30  C   UNL A   1      42.497  29.464  34.432  1.00  0.00     0.049 A 
ATOM     31  C   UNL A   1      37.959  31.448  31.659  1.00  0.00     0.074 A 
ATOM     32  C   UNL A   1      42.579  29.778  35.773  1.00  0.00     0.029 A 
ATOM     33  N   UNL A   1      41.331  30.043  33.945  1.00  0.00    -0.354 N 
ATOM     34  N   UNL A   1      38.963  31.059  32.412  1.00  0.00    -0.248 NA
ATOM     35  C   UNL A   1      36.934  32.214  32.380  1.00  0.00     0.031 C 
ATOM     36  C   UNL A   1      41.432  30.506  36.111  1.00  0.00     0.029 A 
ATOM     37  C   UNL A   1      40.669  30.696  34.967  1.00  0.00     0.049 A 
ATOM     38  H   UNL A   1      41.022  29.994  33.012  1.00  0.00     0.167 HD
ATOM     39  C   UNL A   1      38.709  31.555  33.682  1.00  0.00     0.074 A 
ATOM     40  C   UNL A   1      37.458  32.285  33.596  1.00  0.00     0.031 C 
ATOM     41  C   UNL A   1      39.432  31.421  34.823  1.00  0.00     0.037 A 
BRANCH  28  42
ATOM     42  C   UNL A   1      44.629  28.089  34.241  1.00  0.00     0.064 A 
ATOM     43  C   UNL A   1      44.603  26.864  34.926  1.00  0.00     0.173 A 
ATOM     44  C   UNL A   1      45.837  28.801  34.214  1.00  0.00     0.173 A 
ATOM     45  F   UNL A   1      43.461  26.165  35.018  1.00  0.00    -0.203 F 
ATOM     46  C   UNL A   1      45.733  26.392  35.590  1.00  0.00     0.198 A 
ATOM     47  C   UNL A   1      46.972  28.312  34.856  1.00  0.00     0.198 A 
ATOM     48  F   UNL A   1      45.910  29.985  33.590  1.00  0.00    -0.203 F 
ATOM     49  F   UNL A   1      45.666  25.257  36.300  1.00  0.00    -0.200 F 
ATOM     50  C   UNL A   1      46.917  27.114  35.553  1.00  0.00     0.200 A 
ATOM     51  F   UNL A   1      48.113  29.014  34.821  1.00  0.00    -0.200 F 
ATOM     52  F   UNL A   1      47.998  26.668  36.207  1.00  0.00    -0.200 F 
ENDBRANCH  28  42
BRANCH  29  53
ATOM     53  C   UNL A   1      36.543  31.797  29.490  1.00  0.00     0.064 A 
ATOM     54  C   UNL A   1      35.494  30.988  29.030  1.00  0.00     0.173 A 
ATOM     55  C   UNL A   1      36.453  33.175  29.237  1.00  0.00     0.173 A 
ATOM     56  F   UNL A   1      35.540  29.660  29.218  1.00  0.00    -0.203 F 
ATOM     57  C   UNL A   1      34.413  31.530  28.333  1.00  0.00     0.198 A 
ATOM     58  C   UNL A   1      35.359  33.720  28.566  1.00  0.00     0.198 A 
ATOM     59  F   UNL A   1      37.431  33.999  29.642  1.00  0.00    -0.203 F 
ATOM     60  F   UNL A   1      33.452  30.725  27.860  1.00  0.00    -0.200 F 
ATOM     61  C   UNL A   1      34.344  32.895  28.107  1.00  0.00     0.200 A 
ATOM     62  F   UNL A   1      35.293  35.042  28.357  1.00  0.00    -0.200 F 
ATOM     63  F   UNL A   1      33.308  33.416  27.434  1.00  0.00    -0.200 F 
ENDBRANCH  29  53
BRANCH  41  64
ATOM     64  C   UNL A   1      38.910  32.116  36.045  1.00  0.00     0.064 A 
ATOM     65  C   UNL A   1      38.120  31.448  36.991  1.00  0.00     0.173 A 
ATOM     66  C   UNL A   1      39.260  33.452  36.296  1.00  0.00     0.173 A 
ATOM     67  F   UNL A   1      37.755  30.174  36.786  1.00  0.00    -0.203 F 
ATOM     68  C   UNL A   1      37.676  32.103  38.134  1.00  0.00     0.198 A 
ATOM     69  C   UNL A   1      38.840  34.092  37.457  1.00  0.00     0.198 A 
ATOM     70  F   UNL A   1      40.025  34.126  35.425  1.00  0.00    -0.203 F 
ATOM     71  F   UNL A   1      36.884  31.462  39.005  1.00  0.00    -0.200 F 
ATOM     72  C   UNL A   1      38.042  33.420  38.371  1.00  0.00     0.200 A 
ATOM     73  F   UNL A   1      39.209  35.358  37.692  1.00  0.00    -0.200 F 
ATOM     74  F   UNL A   1      37.622  34.045  39.479  1.00  0.00    -0.200 F 
ENDBRANCH  41  64
ENDBRANCH  15  16
ENDBRANCH   8  10
ENDBRANCH   7   8
ENDBRANCH   6   7
ENDBRANCH   5   6
ENDBRANCH   4   5
ENDBRANCH   3   4
ENDBRANCH   2   3
ENDBRANCH   1   2
BRANCH   1  75
ATOM     75  C   UNL A   1      40.651  21.058  27.014  1.00  0.00     0.188 C 
BRANCH  75  76
ATOM     76  C   UNL A   1      40.381  22.501  27.492  1.00  0.00     0.188 C 
BRANCH  76  77
ATOM     77  O   UNL A   1      40.206  23.441  26.405  1.00  0.00    -0.376 OA
BRANCH  77  78
ATOM     78  C   UNL A   1      38.930  24.118  26.376  1.00  0.00     0.202 C 
BRANCH  78  79
ATOM     79  C   UNL A   1      37.749  23.159  25.983  1.00  0.00     0.261 C 
BRANCH  79  80
ATOM     80  O   UNL A   1      36.606  23.779  25.303  1.00  0.00    -0.458 OA
BRANCH  80  81
ATOM     81  C   UNL A   1      35.323  23.689  25.794  1.00  0.00     0.359 C 
ATOM     82  O   UNL A   1      35.036  23.638  26.980  1.00  0.00    -0.244 OA
BRANCH  81  83
ATOM     83  C   UNL A   1      34.299  23.737  24.676  1.00  0.00     0.179 A 
ATOM     84  N   UNL A   1      34.559  24.657  23.688  1.00  0.00    -0.245 NA
ATOM     85  C   UNL A   1      33.103  23.002  24.645  1.00  0.00     0.161 A 
ATOM     86  C   UNL A   1      33.603  24.819  22.738  1.00  0.00     0.132 A 
ATOM     87  N   UNL A   1      32.145  23.189  23.673  1.00  0.00    -0.247 NA
ATOM     88  C   UNL A   1      32.420  24.107  22.733  1.00  0.00     0.132 A 
BRANCH  85  89
ATOM     89  C   UNL A   1      32.585  22.072  25.685  1.00  0.00     0.278 C 
ATOM     90  O   UNL A   1      31.520  22.312  26.249  1.00  0.00    -0.267 OA
ATOM     91  N   UNL A   1      33.417  21.039  26.122  1.00  0.00    -0.303 N 
ATOM     92  H   UNL A   1      33.507  20.818  27.077  1.00  0.00     0.172 HD
BRANCH  91  93
ATOM     93  C   UNL A   1      34.102  20.345  25.156  1.00  0.00     0.164 A 
ATOM     94  N   UNL A   1      35.422  20.384  25.301  1.00  0.00    -0.155 NA
ATOM     95  C   UNL A   1      33.676  19.251  24.346  1.00  0.00     0.063 A 
ATOM     96  N   UNL A   1      35.754  19.130  24.993  1.00  0.00    -0.259 N 
ATOM     97  C   UNL A   1      34.762  18.403  24.400  1.00  0.00     0.157 A 
ATOM     98  C   UNL A   1      32.518  18.739  23.740  1.00  0.00     0.017 A 
ATOM     99  H   UNL A   1      36.646  18.758  25.178  1.00  0.00     0.192 HD
ATOM    100  N   UNL A   1      34.824  17.109  24.023  1.00  0.00    -0.237 NA
ATOM    101  C   UNL A   1      32.557  17.419  23.264  1.00  0.00     0.021 A 
ATOM    102  C   UNL A   1      33.694  16.655  23.464  1.00  0.00     0.113 A 
ENDBRANCH  91  93
ENDBRANCH  85  89
ENDBRANCH  81  83
ENDBRANCH  80  81
ENDBRANCH  79  80
ENDBRANCH  78  79
ENDBRANCH  77  78
ENDBRANCH  76  77
ENDBRANCH  75  76
ENDBRANCH   1  75
TORSDOF 22
ENDMDL
MODEL 3
REMARK VINA RESULT:     -10.6      5.321     10.928
REMARK SMILES O=C(OCCOCCOCCOCCOC(=O)c1nccnc1C(=O)Nc1n[nH]c2ncccc12)c1ccc(-c2c3nc(c(-c4c(F)c(F)c(F)c(F)c4F)c4ccc([nH]4)c(-c4c(F)c(F)c(F)c(F)c4F)c4nc(c(-c5c(F)c(F)c(F)c(F)c5F)c5ccc2[nH]5)C=C4)C=C3)cc1
REMARK SMILES IDX 9 1 8 2 7 3 6 4 5 5 4 6 3 7 2 8 1 9 36 10 37 11 98 12 38 13
REMARK SMILES IDX 97 14 39 15 40 16 41 17 91 18 42 19 96 20 90 21 92 22 43 23
REMARK SMILES IDX 95 24 89 25 88 26 44 28 76 29 56 30 75 31 57 32 60 33 74 34
REMARK SMILES IDX 93 35 58 36 59 37 73 39 94 40 61 41 45 42 46 43 54 44 47 45
REMARK SMILES IDX 48 46 52 47 55 48 49 49 50 50 53 51 51 52 77 53 78 54 86 55
REMARK SMILES IDX 79 56 80 57 84 58 87 59 81 60 82 61 85 62 83 63 62 64 63 65
REMARK SMILES IDX 71 66 64 67 65 68 69 69 72 70 66 71 67 72 70 73 68 74 10 75
REMARK SMILES IDX 11 76 12 77 13 78 14 79 15 80 16 81 17 82 18 83 19 84 23 85
REMARK SMILES IDX 20 86 22 87 21 88 24 89 25 90 26 91 27 93 28 94 35 95 29 96
REMARK SMILES IDX 30 97 34 98 31 100 33 101 32 102
REMARK H PARENT 92 27 60 38 26 92 29 99
REMARK Flexibility Score: inf
ROOT
ATOM      1  O   UNL A   1      35.186  34.153  28.639  1.00  0.00    -0.377 OA
ENDROOT
BRANCH   1   2
ATOM      2  C   UNL A   1      35.493  33.886  30.003  1.00  0.00     0.188 C 
BRANCH   2   3
ATOM      3  C   UNL A   1      34.350  34.244  30.922  1.00  0.00     0.188 C 
BRANCH   3   4
ATOM      4  O   UNL A   1      34.806  35.144  31.919  1.00  0.00    -0.376 OA
BRANCH   4   5
ATOM      5  C   UNL A   1      35.841  34.706  32.775  1.00  0.00     0.202 C 
BRANCH   5   6
ATOM      6  C   UNL A   1      35.274  33.573  33.634  1.00  0.00     0.261 C 
BRANCH   6   7
ATOM      7  O   UNL A   1      35.833  32.275  33.311  1.00  0.00    -0.460 OA
BRANCH   7   8
ATOM      8  C   UNL A   1      37.034  31.769  33.696  1.00  0.00     0.338 C 
ATOM      9  O   UNL A   1      37.343  31.835  34.885  1.00  0.00    -0.246 OA
BRANCH   8  10
ATOM     10  C   UNL A   1      37.956  31.008  32.774  1.00  0.00     0.060 A 
ATOM     11  C   UNL A   1      38.909  30.058  33.165  1.00  0.00     0.016 A 
ATOM     12  C   UNL A   1      37.816  31.255  31.393  1.00  0.00     0.016 A 
ATOM     13  C   UNL A   1      39.704  29.392  32.237  1.00  0.00     0.010 A 
ATOM     14  C   UNL A   1      38.651  30.637  30.453  1.00  0.00     0.010 A 
ATOM     15  C   UNL A   1      39.631  29.741  30.891  1.00  0.00    -0.014 A 
BRANCH  15  16
ATOM     16  C   UNL A   1      40.834  29.470  30.083  1.00  0.00     0.031 A 
ATOM     17  C   UNL A   1      40.877  28.132  29.398  1.00  0.00     0.074 A 
ATOM     18  C   UNL A   1      41.746  30.423  29.839  1.00  0.00     0.049 A 
ATOM     19  N   UNL A   1      41.771  27.632  28.589  1.00  0.00    -0.248 NA
ATOM     20  C   UNL A   1      39.724  27.242  29.638  1.00  0.00     0.031 C 
ATOM     21  C   UNL A   1      41.699  31.792  30.347  1.00  0.00     0.029 A 
ATOM     22  N   UNL A   1      42.878  30.386  29.068  1.00  0.00    -0.354 N 
ATOM     23  C   UNL A   1      41.290  26.378  28.236  1.00  0.00     0.074 A 
ATOM     24  C   UNL A   1      40.030  26.185  28.908  1.00  0.00     0.031 C 
ATOM     25  C   UNL A   1      42.756  32.471  29.865  1.00  0.00     0.029 A 
ATOM     26  C   UNL A   1      43.572  31.571  29.055  1.00  0.00     0.049 A 
ATOM     27  H   UNL A   1      43.166  29.587  28.571  1.00  0.00     0.167 HD
ATOM     28  C   UNL A   1      41.863  25.457  27.429  1.00  0.00     0.037 A 
ATOM     29  C   UNL A   1      44.747  31.864  28.464  1.00  0.00     0.037 A 
ATOM     30  C   UNL A   1      43.137  25.657  26.802  1.00  0.00     0.049 A 
ATOM     31  C   UNL A   1      45.430  30.776  27.670  1.00  0.00     0.074 A 
ATOM     32  C   UNL A   1      43.877  24.778  26.037  1.00  0.00     0.029 A 
ATOM     33  N   UNL A   1      43.864  26.838  26.887  1.00  0.00    -0.354 N 
ATOM     34  N   UNL A   1      45.008  29.565  27.387  1.00  0.00    -0.248 NA
ATOM     35  C   UNL A   1      46.758  31.088  27.127  1.00  0.00     0.031 C 
ATOM     36  C   UNL A   1      45.079  25.412  25.702  1.00  0.00     0.029 A 
ATOM     37  C   UNL A   1      45.059  26.705  26.206  1.00  0.00     0.049 A 
ATOM     38  H   UNL A   1      43.571  27.649  27.362  1.00  0.00     0.167 HD
ATOM     39  C   UNL A   1      46.000  28.981  26.611  1.00  0.00     0.074 A 
ATOM     40  C   UNL A   1      47.041  29.979  26.458  1.00  0.00     0.031 C 
ATOM     41  C   UNL A   1      46.056  27.737  26.073  1.00  0.00     0.037 A 
BRANCH  28  42
ATOM     42  C   UNL A   1      41.152  24.143  27.292  1.00  0.00     0.064 A 
ATOM     43  C   UNL A   1      41.654  22.961  27.859  1.00  0.00     0.173 A 
ATOM     44  C   UNL A   1      39.994  24.054  26.505  1.00  0.00     0.173 A 
ATOM     45  F   UNL A   1      42.783  22.986  28.584  1.00  0.00    -0.203 F 
ATOM     46  C   UNL A   1      41.041  21.735  27.614  1.00  0.00     0.198 A 
ATOM     47  C   UNL A   1      39.369  22.830  26.286  1.00  0.00     0.198 A 
ATOM     48  F   UNL A   1      39.485  25.150  25.925  1.00  0.00    -0.203 F 
ATOM     49  F   UNL A   1      41.579  20.608  28.104  1.00  0.00    -0.200 F 
ATOM     50  C   UNL A   1      39.899  21.669  26.830  1.00  0.00     0.200 A 
ATOM     51  F   UNL A   1      38.268  22.769  25.525  1.00  0.00    -0.200 F 
ATOM     52  F   UNL A   1      39.321  20.486  26.581  1.00  0.00    -0.200 F 
ENDBRANCH  28  42
BRANCH  29  53
ATOM     53  C   UNL A   1      45.365  33.208  28.626  1.00  0.00     0.064 A 
ATOM     54  C   UNL A   1      46.180  33.511  29.726  1.00  0.00     0.173 A 
ATOM     55  C   UNL A   1      45.127  34.235  27.698  1.00  0.00     0.173 A 
ATOM     56  F   UNL A   1      46.419  32.578  30.659  1.00  0.00    -0.203 F 
ATOM     57  C   UNL A   1      46.716  34.788  29.901  1.00  0.00     0.198 A 
ATOM     58  C   UNL A   1      45.686  35.501  27.857  1.00  0.00     0.198 A 
ATOM     59  F   UNL A   1      44.347  34.009  26.631  1.00  0.00    -0.203 F 
ATOM     60  F   UNL A   1      47.447  35.062  30.990  1.00  0.00    -0.200 F 
ATOM     61  C   UNL A   1      46.474  35.780  28.964  1.00  0.00     0.200 A 
ATOM     62  F   UNL A   1      45.455  36.454  26.944  1.00  0.00    -0.200 F 
ATOM     63  F   UNL A   1      46.985  37.007  29.133  1.00  0.00    -0.200 F 
ENDBRANCH  29  53
BRANCH  41  64
ATOM     64  C   UNL A   1      47.257  27.410  25.237  1.00  0.00     0.064 A 
ATOM     65  C   UNL A   1      47.324  27.750  23.879  1.00  0.00     0.173 A 
ATOM     66  C   UNL A   1      48.377  26.803  25.825  1.00  0.00     0.173 A 
ATOM     67  F   UNL A   1      46.273  28.324  23.274  1.00  0.00    -0.203 F 
ATOM     68  C   UNL A   1      48.462  27.468  23.131  1.00  0.00     0.198 A 
ATOM     69  C   UNL A   1      49.525  26.551  25.082  1.00  0.00     0.198 A 
ATOM     70  F   UNL A   1      48.363  26.472  27.125  1.00  0.00    -0.203 F 
ATOM     71  F   UNL A   1      48.490  27.758  21.823  1.00  0.00    -0.200 F 
ATOM     72  C   UNL A   1      49.564  26.877  23.734  1.00  0.00     0.200 A 
ATOM     73  F   UNL A   1      50.594  25.997  25.669  1.00  0.00    -0.200 F 
ATOM     74  F   UNL A   1      50.663  26.616  23.014  1.00  0.00    -0.200 F 
ENDBRANCH  41  64
ENDBRANCH  15  16
ENDBRANCH   8  10
ENDBRANCH   7   8
ENDBRANCH   6   7
ENDBRANCH   5   6
ENDBRANCH   4   5
ENDBRANCH   3   4
ENDBRANCH   2   3
ENDBRANCH   1   2
BRANCH   1  75
ATOM     75  C   UNL A   1      34.348  33.254  27.925  1.00  0.00     0.188 C 
BRANCH  75  76
ATOM     76  C   UNL A   1      34.482  31.771  28.332  1.00  0.00     0.188 C 
BRANCH  76  77
ATOM     77  O   UNL A   1      34.329  30.856  27.222  1.00  0.00    -0.376 OA
BRANCH  77  78
ATOM     78  C   UNL A   1      34.532  29.462  27.541  1.00  0.00     0.202 C 
BRANCH  78  79
ATOM     79  C   UNL A   1      33.311  28.566  27.120  1.00  0.00     0.261 C 
BRANCH  79  80
ATOM     80  O   UNL A   1      33.616  27.174  26.767  1.00  0.00    -0.458 OA
BRANCH  80  81
ATOM     81  C   UNL A   1      33.882  26.787  25.473  1.00  0.00     0.359 C 
ATOM     82  O   UNL A   1      34.131  27.555  24.555  1.00  0.00    -0.244 OA
BRANCH  81  83
ATOM     83  C   UNL A   1      33.901  25.276  25.341  1.00  0.00     0.179 A 
ATOM     84  N   UNL A   1      35.075  24.749  24.859  1.00  0.00    -0.245 NA
ATOM     85  C   UNL A   1      32.803  24.432  25.575  1.00  0.00     0.161 A 
ATOM     86  C   UNL A   1      35.086  23.414  24.608  1.00  0.00     0.132 A 
ATOM     87  N   UNL A   1      32.838  23.081  25.306  1.00  0.00    -0.247 NA
ATOM     88  C   UNL A   1      33.992  22.599  24.819  1.00  0.00     0.132 A 
BRANCH  85  89
ATOM     89  C   UNL A   1      31.421  24.830  25.959  1.00  0.00     0.278 C 
ATOM     90  O   UNL A   1      31.039  24.681  27.117  1.00  0.00    -0.267 OA
ATOM     91  N   UNL A   1      30.532  25.197  24.947  1.00  0.00    -0.303 N 
ATOM     92  H   UNL A   1      29.602  24.875  24.936  1.00  0.00     0.172 HD
BRANCH  91  93
ATOM     93  C   UNL A   1      31.017  26.031  23.969  1.00  0.00     0.164 A 
ATOM     94  N   UNL A   1      31.280  25.417  22.822  1.00  0.00    -0.155 NA
ATOM     95  C   UNL A   1      30.849  27.438  23.808  1.00  0.00     0.063 A 
ATOM     96  N   UNL A   1      30.838  26.314  21.940  1.00  0.00    -0.259 N 
ATOM     97  C   UNL A   1      30.581  27.550  22.460  1.00  0.00     0.157 A 
ATOM     98  C   UNL A   1      30.689  28.604  24.572  1.00  0.00     0.017 A 
ATOM     99  H   UNL A   1      30.708  26.102  20.988  1.00  0.00     0.192 HD
ATOM    100  N   UNL A   1      30.096  28.620  21.797  1.00  0.00    -0.237 NA
ATOM    101  C   UNL A   1      30.256  29.766  23.913  1.00  0.00     0.021 A 
ATOM    102  C   UNL A   1      29.943  29.708  22.565  1.00  0.00     0.113 A 
ENDBRANCH  91  93
ENDBRANCH  85  89
ENDBRANCH  81  83
ENDBRANCH  80  81
ENDBRANCH  79  80
ENDBRANCH  78  79
ENDBRANCH  77  78
ENDBRANCH  76  77
ENDBRANCH  75  76
ENDBRANCH   1  75
TORSDOF 22
ENDMDL
