MODEL 1
REMARK VINA RESULT:      -8.3      0.000      0.000
REMARK SMILES Cc1cccc(C(=O)Nc2cc(C(=O)OCCOCCOCCOCCOC(=O)c3ccc(-c4c5nc(c(-c6c(F)c(F)c(F)c(F)c6F)c6ccc([nH]6)c(-c6c(F)c(F)c(F)c(F)c6F)c6nc(c(-c7c(F)c(F)c(F)c(F)c7F)c7ccc4[nH]7)C=C6)C=C5)cc3)ccc2N2CC[NH+](CC(=O)NC(C)(C)C)CC2)c1
REMARK SMILES IDX 20 1 19 2 18 3 17 4 16 5 15 6 13 7 14 8 12 9 10 10 11 11
REMARK SMILES IDX 95 12 94 13 93 14 9 15 7 16 8 17 6 19 1 20 2 21 3 22 110 23
REMARK SMILES IDX 4 24 5 25 96 26 97 27 109 28 98 29 108 30 99 31 100 33
REMARK SMILES IDX 101 34 102 35 103 36 104 38 105 39 106 40 107 41 21 42 22 43
REMARK SMILES IDX 23 44 24 45 25 46 26 47 27 48 28 49 29 50 30 51 31 52 92 53
REMARK SMILES IDX 32 54 91 55 33 56 34 57 35 58 85 59 36 60 90 61 84 62 86 63
REMARK SMILES IDX 37 64 89 65 83 66 82 67 38 69 70 70 50 71 69 72 51 73 54 74
REMARK SMILES IDX 68 75 87 76 52 77 53 78 67 80 88 81 55 82 39 83 40 84 48 85
REMARK SMILES IDX 41 86 42 87 46 88 49 89 43 90 44 91 47 92 45 93 71 94 72 95
REMARK SMILES IDX 80 96 73 97 74 98 78 99 81 100 75 101 76 102 79 103 77 104
REMARK SMILES IDX 56 105 57 106 65 107 58 108 59 109 63 110 66 111 60 112
REMARK SMILES IDX 61 113 64 114 62 115
REMARK H PARENT 9 18 99 32 103 37 86 68 54 79
REMARK Flexibility Score: inf
ROOT
ATOM      1  C   UNL A   1      48.207  34.515  30.432  1.00  0.00     0.188 C 
ENDROOT
BRANCH   1   2
ATOM      2  C   UNL A   1      47.096  35.695  30.029  1.00  0.00     0.188 C 
BRANCH   2   3
ATOM      3  O   UNL A   1      46.127  36.791  30.937  1.00  0.00    -0.376 OA
BRANCH   3   4
ATOM      4  C   UNL A   1      45.344  38.317  30.675  1.00  0.00     0.202 C 
BRANCH   4   5
ATOM      5  C   UNL A   1      44.259  38.929  29.250  1.00  0.00     0.261 C 
BRANCH   5   6
ATOM      6  O   UNL A   1      43.898  38.058  27.687  1.00  0.00    -0.460 OA
BRANCH   6   7
ATOM      7  C   UNL A   1      43.326  36.821  27.049  1.00  0.00     0.338 C 
ATOM      8  O   UNL A   1      42.185  36.779  26.570  1.00  0.00    -0.246 OA
BRANCH   7   9
ATOM      9  C   UNL A   1      43.949  35.343  26.913  1.00  0.00     0.062 A 
ATOM     10  C   UNL A   1      44.949  33.226  27.730  1.00  0.00     0.065 A 
ATOM     11  C   UNL A   1      44.768  34.604  27.777  1.00  0.00     0.044 A 
ATOM     12  C   UNL A   1      44.670  32.530  26.558  1.00  0.00     0.061 A 
ATOM     13  C   UNL A   1      44.036  33.254  25.547  1.00  0.00     0.029 A 
ATOM     14  C   UNL A   1      43.629  34.604  25.751  1.00  0.00     0.018 A 
BRANCH  10  15
ATOM     15  N   UNL A   1      45.486  32.535  28.845  1.00  0.00    -0.320 N 
ATOM     16  C   UNL A   1      45.088  32.492  30.181  1.00  0.00     0.255 C 
ATOM     17  O   UNL A   1      45.672  31.689  30.916  1.00  0.00    -0.269 OA
ATOM     18  H   UNL A   1      46.280  31.991  28.641  1.00  0.00     0.170 HD
BRANCH  16  19
ATOM     19  C   UNL A   1      43.932  33.240  30.786  1.00  0.00     0.040 A 
ATOM     20  C   UNL A   1      40.266  33.947  30.230  1.00  0.00     0.044 C 
ATOM     21  C   UNL A   1      41.602  33.948  30.897  1.00  0.00    -0.050 A 
ATOM     22  C   UNL A   1      41.903  34.880  31.890  1.00  0.00     0.003 A 
ATOM     23  C   UNL A   1      42.604  33.103  30.387  1.00  0.00     0.017 A 
ATOM     24  C   UNL A   1      43.196  34.946  32.393  1.00  0.00     0.001 A 
ATOM     25  C   UNL A   1      44.201  34.135  31.844  1.00  0.00     0.014 A 
ENDBRANCH  16  19
ENDBRANCH  10  15
BRANCH  12  26
ATOM     26  N   UNL A   1      44.912  31.160  26.528  1.00  0.00    -0.359 N 
ATOM     27  C   UNL A   1      43.923  30.162  26.959  1.00  0.00     0.178 C 
ATOM     28  C   UNL A   1      46.279  30.848  26.939  1.00  0.00     0.178 C 
ATOM     29  C   UNL A   1      44.440  28.708  26.699  1.00  0.00     0.284 C 
ATOM     30  C   UNL A   1      46.704  29.477  26.420  1.00  0.00     0.284 C 
ATOM     31  N   UNL A   1      45.869  28.398  26.946  1.00  0.00    -0.324 N 
ATOM     32  H   UNL A   1      46.053  27.539  26.428  1.00  0.00     0.348 HD
BRANCH  31  33
ATOM     33  C   UNL A   1      46.239  27.982  28.314  1.00  0.00     0.363 C 
BRANCH  33  34
ATOM     34  C   UNL A   1      46.426  26.486  28.556  1.00  0.00     0.275 C 
ATOM     35  O   UNL A   1      46.157  25.684  27.651  1.00  0.00    -0.268 OA
ATOM     36  N   UNL A   1      46.884  25.932  29.715  1.00  0.00    -0.347 N 
ATOM     37  H   UNL A   1      47.048  24.971  29.585  1.00  0.00     0.164 HD
BRANCH  36  38
ATOM     38  C   UNL A   1      47.215  26.318  31.119  1.00  0.00     0.032 C 
ATOM     39  C   UNL A   1      46.911  27.803  31.402  1.00  0.00     0.034 C 
ATOM     40  C   UNL A   1      46.255  25.512  32.022  1.00  0.00     0.034 C 
ATOM     41  C   UNL A   1      48.648  26.003  31.551  1.00  0.00     0.034 C 
ENDBRANCH  36  38
ENDBRANCH  33  34
ENDBRANCH  31  33
ENDBRANCH  12  26
ENDBRANCH   7   9
ENDBRANCH   6   7
ENDBRANCH   5   6
ENDBRANCH   4   5
ENDBRANCH   3   4
ENDBRANCH   2   3
ENDBRANCH   1   2
BRANCH   1  42
ATOM     42  O   UNL A   1      49.568  34.702  30.870  1.00  0.00    -0.377 OA
BRANCH  42  43
ATOM     43  C   UNL A   1      50.542  33.674  31.017  1.00  0.00     0.188 C 
BRANCH  43  44
ATOM     44  C   UNL A   1      50.282  32.305  30.420  1.00  0.00     0.188 C 
BRANCH  44  45
ATOM     45  O   UNL A   1      50.351  31.348  31.461  1.00  0.00    -0.376 OA
BRANCH  45  46
ATOM     46  C   UNL A   1      49.738  31.749  32.677  1.00  0.00     0.202 C 
BRANCH  46  47
ATOM     47  C   UNL A   1      48.359  31.108  32.857  1.00  0.00     0.261 C 
BRANCH  47  48
ATOM     48  O   UNL A   1      47.690  31.754  33.964  1.00  0.00    -0.460 OA
BRANCH  48  49
ATOM     49  C   UNL A   1      47.327  30.942  34.984  1.00  0.00     0.338 C 
ATOM     50  O   UNL A   1      47.901  29.884  35.298  1.00  0.00    -0.246 OA
BRANCH  49  51
ATOM     51  C   UNL A   1      45.966  31.298  35.446  1.00  0.00     0.060 A 
ATOM     52  C   UNL A   1      45.313  30.588  36.432  1.00  0.00     0.016 A 
ATOM     53  C   UNL A   1      45.188  32.209  34.788  1.00  0.00     0.016 A 
ATOM     54  C   UNL A   1      43.890  30.464  36.396  1.00  0.00     0.010 A 
ATOM     55  C   UNL A   1      43.777  32.074  34.859  1.00  0.00     0.010 A 
ATOM     56  C   UNL A   1      43.077  30.900  35.333  1.00  0.00    -0.014 A 
BRANCH  56  57
ATOM     57  C   UNL A   1      41.541  30.026  34.755  1.00  0.00     0.031 A 
ATOM     58  C   UNL A   1      41.380  28.859  33.155  1.00  0.00     0.074 A 
ATOM     59  C   UNL A   1      40.451  30.604  35.505  1.00  0.00     0.049 A 
ATOM     60  N   UNL A   1      40.782  29.287  31.999  1.00  0.00    -0.248 NA
ATOM     61  C   UNL A   1      42.134  27.646  32.438  1.00  0.00     0.031 C 
ATOM     62  C   UNL A   1      38.956  30.539  35.462  1.00  0.00     0.029 A 
ATOM     63  N   UNL A   1      40.486  31.623  36.497  1.00  0.00    -0.354 N 
ATOM     64  C   UNL A   1      40.788  28.571  30.857  1.00  0.00     0.074 A 
ATOM     65  C   UNL A   1      41.849  27.671  31.111  1.00  0.00     0.031 C 
ATOM     66  C   UNL A   1      38.295  31.355  36.265  1.00  0.00     0.029 A 
ATOM     67  C   UNL A   1      39.252  32.297  36.610  1.00  0.00     0.049 A 
ATOM     68  H   UNL A   1      41.280  31.833  37.041  1.00  0.00     0.167 HD
ATOM     69  C   UNL A   1      39.872  28.749  29.850  1.00  0.00     0.037 A 
ATOM     70  C   UNL A   1      39.014  33.556  36.170  1.00  0.00     0.037 A 
ATOM     71  C   UNL A   1      38.631  29.475  30.220  1.00  0.00     0.049 A 
ATOM     72  C   UNL A   1      38.280  33.675  34.804  1.00  0.00     0.074 A 
ATOM     73  C   UNL A   1      37.362  28.999  30.517  1.00  0.00     0.029 A 
ATOM     74  N   UNL A   1      38.571  30.833  30.551  1.00  0.00    -0.354 N 
ATOM     75  N   UNL A   1      38.227  32.768  33.838  1.00  0.00    -0.248 NA
ATOM     76  C   UNL A   1      37.479  34.847  34.479  1.00  0.00     0.031 C 
ATOM     77  C   UNL A   1      36.599  30.038  31.095  1.00  0.00     0.029 A 
ATOM     78  C   UNL A   1      37.401  31.160  31.263  1.00  0.00     0.049 A 
ATOM     79  H   UNL A   1      39.268  31.487  30.313  1.00  0.00     0.167 HD
ATOM     80  C   UNL A   1      37.398  33.193  32.812  1.00  0.00     0.074 A 
ATOM     81  C   UNL A   1      36.981  34.519  33.274  1.00  0.00     0.031 C 
ATOM     82  C   UNL A   1      37.024  32.533  31.655  1.00  0.00     0.037 A 
BRANCH  69  83
ATOM     83  C   UNL A   1      40.000  27.855  28.634  1.00  0.00     0.064 A 
ATOM     84  C   UNL A   1      39.656  26.490  28.626  1.00  0.00     0.173 A 
ATOM     85  C   UNL A   1      40.576  28.342  27.444  1.00  0.00     0.173 A 
ATOM     86  F   UNL A   1      39.001  25.918  29.640  1.00  0.00    -0.203 F 
ATOM     87  C   UNL A   1      39.999  25.645  27.567  1.00  0.00     0.198 A 
ATOM     88  C   UNL A   1      40.937  27.492  26.393  1.00  0.00     0.198 A 
ATOM     89  F   UNL A   1      40.834  29.653  27.305  1.00  0.00    -0.203 F 
ATOM     90  F   UNL A   1      39.699  24.340  27.633  1.00  0.00    -0.200 F 
ATOM     91  C   UNL A   1      40.676  26.138  26.470  1.00  0.00     0.200 A 
ATOM     92  F   UNL A   1      41.577  27.986  25.323  1.00  0.00    -0.200 F 
ATOM     93  F   UNL A   1      41.074  25.311  25.493  1.00  0.00    -0.200 F 
ENDBRANCH  69  83
BRANCH  70  94
ATOM     94  C   UNL A   1      39.797  34.472  37.027  1.00  0.00     0.064 A 
ATOM     95  C   UNL A   1      39.465  34.463  38.415  1.00  0.00     0.173 A 
ATOM     96  C   UNL A   1      41.097  34.815  36.678  1.00  0.00     0.173 A 
ATOM     97  F   UNL A   1      38.218  34.142  38.805  1.00  0.00    -0.203 F 
ATOM     98  C   UNL A   1      40.452  34.526  39.390  1.00  0.00     0.198 A 
ATOM     99  C   UNL A   1      42.074  34.942  37.669  1.00  0.00     0.198 A 
ATOM    100  F   UNL A   1      41.456  34.847  35.387  1.00  0.00    -0.203 F 
ATOM    101  F   UNL A   1      40.154  34.244  40.668  1.00  0.00    -0.200 F 
ATOM    102  C   UNL A   1      41.764  34.735  39.011  1.00  0.00     0.200 A 
ATOM    103  F   UNL A   1      43.354  35.122  37.315  1.00  0.00    -0.200 F 
ATOM    104  F   UNL A   1      42.741  34.656  39.925  1.00  0.00    -0.200 F 
ENDBRANCH  70  94
BRANCH  82 105
ATOM    105  C   UNL A   1      36.018  33.140  30.703  1.00  0.00     0.064 A 
ATOM    106  C   UNL A   1      36.295  33.423  29.357  1.00  0.00     0.173 A 
ATOM    107  C   UNL A   1      34.804  33.642  31.219  1.00  0.00     0.173 A 
ATOM    108  F   UNL A   1      37.472  33.080  28.810  1.00  0.00    -0.203 F 
ATOM    109  C   UNL A   1      35.370  34.092  28.554  1.00  0.00     0.198 A 
ATOM    110  C   UNL A   1      33.920  34.374  30.436  1.00  0.00     0.198 A 
ATOM    111  F   UNL A   1      34.466  33.438  32.502  1.00  0.00    -0.203 F 
ATOM    112  F   UNL A   1      35.631  34.278  27.253  1.00  0.00    -0.200 F 
ATOM    113  C   UNL A   1      34.190  34.576  29.096  1.00  0.00     0.200 A 
ATOM    114  F   UNL A   1      32.809  34.885  30.985  1.00  0.00    -0.200 F 
ATOM    115  F   UNL A   1      33.316  35.241  28.328  1.00  0.00    -0.200 F 
ENDBRANCH  82 105
ENDBRANCH  56  57
ENDBRANCH  49  51
ENDBRANCH  48  49
ENDBRANCH  47  48
ENDBRANCH  46  47
ENDBRANCH  45  46
ENDBRANCH  44  45
ENDBRANCH  43  44
ENDBRANCH  42  43
ENDBRANCH   1  42
TORSDOF 26
ENDMDL
MODEL 2
REMARK VINA RESULT:      -8.2      3.009      7.794
REMARK SMILES Cc1cccc(C(=O)Nc2cc(C(=O)OCCOCCOCCOCCOC(=O)c3ccc(-c4c5nc(c(-c6c(F)c(F)c(F)c(F)c6F)c6ccc([nH]6)c(-c6c(F)c(F)c(F)c(F)c6F)c6nc(c(-c7c(F)c(F)c(F)c(F)c7F)c7ccc4[nH]7)C=C6)C=C5)cc3)ccc2N2CC[NH+](CC(=O)NC(C)(C)C)CC2)c1
REMARK SMILES IDX 20 1 19 2 18 3 17 4 16 5 15 6 13 7 14 8 12 9 10 10 11 11
REMARK SMILES IDX 95 12 94 13 93 14 9 15 7 16 8 17 6 19 1 20 2 21 3 22 110 23
REMARK SMILES IDX 4 24 5 25 96 26 97 27 109 28 98 29 108 30 99 31 100 33
REMARK SMILES IDX 101 34 102 35 103 36 104 38 105 39 106 40 107 41 21 42 22 43
REMARK SMILES IDX 23 44 24 45 25 46 26 47 27 48 28 49 29 50 30 51 31 52 92 53
REMARK SMILES IDX 32 54 91 55 33 56 34 57 35 58 85 59 36 60 90 61 84 62 86 63
REMARK SMILES IDX 37 64 89 65 83 66 82 67 38 69 70 70 50 71 69 72 51 73 54 74
REMARK SMILES IDX 68 75 87 76 52 77 53 78 67 80 88 81 55 82 39 83 40 84 48 85
REMARK SMILES IDX 41 86 42 87 46 88 49 89 43 90 44 91 47 92 45 93 71 94 72 95
REMARK SMILES IDX 80 96 73 97 74 98 78 99 81 100 75 101 76 102 79 103 77 104
REMARK SMILES IDX 56 105 57 106 65 107 58 108 59 109 63 110 66 111 60 112
REMARK SMILES IDX 61 113 64 114 62 115
REMARK H PARENT 9 18 99 32 103 37 86 68 54 79
REMARK Flexibility Score: inf
ROOT
ATOM      1  C   UNL A   1      43.503  34.707  28.404  1.00  0.00     0.188 C 
ENDROOT
BRANCH   1   2
ATOM      2  C   UNL A   1      44.089  33.491  29.387  1.00  0.00     0.188 C 
BRANCH   2   3
ATOM      3  O   UNL A   1      45.403  33.372  30.494  1.00  0.00    -0.376 OA
BRANCH   3   4
ATOM      4  C   UNL A   1      46.483  32.137  31.059  1.00  0.00     0.202 C 
BRANCH   4   5
ATOM      5  C   UNL A   1      46.294  30.858  32.441  1.00  0.00     0.261 C 
BRANCH   5   6
ATOM      6  O   UNL A   1      44.831  29.824  32.794  1.00  0.00    -0.460 OA
BRANCH   6   7
ATOM      7  C   UNL A   1      44.102  28.544  32.484  1.00  0.00     0.338 C 
ATOM      8  O   UNL A   1      43.272  28.041  33.252  1.00  0.00    -0.246 OA
BRANCH   7   9
ATOM      9  C   UNL A   1      44.255  27.542  31.233  1.00  0.00     0.062 A 
ATOM     10  C   UNL A   1      43.463  26.153  29.338  1.00  0.00     0.065 A 
ATOM     11  C   UNL A   1      43.329  26.694  30.611  1.00  0.00     0.044 A 
ATOM     12  C   UNL A   1      44.723  26.065  28.752  1.00  0.00     0.061 A 
ATOM     13  C   UNL A   1      45.762  26.711  29.424  1.00  0.00     0.029 A 
ATOM     14  C   UNL A   1      45.516  27.483  30.595  1.00  0.00     0.018 A 
BRANCH  10  15
ATOM     15  N   UNL A   1      42.337  25.623  28.661  1.00  0.00    -0.320 N 
ATOM     16  C   UNL A   1      41.044  26.120  28.496  1.00  0.00     0.255 C 
ATOM     17  O   UNL A   1      40.296  25.497  27.735  1.00  0.00    -0.269 OA
ATOM     18  H   UNL A   1      42.494  24.751  28.233  1.00  0.00     0.170 HD
BRANCH  16  19
ATOM     19  C   UNL A   1      40.511  27.408  29.059  1.00  0.00     0.040 A 
ATOM     20  C   UNL A   1      37.603  28.777  31.039  1.00  0.00     0.044 C 
ATOM     21  C   UNL A   1      38.909  28.750  30.314  1.00  0.00    -0.050 A 
ATOM     22  C   UNL A   1      39.498  29.930  29.859  1.00  0.00     0.003 A 
ATOM     23  C   UNL A   1      39.446  27.502  29.953  1.00  0.00     0.017 A 
ATOM     24  C   UNL A   1      40.639  29.861  29.071  1.00  0.00     0.001 A 
ATOM     25  C   UNL A   1      41.138  28.612  28.672  1.00  0.00     0.014 A 
ENDBRANCH  16  19
ENDBRANCH  10  15
BRANCH  12  26
ATOM     26  N   UNL A   1      44.830  25.470  27.498  1.00  0.00    -0.359 N 
ATOM     27  C   UNL A   1      44.094  25.948  26.320  1.00  0.00     0.178 C 
ATOM     28  C   UNL A   1      44.895  24.014  27.600  1.00  0.00     0.178 C 
ATOM     29  C   UNL A   1      44.509  25.154  25.037  1.00  0.00     0.284 C 
ATOM     30  C   UNL A   1      45.523  23.408  26.348  1.00  0.00     0.284 C 
ATOM     31  N   UNL A   1      44.749  23.694  25.141  1.00  0.00    -0.324 N 
ATOM     32  H   UNL A   1      45.298  23.450  24.317  1.00  0.00     0.348 HD
BRANCH  31  33
ATOM     33  C   UNL A   1      43.580  22.807  24.969  1.00  0.00     0.363 C 
BRANCH  33  34
ATOM     34  C   UNL A   1      43.839  21.303  25.020  1.00  0.00     0.275 C 
ATOM     35  O   UNL A   1      44.637  20.794  24.221  1.00  0.00    -0.268 OA
ATOM     36  N   UNL A   1      43.257  20.439  25.900  1.00  0.00    -0.347 N 
ATOM     37  H   UNL A   1      43.681  19.554  25.830  1.00  0.00     0.164 HD
BRANCH  36  38
ATOM     38  C   UNL A   1      42.181  20.406  26.935  1.00  0.00     0.032 C 
ATOM     39  C   UNL A   1      42.217  21.645  27.852  1.00  0.00     0.034 C 
ATOM     40  C   UNL A   1      40.845  20.491  26.165  1.00  0.00     0.034 C 
ATOM     41  C   UNL A   1      42.153  19.141  27.793  1.00  0.00     0.034 C 
ENDBRANCH  36  38
ENDBRANCH  33  34
ENDBRANCH  31  33
ENDBRANCH  12  26
ENDBRANCH   7   9
ENDBRANCH   6   7
ENDBRANCH   5   6
ENDBRANCH   4   5
ENDBRANCH   3   4
ENDBRANCH   2   3
ENDBRANCH   1   2
BRANCH   1  42
ATOM     42  O   UNL A   1      44.263  35.713  27.702  1.00  0.00    -0.377 OA
BRANCH  42  43
ATOM     43  C   UNL A   1      44.079  37.120  27.813  1.00  0.00     0.188 C 
BRANCH  43  44
ATOM     44  C   UNL A   1      43.097  37.822  26.897  1.00  0.00     0.188 C 
BRANCH  44  45
ATOM     45  O   UNL A   1      43.184  39.215  27.139  1.00  0.00    -0.376 OA
BRANCH  45  46
ATOM     46  C   UNL A   1      41.975  39.819  27.573  1.00  0.00     0.202 C 
BRANCH  46  47
ATOM     47  C   UNL A   1      42.007  40.148  29.068  1.00  0.00     0.261 C 
BRANCH  47  48
ATOM     48  O   UNL A   1      43.385  40.186  29.502  1.00  0.00    -0.460 OA
BRANCH  48  49
ATOM     49  C   UNL A   1      43.581  40.501  30.804  1.00  0.00     0.338 C 
ATOM     50  O   UNL A   1      43.678  41.658  31.256  1.00  0.00    -0.246 OA
BRANCH  49  51
ATOM     51  C   UNL A   1      44.009  39.298  31.551  1.00  0.00     0.060 A 
ATOM     52  C   UNL A   1      44.723  38.277  30.958  1.00  0.00     0.016 A 
ATOM     53  C   UNL A   1      43.550  39.018  32.808  1.00  0.00     0.016 A 
ATOM     54  C   UNL A   1      44.543  36.931  31.404  1.00  0.00     0.010 A 
ATOM     55  C   UNL A   1      43.471  37.661  33.216  1.00  0.00     0.010 A 
ATOM     56  C   UNL A   1      43.568  36.520  32.332  1.00  0.00    -0.014 A 
BRANCH  56  57
ATOM     57  C   UNL A   1      42.663  34.897  32.260  1.00  0.00     0.031 A 
ATOM     58  C   UNL A   1      40.920  34.558  31.369  1.00  0.00     0.074 A 
ATOM     59  C   UNL A   1      43.313  34.039  33.222  1.00  0.00     0.049 A 
ATOM     60  N   UNL A   1      39.753  34.430  32.077  1.00  0.00    -0.248 NA
ATOM     61  C   UNL A   1      40.170  34.842  29.987  1.00  0.00     0.031 C 
ATOM     62  C   UNL A   1      43.044  32.697  33.828  1.00  0.00     0.029 A 
ATOM     63  N   UNL A   1      44.423  34.319  34.067  1.00  0.00    -0.354 N 
ATOM     64  C   UNL A   1      38.542  34.345  31.492  1.00  0.00     0.074 A 
ATOM     65  C   UNL A   1      38.830  34.851  30.203  1.00  0.00     0.031 C 
ATOM     66  C   UNL A   1      43.839  32.310  34.810  1.00  0.00     0.029 A 
ATOM     67  C   UNL A   1      44.439  33.494  35.212  1.00  0.00     0.049 A 
ATOM     68  H   UNL A   1      45.100  35.008  33.875  1.00  0.00     0.167 HD
ATOM     69  C   UNL A   1      37.442  33.800  32.110  1.00  0.00     0.037 A 
ATOM     70  C   UNL A   1      44.135  33.904  36.466  1.00  0.00     0.037 A 
ATOM     71  C   UNL A   1      37.718  32.943  33.290  1.00  0.00     0.049 A 
ATOM     72  C   UNL A   1      42.704  33.563  36.968  1.00  0.00     0.074 A 
ATOM     73  C   UNL A   1      37.761  31.562  33.411  1.00  0.00     0.029 A 
ATOM     74  N   UNL A   1      38.209  33.408  34.515  1.00  0.00    -0.354 N 
ATOM     75  N   UNL A   1      41.632  33.311  36.230  1.00  0.00    -0.248 NA
ATOM     76  C   UNL A   1      42.418  33.417  38.389  1.00  0.00     0.031 C 
ATOM     77  C   UNL A   1      38.351  31.222  34.649  1.00  0.00     0.029 A 
ATOM     78  C   UNL A   1      38.777  32.379  35.289  1.00  0.00     0.049 A 
ATOM     79  H   UNL A   1      38.161  34.349  34.804  1.00  0.00     0.167 HD
ATOM     80  C   UNL A   1      40.559  32.953  37.030  1.00  0.00     0.074 A 
ATOM     81  C   UNL A   1      41.122  33.063  38.379  1.00  0.00     0.031 C 
ATOM     82  C   UNL A   1      39.284  32.558  36.665  1.00  0.00     0.037 A 
BRANCH  69  83
ATOM     83  C   UNL A   1      36.154  33.761  31.316  1.00  0.00     0.064 A 
ATOM     84  C   UNL A   1      35.938  32.912  30.213  1.00  0.00     0.173 A 
ATOM     85  C   UNL A   1      35.112  34.668  31.595  1.00  0.00     0.173 A 
ATOM     86  F   UNL A   1      36.787  31.930  29.899  1.00  0.00    -0.203 F 
ATOM     87  C   UNL A   1      34.837  33.062  29.366  1.00  0.00     0.198 A 
ATOM     88  C   UNL A   1      34.020  34.830  30.736  1.00  0.00     0.198 A 
ATOM     89  F   UNL A   1      35.165  35.442  32.692  1.00  0.00    -0.203 F 
ATOM     90  F   UNL A   1      34.707  32.264  28.296  1.00  0.00    -0.200 F 
ATOM     91  C   UNL A   1      33.900  34.047  29.604  1.00  0.00     0.200 A 
ATOM     92  F   UNL A   1      33.105  35.778  30.987  1.00  0.00    -0.200 F 
ATOM     93  F   UNL A   1      32.888  34.238  28.746  1.00  0.00    -0.200 F 
ENDBRANCH  69  83
BRANCH  70  94
ATOM     94  C   UNL A   1      45.209  34.826  36.895  1.00  0.00     0.064 A 
ATOM     95  C   UNL A   1      44.816  36.180  37.117  1.00  0.00     0.173 A 
ATOM     96  C   UNL A   1      46.297  34.345  37.613  1.00  0.00     0.173 A 
ATOM     97  F   UNL A   1      43.771  36.695  36.444  1.00  0.00    -0.203 F 
ATOM     98  C   UNL A   1      45.315  36.906  38.191  1.00  0.00     0.198 A 
ATOM     99  C   UNL A   1      46.839  35.108  38.651  1.00  0.00     0.198 A 
ATOM    100  F   UNL A   1      46.711  33.084  37.434  1.00  0.00    -0.203 F 
ATOM    101  F   UNL A   1      44.740  38.066  38.544  1.00  0.00    -0.200 F 
ATOM    102  C   UNL A   1      46.308  36.354  38.977  1.00  0.00     0.200 A 
ATOM    103  F   UNL A   1      47.786  34.576  39.435  1.00  0.00    -0.200 F 
ATOM    104  F   UNL A   1      46.696  36.981  40.096  1.00  0.00    -0.200 F 
ENDBRANCH  70  94
BRANCH  82 105
ATOM    105  C   UNL A   1      38.281  32.107  37.703  1.00  0.00     0.064 A 
ATOM    106  C   UNL A   1      37.694  30.833  37.714  1.00  0.00     0.173 A 
ATOM    107  C   UNL A   1      37.742  33.061  38.593  1.00  0.00     0.173 A 
ATOM    108  F   UNL A   1      38.068  29.895  36.829  1.00  0.00    -0.203 F 
ATOM    109  C   UNL A   1      36.687  30.509  38.625  1.00  0.00     0.198 A 
ATOM    110  C   UNL A   1      36.687  32.756  39.445  1.00  0.00     0.198 A 
ATOM    111  F   UNL A   1      38.226  34.312  38.636  1.00  0.00    -0.203 F 
ATOM    112  F   UNL A   1      36.201  29.261  38.663  1.00  0.00    -0.200 F 
ATOM    113  C   UNL A   1      36.176  31.473  39.480  1.00  0.00     0.200 A 
ATOM    114  F   UNL A   1      36.165  33.712  40.227  1.00  0.00    -0.200 F 
ATOM    115  F   UNL A   1      35.191  31.165  40.335  1.00  0.00    -0.200 F 
ENDBRANCH  82 105
ENDBRANCH  56  57
ENDBRANCH  49  51
ENDBRANCH  48  49
ENDBRANCH  47  48
ENDBRANCH  46  47
ENDBRANCH  45  46
ENDBRANCH  44  45
ENDBRANCH  43  44
ENDBRANCH  42  43
ENDBRANCH   1  42
TORSDOF 26
ENDMDL
MODEL 3
REMARK VINA RESULT:      -8.0      5.417     11.628
REMARK SMILES Cc1cccc(C(=O)Nc2cc(C(=O)OCCOCCOCCOCCOC(=O)c3ccc(-c4c5nc(c(-c6c(F)c(F)c(F)c(F)c6F)c6ccc([nH]6)c(-c6c(F)c(F)c(F)c(F)c6F)c6nc(c(-c7c(F)c(F)c(F)c(F)c7F)c7ccc4[nH]7)C=C6)C=C5)cc3)ccc2N2CC[NH+](CC(=O)NC(C)(C)C)CC2)c1
REMARK SMILES IDX 20 1 19 2 18 3 17 4 16 5 15 6 13 7 14 8 12 9 10 10 11 11
REMARK SMILES IDX 95 12 94 13 93 14 9 15 7 16 8 17 6 19 1 20 2 21 3 22 110 23
REMARK SMILES IDX 4 24 5 25 96 26 97 27 109 28 98 29 108 30 99 31 100 33
REMARK SMILES IDX 101 34 102 35 103 36 104 38 105 39 106 40 107 41 21 42 22 43
REMARK SMILES IDX 23 44 24 45 25 46 26 47 27 48 28 49 29 50 30 51 31 52 92 53
REMARK SMILES IDX 32 54 91 55 33 56 34 57 35 58 85 59 36 60 90 61 84 62 86 63
REMARK SMILES IDX 37 64 89 65 83 66 82 67 38 69 70 70 50 71 69 72 51 73 54 74
REMARK SMILES IDX 68 75 87 76 52 77 53 78 67 80 88 81 55 82 39 83 40 84 48 85
REMARK SMILES IDX 41 86 42 87 46 88 49 89 43 90 44 91 47 92 45 93 71 94 72 95
REMARK SMILES IDX 80 96 73 97 74 98 78 99 81 100 75 101 76 102 79 103 77 104
REMARK SMILES IDX 56 105 57 106 65 107 58 108 59 109 63 110 66 111 60 112
REMARK SMILES IDX 61 113 64 114 62 115
REMARK H PARENT 9 18 99 32 103 37 86 68 54 79
REMARK Flexibility Score: inf
ROOT
ATOM      1  C   UNL A   1      50.401  32.305  31.785  1.00  0.00     0.188 C 
ENDROOT
BRANCH   1   2
ATOM      2  C   UNL A   1      48.939  31.908  32.486  1.00  0.00     0.188 C 
BRANCH   2   3
ATOM      3  O   UNL A   1      48.331  30.507  33.281  1.00  0.00    -0.376 OA
BRANCH   3   4
ATOM      4  C   UNL A   1      47.019  29.391  33.069  1.00  0.00     0.202 C 
BRANCH   4   5
ATOM      5  C   UNL A   1      46.986  27.499  33.061  1.00  0.00     0.261 C 
BRANCH   5   6
ATOM      6  O   UNL A   1      48.415  26.371  32.920  1.00  0.00    -0.460 OA
BRANCH   6   7
ATOM      7  C   UNL A   1      49.197  25.260  33.568  1.00  0.00     0.338 C 
ATOM      8  O   UNL A   1      50.434  25.205  33.539  1.00  0.00    -0.246 OA
BRANCH   7   9
ATOM      9  C   UNL A   1      48.683  23.932  34.319  1.00  0.00     0.062 A 
ATOM     10  C   UNL A   1      48.802  21.576  35.081  1.00  0.00     0.065 A 
ATOM     11  C   UNL A   1      49.032  22.586  34.154  1.00  0.00     0.044 A 
ATOM     12  C   UNL A   1      47.826  21.744  36.060  1.00  0.00     0.061 A 
ATOM     13  C   UNL A   1      47.262  23.017  36.157  1.00  0.00     0.029 A 
ATOM     14  C   UNL A   1      47.731  24.094  35.352  1.00  0.00     0.018 A 
BRANCH  10  15
ATOM     15  N   UNL A   1      49.503  20.348  34.994  1.00  0.00    -0.320 N 
ATOM     16  C   UNL A   1      50.869  20.068  34.962  1.00  0.00     0.255 C 
ATOM     17  O   UNL A   1      51.200  18.878  35.017  1.00  0.00    -0.269 OA
ATOM     18  H   UNL A   1      48.925  19.553  34.946  1.00  0.00     0.170 HD
BRANCH  16  19
ATOM     19  C   UNL A   1      51.982  21.078  34.992  1.00  0.00     0.040 A 
ATOM     20  C   UNL A   1      54.545  22.702  32.746  1.00  0.00     0.044 C 
ATOM     21  C   UNL A   1      53.747  22.418  33.977  1.00  0.00    -0.050 A 
ATOM     22  C   UNL A   1      54.204  22.819  35.232  1.00  0.00     0.003 A 
ATOM     23  C   UNL A   1      52.614  21.593  33.862  1.00  0.00     0.017 A 
ATOM     24  C   UNL A   1      53.511  22.420  36.368  1.00  0.00     0.001 A 
ATOM     25  C   UNL A   1      52.413  21.556  36.248  1.00  0.00     0.014 A 
ENDBRANCH  16  19
ENDBRANCH  10  15
BRANCH  12  26
ATOM     26  N   UNL A   1      47.584  20.694  36.941  1.00  0.00    -0.359 N 
ATOM     27  C   UNL A   1      46.254  20.098  37.130  1.00  0.00     0.178 C 
ATOM     28  C   UNL A   1      48.340  20.851  38.182  1.00  0.00     0.178 C 
ATOM     29  C   UNL A   1      46.322  18.866  38.094  1.00  0.00     0.284 C 
ATOM     30  C   UNL A   1      48.498  19.511  38.896  1.00  0.00     0.284 C 
ATOM     31  N   UNL A   1      47.213  18.928  39.278  1.00  0.00    -0.324 N 
ATOM     32  H   UNL A   1      47.348  17.959  39.565  1.00  0.00     0.348 HD
BRANCH  31  33
ATOM     33  C   UNL A   1      46.649  19.507  40.514  1.00  0.00     0.363 C 
BRANCH  33  34
ATOM     34  C   UNL A   1      47.104  18.893  41.836  1.00  0.00     0.275 C 
ATOM     35  O   UNL A   1      48.305  18.649  42.014  1.00  0.00    -0.268 OA
ATOM     36  N   UNL A   1      46.281  18.583  42.879  1.00  0.00    -0.347 N 
ATOM     37  H   UNL A   1      46.817  18.331  43.664  1.00  0.00     0.164 HD
BRANCH  36  38
ATOM     38  C   UNL A   1      44.827  18.504  43.209  1.00  0.00     0.032 C 
ATOM     39  C   UNL A   1      44.584  18.080  44.671  1.00  0.00     0.034 C 
ATOM     40  C   UNL A   1      44.283  19.945  43.092  1.00  0.00     0.034 C 
ATOM     41  C   UNL A   1      44.005  17.611  42.279  1.00  0.00     0.034 C 
ENDBRANCH  36  38
ENDBRANCH  33  34
ENDBRANCH  31  33
ENDBRANCH  12  26
ENDBRANCH   7   9
ENDBRANCH   6   7
ENDBRANCH   5   6
ENDBRANCH   4   5
ENDBRANCH   3   4
ENDBRANCH   2   3
ENDBRANCH   1   2
BRANCH   1  42
ATOM     42  O   UNL A   1      50.721  32.338  30.379  1.00  0.00    -0.377 OA
BRANCH  42  43
ATOM     43  C   UNL A   1      50.197  31.462  29.387  1.00  0.00     0.188 C 
BRANCH  43  44
ATOM     44  C   UNL A   1      50.807  30.086  29.205  1.00  0.00     0.188 C 
BRANCH  44  45
ATOM     45  O   UNL A   1      49.773  29.190  28.835  1.00  0.00    -0.376 OA
BRANCH  45  46
ATOM     46  C   UNL A   1      49.964  27.852  29.267  1.00  0.00     0.202 C 
BRANCH  46  47
ATOM     47  C   UNL A   1      50.252  26.911  28.094  1.00  0.00     0.261 C 
BRANCH  47  48
ATOM     48  O   UNL A   1      49.020  26.260  27.711  1.00  0.00    -0.460 OA
BRANCH  48  49
ATOM     49  C   UNL A   1      48.524  26.610  26.500  1.00  0.00     0.338 C 
ATOM     50  O   UNL A   1      49.155  27.214  25.614  1.00  0.00    -0.246 OA
BRANCH  49  51
ATOM     51  C   UNL A   1      47.049  26.489  26.510  1.00  0.00     0.060 A 
ATOM     52  C   UNL A   1      46.286  26.679  25.376  1.00  0.00     0.016 A 
ATOM     53  C   UNL A   1      46.333  26.391  27.670  1.00  0.00     0.016 A 
ATOM     54  C   UNL A   1      44.970  27.226  25.488  1.00  0.00     0.010 A 
ATOM     55  C   UNL A   1      45.002  26.883  27.689  1.00  0.00     0.010 A 
ATOM     56  C   UNL A   1      44.413  27.732  26.677  1.00  0.00    -0.014 A 
BRANCH  56  57
ATOM     57  C   UNL A   1      43.269  29.195  26.764  1.00  0.00     0.031 A 
ATOM     58  C   UNL A   1      43.779  31.068  27.186  1.00  0.00     0.074 A 
ATOM     59  C   UNL A   1      41.932  28.650  26.773  1.00  0.00     0.049 A 
ATOM     60  N   UNL A   1      43.533  31.631  28.411  1.00  0.00    -0.248 NA
ATOM     61  C   UNL A   1      44.872  32.164  26.788  1.00  0.00     0.031 C 
ATOM     62  C   UNL A   1      40.550  29.181  26.997  1.00  0.00     0.029 A 
ATOM     63  N   UNL A   1      41.517  27.290  26.716  1.00  0.00    -0.354 N 
ATOM     64  C   UNL A   1      43.996  32.845  28.770  1.00  0.00     0.074 A 
ATOM     65  C   UNL A   1      45.026  33.032  27.820  1.00  0.00     0.031 C 
ATOM     66  C   UNL A   1      39.568  28.298  27.056  1.00  0.00     0.029 A 
ATOM     67  C   UNL A   1      40.236  27.103  27.277  1.00  0.00     0.049 A 
ATOM     68  H   UNL A   1      42.061  26.565  26.331  1.00  0.00     0.167 HD
ATOM     69  C   UNL A   1      43.435  33.600  29.772  1.00  0.00     0.037 A 
ATOM     70  C   UNL A   1      39.992  26.513  28.471  1.00  0.00     0.037 A 
ATOM     71  C   UNL A   1      42.058  33.221  30.178  1.00  0.00     0.049 A 
ATOM     72  C   UNL A   1      39.724  27.471  29.666  1.00  0.00     0.074 A 
ATOM     73  C   UNL A   1      40.833  33.782  29.847  1.00  0.00     0.029 A 
ATOM     74  N   UNL A   1      41.722  32.039  30.846  1.00  0.00    -0.354 N 
ATOM     75  N   UNL A   1      40.100  28.738  29.779  1.00  0.00    -0.248 NA
ATOM     76  C   UNL A   1      38.927  27.048  30.808  1.00  0.00     0.031 C 
ATOM     77  C   UNL A   1      39.799  32.901  30.234  1.00  0.00     0.029 A 
ATOM     78  C   UNL A   1      40.355  31.727  30.728  1.00  0.00     0.049 A 
ATOM     79  H   UNL A   1      42.369  31.487  31.344  1.00  0.00     0.167 HD
ATOM     80  C   UNL A   1      39.596  29.296  30.943  1.00  0.00     0.074 A 
ATOM     81  C   UNL A   1      38.886  28.167  31.551  1.00  0.00     0.031 C 
ATOM     82  C   UNL A   1      39.699  30.594  31.411  1.00  0.00     0.037 A 
BRANCH  69  83
ATOM     83  C   UNL A   1      44.059  34.952  30.048  1.00  0.00     0.064 A 
ATOM     84  C   UNL A   1      45.086  35.164  30.986  1.00  0.00     0.173 A 
ATOM     85  C   UNL A   1      43.558  36.113  29.424  1.00  0.00     0.173 A 
ATOM     86  F   UNL A   1      45.732  34.152  31.572  1.00  0.00    -0.203 F 
ATOM     87  C   UNL A   1      45.477  36.446  31.381  1.00  0.00     0.198 A 
ATOM     88  C   UNL A   1      43.935  37.396  29.834  1.00  0.00     0.198 A 
ATOM     89  F   UNL A   1      42.659  36.013  28.432  1.00  0.00    -0.203 F 
ATOM     90  F   UNL A   1      46.422  36.594  32.321  1.00  0.00    -0.200 F 
ATOM     91  C   UNL A   1      44.873  37.561  30.836  1.00  0.00     0.200 A 
ATOM     92  F   UNL A   1      43.356  38.473  29.283  1.00  0.00    -0.200 F 
ATOM     93  F   UNL A   1      45.194  38.787  31.274  1.00  0.00    -0.200 F 
ENDBRANCH  69  83
BRANCH  70  94
ATOM     94  C   UNL A   1      40.335  25.081  28.327  1.00  0.00     0.064 A 
ATOM     95  C   UNL A   1      39.432  24.299  27.546  1.00  0.00     0.173 A 
ATOM     96  C   UNL A   1      41.662  24.673  28.379  1.00  0.00     0.173 A 
ATOM     97  F   UNL A   1      38.135  24.650  27.467  1.00  0.00    -0.203 F 
ATOM     98  C   UNL A   1      39.897  23.336  26.660  1.00  0.00     0.198 A 
ATOM     99  C   UNL A   1      42.112  23.656  27.532  1.00  0.00     0.198 A 
ATOM    100  F   UNL A   1      42.547  25.367  29.106  1.00  0.00    -0.203 F 
ATOM    101  F   UNL A   1      39.069  22.807  25.746  1.00  0.00    -0.200 F 
ATOM    102  C   UNL A   1      41.245  23.037  26.633  1.00  0.00     0.200 A 
ATOM    103  F   UNL A   1      43.420  23.372  27.479  1.00  0.00    -0.200 F 
ATOM    104  F   UNL A   1      41.726  22.217  25.689  1.00  0.00    -0.200 F 
ENDBRANCH  70  94
BRANCH  82 105
ATOM    105  C   UNL A   1      38.982  31.027  32.670  1.00  0.00     0.064 A 
ATOM    106  C   UNL A   1      37.683  31.558  32.680  1.00  0.00     0.173 A 
ATOM    107  C   UNL A   1      39.706  31.100  33.880  1.00  0.00     0.173 A 
ATOM    108  F   UNL A   1      36.960  31.630  31.551  1.00  0.00    -0.203 F 
ATOM    109  C   UNL A   1      37.113  32.051  33.856  1.00  0.00     0.198 A 
ATOM    110  C   UNL A   1      39.162  31.661  35.029  1.00  0.00     0.198 A 
ATOM    111  F   UNL A   1      40.963  30.636  33.957  1.00  0.00    -0.203 F 
ATOM    112  F   UNL A   1      35.844  32.479  33.850  1.00  0.00    -0.200 F 
ATOM    113  C   UNL A   1      37.856  32.113  35.024  1.00  0.00     0.200 A 
ATOM    114  F   UNL A   1      39.909  31.767  36.136  1.00  0.00    -0.200 F 
ATOM    115  F   UNL A   1      37.314  32.612  36.144  1.00  0.00    -0.200 F 
ENDBRANCH  82 105
ENDBRANCH  56  57
ENDBRANCH  49  51
ENDBRANCH  48  49
ENDBRANCH  47  48
ENDBRANCH  46  47
ENDBRANCH  45  46
ENDBRANCH  44  45
ENDBRANCH  43  44
ENDBRANCH  42  43
ENDBRANCH   1  42
TORSDOF 26
ENDMDL
