MODEL 1
REMARK VINA RESULT:     -10.2      0.000      0.000
REMARK SMILES [NH3+][C@@H](Cc1ccc(F)cc1C(F)(F)F)C(=O)OCCOCCOCCOCCOC(=O)c1ccc(-c2c3nc(c(-c4c(F)c(F)c(F)c(F)c4F)c4ccc([nH]4)c(-c4c(F)c(F)c(F)c(F)c4F)c4nc(c(-c5c(F)c(F)c(F)c(F)c5F)c5ccc2[nH]5)C=C4)C=C3)cc1
REMARK SMILES IDX 22 1 21 2 20 3 19 4 18 5 17 6 15 7 16 8 2 9 1 10 3 14 4 15
REMARK SMILES IDX 5 16 10 17 6 18 9 19 7 20 8 21 11 22 12 23 13 24 14 25 23 26
REMARK SMILES IDX 24 27 25 28 26 29 27 30 28 31 29 32 30 33 31 34 32 35 33 36
REMARK SMILES IDX 94 37 34 38 93 39 35 40 36 41 37 42 87 43 38 44 92 45 86 46
REMARK SMILES IDX 88 47 39 48 91 49 85 50 84 51 40 53 72 54 52 55 71 56 53 57
REMARK SMILES IDX 56 58 70 59 89 60 54 61 55 62 69 64 90 65 57 66 41 67 42 68
REMARK SMILES IDX 50 69 43 70 44 71 48 72 51 73 45 74 46 75 49 76 47 77 73 78
REMARK SMILES IDX 74 79 82 80 75 81 76 82 80 83 83 84 77 85 78 86 81 87 79 88
REMARK SMILES IDX 58 89 59 90 67 91 60 92 61 93 65 94 68 95 62 96 63 97 66 98
REMARK SMILES IDX 64 99
REMARK H PARENT 1 11 1 12 1 13 88 52 56 63
REMARK Flexibility Score: inf
ROOT
ATOM      1  C   UNL A   1      34.621  34.360  28.461  1.00  0.00     0.188 C 
ENDROOT
BRANCH   1   2
ATOM      2  C   UNL A   1      33.400  33.621  27.885  1.00  0.00     0.188 C 
BRANCH   2   3
ATOM      3  O   UNL A   1      33.434  32.212  27.673  1.00  0.00    -0.376 OA
BRANCH   3   4
ATOM      4  C   UNL A   1      34.479  31.411  28.205  1.00  0.00     0.202 C 
BRANCH   4   5
ATOM      5  C   UNL A   1      35.030  30.177  27.473  1.00  0.00     0.261 C 
BRANCH   5   6
ATOM      6  O   UNL A   1      34.301  28.963  27.665  1.00  0.00    -0.459 OA
BRANCH   6   7
ATOM      7  C   UNL A   1      33.325  28.691  26.755  1.00  0.00     0.365 C 
ATOM      8  O   UNL A   1      33.099  29.356  25.751  1.00  0.00    -0.245 OA
BRANCH   7   9
ATOM      9  C   UNL A   1      32.468  27.484  27.177  1.00  0.00     0.296 C 
BRANCH   9  10
ATOM     10  N   UNL A   1      31.263  27.873  27.931  1.00  0.00    -0.346 N 
ATOM     11  H   UNL A   1      30.516  28.111  27.278  1.00  0.00     0.345 HD
ATOM     12  H   UNL A   1      31.475  28.682  28.515  1.00  0.00     0.345 HD
ATOM     13  H   UNL A   1      30.965  27.096  28.521  1.00  0.00     0.345 HD
ENDBRANCH   9  10
BRANCH   9  14
ATOM     14  C   UNL A   1      32.116  26.614  25.962  1.00  0.00     0.113 C 
BRANCH  14  15
ATOM     15  C   UNL A   1      32.935  25.338  25.817  1.00  0.00    -0.029 A 
ATOM     16  C   UNL A   1      34.295  25.504  25.473  1.00  0.00     0.007 A 
ATOM     17  C   UNL A   1      32.420  24.025  25.963  1.00  0.00     0.062 A 
ATOM     18  C   UNL A   1      35.132  24.409  25.275  1.00  0.00     0.039 A 
ATOM     19  C   UNL A   1      33.292  22.933  25.759  1.00  0.00     0.052 A 
ATOM     20  C   UNL A   1      34.623  23.132  25.422  1.00  0.00     0.123 A 
ATOM     21  F   UNL A   1      35.421  22.074  25.229  1.00  0.00    -0.207 F 
BRANCH  17  22
ATOM     22  C   UNL A   1      30.982  23.661  26.277  1.00  0.00     0.416 C 
ATOM     23  F   UNL A   1      30.203  24.774  26.415  1.00  0.00    -0.166 F 
ATOM     24  F   UNL A   1      30.399  22.927  25.289  1.00  0.00    -0.166 F 
ATOM     25  F   UNL A   1      30.794  22.949  27.420  1.00  0.00    -0.166 F 
ENDBRANCH  17  22
ENDBRANCH  14  15
ENDBRANCH   9  14
ENDBRANCH   7   9
ENDBRANCH   6   7
ENDBRANCH   5   6
ENDBRANCH   4   5
ENDBRANCH   3   4
ENDBRANCH   2   3
ENDBRANCH   1   2
BRANCH   1  26
ATOM     26  O   UNL A   1      34.371  35.011  29.693  1.00  0.00    -0.377 OA
BRANCH  26  27
ATOM     27  C   UNL A   1      33.073  35.584  29.814  1.00  0.00     0.188 C 
BRANCH  27  28
ATOM     28  C   UNL A   1      32.625  36.069  31.215  1.00  0.00     0.188 C 
BRANCH  28  29
ATOM     29  O   UNL A   1      32.632  35.075  32.230  1.00  0.00    -0.376 OA
BRANCH  29  30
ATOM     30  C   UNL A   1      33.859  34.708  32.846  1.00  0.00     0.202 C 
BRANCH  30  31
ATOM     31  C   UNL A   1      34.067  33.236  33.254  1.00  0.00     0.261 C 
BRANCH  31  32
ATOM     32  O   UNL A   1      35.120  32.534  32.575  1.00  0.00    -0.460 OA
BRANCH  32  33
ATOM     33  C   UNL A   1      36.261  32.327  33.258  1.00  0.00     0.338 C 
ATOM     34  O   UNL A   1      36.458  32.539  34.445  1.00  0.00    -0.246 OA
BRANCH  33  35
ATOM     35  C   UNL A   1      37.196  31.587  32.385  1.00  0.00     0.060 A 
ATOM     36  C   UNL A   1      38.214  30.838  32.988  1.00  0.00     0.016 A 
ATOM     37  C   UNL A   1      37.086  31.637  30.993  1.00  0.00     0.016 A 
ATOM     38  C   UNL A   1      39.152  30.173  32.202  1.00  0.00     0.010 A 
ATOM     39  C   UNL A   1      38.045  30.992  30.204  1.00  0.00     0.010 A 
ATOM     40  C   UNL A   1      39.103  30.290  30.806  1.00  0.00    -0.014 A 
BRANCH  40  41
ATOM     41  C   UNL A   1      40.269  29.830  30.012  1.00  0.00     0.031 A 
ATOM     42  C   UNL A   1      41.429  30.771  29.826  1.00  0.00     0.074 A 
ATOM     43  C   UNL A   1      40.335  28.572  29.540  1.00  0.00     0.049 A 
ATOM     44  N   UNL A   1      42.559  30.581  29.195  1.00  0.00    -0.248 NA
ATOM     45  C   UNL A   1      41.302  32.103  30.441  1.00  0.00     0.031 C 
ATOM     46  C   UNL A   1      39.300  27.554  29.707  1.00  0.00     0.029 A 
ATOM     47  N   UNL A   1      41.325  27.935  28.832  1.00  0.00    -0.354 N 
ATOM     48  C   UNL A   1      43.276  31.762  29.340  1.00  0.00     0.074 A 
ATOM     49  C   UNL A   1      42.444  32.677  30.089  1.00  0.00     0.031 C 
ATOM     50  C   UNL A   1      39.711  26.417  29.119  1.00  0.00     0.029 A 
ATOM     51  C   UNL A   1      41.022  26.636  28.507  1.00  0.00     0.049 A 
ATOM     52  H   UNL A   1      42.171  28.370  28.581  1.00  0.00     0.167 HD
ATOM     53  C   UNL A   1      44.523  32.049  28.902  1.00  0.00     0.037 A 
ATOM     54  C   UNL A   1      41.717  25.734  27.786  1.00  0.00     0.037 A 
ATOM     55  C   UNL A   1      45.354  31.133  28.166  1.00  0.00     0.049 A 
ATOM     56  C   UNL A   1      43.069  26.114  27.235  1.00  0.00     0.074 A 
ATOM     57  C   UNL A   1      46.638  31.332  27.688  1.00  0.00     0.029 A 
ATOM     58  N   UNL A   1      44.986  29.848  27.801  1.00  0.00    -0.354 N 
ATOM     59  N   UNL A   1      43.745  27.227  27.391  1.00  0.00    -0.248 NA
ATOM     60  C   UNL A   1      43.756  25.111  26.410  1.00  0.00     0.031 C 
ATOM     61  C   UNL A   1      47.024  30.191  26.983  1.00  0.00     0.029 A 
ATOM     62  C   UNL A   1      46.007  29.254  27.076  1.00  0.00     0.049 A 
ATOM     63  H   UNL A   1      44.128  29.420  28.023  1.00  0.00     0.167 HD
ATOM     64  C   UNL A   1      44.940  27.049  26.705  1.00  0.00     0.074 A 
ATOM     65  C   UNL A   1      44.910  25.710  26.156  1.00  0.00     0.031 C 
ATOM     66  C   UNL A   1      45.967  27.918  26.538  1.00  0.00     0.037 A 
BRANCH  53  67
ATOM     67  C   UNL A   1      45.084  33.408  29.195  1.00  0.00     0.064 A 
ATOM     68  C   UNL A   1      45.742  33.656  30.409  1.00  0.00     0.173 A 
ATOM     69  C   UNL A   1      44.870  34.491  28.331  1.00  0.00     0.173 A 
ATOM     70  F   UNL A   1      45.970  32.653  31.271  1.00  0.00    -0.203 F 
ATOM     71  C   UNL A   1      46.132  34.944  30.763  1.00  0.00     0.198 A 
ATOM     72  C   UNL A   1      45.286  35.775  28.676  1.00  0.00     0.198 A 
ATOM     73  F   UNL A   1      44.259  34.304  27.150  1.00  0.00    -0.203 F 
ATOM     74  F   UNL A   1      46.712  35.165  31.951  1.00  0.00    -0.200 F 
ATOM     75  C   UNL A   1      45.902  36.003  29.898  1.00  0.00     0.200 A 
ATOM     76  F   UNL A   1      45.081  36.794  27.829  1.00  0.00    -0.200 F 
ATOM     77  F   UNL A   1      46.270  37.244  30.243  1.00  0.00    -0.200 F 
ENDBRANCH  53  67
BRANCH  54  78
ATOM     78  C   UNL A   1      41.147  24.383  27.530  1.00  0.00     0.064 A 
ATOM     79  C   UNL A   1      40.068  24.202  26.652  1.00  0.00     0.173 A 
ATOM     80  C   UNL A   1      41.687  23.241  28.137  1.00  0.00     0.173 A 
ATOM     81  F   UNL A   1      39.518  25.259  26.036  1.00  0.00    -0.203 F 
ATOM     82  C   UNL A   1      39.541  22.937  26.406  1.00  0.00     0.198 A 
ATOM     83  C   UNL A   1      41.181  21.971  27.864  1.00  0.00     0.198 A 
ATOM     84  F   UNL A   1      42.739  23.355  28.962  1.00  0.00    -0.203 F 
ATOM     85  F   UNL A   1      38.490  22.798  25.585  1.00  0.00    -0.200 F 
ATOM     86  C   UNL A   1      40.103  21.820  27.005  1.00  0.00     0.200 A 
ATOM     87  F   UNL A   1      41.752  20.892  28.417  1.00  0.00    -0.200 F 
ATOM     88  F   UNL A   1      39.614  20.600  26.747  1.00  0.00    -0.200 F 
ENDBRANCH  54  78
BRANCH  66  89
ATOM     89  C   UNL A   1      47.155  27.453  25.743  1.00  0.00     0.064 A 
ATOM     90  C   UNL A   1      48.239  26.827  26.379  1.00  0.00     0.173 A 
ATOM     91  C   UNL A   1      47.248  27.680  24.362  1.00  0.00     0.173 A 
ATOM     92  F   UNL A   1      48.209  26.598  27.700  1.00  0.00    -0.203 F 
ATOM     93  C   UNL A   1      49.375  26.458  25.664  1.00  0.00     0.198 A 
ATOM     94  C   UNL A   1      48.370  27.274  23.643  1.00  0.00     0.198 A 
ATOM     95  F   UNL A   1      46.237  28.266  23.705  1.00  0.00    -0.203 F 
ATOM     96  F   UNL A   1      50.412  25.896  26.300  1.00  0.00    -0.200 F 
ATOM     97  C   UNL A   1      49.436  26.672  24.296  1.00  0.00     0.200 A 
ATOM     98  F   UNL A   1      48.415  27.457  22.316  1.00  0.00    -0.200 F 
ATOM     99  F   UNL A   1      50.520  26.296  23.604  1.00  0.00    -0.200 F 
ENDBRANCH  66  89
ENDBRANCH  40  41
ENDBRANCH  33  35
ENDBRANCH  32  33
ENDBRANCH  31  32
ENDBRANCH  30  31
ENDBRANCH  29  30
ENDBRANCH  28  29
ENDBRANCH  27  28
ENDBRANCH  26  27
ENDBRANCH   1  26
TORSDOF 24
ENDMDL
MODEL 2
REMARK VINA RESULT:     -10.0      1.993      3.348
REMARK SMILES [NH3+][C@@H](Cc1ccc(F)cc1C(F)(F)F)C(=O)OCCOCCOCCOCCOC(=O)c1ccc(-c2c3nc(c(-c4c(F)c(F)c(F)c(F)c4F)c4ccc([nH]4)c(-c4c(F)c(F)c(F)c(F)c4F)c4nc(c(-c5c(F)c(F)c(F)c(F)c5F)c5ccc2[nH]5)C=C4)C=C3)cc1
REMARK SMILES IDX 22 1 21 2 20 3 19 4 18 5 17 6 15 7 16 8 2 9 1 10 3 14 4 15
REMARK SMILES IDX 5 16 10 17 6 18 9 19 7 20 8 21 11 22 12 23 13 24 14 25 23 26
REMARK SMILES IDX 24 27 25 28 26 29 27 30 28 31 29 32 30 33 31 34 32 35 33 36
REMARK SMILES IDX 94 37 34 38 93 39 35 40 36 41 37 42 87 43 38 44 92 45 86 46
REMARK SMILES IDX 88 47 39 48 91 49 85 50 84 51 40 53 72 54 52 55 71 56 53 57
REMARK SMILES IDX 56 58 70 59 89 60 54 61 55 62 69 64 90 65 57 66 41 67 42 68
REMARK SMILES IDX 50 69 43 70 44 71 48 72 51 73 45 74 46 75 49 76 47 77 73 78
REMARK SMILES IDX 74 79 82 80 75 81 76 82 80 83 83 84 77 85 78 86 81 87 79 88
REMARK SMILES IDX 58 89 59 90 67 91 60 92 61 93 65 94 68 95 62 96 63 97 66 98
REMARK SMILES IDX 64 99
REMARK H PARENT 1 11 1 12 1 13 88 52 56 63
REMARK Flexibility Score: inf
ROOT
ATOM      1  C   UNL A   1      33.681  35.485  29.709  1.00  0.00     0.188 C 
ENDROOT
BRANCH   1   2
ATOM      2  C   UNL A   1      33.300  34.457  28.628  1.00  0.00     0.188 C 
BRANCH   2   3
ATOM      3  O   UNL A   1      33.993  33.215  28.528  1.00  0.00    -0.376 OA
BRANCH   3   4
ATOM      4  C   UNL A   1      33.496  32.155  27.725  1.00  0.00     0.202 C 
BRANCH   4   5
ATOM      5  C   UNL A   1      33.904  30.690  27.944  1.00  0.00     0.261 C 
BRANCH   5   6
ATOM      6  O   UNL A   1      34.602  30.070  26.862  1.00  0.00    -0.459 OA
BRANCH   6   7
ATOM      7  C   UNL A   1      33.944  29.075  26.206  1.00  0.00     0.365 C 
ATOM      8  O   UNL A   1      34.135  27.876  26.377  1.00  0.00    -0.245 OA
BRANCH   7   9
ATOM      9  C   UNL A   1      32.973  29.629  25.148  1.00  0.00     0.296 C 
BRANCH   9  10
ATOM     10  N   UNL A   1      33.484  29.489  23.773  1.00  0.00    -0.346 N 
ATOM     11  H   UNL A   1      34.220  28.783  23.755  1.00  0.00     0.345 HD
ATOM     12  H   UNL A   1      33.863  30.383  23.459  1.00  0.00     0.345 HD
ATOM     13  H   UNL A   1      32.725  29.206  23.155  1.00  0.00     0.345 HD
ENDBRANCH   9  10
BRANCH   9  14
ATOM     14  C   UNL A   1      31.583  28.998  25.299  1.00  0.00     0.113 C 
BRANCH  14  15
ATOM     15  C   UNL A   1      30.574  29.382  24.225  1.00  0.00    -0.029 A 
ATOM     16  C   UNL A   1      30.024  30.681  24.319  1.00  0.00     0.007 A 
ATOM     17  C   UNL A   1      30.132  28.525  23.185  1.00  0.00     0.062 A 
ATOM     18  C   UNL A   1      29.064  31.130  23.417  1.00  0.00     0.039 A 
ATOM     19  C   UNL A   1      29.159  29.007  22.282  1.00  0.00     0.052 A 
ATOM     20  C   UNL A   1      28.641  30.289  22.404  1.00  0.00     0.123 A 
ATOM     21  F   UNL A   1      27.715  30.712  21.534  1.00  0.00    -0.207 F 
BRANCH  17  22
ATOM     22  C   UNL A   1      30.573  27.091  22.964  1.00  0.00     0.416 C 
ATOM     23  F   UNL A   1      30.807  26.838  21.643  1.00  0.00    -0.166 F 
ATOM     24  F   UNL A   1      31.737  26.796  23.606  1.00  0.00    -0.166 F 
ATOM     25  F   UNL A   1      29.687  26.138  23.360  1.00  0.00    -0.166 F 
ENDBRANCH  17  22
ENDBRANCH  14  15
ENDBRANCH   9  14
ENDBRANCH   7   9
ENDBRANCH   6   7
ENDBRANCH   5   6
ENDBRANCH   4   5
ENDBRANCH   3   4
ENDBRANCH   2   3
ENDBRANCH   1   2
BRANCH   1  26
ATOM     26  O   UNL A   1      32.571  36.121  30.315  1.00  0.00    -0.377 OA
BRANCH  26  27
ATOM     27  C   UNL A   1      32.662  36.262  31.729  1.00  0.00     0.188 C 
BRANCH  27  28
ATOM     28  C   UNL A   1      33.951  36.892  32.311  1.00  0.00     0.188 C 
BRANCH  28  29
ATOM     29  O   UNL A   1      34.191  36.619  33.685  1.00  0.00    -0.376 OA
BRANCH  29  30
ATOM     30  C   UNL A   1      34.754  35.370  34.064  1.00  0.00     0.202 C 
BRANCH  30  31
ATOM     31  C   UNL A   1      35.798  34.720  33.135  1.00  0.00     0.261 C 
BRANCH  31  32
ATOM     32  O   UNL A   1      36.027  33.316  33.325  1.00  0.00    -0.460 OA
BRANCH  32  33
ATOM     33  C   UNL A   1      35.437  32.473  32.456  1.00  0.00     0.338 C 
ATOM     34  O   UNL A   1      34.255  32.441  32.149  1.00  0.00    -0.246 OA
BRANCH  33  35
ATOM     35  C   UNL A   1      36.494  31.716  31.755  1.00  0.00     0.060 A 
ATOM     36  C   UNL A   1      37.498  31.112  32.522  1.00  0.00     0.016 A 
ATOM     37  C   UNL A   1      36.510  31.609  30.361  1.00  0.00     0.016 A 
ATOM     38  C   UNL A   1      38.545  30.439  31.898  1.00  0.00     0.010 A 
ATOM     39  C   UNL A   1      37.578  30.955  29.734  1.00  0.00     0.010 A 
ATOM     40  C   UNL A   1      38.618  30.402  30.499  1.00  0.00    -0.014 A 
BRANCH  40  41
ATOM     41  C   UNL A   1      39.879  29.947  29.863  1.00  0.00     0.031 A 
ATOM     42  C   UNL A   1      41.043  30.901  29.812  1.00  0.00     0.074 A 
ATOM     43  C   UNL A   1      40.017  28.685  29.420  1.00  0.00     0.049 A 
ATOM     44  N   UNL A   1      42.246  30.717  29.330  1.00  0.00    -0.248 NA
ATOM     45  C   UNL A   1      40.826  32.238  30.390  1.00  0.00     0.031 C 
ATOM     46  C   UNL A   1      38.981  27.657  29.468  1.00  0.00     0.029 A 
ATOM     47  N   UNL A   1      41.095  28.053  28.850  1.00  0.00    -0.354 N 
ATOM     48  C   UNL A   1      42.926  31.908  29.549  1.00  0.00     0.074 A 
ATOM     49  C   UNL A   1      41.996  32.822  30.176  1.00  0.00     0.031 C 
ATOM     50  C   UNL A   1      39.475  26.518  28.951  1.00  0.00     0.029 A 
ATOM     51  C   UNL A   1      40.849  26.746  28.506  1.00  0.00     0.049 A 
ATOM     52  H   UNL A   1      41.962  28.495  28.701  1.00  0.00     0.167 HD
ATOM     53  C   UNL A   1      44.215  32.206  29.268  1.00  0.00     0.037 A 
ATOM     54  C   UNL A   1      41.639  25.845  27.889  1.00  0.00     0.037 A 
ATOM     55  C   UNL A   1      45.142  31.292  28.654  1.00  0.00     0.049 A 
ATOM     56  C   UNL A   1      43.046  26.235  27.507  1.00  0.00     0.074 A 
ATOM     57  C   UNL A   1      46.473  31.501  28.338  1.00  0.00     0.029 A 
ATOM     58  N   UNL A   1      44.836  29.998  28.262  1.00  0.00    -0.354 N 
ATOM     59  N   UNL A   1      43.685  27.358  27.732  1.00  0.00    -0.248 NA
ATOM     60  C   UNL A   1      43.841  25.231  26.788  1.00  0.00     0.031 C 
ATOM     61  C   UNL A   1      46.957  30.357  27.702  1.00  0.00     0.029 A 
ATOM     62  C   UNL A   1      45.946  29.409  27.678  1.00  0.00     0.049 A 
ATOM     63  H   UNL A   1      43.962  29.563  28.380  1.00  0.00     0.167 HD
ATOM     64  C   UNL A   1      44.958  27.187  27.204  1.00  0.00     0.074 A 
ATOM     65  C   UNL A   1      45.012  25.841  26.673  1.00  0.00     0.031 C 
ATOM     66  C   UNL A   1      45.989  28.067  27.156  1.00  0.00     0.037 A 
BRANCH  53  67
ATOM     67  C   UNL A   1      44.720  33.575  29.611  1.00  0.00     0.064 A 
ATOM     68  C   UNL A   1      44.722  34.592  28.643  1.00  0.00     0.173 A 
ATOM     69  C   UNL A   1      45.309  33.849  30.853  1.00  0.00     0.173 A 
ATOM     70  F   UNL A   1      44.172  34.379  27.438  1.00  0.00    -0.203 F 
ATOM     71  C   UNL A   1      45.326  35.820  28.895  1.00  0.00     0.198 A 
ATOM     72  C   UNL A   1      45.889  35.089  31.112  1.00  0.00     0.198 A 
ATOM     73  F   UNL A   1      45.318  32.916  31.817  1.00  0.00    -0.203 F 
ATOM     74  F   UNL A   1      45.361  36.757  27.938  1.00  0.00    -0.200 F 
ATOM     75  C   UNL A   1      45.911  36.067  30.128  1.00  0.00     0.200 A 
ATOM     76  F   UNL A   1      46.436  35.333  32.311  1.00  0.00    -0.200 F 
ATOM     77  F   UNL A   1      46.501  37.246  30.367  1.00  0.00    -0.200 F 
ENDBRANCH  53  67
BRANCH  54  78
ATOM     78  C   UNL A   1      41.120  24.484  27.581  1.00  0.00     0.064 A 
ATOM     79  C   UNL A   1      41.600  23.351  28.255  1.00  0.00     0.173 A 
ATOM     80  C   UNL A   1      40.114  24.291  26.623  1.00  0.00     0.173 A 
ATOM     81  F   UNL A   1      42.555  23.479  29.188  1.00  0.00    -0.203 F 
ATOM     82  C   UNL A   1      41.107  22.080  27.973  1.00  0.00     0.198 A 
ATOM     83  C   UNL A   1      39.598  23.022  26.366  1.00  0.00     0.198 A 
ATOM     84  F   UNL A   1      39.600  25.344  25.970  1.00  0.00    -0.203 F 
ATOM     85  F   UNL A   1      41.605  21.012  28.613  1.00  0.00    -0.200 F 
ATOM     86  C   UNL A   1      40.100  21.916  27.034  1.00  0.00     0.200 A 
ATOM     87  F   UNL A   1      38.599  22.875  25.484  1.00  0.00    -0.200 F 
ATOM     88  F   UNL A   1      39.607  20.697  26.783  1.00  0.00    -0.200 F 
ENDBRANCH  54  78
BRANCH  66  89
ATOM     89  C   UNL A   1      47.272  27.607  26.523  1.00  0.00     0.064 A 
ATOM     90  C   UNL A   1      47.463  27.716  25.136  1.00  0.00     0.173 A 
ATOM     91  C   UNL A   1      48.288  27.003  27.278  1.00  0.00     0.173 A 
ATOM     92  F   UNL A   1      46.517  28.272  24.364  1.00  0.00    -0.203 F 
ATOM     93  C   UNL A   1      48.617  27.228  24.529  1.00  0.00     0.198 A 
ATOM     94  C   UNL A   1      49.458  26.550  26.672  1.00  0.00     0.198 A 
ATOM     95  F   UNL A   1      48.160  26.882  28.607  1.00  0.00    -0.203 F 
ATOM     96  F   UNL A   1      48.758  27.309  23.199  1.00  0.00    -0.200 F 
ATOM     97  C   UNL A   1      49.617  26.654  25.298  1.00  0.00     0.200 A 
ATOM     98  F   UNL A   1      50.436  26.022  27.421  1.00  0.00    -0.200 F 
ATOM     99  F   UNL A   1      50.738  26.204  24.717  1.00  0.00    -0.200 F 
ENDBRANCH  66  89
ENDBRANCH  40  41
ENDBRANCH  33  35
ENDBRANCH  32  33
ENDBRANCH  31  32
ENDBRANCH  30  31
ENDBRANCH  29  30
ENDBRANCH  28  29
ENDBRANCH  27  28
ENDBRANCH  26  27
ENDBRANCH   1  26
TORSDOF 24
ENDMDL
MODEL 3
REMARK VINA RESULT:      -9.9      1.694      2.452
REMARK SMILES [NH3+][C@@H](Cc1ccc(F)cc1C(F)(F)F)C(=O)OCCOCCOCCOCCOC(=O)c1ccc(-c2c3nc(c(-c4c(F)c(F)c(F)c(F)c4F)c4ccc([nH]4)c(-c4c(F)c(F)c(F)c(F)c4F)c4nc(c(-c5c(F)c(F)c(F)c(F)c5F)c5ccc2[nH]5)C=C4)C=C3)cc1
REMARK SMILES IDX 22 1 21 2 20 3 19 4 18 5 17 6 15 7 16 8 2 9 1 10 3 14 4 15
REMARK SMILES IDX 5 16 10 17 6 18 9 19 7 20 8 21 11 22 12 23 13 24 14 25 23 26
REMARK SMILES IDX 24 27 25 28 26 29 27 30 28 31 29 32 30 33 31 34 32 35 33 36
REMARK SMILES IDX 94 37 34 38 93 39 35 40 36 41 37 42 87 43 38 44 92 45 86 46
REMARK SMILES IDX 88 47 39 48 91 49 85 50 84 51 40 53 72 54 52 55 71 56 53 57
REMARK SMILES IDX 56 58 70 59 89 60 54 61 55 62 69 64 90 65 57 66 41 67 42 68
REMARK SMILES IDX 50 69 43 70 44 71 48 72 51 73 45 74 46 75 49 76 47 77 73 78
REMARK SMILES IDX 74 79 82 80 75 81 76 82 80 83 83 84 77 85 78 86 81 87 79 88
REMARK SMILES IDX 58 89 59 90 67 91 60 92 61 93 65 94 68 95 62 96 63 97 66 98
REMARK SMILES IDX 64 99
REMARK H PARENT 1 11 1 12 1 13 88 52 56 63
REMARK Flexibility Score: inf
ROOT
ATOM      1  C   UNL A   1      33.610  35.788  29.643  1.00  0.00     0.188 C 
ENDROOT
BRANCH   1   2
ATOM      2  C   UNL A   1      33.672  34.568  28.708  1.00  0.00     0.188 C 
BRANCH   2   3
ATOM      3  O   UNL A   1      34.915  34.128  28.166  1.00  0.00    -0.376 OA
BRANCH   3   4
ATOM      4  C   UNL A   1      35.068  32.820  27.636  1.00  0.00     0.202 C 
BRANCH   4   5
ATOM      5  C   UNL A   1      34.128  31.662  28.006  1.00  0.00     0.261 C 
BRANCH   5   6
ATOM      6  O   UNL A   1      34.104  30.564  27.092  1.00  0.00    -0.459 OA
BRANCH   6   7
ATOM      7  C   UNL A   1      32.878  30.177  26.642  1.00  0.00     0.365 C 
ATOM      8  O   UNL A   1      31.825  30.344  27.245  1.00  0.00    -0.245 OA
BRANCH   7   9
ATOM      9  C   UNL A   1      32.971  29.420  25.304  1.00  0.00     0.296 C 
BRANCH   9  10
ATOM     10  N   UNL A   1      34.335  28.951  25.006  1.00  0.00    -0.346 N 
ATOM     11  H   UNL A   1      34.983  29.737  25.054  1.00  0.00     0.345 HD
ATOM     12  H   UNL A   1      34.358  28.547  24.069  1.00  0.00     0.345 HD
ATOM     13  H   UNL A   1      34.608  28.243  25.687  1.00  0.00     0.345 HD
ENDBRANCH   9  10
BRANCH   9  14
ATOM     14  C   UNL A   1      31.956  28.270  25.258  1.00  0.00     0.113 C 
BRANCH  14  15
ATOM     15  C   UNL A   1      30.758  28.495  24.345  1.00  0.00    -0.029 A 
ATOM     16  C   UNL A   1      30.494  29.835  23.980  1.00  0.00     0.007 A 
ATOM     17  C   UNL A   1      29.889  27.474  23.883  1.00  0.00     0.062 A 
ATOM     18  C   UNL A   1      29.402  30.167  23.182  1.00  0.00     0.039 A 
ATOM     19  C   UNL A   1      28.792  27.839  23.072  1.00  0.00     0.052 A 
ATOM     20  C   UNL A   1      28.562  29.165  22.732  1.00  0.00     0.123 A 
ATOM     21  F   UNL A   1      27.509  29.477  21.967  1.00  0.00    -0.207 F 
BRANCH  17  22
ATOM     22  C   UNL A   1      29.992  25.998  24.215  1.00  0.00     0.416 C 
ATOM     23  F   UNL A   1      31.261  25.531  24.030  1.00  0.00    -0.166 F 
ATOM     24  F   UNL A   1      29.688  25.731  25.516  1.00  0.00    -0.166 F 
ATOM     25  F   UNL A   1      29.197  25.176  23.480  1.00  0.00    -0.166 F 
ENDBRANCH  17  22
ENDBRANCH  14  15
ENDBRANCH   9  14
ENDBRANCH   7   9
ENDBRANCH   6   7
ENDBRANCH   5   6
ENDBRANCH   4   5
ENDBRANCH   3   4
ENDBRANCH   2   3
ENDBRANCH   1   2
BRANCH   1  26
ATOM     26  O   UNL A   1      32.406  35.888  30.381  1.00  0.00    -0.377 OA
BRANCH  26  27
ATOM     27  C   UNL A   1      32.577  36.077  31.782  1.00  0.00     0.188 C 
BRANCH  27  28
ATOM     28  C   UNL A   1      33.805  36.893  32.256  1.00  0.00     0.188 C 
BRANCH  28  29
ATOM     29  O   UNL A   1      34.243  36.612  33.578  1.00  0.00    -0.376 OA
BRANCH  29  30
ATOM     30  C   UNL A   1      34.841  35.355  33.868  1.00  0.00     0.202 C 
BRANCH  30  31
ATOM     31  C   UNL A   1      35.877  34.787  32.879  1.00  0.00     0.261 C 
BRANCH  31  32
ATOM     32  O   UNL A   1      36.358  33.464  33.157  1.00  0.00    -0.460 OA
BRANCH  32  33
ATOM     33  C   UNL A   1      35.740  32.441  32.537  1.00  0.00     0.338 C 
ATOM     34  O   UNL A   1      34.536  32.268  32.423  1.00  0.00    -0.246 OA
BRANCH  33  35
ATOM     35  C   UNL A   1      36.760  31.654  31.813  1.00  0.00     0.060 A 
ATOM     36  C   UNL A   1      37.775  31.040  32.557  1.00  0.00     0.016 A 
ATOM     37  C   UNL A   1      36.730  31.529  30.421  1.00  0.00     0.016 A 
ATOM     38  C   UNL A   1      38.788  30.337  31.910  1.00  0.00     0.010 A 
ATOM     39  C   UNL A   1      37.764  30.846  29.770  1.00  0.00     0.010 A 
ATOM     40  C   UNL A   1      38.817  30.281  30.510  1.00  0.00    -0.014 A 
BRANCH  40  41
ATOM     41  C   UNL A   1      40.049  29.793  29.841  1.00  0.00     0.031 A 
ATOM     42  C   UNL A   1      41.232  30.718  29.751  1.00  0.00     0.074 A 
ATOM     43  C   UNL A   1      40.144  28.525  29.403  1.00  0.00     0.049 A 
ATOM     44  N   UNL A   1      42.416  30.503  29.236  1.00  0.00    -0.248 NA
ATOM     45  C   UNL A   1      41.064  32.063  30.325  1.00  0.00     0.031 C 
ATOM     46  C   UNL A   1      39.086  27.522  29.487  1.00  0.00     0.029 A 
ATOM     47  N   UNL A   1      41.190  27.864  28.806  1.00  0.00    -0.354 N 
ATOM     48  C   UNL A   1      43.130  31.679  29.428  1.00  0.00     0.074 A 
ATOM     49  C   UNL A   1      42.241  32.618  30.074  1.00  0.00     0.031 C 
ATOM     50  C   UNL A   1      39.537  26.369  28.964  1.00  0.00     0.029 A 
ATOM     51  C   UNL A   1      40.903  26.562  28.479  1.00  0.00     0.049 A 
ATOM     52  H   UNL A   1      42.062  28.285  28.630  1.00  0.00     0.167 HD
ATOM     53  C   UNL A   1      44.417  31.944  29.108  1.00  0.00     0.037 A 
ATOM     54  C   UNL A   1      41.654  25.638  27.845  1.00  0.00     0.037 A 
ATOM     55  C   UNL A   1      45.304  31.006  28.473  1.00  0.00     0.049 A 
ATOM     56  C   UNL A   1      43.058  25.993  27.421  1.00  0.00     0.074 A 
ATOM     57  C   UNL A   1      46.630  31.181  28.118  1.00  0.00     0.029 A 
ATOM     58  N   UNL A   1      44.957  29.717  28.099  1.00  0.00    -0.354 N 
ATOM     59  N   UNL A   1      43.729  27.101  27.620  1.00  0.00    -0.248 NA
ATOM     60  C   UNL A   1      43.809  24.966  26.686  1.00  0.00     0.031 C 
ATOM     61  C   UNL A   1      47.069  30.022  27.477  1.00  0.00     0.029 A 
ATOM     62  C   UNL A   1      46.036  29.098  27.488  1.00  0.00     0.049 A 
ATOM     63  H   UNL A   1      44.076  29.303  28.245  1.00  0.00     0.167 HD
ATOM     64  C   UNL A   1      44.982  26.897  27.058  1.00  0.00     0.074 A 
ATOM     65  C   UNL A   1      44.989  25.547  26.534  1.00  0.00     0.031 C 
ATOM     66  C   UNL A   1      46.032  27.752  26.974  1.00  0.00     0.037 A 
BRANCH  53  67
ATOM     67  C   UNL A   1      44.964  33.304  29.427  1.00  0.00     0.064 A 
ATOM     68  C   UNL A   1      45.552  33.555  30.677  1.00  0.00     0.173 A 
ATOM     69  C   UNL A   1      44.803  34.384  28.548  1.00  0.00     0.173 A 
ATOM     70  F   UNL A   1      45.727  32.554  31.554  1.00  0.00    -0.203 F 
ATOM     71  C   UNL A   1      45.924  34.843  31.048  1.00  0.00     0.198 A 
ATOM     72  C   UNL A   1      45.202  35.668  28.912  1.00  0.00     0.198 A 
ATOM     73  F   UNL A   1      44.261  34.193  27.335  1.00  0.00    -0.203 F 
ATOM     74  F   UNL A   1      46.435  35.066  32.266  1.00  0.00    -0.200 F 
ATOM     75  C   UNL A   1      45.747  35.899  30.167  1.00  0.00     0.200 A 
ATOM     76  F   UNL A   1      45.050  36.684  28.051  1.00  0.00    -0.200 F 
ATOM     77  F   UNL A   1      46.098  37.140  30.528  1.00  0.00    -0.200 F 
ENDBRANCH  53  67
BRANCH  54  78
ATOM     78  C   UNL A   1      41.095  24.288  27.561  1.00  0.00     0.064 A 
ATOM     79  C   UNL A   1      40.059  24.110  26.632  1.00  0.00     0.173 A 
ATOM     80  C   UNL A   1      41.603  23.145  28.193  1.00  0.00     0.173 A 
ATOM     81  F   UNL A   1      39.542  25.168  25.991  1.00  0.00    -0.203 F 
ATOM     82  C   UNL A   1      39.542  22.845  26.360  1.00  0.00     0.198 A 
ATOM     83  C   UNL A   1      41.109  21.876  27.895  1.00  0.00     0.198 A 
ATOM     84  F   UNL A   1      42.613  23.256  29.068  1.00  0.00    -0.203 F 
ATOM     85  F   UNL A   1      38.533  22.709  25.489  1.00  0.00    -0.200 F 
ATOM     86  C   UNL A   1      40.073  21.727  26.985  1.00  0.00     0.200 A 
ATOM     87  F   UNL A   1      41.650  20.795  28.475  1.00  0.00    -0.200 F 
ATOM     88  F   UNL A   1      39.595  20.509  26.703  1.00  0.00    -0.200 F 
ENDBRANCH  54  78
BRANCH  66  89
ATOM     89  C   UNL A   1      47.285  27.258  26.307  1.00  0.00     0.064 A 
ATOM     90  C   UNL A   1      48.244  26.535  27.035  1.00  0.00     0.173 A 
ATOM     91  C   UNL A   1      47.567  27.552  24.965  1.00  0.00     0.173 A 
ATOM     92  F   UNL A   1      48.032  26.238  28.326  1.00  0.00    -0.203 F 
ATOM     93  C   UNL A   1      49.440  26.135  26.446  1.00  0.00     0.198 A 
ATOM     94  C   UNL A   1      48.749  27.118  24.369  1.00  0.00     0.198 A 
ATOM     95  F   UNL A   1      46.682  28.232  24.223  1.00  0.00    -0.203 F 
ATOM     96  F   UNL A   1      50.356  25.479  27.173  1.00  0.00    -0.200 F 
ATOM     97  C   UNL A   1      49.688  26.418  25.112  1.00  0.00     0.200 A 
ATOM     98  F   UNL A   1      48.973  27.367  23.072  1.00  0.00    -0.200 F 
ATOM     99  F   UNL A   1      50.830  26.014  24.540  1.00  0.00    -0.200 F 
ENDBRANCH  66  89
ENDBRANCH  40  41
ENDBRANCH  33  35
ENDBRANCH  32  33
ENDBRANCH  31  32
ENDBRANCH  30  31
ENDBRANCH  29  30
ENDBRANCH  28  29
ENDBRANCH  27  28
ENDBRANCH  26  27
ENDBRANCH   1  26
TORSDOF 24
ENDMDL
