MODEL 1
REMARK VINA RESULT:     -11.0      0.000      0.000
REMARK SMILES O=C(OCCOCCOCCOCCOC(=O)c1noc(-c2ccccc2C(F)(F)F)n1)c1ccc(-c2c3nc(c(-c4c(F)c(F)c(F)c(F)c4F)c4ccc([nH]4)c(-c4c(F)c(F)c(F)c(F)c4F)c4nc(c(-c5c(F)c(F)c(F)c(F)c5F)c5ccc2[nH]5)C=C4)C=C3)cc1
REMARK SMILES IDX 9 1 8 2 7 3 6 4 5 5 4 6 3 7 2 8 1 9 33 10 34 11 95 12 35 13
REMARK SMILES IDX 94 14 36 15 37 16 38 17 88 18 39 19 93 20 87 21 89 22 40 23
REMARK SMILES IDX 92 24 86 25 85 26 41 28 73 29 53 30 72 31 54 32 57 33 71 34
REMARK SMILES IDX 90 35 55 36 56 37 70 39 91 40 58 41 42 42 43 43 51 44 44 45
REMARK SMILES IDX 45 46 49 47 52 48 46 49 47 50 50 51 48 52 74 53 75 54 83 55
REMARK SMILES IDX 76 56 77 57 81 58 84 59 78 60 79 61 82 62 80 63 59 64 60 65
REMARK SMILES IDX 68 66 61 67 62 68 66 69 69 70 63 71 64 72 67 73 65 74 10 75
REMARK SMILES IDX 11 76 12 77 13 78 14 79 15 80 16 81 17 82 18 83 19 84 32 85
REMARK SMILES IDX 20 86 21 87 22 88 23 89 27 90 24 91 26 92 25 93 28 94 29 95
REMARK SMILES IDX 30 96 31 97
REMARK H PARENT 89 27 57 38
REMARK Flexibility Score: inf
ROOT
ATOM      1  O   UNL A   1      32.934  23.929  26.485  1.00  0.00    -0.377 OA
ENDROOT
BRANCH   1   2
ATOM      2  C   UNL A   1      34.286  23.462  26.460  1.00  0.00     0.188 C 
BRANCH   2   3
ATOM      3  C   UNL A   1      34.487  22.039  26.987  1.00  0.00     0.188 C 
BRANCH   3   4
ATOM      4  O   UNL A   1      35.552  21.389  26.281  1.00  0.00    -0.376 OA
BRANCH   4   5
ATOM      5  C   UNL A   1      35.905  22.004  25.042  1.00  0.00     0.202 C 
BRANCH   5   6
ATOM      6  C   UNL A   1      37.329  21.685  24.585  1.00  0.00     0.261 C 
BRANCH   6   7
ATOM      7  O   UNL A   1      38.038  20.910  25.564  1.00  0.00    -0.460 OA
BRANCH   7   8
ATOM      8  C   UNL A   1      39.257  21.169  26.102  1.00  0.00     0.338 C 
ATOM      9  O   UNL A   1      40.116  20.288  26.062  1.00  0.00    -0.246 OA
BRANCH   8  10
ATOM     10  C   UNL A   1      39.649  22.495  26.674  1.00  0.00     0.060 A 
ATOM     11  C   UNL A   1      39.027  23.713  26.396  1.00  0.00     0.016 A 
ATOM     12  C   UNL A   1      40.706  22.495  27.603  1.00  0.00     0.016 A 
ATOM     13  C   UNL A   1      39.516  24.910  26.907  1.00  0.00     0.010 A 
ATOM     14  C   UNL A   1      41.173  23.688  28.163  1.00  0.00     0.010 A 
ATOM     15  C   UNL A   1      40.608  24.906  27.771  1.00  0.00    -0.014 A 
BRANCH  15  16
ATOM     16  C   UNL A   1      41.239  26.199  28.098  1.00  0.00     0.031 A 
ATOM     17  C   UNL A   1      42.625  26.455  27.584  1.00  0.00     0.074 A 
ATOM     18  C   UNL A   1      40.527  27.167  28.701  1.00  0.00     0.049 A 
ATOM     19  N   UNL A   1      43.392  27.501  27.740  1.00  0.00    -0.248 NA
ATOM     20  C   UNL A   1      43.222  25.388  26.761  1.00  0.00     0.031 C 
ATOM     21  C   UNL A   1      39.129  27.047  29.117  1.00  0.00     0.029 A 
ATOM     22  N   UNL A   1      40.867  28.451  29.031  1.00  0.00    -0.354 N 
ATOM     23  C   UNL A   1      44.568  27.206  27.062  1.00  0.00     0.074 A 
ATOM     24  C   UNL A   1      44.418  25.886  26.494  1.00  0.00     0.031 C 
ATOM     25  C   UNL A   1      38.721  28.225  29.618  1.00  0.00     0.029 A 
ATOM     26  C   UNL A   1      39.844  29.157  29.615  1.00  0.00     0.049 A 
ATOM     27  H   UNL A   1      41.761  28.832  28.866  1.00  0.00     0.167 HD
ATOM     28  C   UNL A   1      45.675  27.972  26.934  1.00  0.00     0.037 A 
ATOM     29  C   UNL A   1      39.836  30.409  30.109  1.00  0.00     0.037 A 
ATOM     30  C   UNL A   1      45.796  29.285  27.505  1.00  0.00     0.049 A 
ATOM     31  C   UNL A   1      41.110  31.209  30.032  1.00  0.00     0.074 A 
ATOM     32  C   UNL A   1      46.889  30.130  27.519  1.00  0.00     0.029 A 
ATOM     33  N   UNL A   1      44.766  29.942  28.166  1.00  0.00    -0.354 N 
ATOM     34  N   UNL A   1      42.252  30.895  29.467  1.00  0.00    -0.248 NA
ATOM     35  C   UNL A   1      41.103  32.526  30.680  1.00  0.00     0.031 C 
ATOM     36  C   UNL A   1      46.530  31.288  28.220  1.00  0.00     0.029 A 
ATOM     37  C   UNL A   1      45.200  31.181  28.604  1.00  0.00     0.049 A 
ATOM     38  H   UNL A   1      43.861  29.581  28.303  1.00  0.00     0.167 HD
ATOM     39  C   UNL A   1      43.095  31.976  29.679  1.00  0.00     0.074 A 
ATOM     40  C   UNL A   1      42.325  32.965  30.406  1.00  0.00     0.031 C 
ATOM     41  C   UNL A   1      44.393  32.138  29.317  1.00  0.00     0.037 A 
BRANCH  28  42
ATOM     42  C   UNL A   1      46.841  27.363  26.215  1.00  0.00     0.064 A 
ATOM     43  C   UNL A   1      47.777  26.551  26.872  1.00  0.00     0.173 A 
ATOM     44  C   UNL A   1      47.057  27.651  24.859  1.00  0.00     0.173 A 
ATOM     45  F   UNL A   1      47.633  26.274  28.177  1.00  0.00    -0.203 F 
ATOM     46  C   UNL A   1      48.905  26.077  26.206  1.00  0.00     0.198 A 
ATOM     47  C   UNL A   1      48.173  27.154  24.190  1.00  0.00     0.198 A 
ATOM     48  F   UNL A   1      46.197  28.430  24.187  1.00  0.00    -0.203 F 
ATOM     49  F   UNL A   1      49.821  25.357  26.870  1.00  0.00    -0.200 F 
ATOM     50  C   UNL A   1      49.102  26.377  24.866  1.00  0.00     0.200 A 
ATOM     51  F   UNL A   1      48.362  27.447  22.896  1.00  0.00    -0.200 F 
ATOM     52  F   UNL A   1      50.196  25.935  24.231  1.00  0.00    -0.200 F 
ENDBRANCH  28  42
BRANCH  29  53
ATOM     53  C   UNL A   1      38.609  30.960  30.745  1.00  0.00     0.064 A 
ATOM     54  C   UNL A   1      37.607  31.575  29.981  1.00  0.00     0.173 A 
ATOM     55  C   UNL A   1      38.415  30.893  32.133  1.00  0.00     0.173 A 
ATOM     56  F   UNL A   1      37.752  31.689  28.653  1.00  0.00    -0.203 F 
ATOM     57  C   UNL A   1      36.467  32.111  30.582  1.00  0.00     0.198 A 
ATOM     58  C   UNL A   1      37.263  31.401  32.730  1.00  0.00     0.198 A 
ATOM     59  F   UNL A   1      39.345  30.322  32.914  1.00  0.00    -0.203 F 
ATOM     60  F   UNL A   1      35.546  32.732  29.833  1.00  0.00    -0.200 F 
ATOM     61  C   UNL A   1      36.293  32.016  31.955  1.00  0.00     0.200 A 
ATOM     62  F   UNL A   1      37.095  31.296  34.055  1.00  0.00    -0.200 F 
ATOM     63  F   UNL A   1      35.197  32.526  32.531  1.00  0.00    -0.200 F 
ENDBRANCH  29  53
BRANCH  41  64
ATOM     64  C   UNL A   1      45.039  33.438  29.684  1.00  0.00     0.064 A 
ATOM     65  C   UNL A   1      45.738  33.591  30.889  1.00  0.00     0.173 A 
ATOM     66  C   UNL A   1      44.997  34.523  28.797  1.00  0.00     0.173 A 
ATOM     67  F   UNL A   1      45.791  32.583  31.772  1.00  0.00    -0.203 F 
ATOM     68  C   UNL A   1      46.358  34.796  31.203  1.00  0.00     0.198 A 
ATOM     69  C   UNL A   1      45.640  35.719  29.104  1.00  0.00     0.198 A 
ATOM     70  F   UNL A   1      44.344  34.419  27.630  1.00  0.00    -0.203 F 
ATOM     71  F   UNL A   1      46.989  34.936  32.377  1.00  0.00    -0.200 F 
ATOM     72  C   UNL A   1      46.314  35.856  30.308  1.00  0.00     0.200 A 
ATOM     73  F   UNL A   1      45.606  36.737  28.234  1.00  0.00    -0.200 F 
ATOM     74  F   UNL A   1      46.919  37.013  30.609  1.00  0.00    -0.200 F 
ENDBRANCH  41  64
ENDBRANCH  15  16
ENDBRANCH   8  10
ENDBRANCH   7   8
ENDBRANCH   6   7
ENDBRANCH   5   6
ENDBRANCH   4   5
ENDBRANCH   3   4
ENDBRANCH   2   3
ENDBRANCH   1   2
BRANCH   1  75
ATOM     75  C   UNL A   1      31.941  22.987  26.877  1.00  0.00     0.188 C 
BRANCH  75  76
ATOM     76  C   UNL A   1      31.044  22.374  25.782  1.00  0.00     0.188 C 
BRANCH  76  77
ATOM     77  O   UNL A   1      31.447  21.085  25.331  1.00  0.00    -0.376 OA
BRANCH  77  78
ATOM     78  C   UNL A   1      32.302  21.077  24.190  1.00  0.00     0.202 C 
BRANCH  78  79
ATOM     79  C   UNL A   1      32.145  22.287  23.252  1.00  0.00     0.261 C 
BRANCH  79  80
ATOM     80  O   UNL A   1      33.311  23.116  23.125  1.00  0.00    -0.457 OA
BRANCH  80  81
ATOM     81  C   UNL A   1      33.361  23.957  22.055  1.00  0.00     0.380 C 
ATOM     82  O   UNL A   1      33.289  23.579  20.889  1.00  0.00    -0.242 OA
BRANCH  81  83
ATOM     83  C   UNL A   1      33.320  25.360  22.475  1.00  0.00     0.281 A 
ATOM     84  N   UNL A   1      33.727  26.347  21.651  1.00  0.00    -0.049 NA
ATOM     85  N   UNL A   1      32.749  25.815  23.654  1.00  0.00    -0.181 NA
ATOM     86  O   UNL A   1      33.398  27.511  22.345  1.00  0.00    -0.333 OA
ATOM     87  C   UNL A   1      32.853  27.117  23.531  1.00  0.00     0.259 A 
BRANCH  87  88
ATOM     88  C   UNL A   1      32.766  28.155  24.542  1.00  0.00     0.052 A 
ATOM     89  C   UNL A   1      33.800  28.338  25.473  1.00  0.00     0.014 A 
ATOM     90  C   UNL A   1      31.617  28.972  24.603  1.00  0.00     0.068 A 
ATOM     91  C   UNL A   1      33.697  29.327  26.456  1.00  0.00     0.001 A 
ATOM     92  C   UNL A   1      31.535  29.965  25.596  1.00  0.00     0.014 A 
ATOM     93  C   UNL A   1      32.567  30.137  26.518  1.00  0.00     0.001 A 
BRANCH  90  94
ATOM     94  C   UNL A   1      30.490  28.821  23.606  1.00  0.00     0.417 C 
ATOM     95  F   UNL A   1      29.582  29.836  23.677  1.00  0.00    -0.166 F 
ATOM     96  F   UNL A   1      30.932  28.808  22.320  1.00  0.00    -0.166 F 
ATOM     97  F   UNL A   1      29.758  27.684  23.770  1.00  0.00    -0.166 F 
ENDBRANCH  90  94
ENDBRANCH  87  88
ENDBRANCH  81  83
ENDBRANCH  80  81
ENDBRANCH  79  80
ENDBRANCH  78  79
ENDBRANCH  77  78
ENDBRANCH  76  77
ENDBRANCH  75  76
ENDBRANCH   1  75
TORSDOF 22
ENDMDL
MODEL 2
REMARK VINA RESULT:     -10.7      5.449      9.308
REMARK SMILES O=C(OCCOCCOCCOCCOC(=O)c1noc(-c2ccccc2C(F)(F)F)n1)c1ccc(-c2c3nc(c(-c4c(F)c(F)c(F)c(F)c4F)c4ccc([nH]4)c(-c4c(F)c(F)c(F)c(F)c4F)c4nc(c(-c5c(F)c(F)c(F)c(F)c5F)c5ccc2[nH]5)C=C4)C=C3)cc1
REMARK SMILES IDX 9 1 8 2 7 3 6 4 5 5 4 6 3 7 2 8 1 9 33 10 34 11 95 12 35 13
REMARK SMILES IDX 94 14 36 15 37 16 38 17 88 18 39 19 93 20 87 21 89 22 40 23
REMARK SMILES IDX 92 24 86 25 85 26 41 28 73 29 53 30 72 31 54 32 57 33 71 34
REMARK SMILES IDX 90 35 55 36 56 37 70 39 91 40 58 41 42 42 43 43 51 44 44 45
REMARK SMILES IDX 45 46 49 47 52 48 46 49 47 50 50 51 48 52 74 53 75 54 83 55
REMARK SMILES IDX 76 56 77 57 81 58 84 59 78 60 79 61 82 62 80 63 59 64 60 65
REMARK SMILES IDX 68 66 61 67 62 68 66 69 69 70 63 71 64 72 67 73 65 74 10 75
REMARK SMILES IDX 11 76 12 77 13 78 14 79 15 80 16 81 17 82 18 83 19 84 32 85
REMARK SMILES IDX 20 86 21 87 22 88 23 89 27 90 24 91 26 92 25 93 28 94 29 95
REMARK SMILES IDX 30 96 31 97
REMARK H PARENT 89 27 57 38
REMARK Flexibility Score: inf
ROOT
ATOM      1  O   UNL A   1      34.863  31.815  28.534  1.00  0.00    -0.377 OA
ENDROOT
BRANCH   1   2
ATOM      2  C   UNL A   1      35.292  33.131  28.172  1.00  0.00     0.188 C 
BRANCH   2   3
ATOM      3  C   UNL A   1      34.193  34.196  28.191  1.00  0.00     0.188 C 
BRANCH   3   4
ATOM      4  O   UNL A   1      34.763  35.508  28.105  1.00  0.00    -0.376 OA
BRANCH   4   5
ATOM      5  C   UNL A   1      33.876  36.566  28.471  1.00  0.00     0.202 C 
BRANCH   5   6
ATOM      6  C   UNL A   1      32.619  36.085  29.196  1.00  0.00     0.261 C 
BRANCH   6   7
ATOM      7  O   UNL A   1      32.639  36.445  30.586  1.00  0.00    -0.460 OA
BRANCH   7   8
ATOM      8  C   UNL A   1      32.742  35.616  31.655  1.00  0.00     0.338 C 
ATOM      9  O   UNL A   1      31.787  35.530  32.426  1.00  0.00    -0.246 OA
BRANCH   8  10
ATOM     10  C   UNL A   1      33.923  34.734  31.912  1.00  0.00     0.060 A 
ATOM     11  C   UNL A   1      33.869  33.424  32.389  1.00  0.00     0.016 A 
ATOM     12  C   UNL A   1      35.189  35.266  31.601  1.00  0.00     0.016 A 
ATOM     13  C   UNL A   1      35.024  32.710  32.682  1.00  0.00     0.010 A 
ATOM     14  C   UNL A   1      36.357  34.537  31.843  1.00  0.00     0.010 A 
ATOM     15  C   UNL A   1      36.275  33.273  32.436  1.00  0.00    -0.014 A 
BRANCH  15  16
ATOM     16  C   UNL A   1      37.463  32.586  32.976  1.00  0.00     0.031 A 
ATOM     17  C   UNL A   1      38.156  31.585  32.100  1.00  0.00     0.074 A 
ATOM     18  C   UNL A   1      37.990  32.969  34.153  1.00  0.00     0.049 A 
ATOM     19  N   UNL A   1      39.207  30.849  32.345  1.00  0.00    -0.248 NA
ATOM     20  C   UNL A   1      37.595  31.402  30.750  1.00  0.00     0.031 C 
ATOM     21  C   UNL A   1      37.454  34.028  35.009  1.00  0.00     0.029 A 
ATOM     22  N   UNL A   1      39.112  32.540  34.810  1.00  0.00    -0.354 N 
ATOM     23  C   UNL A   1      39.413  30.099  31.195  1.00  0.00     0.074 A 
ATOM     24  C   UNL A   1      38.382  30.463  30.252  1.00  0.00     0.031 C 
ATOM     25  C   UNL A   1      38.269  34.189  36.065  1.00  0.00     0.029 A 
ATOM     26  C   UNL A   1      39.344  33.204  35.989  1.00  0.00     0.049 A 
ATOM     27  H   UNL A   1      39.696  31.824  34.470  1.00  0.00     0.167 HD
ATOM     28  C   UNL A   1      40.379  29.182  30.956  1.00  0.00     0.037 A 
ATOM     29  C   UNL A   1      40.309  33.013  36.908  1.00  0.00     0.037 A 
ATOM     30  C   UNL A   1      41.397  28.841  31.910  1.00  0.00     0.049 A 
ATOM     31  C   UNL A   1      41.320  31.924  36.658  1.00  0.00     0.074 A 
ATOM     32  C   UNL A   1      42.380  27.874  31.826  1.00  0.00     0.029 A 
ATOM     33  N   UNL A   1      41.556  29.475  33.136  1.00  0.00    -0.354 N 
ATOM     34  N   UNL A   1      41.462  31.153  35.605  1.00  0.00    -0.248 NA
ATOM     35  C   UNL A   1      42.289  31.663  37.728  1.00  0.00     0.031 C 
ATOM     36  C   UNL A   1      43.116  27.901  33.017  1.00  0.00     0.029 A 
ATOM     37  C   UNL A   1      42.616  28.913  33.825  1.00  0.00     0.049 A 
ATOM     38  H   UNL A   1      40.998  30.215  33.466  1.00  0.00     0.167 HD
ATOM     39  C   UNL A   1      42.540  30.325  35.879  1.00  0.00     0.074 A 
ATOM     40  C   UNL A   1      43.031  30.704  37.190  1.00  0.00     0.031 C 
ATOM     41  C   UNL A   1      43.075  29.332  35.125  1.00  0.00     0.037 A 
BRANCH  28  42
ATOM     42  C   UNL A   1      40.311  28.453  29.648  1.00  0.00     0.064 A 
ATOM     43  C   UNL A   1      39.590  27.259  29.499  1.00  0.00     0.173 A 
ATOM     44  C   UNL A   1      41.034  28.926  28.542  1.00  0.00     0.173 A 
ATOM     45  F   UNL A   1      38.909  26.747  30.536  1.00  0.00    -0.203 F 
ATOM     46  C   UNL A   1      39.622  26.548  28.301  1.00  0.00     0.198 A 
ATOM     47  C   UNL A   1      41.043  28.226  27.339  1.00  0.00     0.198 A 
ATOM     48  F   UNL A   1      41.748  30.057  28.635  1.00  0.00    -0.203 F 
ATOM     49  F   UNL A   1      38.979  25.375  28.201  1.00  0.00    -0.200 F 
ATOM     50  C   UNL A   1      40.347  27.032  27.222  1.00  0.00     0.200 A 
ATOM     51  F   UNL A   1      41.746  28.694  26.298  1.00  0.00    -0.200 F 
ATOM     52  F   UNL A   1      40.391  26.338  26.076  1.00  0.00    -0.200 F 
ENDBRANCH  28  42
BRANCH  29  53
ATOM     53  C   UNL A   1      40.341  33.832  38.149  1.00  0.00     0.064 A 
ATOM     54  C   UNL A   1      41.146  34.977  38.245  1.00  0.00     0.173 A 
ATOM     55  C   UNL A   1      39.575  33.484  39.272  1.00  0.00     0.173 A 
ATOM     56  F   UNL A   1      41.917  35.341  37.211  1.00  0.00    -0.203 F 
ATOM     57  C   UNL A   1      41.191  35.732  39.417  1.00  0.00     0.198 A 
ATOM     58  C   UNL A   1      39.597  34.255  40.432  1.00  0.00     0.198 A 
ATOM     59  F   UNL A   1      38.793  32.395  39.240  1.00  0.00    -0.203 F 
ATOM     60  F   UNL A   1      42.002  36.796  39.496  1.00  0.00    -0.200 F 
ATOM     61  C   UNL A   1      40.411  35.375  40.507  1.00  0.00     0.200 A 
ATOM     62  F   UNL A   1      38.832  33.912  41.478  1.00  0.00    -0.200 F 
ATOM     63  F   UNL A   1      40.451  36.102  41.631  1.00  0.00    -0.200 F 
ENDBRANCH  29  53
BRANCH  41  64
ATOM     64  C   UNL A   1      44.259  28.613  35.695  1.00  0.00     0.064 A 
ATOM     65  C   UNL A   1      44.105  27.476  36.500  1.00  0.00     0.173 A 
ATOM     66  C   UNL A   1      45.559  29.042  35.392  1.00  0.00     0.173 A 
ATOM     67  F   UNL A   1      42.879  27.041  36.826  1.00  0.00    -0.203 F 
ATOM     68  C   UNL A   1      45.215  26.802  36.999  1.00  0.00     0.198 A 
ATOM     69  C   UNL A   1      46.667  28.350  35.872  1.00  0.00     0.198 A 
ATOM     70  F   UNL A   1      45.753  30.122  34.620  1.00  0.00    -0.203 F 
ATOM     71  F   UNL A   1      45.048  25.740  37.798  1.00  0.00    -0.200 F 
ATOM     72  C   UNL A   1      46.494  27.235  36.679  1.00  0.00     0.200 A 
ATOM     73  F   UNL A   1      47.901  28.763  35.553  1.00  0.00    -0.200 F 
ATOM     74  F   UNL A   1      47.562  26.580  37.153  1.00  0.00    -0.200 F 
ENDBRANCH  41  64
ENDBRANCH  15  16
ENDBRANCH   8  10
ENDBRANCH   7   8
ENDBRANCH   6   7
ENDBRANCH   5   6
ENDBRANCH   4   5
ENDBRANCH   3   4
ENDBRANCH   2   3
ENDBRANCH   1   2
BRANCH   1  75
ATOM     75  C   UNL A   1      34.677  30.889  27.470  1.00  0.00     0.188 C 
BRANCH  75  76
ATOM     76  C   UNL A   1      33.239  30.438  27.138  1.00  0.00     0.188 C 
BRANCH  76  77
ATOM     77  O   UNL A   1      33.103  29.734  25.909  1.00  0.00    -0.376 OA
BRANCH  77  78
ATOM     78  C   UNL A   1      31.792  29.733  25.347  1.00  0.00     0.202 C 
BRANCH  78  79
ATOM     79  C   UNL A   1      31.647  28.941  24.036  1.00  0.00     0.261 C 
BRANCH  79  80
ATOM     80  O   UNL A   1      32.262  27.644  24.036  1.00  0.00    -0.457 OA
BRANCH  80  81
ATOM     81  C   UNL A   1      33.203  27.403  23.080  1.00  0.00     0.380 C 
ATOM     82  O   UNL A   1      33.865  28.285  22.540  1.00  0.00    -0.242 OA
BRANCH  81  83
ATOM     83  C   UNL A   1      33.451  25.968  22.923  1.00  0.00     0.281 A 
ATOM     84  N   UNL A   1      33.562  25.409  21.701  1.00  0.00    -0.049 NA
ATOM     85  N   UNL A   1      33.730  25.096  23.964  1.00  0.00    -0.181 NA
ATOM     86  O   UNL A   1      33.935  24.093  21.974  1.00  0.00    -0.333 OA
ATOM     87  C   UNL A   1      33.984  23.976  23.331  1.00  0.00     0.259 A 
BRANCH  87  88
ATOM     88  C   UNL A   1      34.008  22.612  23.829  1.00  0.00     0.052 A 
ATOM     89  C   UNL A   1      32.835  21.843  23.869  1.00  0.00     0.014 A 
ATOM     90  C   UNL A   1      35.220  22.064  24.300  1.00  0.00     0.068 A 
ATOM     91  C   UNL A   1      32.864  20.538  24.371  1.00  0.00     0.001 A 
ATOM     92  C   UNL A   1      35.230  20.748  24.795  1.00  0.00     0.014 A 
ATOM     93  C   UNL A   1      34.059  19.993  24.834  1.00  0.00     0.001 A 
BRANCH  90  94
ATOM     94  C   UNL A   1      36.510  22.853  24.254  1.00  0.00     0.417 C 
ATOM     95  F   UNL A   1      36.852  23.233  22.989  1.00  0.00    -0.166 F 
ATOM     96  F   UNL A   1      36.444  24.001  24.980  1.00  0.00    -0.166 F 
ATOM     97  F   UNL A   1      37.592  22.169  24.718  1.00  0.00    -0.166 F 
ENDBRANCH  90  94
ENDBRANCH  87  88
ENDBRANCH  81  83
ENDBRANCH  80  81
ENDBRANCH  79  80
ENDBRANCH  78  79
ENDBRANCH  77  78
ENDBRANCH  76  77
ENDBRANCH  75  76
ENDBRANCH   1  75
TORSDOF 22
ENDMDL
MODEL 3
REMARK VINA RESULT:     -10.7      4.415      7.208
REMARK SMILES O=C(OCCOCCOCCOCCOC(=O)c1noc(-c2ccccc2C(F)(F)F)n1)c1ccc(-c2c3nc(c(-c4c(F)c(F)c(F)c(F)c4F)c4ccc([nH]4)c(-c4c(F)c(F)c(F)c(F)c4F)c4nc(c(-c5c(F)c(F)c(F)c(F)c5F)c5ccc2[nH]5)C=C4)C=C3)cc1
REMARK SMILES IDX 9 1 8 2 7 3 6 4 5 5 4 6 3 7 2 8 1 9 33 10 34 11 95 12 35 13
REMARK SMILES IDX 94 14 36 15 37 16 38 17 88 18 39 19 93 20 87 21 89 22 40 23
REMARK SMILES IDX 92 24 86 25 85 26 41 28 73 29 53 30 72 31 54 32 57 33 71 34
REMARK SMILES IDX 90 35 55 36 56 37 70 39 91 40 58 41 42 42 43 43 51 44 44 45
REMARK SMILES IDX 45 46 49 47 52 48 46 49 47 50 50 51 48 52 74 53 75 54 83 55
REMARK SMILES IDX 76 56 77 57 81 58 84 59 78 60 79 61 82 62 80 63 59 64 60 65
REMARK SMILES IDX 68 66 61 67 62 68 66 69 69 70 63 71 64 72 67 73 65 74 10 75
REMARK SMILES IDX 11 76 12 77 13 78 14 79 15 80 16 81 17 82 18 83 19 84 32 85
REMARK SMILES IDX 20 86 21 87 22 88 23 89 27 90 24 91 26 92 25 93 28 94 29 95
REMARK SMILES IDX 30 96 31 97
REMARK H PARENT 89 27 57 38
REMARK Flexibility Score: inf
ROOT
ATOM      1  O   UNL A   1      30.053  26.779  24.670  1.00  0.00    -0.377 OA
ENDROOT
BRANCH   1   2
ATOM      2  C   UNL A   1      30.761  27.722  23.861  1.00  0.00     0.188 C 
BRANCH   2   3
ATOM      3  C   UNL A   1      32.239  27.897  24.219  1.00  0.00     0.188 C 
BRANCH   3   4
ATOM      4  O   UNL A   1      32.484  29.224  24.702  1.00  0.00    -0.376 OA
BRANCH   4   5
ATOM      5  C   UNL A   1      31.306  29.973  25.003  1.00  0.00     0.202 C 
BRANCH   5   6
ATOM      6  C   UNL A   1      31.511  31.023  26.095  1.00  0.00     0.261 C 
BRANCH   6   7
ATOM      7  O   UNL A   1      32.610  30.685  26.955  1.00  0.00    -0.460 OA
BRANCH   7   8
ATOM      8  C   UNL A   1      33.616  31.496  27.371  1.00  0.00     0.338 C 
ATOM      9  O   UNL A   1      33.458  32.714  27.294  1.00  0.00    -0.246 OA
BRANCH   8  10
ATOM     10  C   UNL A   1      34.881  30.998  27.996  1.00  0.00     0.060 A 
ATOM     11  C   UNL A   1      35.149  29.672  28.338  1.00  0.00     0.016 A 
ATOM     12  C   UNL A   1      35.896  31.949  28.210  1.00  0.00     0.016 A 
ATOM     13  C   UNL A   1      36.320  29.316  28.997  1.00  0.00     0.010 A 
ATOM     14  C   UNL A   1      37.100  31.592  28.825  1.00  0.00     0.010 A 
ATOM     15  C   UNL A   1      37.290  30.279  29.267  1.00  0.00    -0.014 A 
BRANCH  15  16
ATOM     16  C   UNL A   1      38.399  29.912  30.169  1.00  0.00     0.031 A 
ATOM     17  C   UNL A   1      39.536  29.117  29.598  1.00  0.00     0.074 A 
ATOM     18  C   UNL A   1      38.453  30.414  31.415  1.00  0.00     0.049 A 
ATOM     19  N   UNL A   1      40.614  28.667  30.182  1.00  0.00    -0.248 NA
ATOM     20  C   UNL A   1      39.452  28.800  28.162  1.00  0.00     0.031 C 
ATOM     21  C   UNL A   1      37.454  31.305  32.007  1.00  0.00     0.029 A 
ATOM     22  N   UNL A   1      39.404  30.281  32.391  1.00  0.00    -0.354 N 
ATOM     23  C   UNL A   1      41.320  27.993  29.194  1.00  0.00     0.074 A 
ATOM     24  C   UNL A   1      40.551  28.088  27.975  1.00  0.00     0.031 C 
ATOM     25  C   UNL A   1      37.863  31.665  33.234  1.00  0.00     0.029 A 
ATOM     26  C   UNL A   1      39.117  30.981  33.536  1.00  0.00     0.049 A 
ATOM     27  H   UNL A   1      40.216  29.734  32.282  1.00  0.00     0.167 HD
ATOM     28  C   UNL A   1      42.504  27.348  29.303  1.00  0.00     0.037 A 
ATOM     29  C   UNL A   1      39.790  31.038  34.701  1.00  0.00     0.037 A 
ATOM     30  C   UNL A   1      43.251  27.273  30.528  1.00  0.00     0.049 A 
ATOM     31  C   UNL A   1      41.060  30.238  34.825  1.00  0.00     0.074 A 
ATOM     32  C   UNL A   1      44.418  26.584  30.794  1.00  0.00     0.029 A 
ATOM     33  N   UNL A   1      42.890  27.927  31.700  1.00  0.00    -0.354 N 
ATOM     34  N   UNL A   1      41.683  29.527  33.914  1.00  0.00    -0.248 NA
ATOM     35  C   UNL A   1      41.709  30.227  36.141  1.00  0.00     0.031 C 
ATOM     36  C   UNL A   1      44.747  26.794  32.139  1.00  0.00     0.029 A 
ATOM     37  C   UNL A   1      43.807  27.649  32.698  1.00  0.00     0.049 A 
ATOM     38  H   UNL A   1      42.099  28.503  31.804  1.00  0.00     0.167 HD
ATOM     39  C   UNL A   1      42.800  28.995  34.539  1.00  0.00     0.074 A 
ATOM     40  C   UNL A   1      42.783  29.485  35.904  1.00  0.00     0.031 C 
ATOM     41  C   UNL A   1      43.753  28.168  34.040  1.00  0.00     0.037 A 
BRANCH  28  42
ATOM     42  C   UNL A   1      42.996  26.626  28.086  1.00  0.00     0.064 A 
ATOM     43  C   UNL A   1      43.661  27.291  27.045  1.00  0.00     0.173 A 
ATOM     44  C   UNL A   1      42.742  25.255  27.932  1.00  0.00     0.173 A 
ATOM     45  F   UNL A   1      43.899  28.609  27.129  1.00  0.00    -0.203 F 
ATOM     46  C   UNL A   1      44.023  26.617  25.881  1.00  0.00     0.198 A 
ATOM     47  C   UNL A   1      43.127  24.579  26.778  1.00  0.00     0.198 A 
ATOM     48  F   UNL A   1      42.101  24.574  28.894  1.00  0.00    -0.203 F 
ATOM     49  F   UNL A   1      44.597  27.286  24.871  1.00  0.00    -0.200 F 
ATOM     50  C   UNL A   1      43.757  25.262  25.748  1.00  0.00     0.200 A 
ATOM     51  F   UNL A   1      42.868  23.270  26.651  1.00  0.00    -0.200 F 
ATOM     52  F   UNL A   1      44.090  24.619  24.620  1.00  0.00    -0.200 F 
ENDBRANCH  28  42
BRANCH  29  53
ATOM     53  C   UNL A   1      39.262  31.839  35.838  1.00  0.00     0.064 A 
ATOM     54  C   UNL A   1      38.290  31.320  36.705  1.00  0.00     0.173 A 
ATOM     55  C   UNL A   1      39.712  33.147  36.078  1.00  0.00     0.173 A 
ATOM     56  F   UNL A   1      37.807  30.085  36.507  1.00  0.00    -0.203 F 
ATOM     57  C   UNL A   1      37.782  32.081  37.758  1.00  0.00     0.198 A 
ATOM     58  C   UNL A   1      39.225  33.895  37.147  1.00  0.00     0.198 A 
ATOM     59  F   UNL A   1      40.635  33.697  35.275  1.00  0.00    -0.203 F 
ATOM     60  F   UNL A   1      36.822  31.576  38.544  1.00  0.00    -0.200 F 
ATOM     61  C   UNL A   1      38.255  33.365  37.983  1.00  0.00     0.200 A 
ATOM     62  F   UNL A   1      39.695  35.131  37.366  1.00  0.00    -0.200 F 
ATOM     63  F   UNL A   1      37.770  34.094  38.996  1.00  0.00    -0.200 F 
ENDBRANCH  29  53
BRANCH  41  64
ATOM     64  C   UNL A   1      44.857  27.769  34.971  1.00  0.00     0.064 A 
ATOM     65  C   UNL A   1      44.754  26.628  35.779  1.00  0.00     0.173 A 
ATOM     66  C   UNL A   1      46.045  28.512  35.017  1.00  0.00     0.173 A 
ATOM     67  F   UNL A   1      43.629  25.899  35.776  1.00  0.00    -0.203 F 
ATOM     68  C   UNL A   1      45.799  26.255  36.618  1.00  0.00     0.198 A 
ATOM     69  C   UNL A   1      47.098  28.120  35.839  1.00  0.00     0.198 A 
ATOM     70  F   UNL A   1      46.189  29.607  34.257  1.00  0.00    -0.203 F 
ATOM     71  F   UNL A   1      45.668  25.183  37.411  1.00  0.00    -0.200 F 
ATOM     72  C   UNL A   1      46.972  26.996  36.642  1.00  0.00     0.200 A 
ATOM     73  F   UNL A   1      48.234  28.830  35.852  1.00  0.00    -0.200 F 
ATOM     74  F   UNL A   1      47.980  26.629  37.443  1.00  0.00    -0.200 F 
ENDBRANCH  41  64
ENDBRANCH  15  16
ENDBRANCH   8  10
ENDBRANCH   7   8
ENDBRANCH   6   7
ENDBRANCH   5   6
ENDBRANCH   4   5
ENDBRANCH   3   4
ENDBRANCH   2   3
ENDBRANCH   1   2
BRANCH   1  75
ATOM     75  C   UNL A   1      30.801  26.122  25.688  1.00  0.00     0.188 C 
BRANCH  75  76
ATOM     76  C   UNL A   1      30.340  24.723  26.145  1.00  0.00     0.188 C 
BRANCH  76  77
ATOM     77  O   UNL A   1      31.100  24.161  27.209  1.00  0.00    -0.376 OA
BRANCH  77  78
ATOM     78  C   UNL A   1      31.802  22.961  26.892  1.00  0.00     0.202 C 
BRANCH  78  79
ATOM     79  C   UNL A   1      31.385  22.295  25.569  1.00  0.00     0.261 C 
BRANCH  79  80
ATOM     80  O   UNL A   1      32.465  21.978  24.678  1.00  0.00    -0.457 OA
BRANCH  80  81
ATOM     81  C   UNL A   1      32.955  22.992  23.911  1.00  0.00     0.380 C 
ATOM     82  O   UNL A   1      32.247  23.759  23.264  1.00  0.00    -0.242 OA
BRANCH  81  83
ATOM     83  C   UNL A   1      34.397  23.162  24.107  1.00  0.00     0.281 A 
ATOM     84  N   UNL A   1      35.200  23.537  23.091  1.00  0.00    -0.049 NA
ATOM     85  N   UNL A   1      35.040  23.101  25.334  1.00  0.00    -0.181 NA
ATOM     86  O   UNL A   1      36.438  23.728  23.703  1.00  0.00    -0.333 OA
ATOM     87  C   UNL A   1      36.272  23.422  25.021  1.00  0.00     0.259 A 
BRANCH  87  88
ATOM     88  C   UNL A   1      37.504  23.216  25.762  1.00  0.00     0.052 A 
ATOM     89  C   UNL A   1      38.090  24.265  26.485  1.00  0.00     0.014 A 
ATOM     90  C   UNL A   1      38.129  21.951  25.733  1.00  0.00     0.068 A 
ATOM     91  C   UNL A   1      39.287  24.062  27.179  1.00  0.00     0.001 A 
ATOM     92  C   UNL A   1      39.330  21.765  26.441  1.00  0.00     0.014 A 
ATOM     93  C   UNL A   1      39.906  22.815  27.155  1.00  0.00     0.001 A 
BRANCH  90  94
ATOM     94  C   UNL A   1      37.518  20.788  24.982  1.00  0.00     0.417 C 
ATOM     95  F   UNL A   1      38.311  19.678  24.995  1.00  0.00    -0.166 F 
ATOM     96  F   UNL A   1      36.326  20.399  25.507  1.00  0.00    -0.166 F 
ATOM     97  F   UNL A   1      37.292  21.042  23.664  1.00  0.00    -0.166 F 
ENDBRANCH  90  94
ENDBRANCH  87  88
ENDBRANCH  81  83
ENDBRANCH  80  81
ENDBRANCH  79  80
ENDBRANCH  78  79
ENDBRANCH  77  78
ENDBRANCH  76  77
ENDBRANCH  75  76
ENDBRANCH   1  75
TORSDOF 22
ENDMDL
