MODEL 1
REMARK VINA RESULT:     -11.4      0.000      0.000
REMARK SMILES Cc1ccc(C)c([C@H]2[NH2+][C@@H](C(=O)OCCOCCOCCOCCOC(=O)c3ccc(-c4c5nc(c(-c6c(F)c(F)c(F)c(F)c6F)c6ccc([nH]6)c(-c6c(F)c(F)c(F)c(F)c6F)c6nc(c(-c7c(F)c(F)c(F)c(F)c7F)c7ccc4[nH]7)C=C6)C=C5)cc3)Cc3c2[nH]c2ccccc32)c1
REMARK SMILES IDX 20 1 19 2 18 3 17 4 16 5 15 6 14 7 13 8 11 9 12 10 10 11
REMARK SMILES IDX 8 12 9 13 93 14 92 17 94 18 91 19 100 20 95 21 99 23 96 24
REMARK SMILES IDX 98 25 97 26 7 27 1 28 2 29 3 30 101 31 4 32 5 33 6 34 21 35
REMARK SMILES IDX 22 36 23 37 24 38 25 39 26 40 27 41 28 42 29 43 90 44 30 45
REMARK SMILES IDX 89 46 31 47 32 48 33 49 83 50 34 51 88 52 82 53 84 54 35 55
REMARK SMILES IDX 87 56 81 57 80 58 36 60 68 61 48 62 67 63 49 64 52 65 66 66
REMARK SMILES IDX 85 67 50 68 51 69 65 71 86 72 53 73 37 74 38 75 46 76 39 77
REMARK SMILES IDX 40 78 44 79 47 80 41 81 42 82 45 83 43 84 69 85 70 86 78 87
REMARK SMILES IDX 71 88 72 89 76 90 79 91 73 92 74 93 77 94 75 95 54 96 55 97
REMARK SMILES IDX 63 98 56 99 57 100 61 101 64 102 58 103 59 104 62 105 60 106
REMARK H PARENT 9 15 9 16 94 22 84 59 52 70
REMARK Flexibility Score: inf
ROOT
ATOM      1  C   UNL A   1      33.772  18.611  24.717  1.00  0.00     0.188 C 
ENDROOT
BRANCH   1   2
ATOM      2  O   UNL A   1      33.415  18.072  23.467  1.00  0.00    -0.377 OA
BRANCH   2   3
ATOM      3  C   UNL A   1      32.170  18.566  23.056  1.00  0.00     0.188 C 
BRANCH   3   4
ATOM      4  C   UNL A   1      32.166  19.961  22.376  1.00  0.00     0.188 C 
BRANCH   4   5
ATOM      5  O   UNL A   1      31.899  21.146  23.066  1.00  0.00    -0.376 OA
BRANCH   5   6
ATOM      6  C   UNL A   1      32.544  22.263  22.490  1.00  0.00     0.202 C 
BRANCH   6   7
ATOM      7  C   UNL A   1      32.626  23.553  23.307  1.00  0.00     0.261 C 
BRANCH   7   8
ATOM      8  O   UNL A   1      31.831  24.842  22.795  1.00  0.00    -0.459 OA
BRANCH   8   9
ATOM      9  C   UNL A   1      31.953  25.828  21.754  1.00  0.00     0.365 C 
ATOM     10  O   UNL A   1      31.913  25.740  20.530  1.00  0.00    -0.245 OA
BRANCH   9  11
ATOM     11  C   UNL A   1      32.226  27.211  22.035  1.00  0.00     0.298 C 
ATOM     12  C   UNL A   1      32.919  27.416  24.509  1.00  0.00     0.262 C 
ATOM     13  N   UNL A   1      33.310  27.162  23.122  1.00  0.00    -0.323 N 
ATOM     14  C   UNL A   1      31.660  28.818  24.060  1.00  0.00     0.083 A 
ATOM     15  H   UNL A   1      33.725  26.231  23.092  1.00  0.00     0.347 HD
ATOM     16  H   UNL A   1      33.931  27.938  22.891  1.00  0.00     0.347 HD
ATOM     17  C   UNL A   1      30.812  28.790  22.934  1.00  0.00    -0.006 A 
ATOM     18  N   UNL A   1      31.107  30.051  24.596  1.00  0.00    -0.353 N 
ATOM     19  C   UNL A   1      30.880  27.821  21.925  1.00  0.00     0.115 C 
ATOM     20  C   UNL A   1      29.677  29.602  22.908  1.00  0.00     0.003 A 
ATOM     21  C   UNL A   1      29.909  30.496  23.916  1.00  0.00     0.046 A 
ATOM     22  H   UNL A   1      31.509  30.537  25.351  1.00  0.00     0.166 HD
ATOM     23  C   UNL A   1      28.516  29.613  22.075  1.00  0.00     0.010 A 
ATOM     24  C   UNL A   1      28.976  31.561  24.023  1.00  0.00     0.026 A 
ATOM     25  C   UNL A   1      27.590  30.628  22.192  1.00  0.00     0.001 A 
ATOM     26  C   UNL A   1      27.839  31.607  23.143  1.00  0.00     0.002 A 
BRANCH  12  27
ATOM     27  C   UNL A   1      32.959  26.056  26.027  1.00  0.00     0.019 A 
ATOM     28  C   UNL A   1      35.637  22.331  26.604  1.00  0.00     0.044 C 
ATOM     29  C   UNL A   1      34.419  23.147  26.966  1.00  0.00    -0.051 A 
ATOM     30  C   UNL A   1      32.977  22.446  27.297  1.00  0.00     0.004 A 
ATOM     31  C   UNL A   1      34.440  24.837  26.431  1.00  0.00     0.014 A 
ATOM     32  C   UNL A   1      31.563  23.448  26.990  1.00  0.00     0.004 A 
ATOM     33  C   UNL A   1      31.721  25.469  26.445  1.00  0.00    -0.042 A 
ATOM     34  C   UNL A   1      30.682  26.791  26.372  1.00  0.00     0.045 C 
ENDBRANCH  12  27
ENDBRANCH   9  11
ENDBRANCH   8   9
ENDBRANCH   7   8
ENDBRANCH   6   7
ENDBRANCH   5   6
ENDBRANCH   4   5
ENDBRANCH   3   4
ENDBRANCH   2   3
ENDBRANCH   1   2
BRANCH   1  35
ATOM     35  C   UNL A   1      34.767  19.804  24.696  1.00  0.00     0.188 C 
BRANCH  35  36
ATOM     36  O   UNL A   1      36.154  19.531  24.883  1.00  0.00    -0.376 OA
BRANCH  36  37
ATOM     37  C   UNL A   1      37.343  20.252  24.680  1.00  0.00     0.202 C 
BRANCH  37  38
ATOM     38  C   UNL A   1      38.333  19.269  25.087  1.00  0.00     0.261 C 
BRANCH  38  39
ATOM     39  O   UNL A   1      39.379  20.042  25.909  1.00  0.00    -0.460 OA
BRANCH  39  40
ATOM     40  C   UNL A   1      39.669  21.430  26.096  1.00  0.00     0.338 C 
ATOM     41  O   UNL A   1      38.796  22.218  25.719  1.00  0.00    -0.246 OA
BRANCH  40  42
ATOM     42  C   UNL A   1      40.987  22.082  26.769  1.00  0.00     0.060 A 
ATOM     43  C   UNL A   1      41.462  21.960  28.117  1.00  0.00     0.016 A 
ATOM     44  C   UNL A   1      41.787  22.952  26.086  1.00  0.00     0.016 A 
ATOM     45  C   UNL A   1      42.404  22.964  28.818  1.00  0.00     0.010 A 
ATOM     46  C   UNL A   1      42.525  23.987  26.802  1.00  0.00     0.010 A 
ATOM     47  C   UNL A   1      42.721  24.225  28.253  1.00  0.00    -0.014 A 
BRANCH  47  48
ATOM     48  C   UNL A   1      43.494  25.808  28.902  1.00  0.00     0.031 A 
ATOM     49  C   UNL A   1      41.940  26.355  28.715  1.00  0.00     0.074 A 
ATOM     50  C   UNL A   1      44.916  26.433  29.534  1.00  0.00     0.049 A 
ATOM     51  N   UNL A   1      41.496  26.638  27.500  1.00  0.00    -0.248 NA
ATOM     52  C   UNL A   1      40.706  25.844  29.499  1.00  0.00     0.031 C 
ATOM     53  C   UNL A   1      46.646  26.305  29.890  1.00  0.00     0.029 A 
ATOM     54  N   UNL A   1      45.384  27.601  30.123  1.00  0.00    -0.354 N 
ATOM     55  C   UNL A   1      40.110  26.809  27.626  1.00  0.00     0.074 A 
ATOM     56  C   UNL A   1      39.718  25.847  28.580  1.00  0.00     0.031 C 
ATOM     57  C   UNL A   1      47.273  27.127  30.916  1.00  0.00     0.029 A 
ATOM     58  C   UNL A   1      46.327  28.069  31.646  1.00  0.00     0.049 A 
ATOM     59  H   UNL A   1      45.151  28.393  29.587  1.00  0.00     0.167 HD
ATOM     60  C   UNL A   1      39.591  28.072  27.567  1.00  0.00     0.037 A 
ATOM     61  C   UNL A   1      45.657  28.980  33.023  1.00  0.00     0.037 A 
ATOM     62  C   UNL A   1      40.652  28.930  27.107  1.00  0.00     0.049 A 
ATOM     63  C   UNL A   1      44.069  30.185  33.107  1.00  0.00     0.074 A 
ATOM     64  C   UNL A   1      41.430  28.926  25.965  1.00  0.00     0.029 A 
ATOM     65  N   UNL A   1      41.416  29.390  28.152  1.00  0.00    -0.354 N 
ATOM     66  N   UNL A   1      44.546  30.457  31.697  1.00  0.00    -0.248 NA
ATOM     67  C   UNL A   1      42.024  30.198  32.888  1.00  0.00     0.031 C 
ATOM     68  C   UNL A   1      42.755  29.162  26.422  1.00  0.00     0.029 A 
ATOM     69  C   UNL A   1      42.695  29.560  27.757  1.00  0.00     0.049 A 
ATOM     70  H   UNL A   1      41.079  29.570  29.060  1.00  0.00     0.167 HD
ATOM     71  C   UNL A   1      43.324  30.212  30.161  1.00  0.00     0.074 A 
ATOM     72  C   UNL A   1      41.602  30.161  31.177  1.00  0.00     0.031 C 
ATOM     73  C   UNL A   1      43.687  29.921  28.722  1.00  0.00     0.037 A 
BRANCH  60  74
ATOM     74  C   UNL A   1      38.484  28.666  28.429  1.00  0.00     0.064 A 
ATOM     75  C   UNL A   1      37.608  29.560  27.781  1.00  0.00     0.173 A 
ATOM     76  C   UNL A   1      38.373  28.639  29.841  1.00  0.00     0.173 A 
ATOM     77  F   UNL A   1      37.636  29.691  26.447  1.00  0.00    -0.203 F 
ATOM     78  C   UNL A   1      36.738  30.394  28.482  1.00  0.00     0.198 A 
ATOM     79  C   UNL A   1      37.462  29.439  30.535  1.00  0.00     0.198 A 
ATOM     80  F   UNL A   1      39.177  27.924  30.632  1.00  0.00    -0.203 F 
ATOM     81  F   UNL A   1      36.010  31.300  27.817  1.00  0.00    -0.200 F 
ATOM     82  C   UNL A   1      36.658  30.328  29.859  1.00  0.00     0.200 A 
ATOM     83  F   UNL A   1      37.423  29.381  31.874  1.00  0.00    -0.200 F 
ATOM     84  F   UNL A   1      35.833  31.137  30.534  1.00  0.00    -0.200 F 
ENDBRANCH  60  74
BRANCH  61  85
ATOM     85  C   UNL A   1      45.616  28.948  34.786  1.00  0.00     0.064 A 
ATOM     86  C   UNL A   1      45.119  27.775  35.467  1.00  0.00     0.173 A 
ATOM     87  C   UNL A   1      46.569  29.610  35.645  1.00  0.00     0.173 A 
ATOM     88  F   UNL A   1      44.321  26.913  34.818  1.00  0.00    -0.203 F 
ATOM     89  C   UNL A   1      45.510  27.358  36.791  1.00  0.00     0.198 A 
ATOM     90  C   UNL A   1      46.981  29.176  36.938  1.00  0.00     0.198 A 
ATOM     91  F   UNL A   1      47.222  30.712  35.278  1.00  0.00    -0.203 F 
ATOM     92  F   UNL A   1      45.021  26.226  37.325  1.00  0.00    -0.200 F 
ATOM     93  C   UNL A   1      46.452  28.055  37.518  1.00  0.00     0.200 A 
ATOM     94  F   UNL A   1      47.956  29.842  37.580  1.00  0.00    -0.200 F 
ATOM     95  F   UNL A   1      46.871  27.641  38.726  1.00  0.00    -0.200 F 
ENDBRANCH  61  85
BRANCH  73  96
ATOM     96  C   UNL A   1      45.146  29.996  27.866  1.00  0.00     0.064 A 
ATOM     97  C   UNL A   1      45.956  28.976  27.290  1.00  0.00     0.173 A 
ATOM     98  C   UNL A   1      45.663  31.247  27.542  1.00  0.00     0.173 A 
ATOM     99  F   UNL A   1      45.449  27.805  26.900  1.00  0.00    -0.203 F 
ATOM    100  C   UNL A   1      47.338  29.101  27.080  1.00  0.00     0.198 A 
ATOM    101  C   UNL A   1      46.991  31.421  27.093  1.00  0.00     0.198 A 
ATOM    102  F   UNL A   1      44.870  32.320  27.622  1.00  0.00    -0.203 F 
ATOM    103  F   UNL A   1      48.120  28.013  26.956  1.00  0.00    -0.200 F 
ATOM    104  C   UNL A   1      47.871  30.354  27.014  1.00  0.00     0.200 A 
ATOM    105  F   UNL A   1      47.432  32.646  26.790  1.00  0.00    -0.200 F 
ATOM    106  F   UNL A   1      49.185  30.533  26.819  1.00  0.00    -0.200 F 
ENDBRANCH  73  96
ENDBRANCH  47  48
ENDBRANCH  40  42
ENDBRANCH  39  40
ENDBRANCH  38  39
ENDBRANCH  37  38
ENDBRANCH  36  37
ENDBRANCH  35  36
ENDBRANCH   1  35
TORSDOF 21
ENDMDL
MODEL 2
REMARK VINA RESULT:     -11.3      6.051     13.513
REMARK SMILES Cc1ccc(C)c([C@H]2[NH2+][C@@H](C(=O)OCCOCCOCCOCCOC(=O)c3ccc(-c4c5nc(c(-c6c(F)c(F)c(F)c(F)c6F)c6ccc([nH]6)c(-c6c(F)c(F)c(F)c(F)c6F)c6nc(c(-c7c(F)c(F)c(F)c(F)c7F)c7ccc4[nH]7)C=C6)C=C5)cc3)Cc3c2[nH]c2ccccc32)c1
REMARK SMILES IDX 20 1 19 2 18 3 17 4 16 5 15 6 14 7 13 8 11 9 12 10 10 11
REMARK SMILES IDX 8 12 9 13 93 14 92 17 94 18 91 19 100 20 95 21 99 23 96 24
REMARK SMILES IDX 98 25 97 26 7 27 1 28 2 29 3 30 101 31 4 32 5 33 6 34 21 35
REMARK SMILES IDX 22 36 23 37 24 38 25 39 26 40 27 41 28 42 29 43 90 44 30 45
REMARK SMILES IDX 89 46 31 47 32 48 33 49 83 50 34 51 88 52 82 53 84 54 35 55
REMARK SMILES IDX 87 56 81 57 80 58 36 60 68 61 48 62 67 63 49 64 52 65 66 66
REMARK SMILES IDX 85 67 50 68 51 69 65 71 86 72 53 73 37 74 38 75 46 76 39 77
REMARK SMILES IDX 40 78 44 79 47 80 41 81 42 82 45 83 43 84 69 85 70 86 78 87
REMARK SMILES IDX 71 88 72 89 76 90 79 91 73 92 74 93 77 94 75 95 54 96 55 97
REMARK SMILES IDX 63 98 56 99 57 100 61 101 64 102 58 103 59 104 62 105 60 106
REMARK H PARENT 9 15 9 16 94 22 84 59 52 70
REMARK Flexibility Score: inf
ROOT
ATOM      1  C   UNL A   1      49.398  25.084  27.816  1.00  0.00     0.188 C 
ENDROOT
BRANCH   1   2
ATOM      2  O   UNL A   1      49.978  26.186  28.471  1.00  0.00    -0.377 OA
BRANCH   2   3
ATOM      3  C   UNL A   1      49.177  26.600  29.543  1.00  0.00     0.188 C 
BRANCH   3   4
ATOM      4  C   UNL A   1      49.032  25.607  30.726  1.00  0.00     0.188 C 
BRANCH   4   5
ATOM      5  O   UNL A   1      48.577  25.988  31.991  1.00  0.00    -0.376 OA
BRANCH   5   6
ATOM      6  C   UNL A   1      47.228  25.627  32.210  1.00  0.00     0.202 C 
BRANCH   6   7
ATOM      7  C   UNL A   1      46.628  25.875  33.595  1.00  0.00     0.261 C 
BRANCH   7   8
ATOM      8  O   UNL A   1      45.465  24.910  34.115  1.00  0.00    -0.459 OA
BRANCH   8   9
ATOM      9  C   UNL A   1      44.903  23.632  33.768  1.00  0.00     0.365 C 
ATOM     10  O   UNL A   1      44.141  23.288  32.869  1.00  0.00    -0.245 OA
BRANCH   9  11
ATOM     11  C   UNL A   1      45.138  22.451  34.551  1.00  0.00     0.298 C 
ATOM     12  C   UNL A   1      45.257  23.133  37.034  1.00  0.00     0.262 C 
ATOM     13  N   UNL A   1      44.437  22.745  35.886  1.00  0.00    -0.323 N 
ATOM     14  C   UNL A   1      46.694  21.902  36.620  1.00  0.00     0.083 A 
ATOM     15  H   UNL A   1      43.776  23.503  35.718  1.00  0.00     0.347 HD
ATOM     16  H   UNL A   1      44.033  21.848  36.159  1.00  0.00     0.347 HD
ATOM     17  C   UNL A   1      47.146  21.623  35.314  1.00  0.00    -0.006 A 
ATOM     18  N   UNL A   1      47.712  21.096  37.274  1.00  0.00    -0.353 N 
ATOM     19  C   UNL A   1      46.517  22.083  34.151  1.00  0.00     0.115 C 
ATOM     20  C   UNL A   1      48.415  21.071  35.130  1.00  0.00     0.003 A 
ATOM     21  C   UNL A   1      48.747  20.627  36.379  1.00  0.00     0.046 A 
ATOM     22  H   UNL A   1      47.699  20.891  38.236  1.00  0.00     0.166 HD
ATOM     23  C   UNL A   1      49.246  20.926  33.976  1.00  0.00     0.010 A 
ATOM     24  C   UNL A   1      49.943  19.866  36.465  1.00  0.00     0.026 A 
ATOM     25  C   UNL A   1      50.424  20.213  34.058  1.00  0.00     0.001 A 
ATOM     26  C   UNL A   1      50.750  19.667  35.291  1.00  0.00     0.002 A 
BRANCH  12  27
ATOM     27  C   UNL A   1      45.245  24.956  37.945  1.00  0.00     0.019 A 
ATOM     28  C   UNL A   1      46.481  29.100  36.305  1.00  0.00     0.044 C 
ATOM     29  C   UNL A   1      46.141  28.187  37.459  1.00  0.00    -0.051 A 
ATOM     30  C   UNL A   1      46.953  28.251  38.879  1.00  0.00     0.004 A 
ATOM     31  C   UNL A   1      45.293  26.690  37.031  1.00  0.00     0.014 A 
ATOM     32  C   UNL A   1      46.971  26.754  39.806  1.00  0.00     0.004 A 
ATOM     33  C   UNL A   1      45.849  25.074  39.238  1.00  0.00    -0.042 A 
ATOM     34  C   UNL A   1      45.361  23.638  39.967  1.00  0.00     0.045 C 
ENDBRANCH  12  27
ENDBRANCH   9  11
ENDBRANCH   8   9
ENDBRANCH   7   8
ENDBRANCH   6   7
ENDBRANCH   5   6
ENDBRANCH   4   5
ENDBRANCH   3   4
ENDBRANCH   2   3
ENDBRANCH   1   2
BRANCH   1  35
ATOM     35  C   UNL A   1      48.472  25.406  26.611  1.00  0.00     0.188 C 
BRANCH  35  36
ATOM     36  O   UNL A   1      47.063  25.270  26.786  1.00  0.00    -0.376 OA
BRANCH  36  37
ATOM     37  C   UNL A   1      45.936  25.513  25.983  1.00  0.00     0.202 C 
BRANCH  37  38
ATOM     38  C   UNL A   1      46.146  24.548  24.917  1.00  0.00     0.261 C 
BRANCH  38  39
ATOM     39  O   UNL A   1      45.066  23.469  25.109  1.00  0.00    -0.460 OA
BRANCH  39  40
ATOM     40  C   UNL A   1      43.640  23.460  25.007  1.00  0.00     0.338 C 
ATOM     41  O   UNL A   1      43.168  22.740  24.121  1.00  0.00    -0.246 OA
BRANCH  40  42
ATOM     42  C   UNL A   1      42.578  24.255  25.931  1.00  0.00     0.060 A 
ATOM     43  C   UNL A   1      41.693  25.325  25.567  1.00  0.00     0.016 A 
ATOM     44  C   UNL A   1      42.481  24.026  27.274  1.00  0.00     0.016 A 
ATOM     45  C   UNL A   1      41.089  26.349  26.553  1.00  0.00     0.010 A 
ATOM     46  C   UNL A   1      42.058  25.097  28.172  1.00  0.00     0.010 A 
ATOM     47  C   UNL A   1      41.529  26.454  27.897  1.00  0.00    -0.014 A 
BRANCH  47  48
ATOM     48  C   UNL A   1      41.328  27.733  29.257  1.00  0.00     0.031 A 
ATOM     49  C   UNL A   1      42.602  28.428  28.456  1.00  0.00     0.074 A 
ATOM     50  C   UNL A   1      40.340  28.167  30.540  1.00  0.00     0.049 A 
ATOM     51  N   UNL A   1      43.817  27.922  28.609  1.00  0.00    -0.248 NA
ATOM     52  C   UNL A   1      42.563  28.980  27.009  1.00  0.00     0.031 C 
ATOM     53  C   UNL A   1      39.031  27.818  31.680  1.00  0.00     0.029 A 
ATOM     54  N   UNL A   1      40.176  29.216  31.437  1.00  0.00    -0.354 N 
ATOM     55  C   UNL A   1      44.614  28.527  27.628  1.00  0.00     0.074 A 
ATOM     56  C   UNL A   1      43.769  28.645  26.505  1.00  0.00     0.031 C 
ATOM     57  C   UNL A   1      38.324  28.884  32.375  1.00  0.00     0.029 A 
ATOM     58  C   UNL A   1      38.789  30.291  32.029  1.00  0.00     0.049 A 
ATOM     59  H   UNL A   1      41.026  29.451  31.875  1.00  0.00     0.167 HD
ATOM     60  C   UNL A   1      45.511  29.488  28.005  1.00  0.00     0.037 A 
ATOM     61  C   UNL A   1      38.639  32.036  31.703  1.00  0.00     0.037 A 
ATOM     62  C   UNL A   1      45.582  29.440  29.441  1.00  0.00     0.049 A 
ATOM     63  C   UNL A   1      40.037  33.367  31.196  1.00  0.00     0.074 A 
ATOM     64  C   UNL A   1      45.906  28.433  30.330  1.00  0.00     0.029 A 
ATOM     65  N   UNL A   1      44.623  30.238  30.020  1.00  0.00    -0.354 N 
ATOM     66  N   UNL A   1      40.841  32.450  32.093  1.00  0.00    -0.248 NA
ATOM     67  C   UNL A   1      41.386  33.825  29.714  1.00  0.00     0.031 C 
ATOM     68  C   UNL A   1      44.925  28.515  31.354  1.00  0.00     0.029 A 
ATOM     69  C   UNL A   1      44.221  29.708  31.195  1.00  0.00     0.049 A 
ATOM     70  H   UNL A   1      44.278  31.074  29.632  1.00  0.00     0.167 HD
ATOM     71  C   UNL A   1      42.497  31.598  31.426  1.00  0.00     0.074 A 
ATOM     72  C   UNL A   1      42.785  32.759  29.823  1.00  0.00     0.031 C 
ATOM     73  C   UNL A   1      43.141  30.317  31.907  1.00  0.00     0.037 A 
BRANCH  60  74
ATOM     74  C   UNL A   1      45.827  30.797  27.293  1.00  0.00     0.064 A 
ATOM     75  C   UNL A   1      47.196  31.098  27.132  1.00  0.00     0.173 A 
ATOM     76  C   UNL A   1      44.944  31.865  27.003  1.00  0.00     0.173 A 
ATOM     77  F   UNL A   1      48.130  30.173  27.399  1.00  0.00    -0.203 F 
ATOM     78  C   UNL A   1      47.644  32.367  26.768  1.00  0.00     0.198 A 
ATOM     79  C   UNL A   1      45.396  33.119  26.588  1.00  0.00     0.198 A 
ATOM     80  F   UNL A   1      43.622  31.800  27.183  1.00  0.00    -0.203 F 
ATOM     81  F   UNL A   1      48.959  32.620  26.739  1.00  0.00    -0.200 F 
ATOM     82  C   UNL A   1      46.745  33.376  26.487  1.00  0.00     0.200 A 
ATOM     83  F   UNL A   1      44.507  34.094  26.350  1.00  0.00    -0.200 F 
ATOM     84  F   UNL A   1      47.174  34.598  26.151  1.00  0.00    -0.200 F 
ENDBRANCH  60  74
BRANCH  61  85
ATOM     85  C   UNL A   1      37.444  33.226  31.187  1.00  0.00     0.064 A 
ATOM     86  C   UNL A   1      37.000  33.243  29.812  1.00  0.00     0.173 A 
ATOM     87  C   UNL A   1      36.384  33.744  32.019  1.00  0.00     0.173 A 
ATOM     88  F   UNL A   1      37.758  32.680  28.859  1.00  0.00    -0.203 F 
ATOM     89  C   UNL A   1      35.713  33.716  29.363  1.00  0.00     0.198 A 
ATOM     90  C   UNL A   1      35.101  34.177  31.577  1.00  0.00     0.198 A 
ATOM     91  F   UNL A   1      36.488  33.826  33.345  1.00  0.00    -0.203 F 
ATOM     92  F   UNL A   1      35.377  33.653  28.064  1.00  0.00    -0.200 F 
ATOM     93  C   UNL A   1      34.762  34.169  30.251  1.00  0.00     0.200 A 
ATOM     94  F   UNL A   1      34.176  34.540  32.483  1.00  0.00    -0.200 F 
ATOM     95  F   UNL A   1      33.538  34.553  29.851  1.00  0.00    -0.200 F 
ENDBRANCH  61  85
BRANCH  73  96
ATOM     96  C   UNL A   1      42.907  29.358  33.283  1.00  0.00     0.064 A 
ATOM     97  C   UNL A   1      42.503  28.001  33.429  1.00  0.00     0.173 A 
ATOM     98  C   UNL A   1      43.243  29.887  34.525  1.00  0.00     0.173 A 
ATOM     99  F   UNL A   1      42.705  27.094  32.473  1.00  0.00    -0.203 F 
ATOM    100  C   UNL A   1      41.862  27.496  34.571  1.00  0.00     0.198 A 
ATOM    101  C   UNL A   1      42.825  29.290  35.736  1.00  0.00     0.198 A 
ATOM    102  F   UNL A   1      44.016  30.976  34.583  1.00  0.00    -0.203 F 
ATOM    103  F   UNL A   1      41.122  26.373  34.511  1.00  0.00    -0.200 F 
ATOM    104  C   UNL A   1      42.001  28.177  35.744  1.00  0.00     0.200 A 
ATOM    105  F   UNL A   1      43.183  29.838  36.902  1.00  0.00    -0.200 F 
ATOM    106  F   UNL A   1      41.408  27.743  36.865  1.00  0.00    -0.200 F 
ENDBRANCH  73  96
ENDBRANCH  47  48
ENDBRANCH  40  42
ENDBRANCH  39  40
ENDBRANCH  38  39
ENDBRANCH  37  38
ENDBRANCH  36  37
ENDBRANCH  35  36
ENDBRANCH   1  35
TORSDOF 21
ENDMDL
MODEL 3
REMARK VINA RESULT:     -11.1      3.252      7.079
REMARK SMILES Cc1ccc(C)c([C@H]2[NH2+][C@@H](C(=O)OCCOCCOCCOCCOC(=O)c3ccc(-c4c5nc(c(-c6c(F)c(F)c(F)c(F)c6F)c6ccc([nH]6)c(-c6c(F)c(F)c(F)c(F)c6F)c6nc(c(-c7c(F)c(F)c(F)c(F)c7F)c7ccc4[nH]7)C=C6)C=C5)cc3)Cc3c2[nH]c2ccccc32)c1
REMARK SMILES IDX 20 1 19 2 18 3 17 4 16 5 15 6 14 7 13 8 11 9 12 10 10 11
REMARK SMILES IDX 8 12 9 13 93 14 92 17 94 18 91 19 100 20 95 21 99 23 96 24
REMARK SMILES IDX 98 25 97 26 7 27 1 28 2 29 3 30 101 31 4 32 5 33 6 34 21 35
REMARK SMILES IDX 22 36 23 37 24 38 25 39 26 40 27 41 28 42 29 43 90 44 30 45
REMARK SMILES IDX 89 46 31 47 32 48 33 49 83 50 34 51 88 52 82 53 84 54 35 55
REMARK SMILES IDX 87 56 81 57 80 58 36 60 68 61 48 62 67 63 49 64 52 65 66 66
REMARK SMILES IDX 85 67 50 68 51 69 65 71 86 72 53 73 37 74 38 75 46 76 39 77
REMARK SMILES IDX 40 78 44 79 47 80 41 81 42 82 45 83 43 84 69 85 70 86 78 87
REMARK SMILES IDX 71 88 72 89 76 90 79 91 73 92 74 93 77 94 75 95 54 96 55 97
REMARK SMILES IDX 63 98 56 99 57 100 61 101 64 102 58 103 59 104 62 105 60 106
REMARK H PARENT 9 15 9 16 94 22 84 59 52 70
REMARK Flexibility Score: inf
ROOT
ATOM      1  C   UNL A   1      31.506  28.011  25.437  1.00  0.00     0.188 C 
ENDROOT
BRANCH   1   2
ATOM      2  O   UNL A   1      31.241  29.272  24.870  1.00  0.00    -0.377 OA
BRANCH   2   3
ATOM      3  C   UNL A   1      30.352  29.152  23.795  1.00  0.00     0.188 C 
BRANCH   3   4
ATOM      4  C   UNL A   1      30.200  27.739  23.172  1.00  0.00     0.188 C 
BRANCH   4   5
ATOM      5  O   UNL A   1      30.820  27.361  21.979  1.00  0.00    -0.376 OA
BRANCH   5   6
ATOM      6  C   UNL A   1      31.624  26.208  22.130  1.00  0.00     0.202 C 
BRANCH   6   7
ATOM      7  C   UNL A   1      33.093  26.394  22.513  1.00  0.00     0.261 C 
BRANCH   7   8
ATOM      8  O   UNL A   1      34.113  25.189  22.264  1.00  0.00    -0.459 OA
BRANCH   8   9
ATOM      9  C   UNL A   1      34.639  24.067  22.994  1.00  0.00     0.365 C 
ATOM     10  O   UNL A   1      35.639  23.375  22.829  1.00  0.00    -0.245 OA
BRANCH   9  11
ATOM     11  C   UNL A   1      33.954  23.496  24.121  1.00  0.00     0.298 C 
ATOM     12  C   UNL A   1      35.696  22.955  25.942  1.00  0.00     0.262 C 
ATOM     13  N   UNL A   1      34.797  23.933  25.328  1.00  0.00    -0.323 N 
ATOM     14  C   UNL A   1      34.465  21.472  25.746  1.00  0.00     0.083 A 
ATOM     15  H   UNL A   1      35.371  24.720  25.026  1.00  0.00     0.347 HD
ATOM     16  H   UNL A   1      34.110  24.131  26.056  1.00  0.00     0.347 HD
ATOM     17  C   UNL A   1      33.638  21.272  24.623  1.00  0.00    -0.006 A 
ATOM     18  N   UNL A   1      34.083  20.229  26.398  1.00  0.00    -0.353 N 
ATOM     19  C   UNL A   1      33.495  22.196  23.580  1.00  0.00     0.115 C 
ATOM     20  C   UNL A   1      33.110  20.004  24.375  1.00  0.00     0.003 A 
ATOM     21  C   UNL A   1      33.295  19.351  25.561  1.00  0.00     0.046 A 
ATOM     22  H   UNL A   1      34.338  20.006  27.322  1.00  0.00     0.166 HD
ATOM     23  C   UNL A   1      32.485  19.425  23.227  1.00  0.00     0.010 A 
ATOM     24  C   UNL A   1      32.702  18.065  25.657  1.00  0.00     0.026 A 
ATOM     25  C   UNL A   1      31.931  18.164  23.303  1.00  0.00     0.001 A 
ATOM     26  C   UNL A   1      32.018  17.506  24.521  1.00  0.00     0.002 A 
BRANCH  12  27
ATOM     27  C   UNL A   1      37.733  23.043  25.944  1.00  0.00     0.019 A 
ATOM     28  C   UNL A   1      40.850  19.645  26.292  1.00  0.00     0.044 C 
ATOM     29  C   UNL A   1      40.487  21.111  26.337  1.00  0.00    -0.051 A 
ATOM     30  C   UNL A   1      41.130  22.126  27.449  1.00  0.00     0.004 A 
ATOM     31  C   UNL A   1      38.942  21.543  25.583  1.00  0.00     0.014 A 
ATOM     32  C   UNL A   1      40.142  23.527  27.850  1.00  0.00     0.004 A 
ATOM     33  C   UNL A   1      38.371  23.979  26.820  1.00  0.00    -0.042 A 
ATOM     34  C   UNL A   1      37.356  25.314  26.679  1.00  0.00     0.045 C 
ENDBRANCH  12  27
ENDBRANCH   9  11
ENDBRANCH   8   9
ENDBRANCH   7   8
ENDBRANCH   6   7
ENDBRANCH   5   6
ENDBRANCH   4   5
ENDBRANCH   3   4
ENDBRANCH   2   3
ENDBRANCH   1   2
BRANCH   1  35
ATOM     35  C   UNL A   1      31.590  27.955  26.987  1.00  0.00     0.188 C 
BRANCH  35  36
ATOM     36  O   UNL A   1      32.722  28.544  27.624  1.00  0.00    -0.376 OA
BRANCH  36  37
ATOM     37  C   UNL A   1      33.922  29.121  27.177  1.00  0.00     0.202 C 
BRANCH  37  38
ATOM     38  C   UNL A   1      33.613  30.535  27.309  1.00  0.00     0.261 C 
BRANCH  38  39
ATOM     39  O   UNL A   1      34.585  31.080  28.371  1.00  0.00    -0.460 OA
BRANCH  39  40
ATOM     40  C   UNL A   1      36.008  31.179  28.458  1.00  0.00     0.338 C 
ATOM     41  O   UNL A   1      36.471  32.324  28.448  1.00  0.00    -0.246 OA
BRANCH  40  42
ATOM     42  C   UNL A   1      37.076  29.971  28.597  1.00  0.00     0.060 A 
ATOM     43  C   UNL A   1      37.304  29.097  29.712  1.00  0.00     0.016 A 
ATOM     44  C   UNL A   1      37.996  29.709  27.623  1.00  0.00     0.016 A 
ATOM     45  C   UNL A   1      38.615  28.326  29.979  1.00  0.00     0.010 A 
ATOM     46  C   UNL A   1      39.289  29.128  27.972  1.00  0.00     0.010 A 
ATOM     47  C   UNL A   1      39.804  28.581  29.251  1.00  0.00    -0.014 A 
BRANCH  47  48
ATOM     48  C   UNL A   1      41.616  28.150  29.485  1.00  0.00     0.031 A 
ATOM     49  C   UNL A   1      41.632  29.652  30.185  1.00  0.00     0.074 A 
ATOM     50  C   UNL A   1      42.721  26.902  29.302  1.00  0.00     0.049 A 
ATOM     51  N   UNL A   1      41.610  30.727  29.411  1.00  0.00    -0.248 NA
ATOM     52  C   UNL A   1      40.869  30.054  31.472  1.00  0.00     0.031 C 
ATOM     53  C   UNL A   1      43.177  25.309  28.677  1.00  0.00     0.029 A 
ATOM     54  N   UNL A   1      44.041  26.608  29.622  1.00  0.00    -0.354 N 
ATOM     55  C   UNL A   1      41.361  31.811  30.263  1.00  0.00     0.074 A 
ATOM     56  C   UNL A   1      40.454  31.312  31.220  1.00  0.00     0.031 C 
ATOM     57  C   UNL A   1      44.273  24.549  29.260  1.00  0.00     0.029 A 
ATOM     58  C   UNL A   1      44.963  25.223  30.437  1.00  0.00     0.049 A 
ATOM     59  H   UNL A   1      44.649  27.328  29.340  1.00  0.00     0.167 HD
ATOM     60  C   UNL A   1      42.387  32.664  30.565  1.00  0.00     0.037 A 
ATOM     61  C   UNL A   1      45.789  25.335  32.011  1.00  0.00     0.037 A 
ATOM     62  C   UNL A   1      43.463  32.345  29.665  1.00  0.00     0.049 A 
ATOM     63  C   UNL A   1      46.449  26.939  32.998  1.00  0.00     0.074 A 
ATOM     64  C   UNL A   1      43.556  32.322  28.287  1.00  0.00     0.029 A 
ATOM     65  N   UNL A   1      44.264  31.349  30.171  1.00  0.00    -0.354 N 
ATOM     66  N   UNL A   1      46.675  27.382  31.569  1.00  0.00    -0.248 NA
ATOM     67  C   UNL A   1      45.807  28.672  33.900  1.00  0.00     0.031 C 
ATOM     68  C   UNL A   1      44.242  31.115  27.984  1.00  0.00     0.029 A 
ATOM     69  C   UNL A   1      44.767  30.599  29.168  1.00  0.00     0.049 A 
ATOM     70  H   UNL A   1      44.443  31.202  31.128  1.00  0.00     0.167 HD
ATOM     71  C   UNL A   1      45.876  29.066  30.906  1.00  0.00     0.074 A 
ATOM     72  C   UNL A   1      45.427  29.882  32.675  1.00  0.00     0.031 C 
ATOM     73  C   UNL A   1      45.533  29.432  29.479  1.00  0.00     0.037 A 
BRANCH  60  74
ATOM     74  C   UNL A   1      42.715  33.284  31.918  1.00  0.00     0.064 A 
ATOM     75  C   UNL A   1      42.779  34.692  31.953  1.00  0.00     0.173 A 
ATOM     76  C   UNL A   1      43.211  32.635  33.074  1.00  0.00     0.173 A 
ATOM     77  F   UNL A   1      42.360  35.417  30.906  1.00  0.00    -0.203 F 
ATOM     78  C   UNL A   1      43.341  35.388  33.023  1.00  0.00     0.198 A 
ATOM     79  C   UNL A   1      43.724  33.339  34.166  1.00  0.00     0.198 A 
ATOM     80  F   UNL A   1      43.316  31.308  33.190  1.00  0.00    -0.203 F 
ATOM     81  F   UNL A   1      43.473  36.719  32.950  1.00  0.00    -0.200 F 
ATOM     82  C   UNL A   1      43.805  34.713  34.134  1.00  0.00     0.200 A 
ATOM     83  F   UNL A   1      44.199  32.662  35.222  1.00  0.00    -0.200 F 
ATOM     84  F   UNL A   1      44.356  35.378  35.156  1.00  0.00    -0.200 F 
ENDBRANCH  60  74
BRANCH  61  85
ATOM     85  C   UNL A   1      45.968  24.441  33.521  1.00  0.00     0.064 A 
ATOM     86  C   UNL A   1      44.950  23.494  33.914  1.00  0.00     0.173 A 
ATOM     87  C   UNL A   1      47.228  24.025  34.089  1.00  0.00     0.173 A 
ATOM     88  F   UNL A   1      43.716  23.585  33.397  1.00  0.00    -0.203 F 
ATOM     89  C   UNL A   1      45.173  22.338  34.749  1.00  0.00     0.198 A 
ATOM     90  C   UNL A   1      47.452  22.864  34.883  1.00  0.00     0.198 A 
ATOM     91  F   UNL A   1      48.364  24.689  33.878  1.00  0.00    -0.203 F 
ATOM     92  F   UNL A   1      44.168  21.491  35.027  1.00  0.00    -0.200 F 
ATOM     93  C   UNL A   1      46.429  22.020  35.219  1.00  0.00     0.200 A 
ATOM     94  F   UNL A   1      48.705  22.550  35.258  1.00  0.00    -0.200 F 
ATOM     95  F   UNL A   1      46.660  20.912  35.944  1.00  0.00    -0.200 F 
ENDBRANCH  61  85
BRANCH  73  96
ATOM     96  C   UNL A   1      45.945  28.748  27.985  1.00  0.00     0.064 A 
ATOM     97  C   UNL A   1      45.156  28.088  27.000  1.00  0.00     0.173 A 
ATOM     98  C   UNL A   1      47.247  28.903  27.520  1.00  0.00     0.173 A 
ATOM     99  F   UNL A   1      43.850  28.324  26.863  1.00  0.00    -0.203 F 
ATOM    100  C   UNL A   1      45.666  27.143  26.097  1.00  0.00     0.198 A 
ATOM    101  C   UNL A   1      47.760  28.142  26.446  1.00  0.00     0.198 A 
ATOM    102  F   UNL A   1      48.034  29.828  28.080  1.00  0.00    -0.203 F 
ATOM    103  F   UNL A   1      44.857  26.246  25.504  1.00  0.00    -0.200 F 
ATOM    104  C   UNL A   1      47.005  27.150  25.841  1.00  0.00     0.200 A 
ATOM    105  F   UNL A   1      49.017  28.338  26.037  1.00  0.00    -0.200 F 
ATOM    106  F   UNL A   1      47.547  26.269  24.989  1.00  0.00    -0.200 F 
ENDBRANCH  73  96
ENDBRANCH  47  48
ENDBRANCH  40  42
ENDBRANCH  39  40
ENDBRANCH  38  39
ENDBRANCH  37  38
ENDBRANCH  36  37
ENDBRANCH  35  36
ENDBRANCH   1  35
TORSDOF 21
ENDMDL
