MODEL 1
REMARK VINA RESULT:      -6.7      0.000      0.000
REMARK SMILES Cc1c(CC(=O)N[C@@H](CCO)C(=O)OCCOCCOCCOCCOC(=O)c2ccc(-c3c4nc(c(-c5c(F)c(F)c(F)c(F)c5F)c5ccc([nH]5)c(-c5c(F)c(F)c(F)c(F)c5F)c5nc(c(-c6c(F)c(F)c(F)c(F)c6F)c6ccc3[nH]6)C=C5)C=C4)cc2)cc(-c2ccc(S(C)(=O)=O)cc2)n1-c1ccc(F)cc1
REMARK SMILES IDX 18 1 17 2 16 3 15 4 14 5 12 6 13 7 8 8 7 9 5 10 6 11 4 13
REMARK SMILES IDX 3 14 1 15 2 16 104 17 92 18 93 19 105 20 106 21 111 22
REMARK SMILES IDX 107 23 110 24 108 25 109 26 94 27 95 28 103 29 96 30 102 31
REMARK SMILES IDX 97 32 98 33 99 34 100 35 101 36 9 37 10 38 11 39 19 41 20 42
REMARK SMILES IDX 21 43 22 44 23 45 24 46 25 47 26 48 27 49 28 50 29 51 30 52
REMARK SMILES IDX 91 53 31 54 90 55 32 56 33 57 34 58 84 59 35 60 89 61 83 62
REMARK SMILES IDX 85 63 36 64 88 65 82 66 81 67 37 69 69 70 49 71 68 72 50 73
REMARK SMILES IDX 53 74 67 75 86 76 51 77 52 78 66 80 87 81 54 82 38 83 39 84
REMARK SMILES IDX 47 85 40 86 41 87 45 88 48 89 42 90 43 91 46 92 44 93 70 94
REMARK SMILES IDX 71 95 79 96 72 97 73 98 77 99 80 100 74 101 75 102 78 103
REMARK SMILES IDX 76 104 55 105 56 106 64 107 57 108 58 109 62 110 65 111
REMARK SMILES IDX 59 112 60 113 63 114 61 115
REMARK H PARENT 7 12 11 40 85 68 53 79
REMARK Flexibility Score: inf
ROOT
ATOM      1  C   UNL A   1      50.447  27.370  30.824  1.00  0.00     0.188 C 
ENDROOT
BRANCH   1   2
ATOM      2  O   UNL A   1      49.690  27.838  29.718  1.00  0.00    -0.376 OA
BRANCH   2   3
ATOM      3  C   UNL A   1      49.755  29.206  29.346  1.00  0.00     0.202 C 
BRANCH   3   4
ATOM      4  C   UNL A   1      48.620  29.814  28.500  1.00  0.00     0.261 C 
BRANCH   4   5
ATOM      5  O   UNL A   1      48.528  31.254  28.505  1.00  0.00    -0.462 OA
BRANCH   5   6
ATOM      6  C   UNL A   1      47.341  31.775  28.909  1.00  0.00     0.328 C 
ATOM      7  O   UNL A   1      46.579  31.234  29.703  1.00  0.00    -0.250 OA
BRANCH   6   8
ATOM      8  C   UNL A   1      46.978  33.097  28.195  1.00  0.00     0.194 C 
BRANCH   8   9
ATOM      9  N   UNL A   1      47.838  34.287  28.320  1.00  0.00    -0.342 N 
ATOM     10  C   UNL A   1      47.513  35.617  28.401  1.00  0.00     0.225 C 
ATOM     11  O   UNL A   1      48.439  36.423  28.532  1.00  0.00    -0.275 OA
ATOM     12  H   UNL A   1      48.804  34.098  28.350  1.00  0.00     0.164 HD
BRANCH  10  13
ATOM     13  C   UNL A   1      46.065  36.088  28.437  1.00  0.00     0.137 C 
BRANCH  13  14
ATOM     14  C   UNL A   1      45.937  37.547  28.722  1.00  0.00    -0.017 A 
ATOM     15  C   UNL A   1      46.494  38.549  26.405  1.00  0.00     0.065 C 
ATOM     16  C   UNL A   1      46.012  38.599  27.821  1.00  0.00     0.024 A 
ATOM     17  N   UNL A   1      45.643  39.761  28.491  1.00  0.00    -0.314 N 
ATOM     18  C   UNL A   1      45.696  38.111  29.998  1.00  0.00     0.033 A 
ATOM     19  C   UNL A   1      45.433  39.456  29.835  1.00  0.00     0.053 A 
BRANCH  17  20
ATOM     20  C   UNL A   1      45.487  41.045  27.911  1.00  0.00     0.046 A 
ATOM     21  C   UNL A   1      44.481  41.254  26.961  1.00  0.00     0.029 A 
ATOM     22  C   UNL A   1      46.372  42.077  28.257  1.00  0.00     0.029 A 
ATOM     23  C   UNL A   1      44.343  42.509  26.373  1.00  0.00     0.041 A 
ATOM     24  C   UNL A   1      46.232  43.327  27.655  1.00  0.00     0.041 A 
ATOM     25  C   UNL A   1      45.219  43.532  26.725  1.00  0.00     0.123 A 
ATOM     26  F   UNL A   1      45.086  44.735  26.152  1.00  0.00    -0.207 F 
ENDBRANCH  17  20
BRANCH  19  27
ATOM     27  C   UNL A   1      44.887  40.364  30.849  1.00  0.00    -0.001 A 
ATOM     28  C   UNL A   1      43.615  40.938  30.695  1.00  0.00     0.011 A 
ATOM     29  C   UNL A   1      45.615  40.619  32.018  1.00  0.00     0.011 A 
ATOM     30  C   UNL A   1      43.095  41.787  31.674  1.00  0.00     0.021 A 
ATOM     31  C   UNL A   1      45.103  41.469  33.000  1.00  0.00     0.021 A 
ATOM     32  C   UNL A   1      43.851  42.059  32.816  1.00  0.00     0.067 A 
BRANCH  32  33
ATOM     33  S   UNL A   1      43.191  43.134  34.067  1.00  0.00     0.175 S 
ATOM     34  C   UNL A   1      42.543  44.510  33.154  1.00  0.00     0.163 C 
ATOM     35  O   UNL A   1      42.071  42.429  34.680  1.00  0.00    -0.224 OA
ATOM     36  O   UNL A   1      44.294  43.617  34.863  1.00  0.00    -0.224 OA
ENDBRANCH  32  33
ENDBRANCH  19  27
ENDBRANCH  13  14
ENDBRANCH  10  13
ENDBRANCH   8   9
BRANCH   8  37
ATOM     37  C   UNL A   1      46.732  32.810  26.708  1.00  0.00     0.065 C 
BRANCH  37  38
ATOM     38  C   UNL A   1      45.452  32.023  26.425  1.00  0.00     0.159 C 
BRANCH  38  39
ATOM     39  O   UNL A   1      44.959  32.263  25.117  1.00  0.00    -0.396 OA
ATOM     40  H   UNL A   1      45.704  32.398  24.511  1.00  0.00     0.210 HD
ENDBRANCH  38  39
ENDBRANCH  37  38
ENDBRANCH   8  37
ENDBRANCH   6   8
ENDBRANCH   5   6
ENDBRANCH   4   5
ENDBRANCH   3   4
ENDBRANCH   2   3
ENDBRANCH   1   2
BRANCH   1  41
ATOM     41  C   UNL A   1      50.293  27.988  32.225  1.00  0.00     0.188 C 
BRANCH  41  42
ATOM     42  O   UNL A   1      51.348  28.803  32.687  1.00  0.00    -0.377 OA
BRANCH  42  43
ATOM     43  C   UNL A   1      51.040  29.872  33.568  1.00  0.00     0.188 C 
BRANCH  43  44
ATOM     44  C   UNL A   1      51.305  31.285  33.060  1.00  0.00     0.188 C 
BRANCH  44  45
ATOM     45  O   UNL A   1      50.835  31.572  31.766  1.00  0.00    -0.376 OA
BRANCH  45  46
ATOM     46  C   UNL A   1      49.956  32.640  31.472  1.00  0.00     0.202 C 
BRANCH  46  47
ATOM     47  C   UNL A   1      49.689  33.985  32.233  1.00  0.00     0.261 C 
BRANCH  47  48
ATOM     48  O   UNL A   1      48.669  34.278  33.252  1.00  0.00    -0.460 OA
BRANCH  48  49
ATOM     49  C   UNL A   1      47.938  35.438  33.027  1.00  0.00     0.338 C 
ATOM     50  O   UNL A   1      48.368  36.539  33.354  1.00  0.00    -0.246 OA
BRANCH  49  51
ATOM     51  C   UNL A   1      46.516  35.341  32.397  1.00  0.00     0.060 A 
ATOM     52  C   UNL A   1      45.432  36.035  32.929  1.00  0.00     0.016 A 
ATOM     53  C   UNL A   1      46.125  34.291  31.530  1.00  0.00     0.016 A 
ATOM     54  C   UNL A   1      44.050  35.736  32.549  1.00  0.00     0.010 A 
ATOM     55  C   UNL A   1      44.714  33.959  31.180  1.00  0.00     0.010 A 
ATOM     56  C   UNL A   1      43.599  34.677  31.667  1.00  0.00    -0.014 A 
BRANCH  56  57
ATOM     57  C   UNL A   1      42.015  34.145  31.816  1.00  0.00     0.031 A 
ATOM     58  C   UNL A   1      42.127  33.296  33.039  1.00  0.00     0.074 A 
ATOM     59  C   UNL A   1      40.725  34.110  31.224  1.00  0.00     0.049 A 
ATOM     60  N   UNL A   1      42.981  32.308  33.071  1.00  0.00    -0.248 NA
ATOM     61  C   UNL A   1      41.629  33.721  34.347  1.00  0.00     0.031 C 
ATOM     62  C   UNL A   1      40.296  34.677  29.928  1.00  0.00     0.029 A 
ATOM     63  N   UNL A   1      39.441  33.549  31.636  1.00  0.00    -0.354 N 
ATOM     64  C   UNL A   1      42.913  31.790  34.341  1.00  0.00     0.074 A 
ATOM     65  C   UNL A   1      42.255  32.829  35.123  1.00  0.00     0.031 C 
ATOM     66  C   UNL A   1      38.943  34.584  29.726  1.00  0.00     0.029 A 
ATOM     67  C   UNL A   1      38.269  33.880  30.821  1.00  0.00     0.049 A 
ATOM     68  H   UNL A   1      39.365  32.972  32.430  1.00  0.00     0.167 HD
ATOM     69  C   UNL A   1      42.704  30.443  34.397  1.00  0.00     0.037 A 
ATOM     70  C   UNL A   1      36.897  33.567  30.942  1.00  0.00     0.037 A 
ATOM     71  C   UNL A   1      41.318  30.126  34.604  1.00  0.00     0.049 A 
ATOM     72  C   UNL A   1      36.825  32.353  31.757  1.00  0.00     0.074 A 
ATOM     73  C   UNL A   1      40.374  30.633  35.474  1.00  0.00     0.029 A 
ATOM     74  N   UNL A   1      40.630  29.548  33.560  1.00  0.00    -0.354 N 
ATOM     75  N   UNL A   1      37.054  31.182  31.247  1.00  0.00    -0.248 NA
ATOM     76  C   UNL A   1      36.356  32.357  33.139  1.00  0.00     0.031 C 
ATOM     77  C   UNL A   1      39.235  30.830  34.671  1.00  0.00     0.029 A 
ATOM     78  C   UNL A   1      39.353  30.054  33.525  1.00  0.00     0.049 A 
ATOM     79  H   UNL A   1      40.995  28.876  32.940  1.00  0.00     0.167 HD
ATOM     80  C   UNL A   1      37.325  30.437  32.347  1.00  0.00     0.074 A 
ATOM     81  C   UNL A   1      36.612  31.082  33.435  1.00  0.00     0.031 C 
ATOM     82  C   UNL A   1      38.552  29.865  32.346  1.00  0.00     0.037 A 
BRANCH  69  83
ATOM     83  C   UNL A   1      43.631  29.664  33.514  1.00  0.00     0.064 A 
ATOM     84  C   UNL A   1      44.805  29.146  34.068  1.00  0.00     0.173 A 
ATOM     85  C   UNL A   1      43.469  29.561  32.118  1.00  0.00     0.173 A 
ATOM     86  F   UNL A   1      44.987  29.168  35.398  1.00  0.00    -0.203 F 
ATOM     87  C   UNL A   1      45.802  28.610  33.256  1.00  0.00     0.198 A 
ATOM     88  C   UNL A   1      44.490  29.084  31.306  1.00  0.00     0.198 A 
ATOM     89  F   UNL A   1      42.313  29.920  31.534  1.00  0.00    -0.203 F 
ATOM     90  F   UNL A   1      46.911  28.100  33.811  1.00  0.00    -0.200 F 
ATOM     91  C   UNL A   1      45.660  28.613  31.875  1.00  0.00     0.200 A 
ATOM     92  F   UNL A   1      44.338  29.084  29.974  1.00  0.00    -0.200 F 
ATOM     93  F   UNL A   1      46.643  28.145  31.095  1.00  0.00    -0.200 F 
ENDBRANCH  69  83
BRANCH  70  94
ATOM     94  C   UNL A   1      35.420  33.854  30.435  1.00  0.00     0.064 A 
ATOM     95  C   UNL A   1      34.547  34.788  31.121  1.00  0.00     0.173 A 
ATOM     96  C   UNL A   1      34.997  33.601  29.121  1.00  0.00     0.173 A 
ATOM     97  F   UNL A   1      34.742  35.119  32.405  1.00  0.00    -0.203 F 
ATOM     98  C   UNL A   1      33.479  35.484  30.517  1.00  0.00     0.198 A 
ATOM     99  C   UNL A   1      33.890  34.277  28.525  1.00  0.00     0.198 A 
ATOM    100  F   UNL A   1      35.696  32.759  28.350  1.00  0.00    -0.203 F 
ATOM    101  F   UNL A   1      32.815  36.434  31.198  1.00  0.00    -0.200 F 
ATOM    102  C   UNL A   1      33.162  35.242  29.205  1.00  0.00     0.200 A 
ATOM    103  F   UNL A   1      33.571  34.034  27.245  1.00  0.00    -0.200 F 
ATOM    104  F   UNL A   1      32.194  35.947  28.599  1.00  0.00    -0.200 F 
ENDBRANCH  70  94
BRANCH  82 105
ATOM    105  C   UNL A   1      38.997  29.229  31.042  1.00  0.00     0.064 A 
ATOM    106  C   UNL A   1      39.467  29.896  29.883  1.00  0.00     0.173 A 
ATOM    107  C   UNL A   1      38.832  27.843  30.926  1.00  0.00     0.173 A 
ATOM    108  F   UNL A   1      39.774  31.200  29.885  1.00  0.00    -0.203 F 
ATOM    109  C   UNL A   1      39.658  29.223  28.672  1.00  0.00     0.198 A 
ATOM    110  C   UNL A   1      39.077  27.165  29.733  1.00  0.00     0.198 A 
ATOM    111  F   UNL A   1      38.434  27.129  31.991  1.00  0.00    -0.203 F 
ATOM    112  F   UNL A   1      40.035  29.901  27.576  1.00  0.00    -0.200 F 
ATOM    113  C   UNL A   1      39.464  27.857  28.599  1.00  0.00     0.200 A 
ATOM    114  F   UNL A   1      38.933  25.835  29.688  1.00  0.00    -0.200 F 
ATOM    115  F   UNL A   1      39.665  27.206  27.445  1.00  0.00    -0.200 F 
ENDBRANCH  82 105
ENDBRANCH  56  57
ENDBRANCH  49  51
ENDBRANCH  48  49
ENDBRANCH  47  48
ENDBRANCH  46  47
ENDBRANCH  45  46
ENDBRANCH  44  45
ENDBRANCH  43  44
ENDBRANCH  42  43
ENDBRANCH  41  42
ENDBRANCH   1  41
TORSDOF 29
ENDMDL
MODEL 2
REMARK VINA RESULT:      -6.1      9.542     15.430
REMARK SMILES Cc1c(CC(=O)N[C@@H](CCO)C(=O)OCCOCCOCCOCCOC(=O)c2ccc(-c3c4nc(c(-c5c(F)c(F)c(F)c(F)c5F)c5ccc([nH]5)c(-c5c(F)c(F)c(F)c(F)c5F)c5nc(c(-c6c(F)c(F)c(F)c(F)c6F)c6ccc3[nH]6)C=C5)C=C4)cc2)cc(-c2ccc(S(C)(=O)=O)cc2)n1-c1ccc(F)cc1
REMARK SMILES IDX 18 1 17 2 16 3 15 4 14 5 12 6 13 7 8 8 7 9 5 10 6 11 4 13
REMARK SMILES IDX 3 14 1 15 2 16 104 17 92 18 93 19 105 20 106 21 111 22
REMARK SMILES IDX 107 23 110 24 108 25 109 26 94 27 95 28 103 29 96 30 102 31
REMARK SMILES IDX 97 32 98 33 99 34 100 35 101 36 9 37 10 38 11 39 19 41 20 42
REMARK SMILES IDX 21 43 22 44 23 45 24 46 25 47 26 48 27 49 28 50 29 51 30 52
REMARK SMILES IDX 91 53 31 54 90 55 32 56 33 57 34 58 84 59 35 60 89 61 83 62
REMARK SMILES IDX 85 63 36 64 88 65 82 66 81 67 37 69 69 70 49 71 68 72 50 73
REMARK SMILES IDX 53 74 67 75 86 76 51 77 52 78 66 80 87 81 54 82 38 83 39 84
REMARK SMILES IDX 47 85 40 86 41 87 45 88 48 89 42 90 43 91 46 92 44 93 70 94
REMARK SMILES IDX 71 95 79 96 72 97 73 98 77 99 80 100 74 101 75 102 78 103
REMARK SMILES IDX 76 104 55 105 56 106 64 107 57 108 58 109 62 110 65 111
REMARK SMILES IDX 59 112 60 113 63 114 61 115
REMARK H PARENT 7 12 11 40 85 68 53 79
REMARK Flexibility Score: inf
ROOT
ATOM      1  C   UNL A   1      40.051  27.975  28.902  1.00  0.00     0.188 C 
ENDROOT
BRANCH   1   2
ATOM      2  O   UNL A   1      39.302  26.836  28.501  1.00  0.00    -0.376 OA
BRANCH   2   3
ATOM      3  C   UNL A   1      39.586  26.204  27.264  1.00  0.00     0.202 C 
BRANCH   3   4
ATOM      4  C   UNL A   1      40.942  25.500  27.069  1.00  0.00     0.261 C 
BRANCH   4   5
ATOM      5  O   UNL A   1      40.892  24.171  26.507  1.00  0.00    -0.462 OA
BRANCH   5   6
ATOM      6  C   UNL A   1      41.180  23.152  27.357  1.00  0.00     0.328 C 
ATOM      7  O   UNL A   1      42.142  23.131  28.117  1.00  0.00    -0.250 OA
BRANCH   6   8
ATOM      8  C   UNL A   1      40.220  21.949  27.216  1.00  0.00     0.194 C 
BRANCH   8   9
ATOM      9  N   UNL A   1      39.422  21.754  25.992  1.00  0.00    -0.342 N 
ATOM     10  C   UNL A   1      38.236  22.322  25.603  1.00  0.00     0.225 C 
ATOM     11  O   UNL A   1      37.789  22.003  24.496  1.00  0.00    -0.275 OA
ATOM     12  H   UNL A   1      39.802  21.113  25.349  1.00  0.00     0.164 HD
BRANCH  10  13
ATOM     13  C   UNL A   1      37.540  23.384  26.443  1.00  0.00     0.137 C 
BRANCH  13  14
ATOM     14  C   UNL A   1      36.123  23.610  26.034  1.00  0.00    -0.017 A 
ATOM     15  C   UNL A   1      35.008  21.453  26.921  1.00  0.00     0.065 C 
ATOM     16  C   UNL A   1      35.016  22.832  26.339  1.00  0.00     0.024 A 
ATOM     17  N   UNL A   1      33.882  23.521  25.919  1.00  0.00    -0.314 N 
ATOM     18  C   UNL A   1      35.663  24.700  25.256  1.00  0.00     0.033 A 
ATOM     19  C   UNL A   1      34.283  24.684  25.262  1.00  0.00     0.053 A 
BRANCH  17  20
ATOM     20  C   UNL A   1      32.539  23.124  26.131  1.00  0.00     0.046 A 
ATOM     21  C   UNL A   1      31.848  23.605  27.250  1.00  0.00     0.029 A 
ATOM     22  C   UNL A   1      31.933  22.217  25.249  1.00  0.00     0.029 A 
ATOM     23  C   UNL A   1      30.535  23.196  27.472  1.00  0.00     0.041 A 
ATOM     24  C   UNL A   1      30.622  21.806  25.486  1.00  0.00     0.041 A 
ATOM     25  C   UNL A   1      29.936  22.302  26.589  1.00  0.00     0.123 A 
ATOM     26  F   UNL A   1      28.676  21.907  26.812  1.00  0.00    -0.207 F 
ENDBRANCH  17  20
BRANCH  19  27
ATOM     27  C   UNL A   1      33.399  25.761  24.803  1.00  0.00    -0.001 A 
ATOM     28  C   UNL A   1      33.059  26.827  25.650  1.00  0.00     0.011 A 
ATOM     29  C   UNL A   1      32.933  25.761  23.482  1.00  0.00     0.011 A 
ATOM     30  C   UNL A   1      32.231  27.857  25.198  1.00  0.00     0.021 A 
ATOM     31  C   UNL A   1      32.103  26.786  23.024  1.00  0.00     0.021 A 
ATOM     32  C   UNL A   1      31.745  27.821  23.890  1.00  0.00     0.067 A 
BRANCH  32  33
ATOM     33  S   UNL A   1      30.697  29.133  23.309  1.00  0.00     0.175 S 
ATOM     34  C   UNL A   1      29.105  28.369  23.140  1.00  0.00     0.163 C 
ATOM     35  O   UNL A   1      30.616  30.115  24.384  1.00  0.00    -0.224 OA
ATOM     36  O   UNL A   1      31.145  29.508  21.989  1.00  0.00    -0.224 OA
ENDBRANCH  32  33
ENDBRANCH  19  27
ENDBRANCH  13  14
ENDBRANCH  10  13
ENDBRANCH   8   9
BRANCH   8  37
ATOM     37  C   UNL A   1      40.989  20.657  27.523  1.00  0.00     0.065 C 
BRANCH  37  38
ATOM     38  C   UNL A   1      42.044  20.293  26.477  1.00  0.00     0.159 C 
BRANCH  38  39
ATOM     39  O   UNL A   1      41.479  19.618  25.366  1.00  0.00    -0.396 OA
ATOM     40  H   UNL A   1      41.235  20.266  24.685  1.00  0.00     0.210 HD
ENDBRANCH  38  39
ENDBRANCH  37  38
ENDBRANCH   8  37
ENDBRANCH   6   8
ENDBRANCH   5   6
ENDBRANCH   4   5
ENDBRANCH   3   4
ENDBRANCH   2   3
ENDBRANCH   1   2
BRANCH   1  41
ATOM     41  C   UNL A   1      40.381  29.109  27.916  1.00  0.00     0.188 C 
BRANCH  41  42
ATOM     42  O   UNL A   1      40.196  28.842  26.544  1.00  0.00    -0.377 OA
BRANCH  42  43
ATOM     43  C   UNL A   1      41.314  28.952  25.677  1.00  0.00     0.188 C 
BRANCH  43  44
ATOM     44  C   UNL A   1      42.667  29.223  26.325  1.00  0.00     0.188 C 
BRANCH  44  45
ATOM     45  O   UNL A   1      43.271  28.128  26.969  1.00  0.00    -0.376 OA
BRANCH  45  46
ATOM     46  C   UNL A   1      44.457  27.508  26.511  1.00  0.00     0.202 C 
BRANCH  46  47
ATOM     47  C   UNL A   1      45.389  26.449  27.196  1.00  0.00     0.261 C 
BRANCH  47  48
ATOM     48  O   UNL A   1      45.012  25.234  27.934  1.00  0.00    -0.460 OA
BRANCH  48  49
ATOM     49  C   UNL A   1      44.516  25.459  29.213  1.00  0.00     0.338 C 
ATOM     50  O   UNL A   1      43.367  25.849  29.393  1.00  0.00    -0.246 OA
BRANCH  49  51
ATOM     51  C   UNL A   1      45.450  25.268  30.444  1.00  0.00     0.060 A 
ATOM     52  C   UNL A   1      44.982  24.728  31.640  1.00  0.00     0.016 A 
ATOM     53  C   UNL A   1      46.681  25.953  30.595  1.00  0.00     0.016 A 
ATOM     54  C   UNL A   1      45.745  24.811  32.887  1.00  0.00     0.010 A 
ATOM     55  C   UNL A   1      47.434  26.075  31.877  1.00  0.00     0.010 A 
ATOM     56  C   UNL A   1      47.006  25.497  33.092  1.00  0.00    -0.014 A 
BRANCH  56  57
ATOM     57  C   UNL A   1      47.408  25.961  34.653  1.00  0.00     0.031 A 
ATOM     58  C   UNL A   1      48.897  25.881  34.586  1.00  0.00     0.074 A 
ATOM     59  C   UNL A   1      46.920  26.283  35.947  1.00  0.00     0.049 A 
ATOM     60  N   UNL A   1      49.474  24.760  34.243  1.00  0.00    -0.248 NA
ATOM     61  C   UNL A   1      49.751  27.065  34.500  1.00  0.00     0.031 C 
ATOM     62  C   UNL A   1      45.522  26.280  36.426  1.00  0.00     0.029 A 
ATOM     63  N   UNL A   1      47.561  26.706  37.190  1.00  0.00    -0.354 N 
ATOM     64  C   UNL A   1      50.819  25.031  34.183  1.00  0.00     0.074 A 
ATOM     65  C   UNL A   1      50.895  26.485  34.120  1.00  0.00     0.031 C 
ATOM     66  C   UNL A   1      45.392  26.780  37.697  1.00  0.00     0.029 A 
ATOM     67  C   UNL A   1      46.687  27.128  38.288  1.00  0.00     0.049 A 
ATOM     68  H   UNL A   1      48.541  26.708  37.286  1.00  0.00     0.167 HD
ATOM     69  C   UNL A   1      51.604  24.183  34.909  1.00  0.00     0.037 A 
ATOM     70  C   UNL A   1      46.947  27.633  39.581  1.00  0.00     0.037 A 
ATOM     71  C   UNL A   1      51.939  24.734  36.193  1.00  0.00     0.049 A 
ATOM     72  C   UNL A   1      48.295  27.181  39.934  1.00  0.00     0.074 A 
ATOM     73  C   UNL A   1      52.378  25.985  36.576  1.00  0.00     0.029 A 
ATOM     74  N   UNL A   1      51.378  24.149  37.307  1.00  0.00    -0.354 N 
ATOM     75  N   UNL A   1      48.514  25.973  40.353  1.00  0.00    -0.248 NA
ATOM     76  C   UNL A   1      49.442  28.082  39.976  1.00  0.00     0.031 C 
ATOM     77  C   UNL A   1      51.589  26.299  37.699  1.00  0.00     0.029 A 
ATOM     78  C   UNL A   1      51.058  25.126  38.219  1.00  0.00     0.049 A 
ATOM     79  H   UNL A   1      51.232  23.183  37.431  1.00  0.00     0.167 HD
ATOM     80  C   UNL A   1      49.845  25.831  40.137  1.00  0.00     0.074 A 
ATOM     81  C   UNL A   1      50.393  27.174  40.204  1.00  0.00     0.031 C 
ATOM     82  C   UNL A   1      50.170  24.813  39.305  1.00  0.00     0.037 A 
BRANCH  69  83
ATOM     83  C   UNL A   1      51.304  22.737  34.657  1.00  0.00     0.064 A 
ATOM     84  C   UNL A   1      50.194  22.165  35.284  1.00  0.00     0.173 A 
ATOM     85  C   UNL A   1      52.169  21.877  33.950  1.00  0.00     0.173 A 
ATOM     86  F   UNL A   1      49.308  22.943  35.923  1.00  0.00    -0.203 F 
ATOM     87  C   UNL A   1      49.993  20.786  35.263  1.00  0.00     0.198 A 
ATOM     88  C   UNL A   1      52.001  20.498  33.984  1.00  0.00     0.198 A 
ATOM     89  F   UNL A   1      53.181  22.373  33.218  1.00  0.00    -0.203 F 
ATOM     90  F   UNL A   1      48.911  20.261  35.854  1.00  0.00    -0.200 F 
ATOM     91  C   UNL A   1      50.916  19.952  34.646  1.00  0.00     0.200 A 
ATOM     92  F   UNL A   1      52.894  19.703  33.377  1.00  0.00    -0.200 F 
ATOM     93  F   UNL A   1      50.748  18.623  34.674  1.00  0.00    -0.200 F 
ENDBRANCH  69  83
BRANCH  70  94
ATOM     94  C   UNL A   1      46.352  28.322  40.882  1.00  0.00     0.064 A 
ATOM     95  C   UNL A   1      46.407  29.759  41.076  1.00  0.00     0.173 A 
ATOM     96  C   UNL A   1      45.388  27.714  41.699  1.00  0.00     0.173 A 
ATOM     97  F   UNL A   1      47.301  30.522  40.432  1.00  0.00    -0.203 F 
ATOM     98  C   UNL A   1      45.510  30.498  41.876  1.00  0.00     0.198 A 
ATOM     99  C   UNL A   1      44.509  28.460  42.541  1.00  0.00     0.198 A 
ATOM    100  F   UNL A   1      45.211  26.388  41.642  1.00  0.00    -0.203 F 
ATOM    101  F   UNL A   1      45.554  31.842  41.883  1.00  0.00    -0.200 F 
ATOM    102  C   UNL A   1      44.543  29.846  42.597  1.00  0.00     0.200 A 
ATOM    103  F   UNL A   1      43.568  27.824  43.255  1.00  0.00    -0.200 F 
ATOM    104  F   UNL A   1      43.640  30.541  43.307  1.00  0.00    -0.200 F 
ENDBRANCH  70  94
BRANCH  82 105
ATOM    105  C   UNL A   1      49.434  23.504  39.524  1.00  0.00     0.064 A 
ATOM    106  C   UNL A   1      49.824  22.435  40.370  1.00  0.00     0.173 A 
ATOM    107  C   UNL A   1      48.304  23.275  38.730  1.00  0.00     0.173 A 
ATOM    108  F   UNL A   1      50.819  22.556  41.260  1.00  0.00    -0.203 F 
ATOM    109  C   UNL A   1      49.176  21.197  40.340  1.00  0.00     0.198 A 
ATOM    110  C   UNL A   1      47.624  22.058  38.743  1.00  0.00     0.198 A 
ATOM    111  F   UNL A   1      47.840  24.251  37.934  1.00  0.00    -0.203 F 
ATOM    112  F   UNL A   1      49.619  20.185  41.103  1.00  0.00    -0.200 F 
ATOM    113  C   UNL A   1      48.075  21.010  39.526  1.00  0.00     0.200 A 
ATOM    114  F   UNL A   1      46.529  21.904  37.987  1.00  0.00    -0.200 F 
ATOM    115  F   UNL A   1      47.439  19.830  39.508  1.00  0.00    -0.200 F 
ENDBRANCH  82 105
ENDBRANCH  56  57
ENDBRANCH  49  51
ENDBRANCH  48  49
ENDBRANCH  47  48
ENDBRANCH  46  47
ENDBRANCH  45  46
ENDBRANCH  44  45
ENDBRANCH  43  44
ENDBRANCH  42  43
ENDBRANCH  41  42
ENDBRANCH   1  41
TORSDOF 29
ENDMDL
MODEL 3
REMARK VINA RESULT:      -6.1      1.863      2.561
REMARK SMILES Cc1c(CC(=O)N[C@@H](CCO)C(=O)OCCOCCOCCOCCOC(=O)c2ccc(-c3c4nc(c(-c5c(F)c(F)c(F)c(F)c5F)c5ccc([nH]5)c(-c5c(F)c(F)c(F)c(F)c5F)c5nc(c(-c6c(F)c(F)c(F)c(F)c6F)c6ccc3[nH]6)C=C5)C=C4)cc2)cc(-c2ccc(S(C)(=O)=O)cc2)n1-c1ccc(F)cc1
REMARK SMILES IDX 18 1 17 2 16 3 15 4 14 5 12 6 13 7 8 8 7 9 5 10 6 11 4 13
REMARK SMILES IDX 3 14 1 15 2 16 104 17 92 18 93 19 105 20 106 21 111 22
REMARK SMILES IDX 107 23 110 24 108 25 109 26 94 27 95 28 103 29 96 30 102 31
REMARK SMILES IDX 97 32 98 33 99 34 100 35 101 36 9 37 10 38 11 39 19 41 20 42
REMARK SMILES IDX 21 43 22 44 23 45 24 46 25 47 26 48 27 49 28 50 29 51 30 52
REMARK SMILES IDX 91 53 31 54 90 55 32 56 33 57 34 58 84 59 35 60 89 61 83 62
REMARK SMILES IDX 85 63 36 64 88 65 82 66 81 67 37 69 69 70 49 71 68 72 50 73
REMARK SMILES IDX 53 74 67 75 86 76 51 77 52 78 66 80 87 81 54 82 38 83 39 84
REMARK SMILES IDX 47 85 40 86 41 87 45 88 48 89 42 90 43 91 46 92 44 93 70 94
REMARK SMILES IDX 71 95 79 96 72 97 73 98 77 99 80 100 74 101 75 102 78 103
REMARK SMILES IDX 76 104 55 105 56 106 64 107 57 108 58 109 62 110 65 111
REMARK SMILES IDX 59 112 60 113 63 114 61 115
REMARK H PARENT 7 12 11 40 85 68 53 79
REMARK Flexibility Score: inf
ROOT
ATOM      1  C   UNL A   1      49.431  27.426  30.290  1.00  0.00     0.188 C 
ENDROOT
BRANCH   1   2
ATOM      2  O   UNL A   1      48.447  27.983  29.430  1.00  0.00    -0.376 OA
BRANCH   2   3
ATOM      3  C   UNL A   1      47.978  29.302  29.655  1.00  0.00     0.202 C 
BRANCH   3   4
ATOM      4  C   UNL A   1      46.751  29.811  28.874  1.00  0.00     0.261 C 
BRANCH   4   5
ATOM      5  O   UNL A   1      46.300  31.143  29.199  1.00  0.00    -0.462 OA
BRANCH   5   6
ATOM      6  C   UNL A   1      45.012  31.431  28.882  1.00  0.00     0.328 C 
ATOM      7  O   UNL A   1      44.109  30.603  28.822  1.00  0.00    -0.250 OA
BRANCH   6   8
ATOM      8  C   UNL A   1      44.793  32.912  28.501  1.00  0.00     0.194 C 
BRANCH   8   9
ATOM      9  N   UNL A   1      45.911  33.873  28.516  1.00  0.00    -0.342 N 
ATOM     10  C   UNL A   1      45.910  35.239  28.634  1.00  0.00     0.225 C 
ATOM     11  O   UNL A   1      47.005  35.810  28.649  1.00  0.00    -0.275 OA
ATOM     12  H   UNL A   1      46.804  33.468  28.427  1.00  0.00     0.164 HD
BRANCH  10  13
ATOM     13  C   UNL A   1      44.624  36.026  28.848  1.00  0.00     0.137 C 
BRANCH  13  14
ATOM     14  C   UNL A   1      44.807  37.203  29.746  1.00  0.00    -0.017 A 
ATOM     15  C   UNL A   1      43.431  38.995  28.491  1.00  0.00     0.065 C 
ATOM     16  C   UNL A   1      44.202  38.447  29.650  1.00  0.00     0.024 A 
ATOM     17  N   UNL A   1      44.514  39.163  30.802  1.00  0.00    -0.314 N 
ATOM     18  C   UNL A   1      45.645  37.236  30.888  1.00  0.00     0.033 A 
ATOM     19  C   UNL A   1      45.395  38.406  31.575  1.00  0.00     0.053 A 
BRANCH  17  20
ATOM     20  C   UNL A   1      44.013  40.442  31.151  1.00  0.00     0.046 A 
ATOM     21  C   UNL A   1      42.762  40.545  31.772  1.00  0.00     0.029 A 
ATOM     22  C   UNL A   1      44.750  41.590  30.828  1.00  0.00     0.029 A 
ATOM     23  C   UNL A   1      42.260  41.804  32.094  1.00  0.00     0.041 A 
ATOM     24  C   UNL A   1      44.234  42.845  31.145  1.00  0.00     0.041 A 
ATOM     25  C   UNL A   1      42.999  42.940  31.777  1.00  0.00     0.123 A 
ATOM     26  F   UNL A   1      42.507  44.148  32.082  1.00  0.00    -0.207 F 
ENDBRANCH  17  20
BRANCH  19  27
ATOM     27  C   UNL A   1      45.846  38.731  32.932  1.00  0.00    -0.001 A 
ATOM     28  C   UNL A   1      44.982  38.601  34.031  1.00  0.00     0.011 A 
ATOM     29  C   UNL A   1      47.174  39.119  33.148  1.00  0.00     0.011 A 
ATOM     30  C   UNL A   1      45.426  38.894  35.322  1.00  0.00     0.021 A 
ATOM     31  C   UNL A   1      47.624  39.417  34.436  1.00  0.00     0.021 A 
ATOM     32  C   UNL A   1      46.743  39.316  35.514  1.00  0.00     0.067 A 
BRANCH  32  33
ATOM     33  S   UNL A   1      47.313  39.686  37.155  1.00  0.00     0.175 S 
ATOM     34  C   UNL A   1      48.209  41.205  36.969  1.00  0.00     0.163 C 
ATOM     35  O   UNL A   1      46.128  39.955  37.963  1.00  0.00    -0.224 OA
ATOM     36  O   UNL A   1      48.258  38.664  37.537  1.00  0.00    -0.224 OA
ENDBRANCH  32  33
ENDBRANCH  19  27
ENDBRANCH  13  14
ENDBRANCH  10  13
ENDBRANCH   8   9
BRANCH   8  37
ATOM     37  C   UNL A   1      44.093  32.980  27.137  1.00  0.00     0.065 C 
BRANCH  37  38
ATOM     38  C   UNL A   1      44.882  32.337  25.996  1.00  0.00     0.159 C 
BRANCH  38  39
ATOM     39  O   UNL A   1      46.236  32.759  25.983  1.00  0.00    -0.396 OA
ATOM     40  H   UNL A   1      46.307  33.630  26.406  1.00  0.00     0.210 HD
ENDBRANCH  38  39
ENDBRANCH  37  38
ENDBRANCH   8  37
ENDBRANCH   6   8
ENDBRANCH   5   6
ENDBRANCH   4   5
ENDBRANCH   3   4
ENDBRANCH   2   3
ENDBRANCH   1   2
BRANCH   1  41
ATOM     41  C   UNL A   1      49.565  27.873  31.756  1.00  0.00     0.188 C 
BRANCH  41  42
ATOM     42  O   UNL A   1      50.859  28.194  32.214  1.00  0.00    -0.377 OA
BRANCH  42  43
ATOM     43  C   UNL A   1      50.988  29.125  33.278  1.00  0.00     0.188 C 
BRANCH  43  44
ATOM     44  C   UNL A   1      51.573  30.490  32.936  1.00  0.00     0.188 C 
BRANCH  44  45
ATOM     45  O   UNL A   1      51.077  31.097  31.768  1.00  0.00    -0.376 OA
BRANCH  45  46
ATOM     46  C   UNL A   1      50.272  32.260  31.772  1.00  0.00     0.202 C 
BRANCH  46  47
ATOM     47  C   UNL A   1      50.086  33.372  32.862  1.00  0.00     0.261 C 
BRANCH  47  48
ATOM     48  O   UNL A   1      49.175  33.384  34.016  1.00  0.00    -0.460 OA
BRANCH  48  49
ATOM     49  C   UNL A   1      48.385  34.523  34.123  1.00  0.00     0.338 C 
ATOM     50  O   UNL A   1      48.731  35.480  34.808  1.00  0.00    -0.246 OA
BRANCH  49  51
ATOM     51  C   UNL A   1      47.003  34.570  33.406  1.00  0.00     0.060 A 
ATOM     52  C   UNL A   1      45.888  35.153  34.004  1.00  0.00     0.016 A 
ATOM     53  C   UNL A   1      46.665  33.722  32.322  1.00  0.00     0.016 A 
ATOM     54  C   UNL A   1      44.531  34.952  33.492  1.00  0.00     0.010 A 
ATOM     55  C   UNL A   1      45.277  33.482  31.832  1.00  0.00     0.010 A 
ATOM     56  C   UNL A   1      44.135  34.098  32.389  1.00  0.00    -0.014 A 
BRANCH  56  57
ATOM     57  C   UNL A   1      42.545  33.564  32.336  1.00  0.00     0.031 A 
ATOM     58  C   UNL A   1      42.562  32.550  33.431  1.00  0.00     0.074 A 
ATOM     59  C   UNL A   1      41.307  33.623  31.644  1.00  0.00     0.049 A 
ATOM     60  N   UNL A   1      43.414  31.560  33.390  1.00  0.00    -0.248 NA
ATOM     61  C   UNL A   1      41.960  32.790  34.742  1.00  0.00     0.031 C 
ATOM     62  C   UNL A   1      40.981  34.372  30.412  1.00  0.00     0.029 A 
ATOM     63  N   UNL A   1      39.995  33.021  31.870  1.00  0.00    -0.354 N 
ATOM     64  C   UNL A   1      43.247  30.868  34.565  1.00  0.00     0.074 A 
ATOM     65  C   UNL A   1      42.525  31.792  35.431  1.00  0.00     0.031 C 
ATOM     66  C   UNL A   1      39.648  34.320  30.092  1.00  0.00     0.029 A 
ATOM     67  C   UNL A   1      38.891  33.473  31.019  1.00  0.00     0.049 A 
ATOM     68  H   UNL A   1      39.859  32.338  32.565  1.00  0.00     0.167 HD
ATOM     69  C   UNL A   1      43.038  29.528  34.412  1.00  0.00     0.037 A 
ATOM     70  C   UNL A   1      37.515  33.158  30.985  1.00  0.00     0.037 A 
ATOM     71  C   UNL A   1      41.641  29.198  34.463  1.00  0.00     0.049 A 
ATOM     72  C   UNL A   1      37.381  31.841  31.612  1.00  0.00     0.074 A 
ATOM     73  C   UNL A   1      40.629  29.584  35.318  1.00  0.00     0.029 A 
ATOM     74  N   UNL A   1      41.040  28.778  33.296  1.00  0.00    -0.354 N 
ATOM     75  N   UNL A   1      37.654  30.753  30.961  1.00  0.00    -0.248 NA
ATOM     76  C   UNL A   1      36.805  31.655  32.939  1.00  0.00     0.031 C 
ATOM     77  C   UNL A   1      39.557  29.902  34.463  1.00  0.00     0.029 A 
ATOM     78  C   UNL A   1      39.768  29.295  33.231  1.00  0.00     0.049 A 
ATOM     79  H   UNL A   1      41.455  28.198  32.617  1.00  0.00     0.167 HD
ATOM     80  C   UNL A   1      37.839  29.858  31.962  1.00  0.00     0.074 A 
ATOM     81  C   UNL A   1      37.040  30.348  33.071  1.00  0.00     0.031 C 
ATOM     82  C   UNL A   1      39.064  29.281  31.978  1.00  0.00     0.037 A 
BRANCH  69  83
ATOM     83  C   UNL A   1      44.035  28.875  33.505  1.00  0.00     0.064 A 
ATOM     84  C   UNL A   1      43.706  28.711  32.156  1.00  0.00     0.173 A 
ATOM     85  C   UNL A   1      45.221  28.268  33.965  1.00  0.00     0.173 A 
ATOM     86  F   UNL A   1      42.618  29.313  31.653  1.00  0.00    -0.203 F 
ATOM     87  C   UNL A   1      44.492  27.921  31.320  1.00  0.00     0.198 A 
ATOM     88  C   UNL A   1      45.967  27.430  33.146  1.00  0.00     0.198 A 
ATOM     89  F   UNL A   1      45.664  28.489  35.214  1.00  0.00    -0.203 F 
ATOM     90  F   UNL A   1      44.169  27.794  30.025  1.00  0.00    -0.200 F 
ATOM     91  C   UNL A   1      45.599  27.252  31.824  1.00  0.00     0.200 A 
ATOM     92  F   UNL A   1      47.040  26.796  33.640  1.00  0.00    -0.200 F 
ATOM     93  F   UNL A   1      46.322  26.450  31.030  1.00  0.00    -0.200 F 
ENDBRANCH  69  83
BRANCH  70  94
ATOM     94  C   UNL A   1      36.082  33.526  30.409  1.00  0.00     0.064 A 
ATOM     95  C   UNL A   1      35.078  34.183  31.225  1.00  0.00     0.173 A 
ATOM     96  C   UNL A   1      35.818  33.657  29.037  1.00  0.00     0.173 A 
ATOM     97  F   UNL A   1      35.114  34.127  32.564  1.00  0.00    -0.203 F 
ATOM     98  C   UNL A   1      34.032  34.985  30.724  1.00  0.00     0.198 A 
ATOM     99  C   UNL A   1      34.733  34.436  28.532  1.00  0.00     0.198 A 
ATOM    100  F   UNL A   1      36.651  33.106  28.146  1.00  0.00    -0.203 F 
ATOM    101  F   UNL A   1      33.234  35.666  31.565  1.00  0.00    -0.200 F 
ATOM    102  C   UNL A   1      33.871  35.129  29.370  1.00  0.00     0.200 A 
ATOM    103  F   UNL A   1      34.567  34.570  27.208  1.00  0.00    -0.200 F 
ATOM    104  F   UNL A   1      32.924  35.945  28.881  1.00  0.00    -0.200 F 
ENDBRANCH  70  94
BRANCH  82 105
ATOM    105  C   UNL A   1      39.614  28.832  30.636  1.00  0.00     0.064 A 
ATOM    106  C   UNL A   1      40.367  29.607  29.719  1.00  0.00     0.173 A 
ATOM    107  C   UNL A   1      39.255  27.549  30.205  1.00  0.00     0.173 A 
ATOM    108  F   UNL A   1      40.869  30.807  30.042  1.00  0.00    -0.203 F 
ATOM    109  C   UNL A   1      40.648  29.152  28.427  1.00  0.00     0.198 A 
ATOM    110  C   UNL A   1      39.585  27.076  28.935  1.00  0.00     0.198 A 
ATOM    111  F   UNL A   1      38.580  26.734  31.029  1.00  0.00    -0.203 F 
ATOM    112  F   UNL A   1      41.301  29.943  27.561  1.00  0.00    -0.200 F 
ATOM    113  C   UNL A   1      40.257  27.886  28.037  1.00  0.00     0.200 A 
ATOM    114  F   UNL A   1      39.244  25.829  28.586  1.00  0.00    -0.200 F 
ATOM    115  F   UNL A   1      40.541  27.439  26.806  1.00  0.00    -0.200 F 
ENDBRANCH  82 105
ENDBRANCH  56  57
ENDBRANCH  49  51
ENDBRANCH  48  49
ENDBRANCH  47  48
ENDBRANCH  46  47
ENDBRANCH  45  46
ENDBRANCH  44  45
ENDBRANCH  43  44
ENDBRANCH  42  43
ENDBRANCH  41  42
ENDBRANCH   1  41
TORSDOF 29
ENDMDL
