MODEL 1
REMARK VINA RESULT:      -9.5      0.000      0.000
REMARK SMILES C[C@H]([NH2+]CC1(O)CCCC1)[C@H](C)C(=O)OCCOCCOCCOCCOC(=O)c1ccc(-c2c3nc(c(-c4c(F)c(F)c(F)c(F)c4F)c4ccc([nH]4)c(-c4c(F)c(F)c(F)c(F)c4F)c4nc(c(-c5c(F)c(F)c(F)c(F)c5F)c5ccc2[nH]5)C=C4)C=C3)cc1
REMARK SMILES IDX 19 1 18 2 17 3 16 4 15 5 13 6 14 7 11 8 12 9 2 10 1 11 3 12
REMARK SMILES IDX 4 15 5 16 7 17 10 18 8 19 9 20 6 21 20 23 21 24 22 25 23 26
REMARK SMILES IDX 24 27 25 28 26 29 27 30 28 31 29 32 30 33 31 34 92 35 32 36
REMARK SMILES IDX 91 37 33 38 34 39 35 40 85 41 36 42 90 43 84 44 86 45 37 46
REMARK SMILES IDX 89 47 83 48 82 49 38 51 70 52 50 53 69 54 51 55 54 56 68 57
REMARK SMILES IDX 87 58 52 59 53 60 67 62 88 63 55 64 39 65 40 66 48 67 41 68
REMARK SMILES IDX 42 69 46 70 49 71 43 72 44 73 47 74 45 75 71 76 72 77 80 78
REMARK SMILES IDX 73 79 74 80 78 81 81 82 75 83 76 84 79 85 77 86 56 87 57 88
REMARK SMILES IDX 65 89 58 90 59 91 63 92 66 93 60 94 61 95 64 96 62 97
REMARK H PARENT 3 13 3 14 6 22 86 50 54 61
REMARK Flexibility Score: inf
ROOT
ATOM      1  C   UNL A   1      34.093  24.012  22.704  1.00  0.00     0.188 C 
ENDROOT
BRANCH   1   2
ATOM      2  O   UNL A   1      32.697  24.018  22.431  1.00  0.00    -0.376 OA
BRANCH   2   3
ATOM      3  C   UNL A   1      32.014  25.174  21.977  1.00  0.00     0.202 C 
BRANCH   3   4
ATOM      4  C   UNL A   1      31.461  26.202  22.974  1.00  0.00     0.261 C 
BRANCH   4   5
ATOM      5  O   UNL A   1      30.496  27.138  22.471  1.00  0.00    -0.463 OA
BRANCH   5   6
ATOM      6  C   UNL A   1      29.465  27.432  23.302  1.00  0.00     0.314 C 
ATOM      7  O   UNL A   1      29.169  26.768  24.290  1.00  0.00    -0.252 OA
BRANCH   6   8
ATOM      8  C   UNL A   1      28.652  28.644  22.856  1.00  0.00     0.154 C 
ATOM      9  C   UNL A   1      27.168  28.692  23.259  1.00  0.00     0.026 C 
BRANCH   8  10
ATOM     10  C   UNL A   1      29.390  29.924  23.294  1.00  0.00     0.193 C 
ATOM     11  C   UNL A   1      29.167  31.054  22.278  1.00  0.00     0.076 C 
BRANCH  10  12
ATOM     12  N   UNL A   1      30.779  29.686  23.707  1.00  0.00    -0.341 N 
ATOM     13  H   UNL A   1      31.387  30.165  23.044  1.00  0.00     0.346 HD
ATOM     14  H   UNL A   1      30.888  28.672  23.721  1.00  0.00     0.346 HD
BRANCH  12  15
ATOM     15  C   UNL A   1      31.141  30.136  25.053  1.00  0.00     0.296 C 
BRANCH  15  16
ATOM     16  C   UNL A   1      32.074  29.171  25.817  1.00  0.00     0.113 C 
ATOM     17  C   UNL A   1      32.584  29.833  27.099  1.00  0.00     0.041 C 
ATOM     18  C   UNL A   1      33.384  28.822  25.101  1.00  0.00     0.041 C 
ATOM     19  C   UNL A   1      33.753  28.958  27.526  1.00  0.00     0.003 C 
ATOM     20  C   UNL A   1      34.322  28.372  26.232  1.00  0.00     0.003 C 
BRANCH  16  21
ATOM     21  O   UNL A   1      31.359  27.979  26.164  1.00  0.00    -0.384 OA
ATOM     22  H   UNL A   1      31.089  28.025  27.095  1.00  0.00     0.211 HD
ENDBRANCH  16  21
ENDBRANCH  15  16
ENDBRANCH  12  15
ENDBRANCH  10  12
ENDBRANCH   8  10
ENDBRANCH   6   8
ENDBRANCH   5   6
ENDBRANCH   4   5
ENDBRANCH   3   4
ENDBRANCH   2   3
ENDBRANCH   1   2
BRANCH   1  23
ATOM     23  C   UNL A   1      34.808  22.795  23.318  1.00  0.00     0.188 C 
BRANCH  23  24
ATOM     24  O   UNL A   1      36.220  22.861  23.335  1.00  0.00    -0.377 OA
BRANCH  24  25
ATOM     25  C   UNL A   1      36.838  22.984  24.609  1.00  0.00     0.188 C 
BRANCH  25  26
ATOM     26  C   UNL A   1      36.458  21.950  25.686  1.00  0.00     0.188 C 
BRANCH  26  27
ATOM     27  O   UNL A   1      36.350  20.622  25.193  1.00  0.00    -0.376 OA
BRANCH  27  28
ATOM     28  C   UNL A   1      37.481  19.982  24.624  1.00  0.00     0.202 C 
BRANCH  28  29
ATOM     29  C   UNL A   1      38.710  19.721  25.515  1.00  0.00     0.261 C 
BRANCH  29  30
ATOM     30  O   UNL A   1      39.700  20.759  25.577  1.00  0.00    -0.460 OA
BRANCH  30  31
ATOM     31  C   UNL A   1      40.643  20.666  26.532  1.00  0.00     0.338 C 
ATOM     32  O   UNL A   1      41.401  19.727  26.730  1.00  0.00    -0.246 OA
BRANCH  31  33
ATOM     33  C   UNL A   1      40.767  21.978  27.200  1.00  0.00     0.060 A 
ATOM     34  C   UNL A   1      39.996  23.044  26.720  1.00  0.00     0.016 A 
ATOM     35  C   UNL A   1      41.661  22.172  28.256  1.00  0.00     0.016 A 
ATOM     36  C   UNL A   1      40.181  24.325  27.229  1.00  0.00     0.010 A 
ATOM     37  C   UNL A   1      41.865  23.464  28.753  1.00  0.00     0.010 A 
ATOM     38  C   UNL A   1      41.172  24.553  28.193  1.00  0.00    -0.014 A 
BRANCH  38  39
ATOM     39  C   UNL A   1      41.665  25.941  28.377  1.00  0.00     0.031 A 
ATOM     40  C   UNL A   1      43.020  26.285  27.813  1.00  0.00     0.074 A 
ATOM     41  C   UNL A   1      40.903  26.893  28.938  1.00  0.00     0.049 A 
ATOM     42  N   UNL A   1      43.660  27.428  27.810  1.00  0.00    -0.248 NA
ATOM     43  C   UNL A   1      43.754  25.189  27.160  1.00  0.00     0.031 C 
ATOM     44  C   UNL A   1      39.557  26.696  29.471  1.00  0.00     0.029 A 
ATOM     45  N   UNL A   1      41.158  28.226  29.146  1.00  0.00    -0.354 N 
ATOM     46  C   UNL A   1      44.864  27.183  27.164  1.00  0.00     0.074 A 
ATOM     47  C   UNL A   1      44.890  25.778  26.824  1.00  0.00     0.031 C 
ATOM     48  C   UNL A   1      39.104  27.868  29.951  1.00  0.00     0.029 A 
ATOM     49  C   UNL A   1      40.138  28.889  29.782  1.00  0.00     0.049 A 
ATOM     50  H   UNL A   1      41.994  28.664  28.866  1.00  0.00     0.167 HD
ATOM     51  C   UNL A   1      45.858  28.054  26.866  1.00  0.00     0.037 A 
ATOM     52  C   UNL A   1      40.061  30.170  30.191  1.00  0.00     0.037 A 
ATOM     53  C   UNL A   1      45.831  29.451  27.203  1.00  0.00     0.049 A 
ATOM     54  C   UNL A   1      41.211  31.106  29.906  1.00  0.00     0.074 A 
ATOM     55  C   UNL A   1      46.784  30.420  26.945  1.00  0.00     0.029 A 
ATOM     56  N   UNL A   1      44.794  30.079  27.879  1.00  0.00    -0.354 N 
ATOM     57  N   UNL A   1      42.340  30.872  29.280  1.00  0.00    -0.248 NA
ATOM     58  C   UNL A   1      41.065  32.491  30.373  1.00  0.00     0.031 C 
ATOM     59  C   UNL A   1      46.352  31.620  27.519  1.00  0.00     0.029 A 
ATOM     60  C   UNL A   1      45.095  31.418  28.065  1.00  0.00     0.049 A 
ATOM     61  H   UNL A   1      43.968  29.637  28.181  1.00  0.00     0.167 HD
ATOM     62  C   UNL A   1      43.014  32.087  29.238  1.00  0.00     0.074 A 
ATOM     63  C   UNL A   1      42.162  33.057  29.892  1.00  0.00     0.031 C 
ATOM     64  C   UNL A   1      44.228  32.376  28.703  1.00  0.00     0.037 A 
BRANCH  51  65
ATOM     65  C   UNL A   1      47.072  27.509  26.168  1.00  0.00     0.064 A 
ATOM     66  C   UNL A   1      47.191  27.512  24.770  1.00  0.00     0.173 A 
ATOM     67  C   UNL A   1      48.144  26.997  26.914  1.00  0.00     0.173 A 
ATOM     68  F   UNL A   1      46.187  27.972  24.008  1.00  0.00    -0.203 F 
ATOM     69  C   UNL A   1      48.326  27.001  24.145  1.00  0.00     0.198 A 
ATOM     70  C   UNL A   1      49.292  26.518  26.288  1.00  0.00     0.198 A 
ATOM     71  F   UNL A   1      48.084  26.968  28.254  1.00  0.00    -0.203 F 
ATOM     72  F   UNL A   1      48.394  26.965  22.807  1.00  0.00    -0.200 F 
ATOM     73  C   UNL A   1      49.379  26.512  24.904  1.00  0.00     0.200 A 
ATOM     74  F   UNL A   1      50.314  26.060  27.024  1.00  0.00    -0.200 F 
ATOM     75  F   UNL A   1      50.473  26.030  24.302  1.00  0.00    -0.200 F 
ENDBRANCH  51  65
BRANCH  52  76
ATOM     76  C   UNL A   1      38.855  30.653  30.918  1.00  0.00     0.064 A 
ATOM     77  C   UNL A   1      38.779  30.606  32.317  1.00  0.00     0.173 A 
ATOM     78  C   UNL A   1      37.734  31.130  30.222  1.00  0.00     0.173 A 
ATOM     79  F   UNL A   1      39.814  30.135  33.028  1.00  0.00    -0.203 F 
ATOM     80  C   UNL A   1      37.619  30.986  32.990  1.00  0.00     0.198 A 
ATOM     81  C   UNL A   1      36.588  31.543  30.898  1.00  0.00     0.198 A 
ATOM     82  F   UNL A   1      37.752  31.195  28.882  1.00  0.00    -0.203 F 
ATOM     83  F   UNL A   1      37.552  30.870  34.323  1.00  0.00    -0.200 F 
ATOM     84  C   UNL A   1      36.526  31.459  32.280  1.00  0.00     0.200 A 
ATOM     85  F   UNL A   1      35.540  32.013  30.208  1.00  0.00    -0.200 F 
ATOM     86  F   UNL A   1      35.410  31.823  32.927  1.00  0.00    -0.200 F 
ENDBRANCH  52  76
BRANCH  64  87
ATOM     87  C   UNL A   1      44.674  33.813  28.736  1.00  0.00     0.064 A 
ATOM     88  C   UNL A   1      45.473  34.325  29.768  1.00  0.00     0.173 A 
ATOM     89  C   UNL A   1      44.300  34.688  27.703  1.00  0.00     0.173 A 
ATOM     90  F   UNL A   1      45.854  33.535  30.785  1.00  0.00    -0.203 F 
ATOM     91  C   UNL A   1      45.839  35.669  29.792  1.00  0.00     0.198 A 
ATOM     92  C   UNL A   1      44.704  36.021  27.709  1.00  0.00     0.198 A 
ATOM     93  F   UNL A   1      43.549  34.250  26.682  1.00  0.00    -0.203 F 
ATOM     94  F   UNL A   1      46.540  36.152  30.827  1.00  0.00    -0.200 F 
ATOM     95  C   UNL A   1      45.459  36.514  28.760  1.00  0.00     0.200 A 
ATOM     96  F   UNL A   1      44.352  36.829  26.698  1.00  0.00    -0.200 F 
ATOM     97  F   UNL A   1      45.812  37.806  28.785  1.00  0.00    -0.200 F 
ENDBRANCH  64  87
ENDBRANCH  38  39
ENDBRANCH  31  33
ENDBRANCH  30  31
ENDBRANCH  29  30
ENDBRANCH  28  29
ENDBRANCH  27  28
ENDBRANCH  26  27
ENDBRANCH  25  26
ENDBRANCH  24  25
ENDBRANCH  23  24
ENDBRANCH   1  23
TORSDOF 25
ENDMDL
MODEL 2
REMARK VINA RESULT:      -9.3      2.390      4.174
REMARK SMILES C[C@H]([NH2+]CC1(O)CCCC1)[C@H](C)C(=O)OCCOCCOCCOCCOC(=O)c1ccc(-c2c3nc(c(-c4c(F)c(F)c(F)c(F)c4F)c4ccc([nH]4)c(-c4c(F)c(F)c(F)c(F)c4F)c4nc(c(-c5c(F)c(F)c(F)c(F)c5F)c5ccc2[nH]5)C=C4)C=C3)cc1
REMARK SMILES IDX 19 1 18 2 17 3 16 4 15 5 13 6 14 7 11 8 12 9 2 10 1 11 3 12
REMARK SMILES IDX 4 15 5 16 7 17 10 18 8 19 9 20 6 21 20 23 21 24 22 25 23 26
REMARK SMILES IDX 24 27 25 28 26 29 27 30 28 31 29 32 30 33 31 34 92 35 32 36
REMARK SMILES IDX 91 37 33 38 34 39 35 40 85 41 36 42 90 43 84 44 86 45 37 46
REMARK SMILES IDX 89 47 83 48 82 49 38 51 70 52 50 53 69 54 51 55 54 56 68 57
REMARK SMILES IDX 87 58 52 59 53 60 67 62 88 63 55 64 39 65 40 66 48 67 41 68
REMARK SMILES IDX 42 69 46 70 49 71 43 72 44 73 47 74 45 75 71 76 72 77 80 78
REMARK SMILES IDX 73 79 74 80 78 81 81 82 75 83 76 84 79 85 77 86 56 87 57 88
REMARK SMILES IDX 65 89 58 90 59 91 63 92 66 93 60 94 61 95 64 96 62 97
REMARK H PARENT 3 13 3 14 6 22 86 50 54 61
REMARK Flexibility Score: inf
ROOT
ATOM      1  C   UNL A   1      32.205  26.455  24.360  1.00  0.00     0.188 C 
ENDROOT
BRANCH   1   2
ATOM      2  O   UNL A   1      32.213  27.352  25.465  1.00  0.00    -0.376 OA
BRANCH   2   3
ATOM      3  C   UNL A   1      32.112  28.757  25.306  1.00  0.00     0.202 C 
BRANCH   3   4
ATOM      4  C   UNL A   1      33.214  29.688  25.831  1.00  0.00     0.261 C 
BRANCH   4   5
ATOM      5  O   UNL A   1      33.110  30.109  27.199  1.00  0.00    -0.463 OA
BRANCH   5   6
ATOM      6  C   UNL A   1      32.926  31.438  27.399  1.00  0.00     0.314 C 
ATOM      7  O   UNL A   1      32.028  32.092  26.879  1.00  0.00    -0.252 OA
BRANCH   6   8
ATOM      8  C   UNL A   1      33.990  32.070  28.291  1.00  0.00     0.154 C 
ATOM      9  C   UNL A   1      35.464  31.793  27.946  1.00  0.00     0.026 C 
BRANCH   8  10
ATOM     10  C   UNL A   1      33.718  33.584  28.392  1.00  0.00     0.193 C 
ATOM     11  C   UNL A   1      34.785  34.380  27.627  1.00  0.00     0.076 C 
BRANCH  10  12
ATOM     12  N   UNL A   1      33.425  34.034  29.759  1.00  0.00    -0.341 N 
ATOM     13  H   UNL A   1      34.289  33.977  30.297  1.00  0.00     0.346 HD
ATOM     14  H   UNL A   1      32.680  33.423  30.093  1.00  0.00     0.346 HD
BRANCH  12  15
ATOM     15  C   UNL A   1      32.903  35.396  29.894  1.00  0.00     0.296 C 
BRANCH  15  16
ATOM     16  C   UNL A   1      32.924  35.944  31.339  1.00  0.00     0.113 C 
ATOM     17  C   UNL A   1      33.542  37.344  31.364  1.00  0.00     0.041 C 
ATOM     18  C   UNL A   1      33.830  35.184  32.315  1.00  0.00     0.041 C 
ATOM     19  C   UNL A   1      33.850  37.585  32.833  1.00  0.00     0.003 C 
ATOM     20  C   UNL A   1      34.119  36.201  33.429  1.00  0.00     0.003 C 
BRANCH  16  21
ATOM     21  O   UNL A   1      31.588  36.018  31.849  1.00  0.00    -0.384 OA
ATOM     22  H   UNL A   1      31.241  36.914  31.715  1.00  0.00     0.211 HD
ENDBRANCH  16  21
ENDBRANCH  15  16
ENDBRANCH  12  15
ENDBRANCH  10  12
ENDBRANCH   8  10
ENDBRANCH   6   8
ENDBRANCH   5   6
ENDBRANCH   4   5
ENDBRANCH   3   4
ENDBRANCH   2   3
ENDBRANCH   1   2
BRANCH   1  23
ATOM     23  C   UNL A   1      32.657  24.989  24.485  1.00  0.00     0.188 C 
BRANCH  23  24
ATOM     24  O   UNL A   1      34.020  24.745  24.200  1.00  0.00    -0.377 OA
BRANCH  24  25
ATOM     25  C   UNL A   1      34.878  24.541  25.315  1.00  0.00     0.188 C 
BRANCH  25  26
ATOM     26  C   UNL A   1      34.765  23.198  26.062  1.00  0.00     0.188 C 
BRANCH  26  27
ATOM     27  O   UNL A   1      34.814  22.062  25.210  1.00  0.00    -0.376 OA
BRANCH  27  28
ATOM     28  C   UNL A   1      36.029  21.709  24.568  1.00  0.00     0.202 C 
BRANCH  28  29
ATOM     29  C   UNL A   1      37.202  21.205  25.428  1.00  0.00     0.261 C 
BRANCH  29  30
ATOM     30  O   UNL A   1      38.475  21.837  25.227  1.00  0.00    -0.460 OA
BRANCH  30  31
ATOM     31  C   UNL A   1      39.467  21.530  26.082  1.00  0.00     0.338 C 
ATOM     32  O   UNL A   1      40.108  20.490  26.122  1.00  0.00    -0.246 OA
BRANCH  31  33
ATOM     33  C   UNL A   1      39.812  22.739  26.857  1.00  0.00     0.060 A 
ATOM     34  C   UNL A   1      39.093  23.915  26.610  1.00  0.00     0.016 A 
ATOM     35  C   UNL A   1      40.858  22.732  27.784  1.00  0.00     0.016 A 
ATOM     36  C   UNL A   1      39.474  25.107  27.218  1.00  0.00     0.010 A 
ATOM     37  C   UNL A   1      41.256  23.935  28.378  1.00  0.00     0.010 A 
ATOM     38  C   UNL A   1      40.605  25.136  28.043  1.00  0.00    -0.014 A 
BRANCH  38  39
ATOM     39  C   UNL A   1      41.256  26.446  28.296  1.00  0.00     0.031 A 
ATOM     40  C   UNL A   1      42.632  26.670  27.723  1.00  0.00     0.074 A 
ATOM     41  C   UNL A   1      40.615  27.443  28.928  1.00  0.00     0.049 A 
ATOM     42  N   UNL A   1      43.397  27.731  27.772  1.00  0.00    -0.248 NA
ATOM     43  C   UNL A   1      43.226  25.538  26.991  1.00  0.00     0.031 C 
ATOM     44  C   UNL A   1      39.264  27.366  29.479  1.00  0.00     0.029 A 
ATOM     45  N   UNL A   1      41.023  28.723  29.207  1.00  0.00    -0.354 N 
ATOM     46  C   UNL A   1      44.556  27.392  27.086  1.00  0.00     0.074 A 
ATOM     47  C   UNL A   1      44.416  26.016  26.664  1.00  0.00     0.031 C 
ATOM     48  C   UNL A   1      38.954  28.551  30.036  1.00  0.00     0.029 A 
ATOM     49  C   UNL A   1      40.095  29.457  29.903  1.00  0.00     0.049 A 
ATOM     50  H   UNL A   1      41.899  29.081  28.934  1.00  0.00     0.167 HD
ATOM     51  C   UNL A   1      45.637  28.162  26.816  1.00  0.00     0.037 A 
ATOM     52  C   UNL A   1      40.170  30.713  30.387  1.00  0.00     0.037 A 
ATOM     53  C   UNL A   1      45.774  29.530  27.234  1.00  0.00     0.049 A 
ATOM     54  C   UNL A   1      41.414  31.528  30.131  1.00  0.00     0.074 A 
ATOM     55  C   UNL A   1      46.826  30.400  27.011  1.00  0.00     0.029 A 
ATOM     56  N   UNL A   1      44.826  30.229  27.968  1.00  0.00    -0.354 N 
ATOM     57  N   UNL A   1      42.499  31.208  29.467  1.00  0.00    -0.248 NA
ATOM     58  C   UNL A   1      41.434  32.891  30.680  1.00  0.00     0.031 C 
ATOM     59  C   UNL A   1      46.543  31.604  27.663  1.00  0.00     0.029 A 
ATOM     60  C   UNL A   1      45.279  31.512  28.225  1.00  0.00     0.049 A 
ATOM     61  H   UNL A   1      43.960  29.866  28.263  1.00  0.00     0.167 HD
ATOM     62  C   UNL A   1      43.306  32.339  29.481  1.00  0.00     0.074 A 
ATOM     63  C   UNL A   1      42.580  33.358  30.208  1.00  0.00     0.031 C 
ATOM     64  C   UNL A   1      44.537  32.521  28.937  1.00  0.00     0.037 A 
BRANCH  51  65
ATOM     65  C   UNL A   1      46.770  27.527  26.061  1.00  0.00     0.064 A 
ATOM     66  C   UNL A   1      47.715  26.703  26.691  1.00  0.00     0.173 A 
ATOM     67  C   UNL A   1      46.897  27.729  24.678  1.00  0.00     0.173 A 
ATOM     68  F   UNL A   1      47.653  26.493  28.015  1.00  0.00    -0.203 F 
ATOM     69  C   UNL A   1      48.758  26.126  25.970  1.00  0.00     0.198 A 
ATOM     70  C   UNL A   1      47.920  27.123  23.955  1.00  0.00     0.198 A 
ATOM     71  F   UNL A   1      46.022  28.508  24.025  1.00  0.00    -0.203 F 
ATOM     72  F   UNL A   1      49.679  25.387  26.602  1.00  0.00    -0.200 F 
ATOM     73  C   UNL A   1      48.855  26.329  24.601  1.00  0.00     0.200 A 
ATOM     74  F   UNL A   1      48.003  27.309  22.630  1.00  0.00    -0.200 F 
ATOM     75  F   UNL A   1      49.853  25.766  23.908  1.00  0.00    -0.200 F 
ENDBRANCH  51  65
BRANCH  52  76
ATOM     76  C   UNL A   1      39.039  31.283  31.167  1.00  0.00     0.064 A 
ATOM     77  C   UNL A   1      38.122  32.169  30.581  1.00  0.00     0.173 A 
ATOM     78  C   UNL A   1      38.878  30.989  32.529  1.00  0.00     0.173 A 
ATOM     79  F   UNL A   1      38.246  32.503  29.288  1.00  0.00    -0.203 F 
ATOM     80  C   UNL A   1      37.110  32.762  31.334  1.00  0.00     0.198 A 
ATOM     81  C   UNL A   1      37.845  31.555  33.272  1.00  0.00     0.198 A 
ATOM     82  F   UNL A   1      39.727  30.149  33.140  1.00  0.00    -0.203 F 
ATOM     83  F   UNL A   1      36.288  33.653  30.764  1.00  0.00    -0.200 F 
ATOM     84  C   UNL A   1      36.968  32.450  32.678  1.00  0.00     0.200 A 
ATOM     85  F   UNL A   1      37.703  31.240  34.567  1.00  0.00    -0.200 F 
ATOM     86  F   UNL A   1      35.997  33.022  33.402  1.00  0.00    -0.200 F 
ENDBRANCH  52  76
BRANCH  64  87
ATOM     87  C   UNL A   1      45.143  33.894  29.043  1.00  0.00     0.064 A 
ATOM     88  C   UNL A   1      44.919  34.888  28.079  1.00  0.00     0.173 A 
ATOM     89  C   UNL A   1      45.954  34.221  30.142  1.00  0.00     0.173 A 
ATOM     90  F   UNL A   1      44.158  34.629  27.004  1.00  0.00    -0.203 F 
ATOM     91  C   UNL A   1      45.525  36.139  28.184  1.00  0.00     0.198 A 
ATOM     92  C   UNL A   1      46.524  35.486  30.265  1.00  0.00     0.198 A 
ATOM     93  F   UNL A   1      46.191  33.315  31.103  1.00  0.00    -0.203 F 
ATOM     94  F   UNL A   1      45.356  37.046  27.213  1.00  0.00    -0.200 F 
ATOM     95  C   UNL A   1      46.321  36.438  29.279  1.00  0.00     0.200 A 
ATOM     96  F   UNL A   1      47.276  35.779  31.335  1.00  0.00    -0.200 F 
ATOM     97  F   UNL A   1      46.903  37.641  29.378  1.00  0.00    -0.200 F 
ENDBRANCH  64  87
ENDBRANCH  38  39
ENDBRANCH  31  33
ENDBRANCH  30  31
ENDBRANCH  29  30
ENDBRANCH  28  29
ENDBRANCH  27  28
ENDBRANCH  26  27
ENDBRANCH  25  26
ENDBRANCH  24  25
ENDBRANCH  23  24
ENDBRANCH   1  23
TORSDOF 25
ENDMDL
MODEL 3
REMARK VINA RESULT:      -9.2      2.366      8.131
REMARK SMILES C[C@H]([NH2+]CC1(O)CCCC1)[C@H](C)C(=O)OCCOCCOCCOCCOC(=O)c1ccc(-c2c3nc(c(-c4c(F)c(F)c(F)c(F)c4F)c4ccc([nH]4)c(-c4c(F)c(F)c(F)c(F)c4F)c4nc(c(-c5c(F)c(F)c(F)c(F)c5F)c5ccc2[nH]5)C=C4)C=C3)cc1
REMARK SMILES IDX 19 1 18 2 17 3 16 4 15 5 13 6 14 7 11 8 12 9 2 10 1 11 3 12
REMARK SMILES IDX 4 15 5 16 7 17 10 18 8 19 9 20 6 21 20 23 21 24 22 25 23 26
REMARK SMILES IDX 24 27 25 28 26 29 27 30 28 31 29 32 30 33 31 34 92 35 32 36
REMARK SMILES IDX 91 37 33 38 34 39 35 40 85 41 36 42 90 43 84 44 86 45 37 46
REMARK SMILES IDX 89 47 83 48 82 49 38 51 70 52 50 53 69 54 51 55 54 56 68 57
REMARK SMILES IDX 87 58 52 59 53 60 67 62 88 63 55 64 39 65 40 66 48 67 41 68
REMARK SMILES IDX 42 69 46 70 49 71 43 72 44 73 47 74 45 75 71 76 72 77 80 78
REMARK SMILES IDX 73 79 74 80 78 81 81 82 75 83 76 84 79 85 77 86 56 87 57 88
REMARK SMILES IDX 65 89 58 90 59 91 63 92 66 93 60 94 61 95 64 96 62 97
REMARK H PARENT 3 13 3 14 6 22 86 50 54 61
REMARK Flexibility Score: inf
ROOT
ATOM      1  C   UNL A   1      31.967  26.695  23.987  1.00  0.00     0.188 C 
ENDROOT
BRANCH   1   2
ATOM      2  O   UNL A   1      32.673  27.621  24.805  1.00  0.00    -0.376 OA
BRANCH   2   3
ATOM      3  C   UNL A   1      32.055  28.766  25.367  1.00  0.00     0.202 C 
BRANCH   3   4
ATOM      4  C   UNL A   1      32.892  29.977  25.801  1.00  0.00     0.261 C 
BRANCH   4   5
ATOM      5  O   UNL A   1      32.771  30.392  27.169  1.00  0.00    -0.463 OA
BRANCH   5   6
ATOM      6  C   UNL A   1      32.681  31.729  27.379  1.00  0.00     0.314 C 
ATOM      7  O   UNL A   1      31.773  32.431  26.945  1.00  0.00    -0.252 OA
BRANCH   6   8
ATOM      8  C   UNL A   1      33.858  32.302  28.162  1.00  0.00     0.154 C 
ATOM      9  C   UNL A   1      35.275  31.958  27.668  1.00  0.00     0.026 C 
BRANCH   8  10
ATOM     10  C   UNL A   1      33.671  33.826  28.296  1.00  0.00     0.193 C 
ATOM     11  C   UNL A   1      34.999  34.559  28.057  1.00  0.00     0.076 C 
BRANCH  10  12
ATOM     12  N   UNL A   1      32.917  34.219  29.493  1.00  0.00    -0.341 N 
ATOM     13  H   UNL A   1      33.218  33.618  30.260  1.00  0.00     0.346 HD
ATOM     14  H   UNL A   1      31.934  34.118  29.241  1.00  0.00     0.346 HD
BRANCH  12  15
ATOM     15  C   UNL A   1      33.069  35.609  29.928  1.00  0.00     0.296 C 
BRANCH  15  16
ATOM     16  C   UNL A   1      33.127  35.793  31.460  1.00  0.00     0.113 C 
ATOM     17  C   UNL A   1      33.579  37.214  31.805  1.00  0.00     0.041 C 
ATOM     18  C   UNL A   1      34.180  34.945  32.183  1.00  0.00     0.041 C 
ATOM     19  C   UNL A   1      33.959  37.134  33.276  1.00  0.00     0.003 C 
ATOM     20  C   UNL A   1      34.426  35.695  33.501  1.00  0.00     0.003 C 
BRANCH  16  21
ATOM     21  O   UNL A   1      31.830  35.570  32.025  1.00  0.00    -0.384 OA
ATOM     22  H   UNL A   1      31.253  35.165  31.358  1.00  0.00     0.211 HD
ENDBRANCH  16  21
ENDBRANCH  15  16
ENDBRANCH  12  15
ENDBRANCH  10  12
ENDBRANCH   8  10
ENDBRANCH   6   8
ENDBRANCH   5   6
ENDBRANCH   4   5
ENDBRANCH   3   4
ENDBRANCH   2   3
ENDBRANCH   1   2
BRANCH   1  23
ATOM     23  C   UNL A   1      32.174  25.174  24.096  1.00  0.00     0.188 C 
BRANCH  23  24
ATOM     24  O   UNL A   1      33.273  24.655  23.375  1.00  0.00    -0.377 OA
BRANCH  24  25
ATOM     25  C   UNL A   1      34.495  24.516  24.088  1.00  0.00     0.188 C 
BRANCH  25  26
ATOM     26  C   UNL A   1      34.544  23.474  25.222  1.00  0.00     0.188 C 
BRANCH  26  27
ATOM     27  O   UNL A   1      34.391  22.134  24.776  1.00  0.00    -0.376 OA
BRANCH  27  28
ATOM     28  C   UNL A   1      35.530  21.302  24.626  1.00  0.00     0.202 C 
BRANCH  28  29
ATOM     29  C   UNL A   1      36.646  21.377  25.685  1.00  0.00     0.261 C 
BRANCH  29  30
ATOM     30  O   UNL A   1      37.890  21.966  25.279  1.00  0.00    -0.460 OA
BRANCH  30  31
ATOM     31  C   UNL A   1      38.996  21.626  25.965  1.00  0.00     0.338 C 
ATOM     32  O   UNL A   1      39.608  20.570  25.898  1.00  0.00    -0.246 OA
BRANCH  31  33
ATOM     33  C   UNL A   1      39.489  22.819  26.684  1.00  0.00     0.060 A 
ATOM     34  C   UNL A   1      38.918  24.062  26.380  1.00  0.00     0.016 A 
ATOM     35  C   UNL A   1      40.529  22.727  27.612  1.00  0.00     0.016 A 
ATOM     36  C   UNL A   1      39.445  25.225  26.932  1.00  0.00     0.010 A 
ATOM     37  C   UNL A   1      41.074  23.898  28.150  1.00  0.00     0.010 A 
ATOM     38  C   UNL A   1      40.574  25.153  27.757  1.00  0.00    -0.014 A 
BRANCH  38  39
ATOM     39  C   UNL A   1      41.381  26.385  27.950  1.00  0.00     0.031 A 
ATOM     40  C   UNL A   1      40.778  27.498  28.767  1.00  0.00     0.074 A 
ATOM     41  C   UNL A   1      42.642  26.481  27.500  1.00  0.00     0.049 A 
ATOM     42  N   UNL A   1      41.286  28.655  29.109  1.00  0.00    -0.248 NA
ATOM     43  C   UNL A   1      39.412  27.274  29.271  1.00  0.00     0.031 C 
ATOM     44  C   UNL A   1      43.353  25.452  26.745  1.00  0.00     0.029 A 
ATOM     45  N   UNL A   1      43.552  27.501  27.622  1.00  0.00    -0.354 N 
ATOM     46  C   UNL A   1      40.304  29.292  29.858  1.00  0.00     0.074 A 
ATOM     47  C   UNL A   1      39.155  28.415  29.888  1.00  0.00     0.031 C 
ATOM     48  C   UNL A   1      44.592  25.895  26.466  1.00  0.00     0.029 A 
ATOM     49  C   UNL A   1      44.750  27.247  27.001  1.00  0.00     0.049 A 
ATOM     50  H   UNL A   1      43.364  28.335  28.110  1.00  0.00     0.167 HD
ATOM     51  C   UNL A   1      40.358  30.494  30.478  1.00  0.00     0.037 A 
ATOM     52  C   UNL A   1      45.839  28.029  26.869  1.00  0.00     0.037 A 
ATOM     53  C   UNL A   1      41.503  31.364  30.448  1.00  0.00     0.049 A 
ATOM     54  C   UNL A   1      45.850  29.394  27.514  1.00  0.00     0.074 A 
ATOM     55  C   UNL A   1      41.662  32.602  31.045  1.00  0.00     0.029 A 
ATOM     56  N   UNL A   1      42.686  31.088  29.778  1.00  0.00    -0.354 N 
ATOM     57  N   UNL A   1      44.925  29.983  28.235  1.00  0.00    -0.248 NA
ATOM     58  C   UNL A   1      47.068  30.197  27.339  1.00  0.00     0.031 C 
ATOM     59  C   UNL A   1      42.917  33.101  30.685  1.00  0.00     0.029 A 
ATOM     60  C   UNL A   1      43.572  32.141  29.930  1.00  0.00     0.049 A 
ATOM     61  H   UNL A   1      42.868  30.264  29.270  1.00  0.00     0.167 HD
ATOM     62  C   UNL A   1      45.465  31.199  28.634  1.00  0.00     0.074 A 
ATOM     63  C   UNL A   1      46.804  31.258  28.086  1.00  0.00     0.031 C 
ATOM     64  C   UNL A   1      44.908  32.178  29.391  1.00  0.00     0.037 A 
BRANCH  51  65
ATOM     65  C   UNL A   1      39.131  30.951  31.214  1.00  0.00     0.064 A 
ATOM     66  C   UNL A   1      38.112  31.679  30.581  1.00  0.00     0.173 A 
ATOM     67  C   UNL A   1      38.961  30.634  32.570  1.00  0.00     0.173 A 
ATOM     68  F   UNL A   1      38.232  32.027  29.291  1.00  0.00    -0.203 F 
ATOM     69  C   UNL A   1      36.983  32.094  31.284  1.00  0.00     0.198 A 
ATOM     70  C   UNL A   1      37.816  31.019  33.261  1.00  0.00     0.198 A 
ATOM     71  F   UNL A   1      39.905  29.941  33.225  1.00  0.00    -0.203 F 
ATOM     72  F   UNL A   1      36.048  32.834  30.672  1.00  0.00    -0.200 F 
ATOM     73  C   UNL A   1      36.831  31.756  32.621  1.00  0.00     0.200 A 
ATOM     74  F   UNL A   1      37.666  30.679  34.549  1.00  0.00    -0.200 F 
ATOM     75  F   UNL A   1      35.741  32.147  33.293  1.00  0.00    -0.200 F 
ENDBRANCH  51  65
BRANCH  52  76
ATOM     76  C   UNL A   1      47.015  27.550  26.094  1.00  0.00     0.064 A 
ATOM     77  C   UNL A   1      47.112  27.760  24.711  1.00  0.00     0.173 A 
ATOM     78  C   UNL A   1      48.047  26.829  26.715  1.00  0.00     0.173 A 
ATOM     79  F   UNL A   1      46.141  28.421  24.064  1.00  0.00    -0.203 F 
ATOM     80  C   UNL A   1      48.177  27.242  23.975  1.00  0.00     0.198 A 
ATOM     81  C   UNL A   1      49.128  26.343  25.984  1.00  0.00     0.198 A 
ATOM     82  F   UNL A   1      48.004  26.598  28.036  1.00  0.00    -0.203 F 
ATOM     83  F   UNL A   1      48.211  27.403  22.645  1.00  0.00    -0.200 F 
ATOM     84  C   UNL A   1      49.187  26.538  24.614  1.00  0.00     0.200 A 
ATOM     85  F   UNL A   1      50.109  25.676  26.608  1.00  0.00    -0.200 F 
ATOM     86  F   UNL A   1      50.209  26.039  23.906  1.00  0.00    -0.200 F 
ENDBRANCH  52  76
BRANCH  64  87
ATOM     87  C   UNL A   1      45.769  33.364  29.733  1.00  0.00     0.064 A 
ATOM     88  C   UNL A   1      46.655  33.356  30.819  1.00  0.00     0.173 A 
ATOM     89  C   UNL A   1      45.711  34.524  28.944  1.00  0.00     0.173 A 
ATOM     90  F   UNL A   1      46.746  32.277  31.611  1.00  0.00    -0.203 F 
ATOM     91  C   UNL A   1      47.413  34.483  31.134  1.00  0.00     0.198 A 
ATOM     92  C   UNL A   1      46.502  35.633  29.237  1.00  0.00     0.198 A 
ATOM     93  F   UNL A   1      44.893  34.583  27.883  1.00  0.00    -0.203 F 
ATOM     94  F   UNL A   1      48.197  34.477  32.221  1.00  0.00    -0.200 F 
ATOM     95  C   UNL A   1      47.340  35.617  30.340  1.00  0.00     0.200 A 
ATOM     96  F   UNL A   1      46.444  36.720  28.455  1.00  0.00    -0.200 F 
ATOM     97  F   UNL A   1      48.069  36.699  30.645  1.00  0.00    -0.200 F 
ENDBRANCH  64  87
ENDBRANCH  38  39
ENDBRANCH  31  33
ENDBRANCH  30  31
ENDBRANCH  29  30
ENDBRANCH  28  29
ENDBRANCH  27  28
ENDBRANCH  26  27
ENDBRANCH  25  26
ENDBRANCH  24  25
ENDBRANCH  23  24
ENDBRANCH   1  23
TORSDOF 25
ENDMDL
