MODEL 1
REMARK VINA RESULT:     -11.5      0.000      0.000
REMARK SMILES Cc1ccccc1CNc1ccc(C(=O)OCCOCCOCCOCCOC(=O)c2ccc(-c3c4nc(c(-c5c(F)c(F)c(F)c(F)c5F)c5ccc([nH]5)c(-c5c(F)c(F)c(F)c(F)c5F)c5nc(c(-c6c(F)c(F)c(F)c(F)c6F)c6ccc3[nH]6)C=C5)C=C4)cc2)c(F)c1F
REMARK SMILES IDX 21 1 20 2 19 3 18 4 17 5 16 6 14 7 15 8 13 9 10 10 11 11
REMARK SMILES IDX 96 12 12 13 94 14 97 15 95 16 9 17 8 19 7 20 1 21 2 22 3 23
REMARK SMILES IDX 4 24 6 25 5 26 22 27 23 28 24 29 25 30 26 31 27 32 28 33
REMARK SMILES IDX 29 34 30 35 31 36 32 37 93 38 33 39 92 40 34 41 35 42 36 43
REMARK SMILES IDX 86 44 37 45 91 46 85 47 87 48 38 49 90 50 84 51 83 52 39 54
REMARK SMILES IDX 71 55 51 56 70 57 52 58 55 59 69 60 88 61 53 62 54 63 68 65
REMARK SMILES IDX 89 66 56 67 40 68 41 69 49 70 42 71 43 72 47 73 50 74 44 75
REMARK SMILES IDX 45 76 48 77 46 78 72 79 73 80 81 81 74 82 75 83 79 84 82 85
REMARK SMILES IDX 76 86 77 87 80 88 78 89 57 90 58 91 66 92 59 93 60 94 64 95
REMARK SMILES IDX 67 96 61 97 62 98 65 99 63 100
REMARK H PARENT 9 18 87 53 55 64
REMARK Flexibility Score: inf
ROOT
ATOM      1  C   UNL A   1      34.860  30.795  27.589  1.00  0.00     0.188 C 
ENDROOT
BRANCH   1   2
ATOM      2  C   UNL A   1      33.373  30.601  27.245  1.00  0.00     0.188 C 
BRANCH   2   3
ATOM      3  O   UNL A   1      33.118  29.656  26.218  1.00  0.00    -0.376 OA
BRANCH   3   4
ATOM      4  C   UNL A   1      32.012  30.015  25.404  1.00  0.00     0.202 C 
BRANCH   4   5
ATOM      5  C   UNL A   1      31.408  28.746  24.861  1.00  0.00     0.261 C 
BRANCH   5   6
ATOM      6  O   UNL A   1      31.996  28.474  23.599  1.00  0.00    -0.460 OA
BRANCH   6   7
ATOM      7  C   UNL A   1      31.275  27.571  22.921  1.00  0.00     0.341 C 
ATOM      8  O   UNL A   1      30.478  27.808  22.025  1.00  0.00    -0.246 OA
BRANCH   7   9
ATOM      9  C   UNL A   1      31.729  26.254  23.362  1.00  0.00     0.099 A 
ATOM     10  C   UNL A   1      32.598  23.679  23.855  1.00  0.00     0.074 A 
ATOM     11  C   UNL A   1      31.305  24.053  24.239  1.00  0.00     0.030 A 
ATOM     12  C   UNL A   1      33.505  24.664  23.440  1.00  0.00     0.182 A 
ATOM     13  C   UNL A   1      30.855  25.331  23.958  1.00  0.00     0.021 A 
ATOM     14  C   UNL A   1      33.073  25.951  23.199  1.00  0.00     0.175 A 
ATOM     15  F   UNL A   1      34.772  24.327  23.153  1.00  0.00    -0.201 F 
ATOM     16  F   UNL A   1      33.948  26.870  22.765  1.00  0.00    -0.203 F 
BRANCH  10  17
ATOM     17  N   UNL A   1      32.873  22.323  23.617  1.00  0.00    -0.379 N 
ATOM     18  H   UNL A   1      32.661  21.867  22.770  1.00  0.00     0.161 HD
BRANCH  17  19
ATOM     19  C   UNL A   1      33.508  21.656  24.757  1.00  0.00     0.149 C 
BRANCH  19  20
ATOM     20  C   UNL A   1      33.635  20.169  24.508  1.00  0.00    -0.026 A 
ATOM     21  C   UNL A   1      36.149  20.162  25.001  1.00  0.00     0.044 C 
ATOM     22  C   UNL A   1      34.859  19.487  24.626  1.00  0.00    -0.046 A 
ATOM     23  C   UNL A   1      34.888  18.098  24.408  1.00  0.00     0.004 A 
ATOM     24  C   UNL A   1      33.739  17.396  24.045  1.00  0.00     0.000 A 
ATOM     25  C   UNL A   1      32.483  19.443  24.132  1.00  0.00     0.006 A 
ATOM     26  C   UNL A   1      32.536  18.070  23.896  1.00  0.00     0.000 A 
ENDBRANCH  19  20
ENDBRANCH  17  19
ENDBRANCH  10  17
ENDBRANCH   7   9
ENDBRANCH   6   7
ENDBRANCH   5   6
ENDBRANCH   4   5
ENDBRANCH   3   4
ENDBRANCH   2   3
ENDBRANCH   1   2
BRANCH   1  27
ATOM     27  O   UNL A   1      35.319  32.064  28.033  1.00  0.00    -0.377 OA
BRANCH  27  28
ATOM     28  C   UNL A   1      34.426  32.923  28.724  1.00  0.00     0.188 C 
BRANCH  28  29
ATOM     29  C   UNL A   1      34.035  34.259  28.112  1.00  0.00     0.188 C 
BRANCH  29  30
ATOM     30  O   UNL A   1      32.847  34.703  28.753  1.00  0.00    -0.376 OA
BRANCH  30  31
ATOM     31  C   UNL A   1      32.899  36.020  29.290  1.00  0.00     0.202 C 
BRANCH  31  32
ATOM     32  C   UNL A   1      32.521  36.086  30.776  1.00  0.00     0.261 C 
BRANCH  32  33
ATOM     33  O   UNL A   1      33.495  36.900  31.462  1.00  0.00    -0.460 OA
BRANCH  33  34
ATOM     34  C   UNL A   1      33.893  36.444  32.682  1.00  0.00     0.338 C 
ATOM     35  O   UNL A   1      33.924  37.106  33.705  1.00  0.00    -0.246 OA
BRANCH  34  36
ATOM     36  C   UNL A   1      34.552  35.111  32.529  1.00  0.00     0.060 A 
ATOM     37  C   UNL A   1      34.405  34.123  33.517  1.00  0.00     0.016 A 
ATOM     38  C   UNL A   1      35.541  34.961  31.564  1.00  0.00     0.016 A 
ATOM     39  C   UNL A   1      35.344  33.078  33.628  1.00  0.00     0.010 A 
ATOM     40  C   UNL A   1      36.513  33.995  31.744  1.00  0.00     0.010 A 
ATOM     41  C   UNL A   1      36.460  33.058  32.791  1.00  0.00    -0.014 A 
BRANCH  41  42
ATOM     42  C   UNL A   1      37.693  32.248  32.987  1.00  0.00     0.031 A 
ATOM     43  C   UNL A   1      37.792  30.908  32.295  1.00  0.00     0.074 A 
ATOM     44  C   UNL A   1      38.800  32.887  33.457  1.00  0.00     0.049 A 
ATOM     45  N   UNL A   1      38.809  30.111  32.316  1.00  0.00    -0.248 NA
ATOM     46  C   UNL A   1      36.701  30.338  31.497  1.00  0.00     0.031 C 
ATOM     47  C   UNL A   1      40.204  32.623  33.130  1.00  0.00     0.029 A 
ATOM     48  N   UNL A   1      38.900  34.002  34.293  1.00  0.00    -0.354 N 
ATOM     49  C   UNL A   1      38.672  29.193  31.277  1.00  0.00     0.074 A 
ATOM     50  C   UNL A   1      37.291  29.300  30.893  1.00  0.00     0.031 C 
ATOM     51  C   UNL A   1      41.019  33.502  33.732  1.00  0.00     0.029 A 
ATOM     52  C   UNL A   1      40.228  34.131  34.751  1.00  0.00     0.049 A 
ATOM     53  H   UNL A   1      38.158  34.605  34.525  1.00  0.00     0.167 HD
ATOM     54  C   UNL A   1      39.787  28.582  30.753  1.00  0.00     0.037 A 
ATOM     55  C   UNL A   1      40.506  33.930  36.077  1.00  0.00     0.037 A 
ATOM     56  C   UNL A   1      40.989  28.877  31.567  1.00  0.00     0.049 A 
ATOM     57  C   UNL A   1      41.166  32.565  36.298  1.00  0.00     0.074 A 
ATOM     58  C   UNL A   1      42.258  29.354  31.282  1.00  0.00     0.029 A 
ATOM     59  N   UNL A   1      40.896  28.879  32.962  1.00  0.00    -0.354 N 
ATOM     60  N   UNL A   1      41.035  31.559  35.459  1.00  0.00    -0.248 NA
ATOM     61  C   UNL A   1      42.155  32.273  37.333  1.00  0.00     0.031 C 
ATOM     62  C   UNL A   1      42.830  29.833  32.498  1.00  0.00     0.029 A 
ATOM     63  C   UNL A   1      41.973  29.515  33.544  1.00  0.00     0.049 A 
ATOM     64  H   UNL A   1      40.154  28.477  33.467  1.00  0.00     0.167 HD
ATOM     65  C   UNL A   1      41.944  30.581  35.746  1.00  0.00     0.074 A 
ATOM     66  C   UNL A   1      42.592  31.055  36.957  1.00  0.00     0.031 C 
ATOM     67  C   UNL A   1      42.167  29.465  34.984  1.00  0.00     0.037 A 
BRANCH  54  68
ATOM     68  C   UNL A   1      39.898  27.913  29.362  1.00  0.00     0.064 A 
ATOM     69  C   UNL A   1      39.443  26.583  29.166  1.00  0.00     0.173 A 
ATOM     70  C   UNL A   1      40.541  28.457  28.224  1.00  0.00     0.173 A 
ATOM     71  F   UNL A   1      38.769  25.936  30.125  1.00  0.00    -0.203 F 
ATOM     72  C   UNL A   1      39.651  25.861  27.977  1.00  0.00     0.198 A 
ATOM     73  C   UNL A   1      40.685  27.758  27.012  1.00  0.00     0.198 A 
ATOM     74  F   UNL A   1      41.100  29.670  28.237  1.00  0.00    -0.203 F 
ATOM     75  F   UNL A   1      39.247  24.585  27.890  1.00  0.00    -0.200 F 
ATOM     76  C   UNL A   1      40.261  26.453  26.893  1.00  0.00     0.200 A 
ATOM     77  F   UNL A   1      41.258  28.364  25.959  1.00  0.00    -0.200 F 
ATOM     78  F   UNL A   1      40.433  25.779  25.747  1.00  0.00    -0.200 F 
ENDBRANCH  54  68
BRANCH  55  79
ATOM     79  C   UNL A   1      39.589  34.788  36.903  1.00  0.00     0.064 A 
ATOM     80  C   UNL A   1      38.768  34.016  37.767  1.00  0.00     0.173 A 
ATOM     81  C   UNL A   1      40.048  36.018  37.404  1.00  0.00     0.173 A 
ATOM     82  F   UNL A   1      38.259  32.852  37.331  1.00  0.00    -0.203 F 
ATOM     83  C   UNL A   1      38.722  34.277  39.138  1.00  0.00     0.198 A 
ATOM     84  C   UNL A   1      39.944  36.305  38.774  1.00  0.00     0.198 A 
ATOM     85  F   UNL A   1      40.787  36.827  36.633  1.00  0.00    -0.203 F 
ATOM     86  F   UNL A   1      38.207  33.363  39.976  1.00  0.00    -0.200 F 
ATOM     87  C   UNL A   1      39.359  35.393  39.646  1.00  0.00     0.200 A 
ATOM     88  F   UNL A   1      40.550  37.389  39.279  1.00  0.00    -0.200 F 
ATOM     89  F   UNL A   1      39.491  35.544  40.972  1.00  0.00    -0.200 F 
ENDBRANCH  55  79
BRANCH  67  90
ATOM     90  C   UNL A   1      42.635  28.148  35.557  1.00  0.00     0.064 A 
ATOM     91  C   UNL A   1      43.976  27.740  35.483  1.00  0.00     0.173 A 
ATOM     92  C   UNL A   1      41.810  27.383  36.421  1.00  0.00     0.173 A 
ATOM     93  F   UNL A   1      44.887  28.454  34.807  1.00  0.00    -0.203 F 
ATOM     94  C   UNL A   1      44.443  26.620  36.166  1.00  0.00     0.198 A 
ATOM     95  C   UNL A   1      42.297  26.304  37.154  1.00  0.00     0.198 A 
ATOM     96  F   UNL A   1      40.519  27.676  36.625  1.00  0.00    -0.203 F 
ATOM     97  F   UNL A   1      45.724  26.253  36.029  1.00  0.00    -0.200 F 
ATOM     98  C   UNL A   1      43.609  25.912  37.012  1.00  0.00     0.200 A 
ATOM     99  F   UNL A   1      41.494  25.673  38.022  1.00  0.00    -0.200 F 
ATOM    100  F   UNL A   1      44.079  24.868  37.706  1.00  0.00    -0.200 F 
ENDBRANCH  67  90
ENDBRANCH  41  42
ENDBRANCH  34  36
ENDBRANCH  33  34
ENDBRANCH  32  33
ENDBRANCH  31  32
ENDBRANCH  30  31
ENDBRANCH  29  30
ENDBRANCH  28  29
ENDBRANCH  27  28
ENDBRANCH   1  27
TORSDOF 23
ENDMDL
MODEL 2
REMARK VINA RESULT:     -11.3      1.469      2.251
REMARK SMILES Cc1ccccc1CNc1ccc(C(=O)OCCOCCOCCOCCOC(=O)c2ccc(-c3c4nc(c(-c5c(F)c(F)c(F)c(F)c5F)c5ccc([nH]5)c(-c5c(F)c(F)c(F)c(F)c5F)c5nc(c(-c6c(F)c(F)c(F)c(F)c6F)c6ccc3[nH]6)C=C5)C=C4)cc2)c(F)c1F
REMARK SMILES IDX 21 1 20 2 19 3 18 4 17 5 16 6 14 7 15 8 13 9 10 10 11 11
REMARK SMILES IDX 96 12 12 13 94 14 97 15 95 16 9 17 8 19 7 20 1 21 2 22 3 23
REMARK SMILES IDX 4 24 6 25 5 26 22 27 23 28 24 29 25 30 26 31 27 32 28 33
REMARK SMILES IDX 29 34 30 35 31 36 32 37 93 38 33 39 92 40 34 41 35 42 36 43
REMARK SMILES IDX 86 44 37 45 91 46 85 47 87 48 38 49 90 50 84 51 83 52 39 54
REMARK SMILES IDX 71 55 51 56 70 57 52 58 55 59 69 60 88 61 53 62 54 63 68 65
REMARK SMILES IDX 89 66 56 67 40 68 41 69 49 70 42 71 43 72 47 73 50 74 44 75
REMARK SMILES IDX 45 76 48 77 46 78 72 79 73 80 81 81 74 82 75 83 79 84 82 85
REMARK SMILES IDX 76 86 77 87 80 88 78 89 57 90 58 91 66 92 59 93 60 94 64 95
REMARK SMILES IDX 67 96 61 97 62 98 65 99 63 100
REMARK H PARENT 9 18 87 53 55 64
REMARK Flexibility Score: inf
ROOT
ATOM      1  C   UNL A   1      33.830  29.236  27.366  1.00  0.00     0.188 C 
ENDROOT
BRANCH   1   2
ATOM      2  C   UNL A   1      32.516  29.739  26.741  1.00  0.00     0.188 C 
BRANCH   2   3
ATOM      3  O   UNL A   1      32.224  29.205  25.459  1.00  0.00    -0.376 OA
BRANCH   3   4
ATOM      4  C   UNL A   1      31.141  29.867  24.823  1.00  0.00     0.202 C 
BRANCH   4   5
ATOM      5  C   UNL A   1      30.718  29.031  23.643  1.00  0.00     0.261 C 
BRANCH   5   6
ATOM      6  O   UNL A   1      31.095  27.686  23.890  1.00  0.00    -0.460 OA
BRANCH   6   7
ATOM      7  C   UNL A   1      31.077  26.970  22.758  1.00  0.00     0.341 C 
ATOM      8  O   UNL A   1      30.872  27.402  21.633  1.00  0.00    -0.246 OA
BRANCH   7   9
ATOM      9  C   UNL A   1      31.487  25.612  23.112  1.00  0.00     0.099 A 
ATOM     10  C   UNL A   1      32.313  22.997  23.439  1.00  0.00     0.074 A 
ATOM     11  C   UNL A   1      30.982  23.335  23.704  1.00  0.00     0.030 A 
ATOM     12  C   UNL A   1      33.255  24.016  23.235  1.00  0.00     0.182 A 
ATOM     13  C   UNL A   1      30.557  24.638  23.505  1.00  0.00     0.021 A 
ATOM     14  C   UNL A   1      32.843  25.323  23.078  1.00  0.00     0.175 A 
ATOM     15  F   UNL A   1      34.550  23.705  23.066  1.00  0.00    -0.201 F 
ATOM     16  F   UNL A   1      33.756  26.278  22.846  1.00  0.00    -0.203 F 
BRANCH  10  17
ATOM     17  N   UNL A   1      32.625  21.672  23.098  1.00  0.00    -0.379 N 
ATOM     18  H   UNL A   1      33.106  21.422  22.275  1.00  0.00     0.161 HD
BRANCH  17  19
ATOM     19  C   UNL A   1      32.163  20.698  24.090  1.00  0.00     0.149 C 
BRANCH  19  20
ATOM     20  C   UNL A   1      33.005  19.441  24.043  1.00  0.00    -0.026 A 
ATOM     21  C   UNL A   1      35.008  20.578  25.166  1.00  0.00     0.044 C 
ATOM     22  C   UNL A   1      34.318  19.395  24.546  1.00  0.00    -0.046 A 
ATOM     23  C   UNL A   1      35.024  18.181  24.494  1.00  0.00     0.004 A 
ATOM     24  C   UNL A   1      34.462  17.038  23.925  1.00  0.00     0.000 A 
ATOM     25  C   UNL A   1      32.455  18.277  23.464  1.00  0.00     0.006 A 
ATOM     26  C   UNL A   1      33.179  17.087  23.399  1.00  0.00     0.000 A 
ENDBRANCH  19  20
ENDBRANCH  17  19
ENDBRANCH  10  17
ENDBRANCH   7   9
ENDBRANCH   6   7
ENDBRANCH   5   6
ENDBRANCH   4   5
ENDBRANCH   3   4
ENDBRANCH   2   3
ENDBRANCH   1   2
BRANCH   1  27
ATOM     27  O   UNL A   1      34.973  30.080  27.375  1.00  0.00    -0.377 OA
BRANCH  27  28
ATOM     28  C   UNL A   1      35.007  31.193  28.254  1.00  0.00     0.188 C 
BRANCH  28  29
ATOM     29  C   UNL A   1      34.923  32.603  27.694  1.00  0.00     0.188 C 
BRANCH  29  30
ATOM     30  O   UNL A   1      33.692  33.171  28.121  1.00  0.00    -0.376 OA
BRANCH  30  31
ATOM     31  C   UNL A   1      33.664  34.593  28.182  1.00  0.00     0.202 C 
BRANCH  31  32
ATOM     32  C   UNL A   1      32.996  35.134  29.453  1.00  0.00     0.261 C 
BRANCH  32  33
ATOM     33  O   UNL A   1      34.027  35.509  30.390  1.00  0.00    -0.460 OA
BRANCH  33  34
ATOM     34  C   UNL A   1      34.136  34.721  31.495  1.00  0.00     0.338 C 
ATOM     35  O   UNL A   1      33.733  35.009  32.608  1.00  0.00    -0.246 OA
BRANCH  34  36
ATOM     36  C   UNL A   1      35.069  33.587  31.212  1.00  0.00     0.060 A 
ATOM     37  C   UNL A   1      34.847  32.320  31.778  1.00  0.00     0.016 A 
ATOM     38  C   UNL A   1      36.304  33.864  30.638  1.00  0.00     0.016 A 
ATOM     39  C   UNL A   1      35.907  31.399  31.907  1.00  0.00     0.010 A 
ATOM     40  C   UNL A   1      37.358  32.998  30.862  1.00  0.00     0.010 A 
ATOM     41  C   UNL A   1      37.196  31.770  31.526  1.00  0.00    -0.014 A 
BRANCH  41  42
ATOM     42  C   UNL A   1      38.458  31.072  31.896  1.00  0.00     0.031 A 
ATOM     43  C   UNL A   1      38.839  29.824  31.136  1.00  0.00     0.074 A 
ATOM     44  C   UNL A   1      39.376  31.771  32.621  1.00  0.00     0.049 A 
ATOM     45  N   UNL A   1      39.921  29.135  31.294  1.00  0.00    -0.248 NA
ATOM     46  C   UNL A   1      37.990  29.228  30.099  1.00  0.00     0.031 C 
ATOM     47  C   UNL A   1      40.836  31.682  32.556  1.00  0.00     0.029 A 
ATOM     48  N   UNL A   1      39.188  32.803  33.544  1.00  0.00    -0.354 N 
ATOM     49  C   UNL A   1      40.088  28.314  30.180  1.00  0.00     0.074 A 
ATOM     50  C   UNL A   1      38.800  28.319  29.544  1.00  0.00     0.031 C 
ATOM     51  C   UNL A   1      41.418  32.576  33.370  1.00  0.00     0.029 A 
ATOM     52  C   UNL A   1      40.383  33.019  34.261  1.00  0.00     0.049 A 
ATOM     53  H   UNL A   1      38.350  33.303  33.673  1.00  0.00     0.167 HD
ATOM     54  C   UNL A   1      41.345  27.872  29.838  1.00  0.00     0.037 A 
ATOM     55  C   UNL A   1      40.432  32.717  35.596  1.00  0.00     0.037 A 
ATOM     56  C   UNL A   1      42.332  28.205  30.892  1.00  0.00     0.049 A 
ATOM     57  C   UNL A   1      41.194  31.411  35.836  1.00  0.00     0.074 A 
ATOM     58  C   UNL A   1      43.567  28.833  30.898  1.00  0.00     0.029 A 
ATOM     59  N   UNL A   1      41.983  28.061  32.238  1.00  0.00    -0.354 N 
ATOM     60  N   UNL A   1      41.340  30.484  34.913  1.00  0.00    -0.248 NA
ATOM     61  C   UNL A   1      42.002  31.120  37.019  1.00  0.00     0.031 C 
ATOM     62  C   UNL A   1      43.843  29.245  32.235  1.00  0.00     0.029 A 
ATOM     63  C   UNL A   1      42.850  28.742  33.066  1.00  0.00     0.049 A 
ATOM     64  H   UNL A   1      41.212  27.539  32.556  1.00  0.00     0.167 HD
ATOM     65  C   UNL A   1      42.289  29.578  35.295  1.00  0.00     0.074 A 
ATOM     66  C   UNL A   1      42.641  29.994  36.642  1.00  0.00     0.031 C 
ATOM     67  C   UNL A   1      42.778  28.571  34.508  1.00  0.00     0.037 A 
BRANCH  54  68
ATOM     68  C   UNL A   1      41.790  27.358  28.449  1.00  0.00     0.064 A 
ATOM     69  C   UNL A   1      41.742  28.213  27.317  1.00  0.00     0.173 A 
ATOM     70  C   UNL A   1      42.150  26.027  28.128  1.00  0.00     0.173 A 
ATOM     71  F   UNL A   1      41.467  29.517  27.449  1.00  0.00    -0.203 F 
ATOM     72  C   UNL A   1      41.983  27.773  26.003  1.00  0.00     0.198 A 
ATOM     73  C   UNL A   1      42.460  25.605  26.822  1.00  0.00     0.198 A 
ATOM     74  F   UNL A   1      42.179  25.059  29.047  1.00  0.00    -0.203 F 
ATOM     75  F   UNL A   1      41.857  28.629  24.977  1.00  0.00    -0.200 F 
ATOM     76  C   UNL A   1      42.356  26.470  25.756  1.00  0.00     0.200 A 
ATOM     77  F   UNL A   1      42.847  24.337  26.607  1.00  0.00    -0.200 F 
ATOM     78  F   UNL A   1      42.616  26.054  24.508  1.00  0.00    -0.200 F 
ENDBRANCH  54  68
BRANCH  55  79
ATOM     79  C   UNL A   1      39.283  33.395  36.291  1.00  0.00     0.064 A 
ATOM     80  C   UNL A   1      38.357  32.461  36.827  1.00  0.00     0.173 A 
ATOM     81  C   UNL A   1      39.512  34.557  37.046  1.00  0.00     0.173 A 
ATOM     82  F   UNL A   1      38.060  31.350  36.132  1.00  0.00    -0.203 F 
ATOM     83  C   UNL A   1      37.982  32.511  38.171  1.00  0.00     0.198 A 
ATOM     84  C   UNL A   1      39.078  34.630  38.379  1.00  0.00     0.198 A 
ATOM     85  F   UNL A   1      40.334  35.509  36.585  1.00  0.00    -0.203 F 
ATOM     86  F   UNL A   1      37.371  31.457  38.734  1.00  0.00    -0.200 F 
ATOM     87  C   UNL A   1      38.391  33.569  38.959  1.00  0.00     0.200 A 
ATOM     88  F   UNL A   1      39.461  35.657  39.152  1.00  0.00    -0.200 F 
ATOM     89  F   UNL A   1      38.209  33.527  40.287  1.00  0.00    -0.200 F 
ENDBRANCH  55  79
BRANCH  67  90
ATOM     90  C   UNL A   1      43.284  27.257  35.058  1.00  0.00     0.064 A 
ATOM     91  C   UNL A   1      42.420  26.190  35.345  1.00  0.00     0.173 A 
ATOM     92  C   UNL A   1      44.668  26.943  35.064  1.00  0.00     0.173 A 
ATOM     93  F   UNL A   1      41.090  26.322  35.244  1.00  0.00    -0.203 F 
ATOM     94  C   UNL A   1      42.898  24.924  35.676  1.00  0.00     0.198 A 
ATOM     95  C   UNL A   1      45.138  25.660  35.329  1.00  0.00     0.198 A 
ATOM     96  F   UNL A   1      45.609  27.849  34.769  1.00  0.00    -0.203 F 
ATOM     97  F   UNL A   1      42.029  23.952  35.980  1.00  0.00    -0.200 F 
ATOM     98  C   UNL A   1      44.254  24.656  35.654  1.00  0.00     0.200 A 
ATOM     99  F   UNL A   1      46.450  25.400  35.235  1.00  0.00    -0.200 F 
ATOM    100  F   UNL A   1      44.703  23.423  35.920  1.00  0.00    -0.200 F 
ENDBRANCH  67  90
ENDBRANCH  41  42
ENDBRANCH  34  36
ENDBRANCH  33  34
ENDBRANCH  32  33
ENDBRANCH  31  32
ENDBRANCH  30  31
ENDBRANCH  29  30
ENDBRANCH  28  29
ENDBRANCH  27  28
ENDBRANCH   1  27
TORSDOF 23
ENDMDL
MODEL 3
REMARK VINA RESULT:     -11.2      5.528     11.687
REMARK SMILES Cc1ccccc1CNc1ccc(C(=O)OCCOCCOCCOCCOC(=O)c2ccc(-c3c4nc(c(-c5c(F)c(F)c(F)c(F)c5F)c5ccc([nH]5)c(-c5c(F)c(F)c(F)c(F)c5F)c5nc(c(-c6c(F)c(F)c(F)c(F)c6F)c6ccc3[nH]6)C=C5)C=C4)cc2)c(F)c1F
REMARK SMILES IDX 21 1 20 2 19 3 18 4 17 5 16 6 14 7 15 8 13 9 10 10 11 11
REMARK SMILES IDX 96 12 12 13 94 14 97 15 95 16 9 17 8 19 7 20 1 21 2 22 3 23
REMARK SMILES IDX 4 24 6 25 5 26 22 27 23 28 24 29 25 30 26 31 27 32 28 33
REMARK SMILES IDX 29 34 30 35 31 36 32 37 93 38 33 39 92 40 34 41 35 42 36 43
REMARK SMILES IDX 86 44 37 45 91 46 85 47 87 48 38 49 90 50 84 51 83 52 39 54
REMARK SMILES IDX 71 55 51 56 70 57 52 58 55 59 69 60 88 61 53 62 54 63 68 65
REMARK SMILES IDX 89 66 56 67 40 68 41 69 49 70 42 71 43 72 47 73 50 74 44 75
REMARK SMILES IDX 45 76 48 77 46 78 72 79 73 80 81 81 74 82 75 83 79 84 82 85
REMARK SMILES IDX 76 86 77 87 80 88 78 89 57 90 58 91 66 92 59 93 60 94 64 95
REMARK SMILES IDX 67 96 61 97 62 98 65 99 63 100
REMARK H PARENT 9 18 87 53 55 64
REMARK Flexibility Score: inf
ROOT
ATOM      1  C   UNL A   1      35.947  22.638  23.753  1.00  0.00     0.188 C 
ENDROOT
BRANCH   1   2
ATOM      2  C   UNL A   1      34.658  22.006  24.307  1.00  0.00     0.188 C 
BRANCH   2   3
ATOM      3  O   UNL A   1      33.502  22.218  23.513  1.00  0.00    -0.376 OA
BRANCH   3   4
ATOM      4  C   UNL A   1      32.391  21.447  23.945  1.00  0.00     0.202 C 
BRANCH   4   5
ATOM      5  C   UNL A   1      32.451  21.352  25.447  1.00  0.00     0.261 C 
BRANCH   5   6
ATOM      6  O   UNL A   1      31.437  22.184  25.988  1.00  0.00    -0.460 OA
BRANCH   6   7
ATOM      7  C   UNL A   1      31.947  23.031  26.892  1.00  0.00     0.341 C 
ATOM      8  O   UNL A   1      32.539  22.724  27.916  1.00  0.00    -0.246 OA
BRANCH   7   9
ATOM      9  C   UNL A   1      31.781  24.377  26.347  1.00  0.00     0.099 A 
ATOM     10  C   UNL A   1      31.546  27.036  25.639  1.00  0.00     0.074 A 
ATOM     11  C   UNL A   1      30.403  26.229  25.664  1.00  0.00     0.030 A 
ATOM     12  C   UNL A   1      32.812  26.443  25.748  1.00  0.00     0.182 A 
ATOM     13  C   UNL A   1      30.513  24.905  26.055  1.00  0.00     0.021 A 
ATOM     14  C   UNL A   1      32.929  25.113  26.097  1.00  0.00     0.175 A 
ATOM     15  F   UNL A   1      33.915  27.198  25.639  1.00  0.00    -0.201 F 
ATOM     16  F   UNL A   1      34.149  24.574  26.233  1.00  0.00    -0.203 F 
BRANCH  10  17
ATOM     17  N   UNL A   1      31.403  28.424  25.796  1.00  0.00    -0.379 N 
ATOM     18  H   UNL A   1      31.122  28.849  26.639  1.00  0.00     0.161 HD
BRANCH  17  19
ATOM     19  C   UNL A   1      31.716  29.176  24.578  1.00  0.00     0.149 C 
BRANCH  19  20
ATOM     20  C   UNL A   1      30.450  29.648  23.897  1.00  0.00    -0.026 A 
ATOM     21  C   UNL A   1      30.291  27.551  22.434  1.00  0.00     0.044 C 
ATOM     22  C   UNL A   1      29.797  28.888  22.910  1.00  0.00    -0.046 A 
ATOM     23  C   UNL A   1      28.607  29.382  22.346  1.00  0.00     0.004 A 
ATOM     24  C   UNL A   1      28.086  30.620  22.722  1.00  0.00     0.000 A 
ATOM     25  C   UNL A   1      29.912  30.903  24.259  1.00  0.00     0.006 A 
ATOM     26  C   UNL A   1      28.744  31.388  23.672  1.00  0.00     0.000 A 
ENDBRANCH  19  20
ENDBRANCH  17  19
ENDBRANCH  10  17
ENDBRANCH   7   9
ENDBRANCH   6   7
ENDBRANCH   5   6
ENDBRANCH   4   5
ENDBRANCH   3   4
ENDBRANCH   2   3
ENDBRANCH   1   2
BRANCH   1  27
ATOM     27  O   UNL A   1      37.209  22.088  24.105  1.00  0.00    -0.377 OA
BRANCH  27  28
ATOM     28  C   UNL A   1      37.530  21.909  25.475  1.00  0.00     0.188 C 
BRANCH  28  29
ATOM     29  C   UNL A   1      38.941  21.511  25.876  1.00  0.00     0.188 C 
BRANCH  29  30
ATOM     30  O   UNL A   1      39.146  20.162  25.475  1.00  0.00    -0.376 OA
BRANCH  30  31
ATOM     31  C   UNL A   1      40.325  19.548  25.980  1.00  0.00     0.202 C 
BRANCH  31  32
ATOM     32  C   UNL A   1      40.841  20.193  27.274  1.00  0.00     0.261 C 
BRANCH  32  33
ATOM     33  O   UNL A   1      42.283  20.160  27.261  1.00  0.00    -0.460 OA
BRANCH  33  34
ATOM     34  C   UNL A   1      42.885  20.974  26.350  1.00  0.00     0.338 C 
ATOM     35  O   UNL A   1      43.835  20.667  25.652  1.00  0.00    -0.246 OA
BRANCH  34  36
ATOM     36  C   UNL A   1      42.401  22.377  26.534  1.00  0.00     0.060 A 
ATOM     37  C   UNL A   1      42.437  23.291  25.468  1.00  0.00     0.016 A 
ATOM     38  C   UNL A   1      42.199  22.851  27.825  1.00  0.00     0.016 A 
ATOM     39  C   UNL A   1      42.430  24.679  25.715  1.00  0.00     0.010 A 
ATOM     40  C   UNL A   1      42.297  24.209  28.064  1.00  0.00     0.010 A 
ATOM     41  C   UNL A   1      42.448  25.148  27.029  1.00  0.00    -0.014 A 
BRANCH  41  42
ATOM     42  C   UNL A   1      42.777  26.532  27.465  1.00  0.00     0.031 A 
ATOM     43  C   UNL A   1      41.641  27.487  27.747  1.00  0.00     0.074 A 
ATOM     44  C   UNL A   1      44.033  26.762  27.940  1.00  0.00     0.049 A 
ATOM     45  N   UNL A   1      41.752  28.698  28.183  1.00  0.00    -0.248 NA
ATOM     46  C   UNL A   1      40.231  27.135  27.544  1.00  0.00     0.031 C 
ATOM     47  C   UNL A   1      44.443  27.690  28.997  1.00  0.00     0.029 A 
ATOM     48  N   UNL A   1      45.237  26.131  27.623  1.00  0.00    -0.354 N 
ATOM     49  C   UNL A   1      40.514  29.106  28.675  1.00  0.00     0.074 A 
ATOM     50  C   UNL A   1      39.588  28.150  28.132  1.00  0.00     0.031 C 
ATOM     51  C   UNL A   1      45.758  27.596  29.247  1.00  0.00     0.029 A 
ATOM     52  C   UNL A   1      46.315  26.887  28.130  1.00  0.00     0.049 A 
ATOM     53  H   UNL A   1      45.322  25.287  27.123  1.00  0.00     0.167 HD
ATOM     54  C   UNL A   1      40.448  30.099  29.624  1.00  0.00     0.037 A 
ATOM     55  C   UNL A   1      47.169  27.511  27.261  1.00  0.00     0.037 A 
ATOM     56  C   UNL A   1      41.771  30.735  29.822  1.00  0.00     0.049 A 
ATOM     57  C   UNL A   1      46.887  29.015  27.198  1.00  0.00     0.074 A 
ATOM     58  C   UNL A   1      42.556  31.010  30.930  1.00  0.00     0.029 A 
ATOM     59  N   UNL A   1      42.583  31.005  28.717  1.00  0.00    -0.354 N 
ATOM     60  N   UNL A   1      45.725  29.543  27.523  1.00  0.00    -0.248 NA
ATOM     61  C   UNL A   1      47.896  30.046  26.968  1.00  0.00     0.031 C 
ATOM     62  C   UNL A   1      43.890  31.238  30.477  1.00  0.00     0.029 A 
ATOM     63  C   UNL A   1      43.888  31.246  29.089  1.00  0.00     0.049 A 
ATOM     64  H   UNL A   1      42.262  31.020  27.786  1.00  0.00     0.167 HD
ATOM     65  C   UNL A   1      45.838  30.897  27.653  1.00  0.00     0.074 A 
ATOM     66  C   UNL A   1      47.207  31.171  27.250  1.00  0.00     0.031 C 
ATOM     67  C   UNL A   1      44.854  31.729  28.114  1.00  0.00     0.037 A 
BRANCH  54  68
ATOM     68  C   UNL A   1      39.269  30.369  30.590  1.00  0.00     0.064 A 
ATOM     69  C   UNL A   1      38.149  31.129  30.162  1.00  0.00     0.173 A 
ATOM     70  C   UNL A   1      39.222  30.029  31.963  1.00  0.00     0.173 A 
ATOM     71  F   UNL A   1      38.011  31.491  28.880  1.00  0.00    -0.203 F 
ATOM     72  C   UNL A   1      37.118  31.541  31.025  1.00  0.00     0.198 A 
ATOM     73  C   UNL A   1      38.155  30.383  32.809  1.00  0.00     0.198 A 
ATOM     74  F   UNL A   1      40.219  29.378  32.568  1.00  0.00    -0.203 F 
ATOM     75  F   UNL A   1      36.124  32.312  30.559  1.00  0.00    -0.200 F 
ATOM     76  C   UNL A   1      37.113  31.157  32.347  1.00  0.00     0.200 A 
ATOM     77  F   UNL A   1      38.157  29.974  34.088  1.00  0.00    -0.200 F 
ATOM     78  F   UNL A   1      36.117  31.522  33.167  1.00  0.00    -0.200 F 
ENDBRANCH  54  68
BRANCH  55  79
ATOM     79  C   UNL A   1      47.670  26.504  26.262  1.00  0.00     0.064 A 
ATOM     80  C   UNL A   1      47.324  26.854  24.930  1.00  0.00     0.173 A 
ATOM     81  C   UNL A   1      48.925  25.903  26.449  1.00  0.00     0.173 A 
ATOM     82  F   UNL A   1      46.119  27.392  24.679  1.00  0.00    -0.203 F 
ATOM     83  C   UNL A   1      48.298  26.938  23.933  1.00  0.00     0.198 A 
ATOM     84  C   UNL A   1      49.882  25.933  25.422  1.00  0.00     0.198 A 
ATOM     85  F   UNL A   1      49.305  25.499  27.668  1.00  0.00    -0.203 F 
ATOM     86  F   UNL A   1      48.022  27.567  22.780  1.00  0.00    -0.200 F 
ATOM     87  C   UNL A   1      49.590  26.528  24.200  1.00  0.00     0.200 A 
ATOM     88  F   UNL A   1      51.138  25.529  25.665  1.00  0.00    -0.200 F 
ATOM     89  F   UNL A   1      50.571  26.789  23.323  1.00  0.00    -0.200 F 
ENDBRANCH  55  79
BRANCH  67  90
ATOM     90  C   UNL A   1      44.711  33.170  27.680  1.00  0.00     0.064 A 
ATOM     91  C   UNL A   1      44.069  33.525  26.484  1.00  0.00     0.173 A 
ATOM     92  C   UNL A   1      44.980  34.240  28.571  1.00  0.00     0.173 A 
ATOM     93  F   UNL A   1      43.642  32.596  25.618  1.00  0.00    -0.203 F 
ATOM     94  C   UNL A   1      43.775  34.851  26.172  1.00  0.00     0.198 A 
ATOM     95  C   UNL A   1      44.623  35.555  28.285  1.00  0.00     0.198 A 
ATOM     96  F   UNL A   1      45.552  34.050  29.768  1.00  0.00    -0.203 F 
ATOM     97  F   UNL A   1      43.196  35.137  25.000  1.00  0.00    -0.200 F 
ATOM     98  C   UNL A   1      44.038  35.862  27.077  1.00  0.00     0.200 A 
ATOM     99  F   UNL A   1      44.822  36.513  29.202  1.00  0.00    -0.200 F 
ATOM    100  F   UNL A   1      43.704  37.127  26.793  1.00  0.00    -0.200 F 
ENDBRANCH  67  90
ENDBRANCH  41  42
ENDBRANCH  34  36
ENDBRANCH  33  34
ENDBRANCH  32  33
ENDBRANCH  31  32
ENDBRANCH  30  31
ENDBRANCH  29  30
ENDBRANCH  28  29
ENDBRANCH  27  28
ENDBRANCH   1  27
TORSDOF 23
ENDMDL
