MODEL 1
REMARK VINA RESULT:     -11.2      0.000      0.000
REMARK SMILES Cc1cc(C(=O)OCCOCCOCCOCCOC(=O)c2ccc(-c3c4nc(c(-c5c(F)c(F)c(F)c(F)c5F)c5ccc([nH]5)c(-c5c(F)c(F)c(F)c(F)c5F)c5nc(c(-c6c(F)c(F)c(F)c(F)c6F)c6ccc3[nH]6)C=C5)C=C4)cc2)ccc1NC(=O)N1C[C@@H](C)[C@H](C)C1
REMARK SMILES IDX 14 1 13 2 12 3 11 4 10 5 9 6 8 7 7 8 5 9 6 10 4 11 1 12 2 13
REMARK SMILES IDX 3 14 87 15 86 16 85 17 88 18 89 19 90 21 91 22 92 23 97 24
REMARK SMILES IDX 93 25 95 26 94 27 96 28 15 29 16 30 17 31 18 32 19 33 20 34
REMARK SMILES IDX 21 35 22 36 23 37 84 38 24 39 83 40 25 41 26 42 27 43 77 44
REMARK SMILES IDX 28 45 82 46 76 47 78 48 29 49 81 50 75 51 74 52 30 54 62 55
REMARK SMILES IDX 42 56 61 57 43 58 46 59 60 60 79 61 44 62 45 63 59 65 80 66
REMARK SMILES IDX 47 67 31 68 32 69 40 70 33 71 34 72 38 73 41 74 35 75 36 76
REMARK SMILES IDX 39 77 37 78 63 79 64 80 72 81 65 82 66 83 70 84 73 85 67 86
REMARK SMILES IDX 68 87 71 88 69 89 48 90 49 91 57 92 50 93 51 94 55 95 58 96
REMARK SMILES IDX 52 97 53 98 56 99 54 100
REMARK H PARENT 88 20 78 53 46 64
REMARK Flexibility Score: inf
ROOT
ATOM      1  C   UNL A   1      32.817  35.530  28.820  1.00  0.00     0.188 C 
ENDROOT
BRANCH   1   2
ATOM      2  O   UNL A   1      32.527  34.139  28.681  1.00  0.00    -0.377 OA
BRANCH   2   3
ATOM      3  C   UNL A   1      32.962  33.472  27.502  1.00  0.00     0.188 C 
BRANCH   3   4
ATOM      4  C   UNL A   1      33.221  31.964  27.600  1.00  0.00     0.188 C 
BRANCH   4   5
ATOM      5  O   UNL A   1      32.354  31.088  26.890  1.00  0.00    -0.376 OA
BRANCH   5   6
ATOM      6  C   UNL A   1      32.978  29.963  26.270  1.00  0.00     0.202 C 
BRANCH   6   7
ATOM      7  C   UNL A   1      32.443  29.557  24.896  1.00  0.00     0.261 C 
BRANCH   7   8
ATOM      8  O   UNL A   1      31.057  29.240  25.027  1.00  0.00    -0.460 OA
BRANCH   8   9
ATOM      9  C   UNL A   1      30.401  29.017  23.871  1.00  0.00     0.338 C 
ATOM     10  O   UNL A   1      30.052  29.843  23.053  1.00  0.00    -0.246 OA
BRANCH   9  11
ATOM     11  C   UNL A   1      30.488  27.559  23.625  1.00  0.00     0.060 A 
ATOM     12  C   UNL A   1      32.682  25.485  21.380  1.00  0.00     0.046 C 
ATOM     13  C   UNL A   1      31.589  25.792  22.369  1.00  0.00    -0.027 A 
ATOM     14  C   UNL A   1      31.294  27.150  22.564  1.00  0.00     0.021 A 
ATOM     15  C   UNL A   1      30.991  24.834  23.215  1.00  0.00     0.045 A 
ATOM     16  C   UNL A   1      30.360  25.274  24.376  1.00  0.00     0.027 A 
ATOM     17  C   UNL A   1      30.055  26.618  24.559  1.00  0.00     0.018 A 
BRANCH  15  18
ATOM     18  N   UNL A   1      31.044  23.477  22.872  1.00  0.00    -0.308 N 
ATOM     19  C   UNL A   1      31.928  22.475  23.100  1.00  0.00     0.321 C 
ATOM     20  H   UNL A   1      30.264  23.185  22.347  1.00  0.00     0.171 HD
ATOM     21  O   UNL A   1      31.787  21.456  22.415  1.00  0.00    -0.248 OA
ATOM     22  N   UNL A   1      32.925  22.579  24.026  1.00  0.00    -0.324 N 
ATOM     23  C   UNL A   1      34.121  21.769  23.856  1.00  0.00     0.125 C 
ATOM     24  C   UNL A   1      32.754  22.936  25.438  1.00  0.00     0.125 C 
ATOM     25  C   UNL A   1      34.550  21.380  25.268  1.00  0.00     0.010 C 
ATOM     26  C   UNL A   1      34.100  22.594  26.091  1.00  0.00     0.010 C 
ATOM     27  C   UNL A   1      36.035  21.075  25.354  1.00  0.00     0.010 C 
ATOM     28  C   UNL A   1      33.993  22.329  27.588  1.00  0.00     0.010 C 
ENDBRANCH  15  18
ENDBRANCH   9  11
ENDBRANCH   8   9
ENDBRANCH   7   8
ENDBRANCH   6   7
ENDBRANCH   5   6
ENDBRANCH   4   5
ENDBRANCH   3   4
ENDBRANCH   2   3
ENDBRANCH   1   2
BRANCH   1  29
ATOM     29  C   UNL A   1      32.923  36.098  30.236  1.00  0.00     0.188 C 
BRANCH  29  30
ATOM     30  O   UNL A   1      32.750  35.018  31.155  1.00  0.00    -0.376 OA
BRANCH  30  31
ATOM     31  C   UNL A   1      33.627  35.022  32.280  1.00  0.00     0.202 C 
BRANCH  31  32
ATOM     32  C   UNL A   1      35.009  34.428  31.986  1.00  0.00     0.261 C 
BRANCH  32  33
ATOM     33  O   UNL A   1      34.874  33.369  31.021  1.00  0.00    -0.460 OA
BRANCH  33  34
ATOM     34  C   UNL A   1      35.772  33.410  30.002  1.00  0.00     0.338 C 
ATOM     35  O   UNL A   1      35.838  34.280  29.152  1.00  0.00    -0.246 OA
BRANCH  34  36
ATOM     36  C   UNL A   1      36.483  32.104  29.914  1.00  0.00     0.060 A 
ATOM     37  C   UNL A   1      36.310  31.148  30.927  1.00  0.00     0.016 A 
ATOM     38  C   UNL A   1      37.521  31.955  28.999  1.00  0.00     0.016 A 
ATOM     39  C   UNL A   1      37.272  30.144  31.119  1.00  0.00     0.010 A 
ATOM     40  C   UNL A   1      38.505  31.016  29.247  1.00  0.00     0.010 A 
ATOM     41  C   UNL A   1      38.431  30.140  30.339  1.00  0.00    -0.014 A 
BRANCH  41  42
ATOM     42  C   UNL A   1      39.696  29.469  30.709  1.00  0.00     0.031 A 
ATOM     43  C   UNL A   1      40.136  28.197  30.038  1.00  0.00     0.074 A 
ATOM     44  C   UNL A   1      40.625  30.209  31.373  1.00  0.00     0.049 A 
ATOM     45  N   UNL A   1      41.251  27.591  30.291  1.00  0.00    -0.248 NA
ATOM     46  C   UNL A   1      39.366  27.483  29.015  1.00  0.00     0.031 C 
ATOM     47  C   UNL A   1      42.080  30.059  31.279  1.00  0.00     0.029 A 
ATOM     48  N   UNL A   1      40.511  31.310  32.214  1.00  0.00    -0.354 N 
ATOM     49  C   UNL A   1      41.519  26.727  29.252  1.00  0.00     0.074 A 
ATOM     50  C   UNL A   1      40.258  26.584  28.574  1.00  0.00     0.031 C 
ATOM     51  C   UNL A   1      42.695  30.930  32.089  1.00  0.00     0.029 A 
ATOM     52  C   UNL A   1      41.679  31.456  32.965  1.00  0.00     0.049 A 
ATOM     53  H   UNL A   1      39.724  31.899  32.271  1.00  0.00     0.167 HD
ATOM     54  C   UNL A   1      42.816  26.378  28.990  1.00  0.00     0.037 A 
ATOM     55  C   UNL A   1      41.741  31.283  34.320  1.00  0.00     0.037 A 
ATOM     56  C   UNL A   1      43.741  26.822  30.047  1.00  0.00     0.049 A 
ATOM     57  C   UNL A   1      42.565  30.061  34.698  1.00  0.00     0.074 A 
ATOM     58  C   UNL A   1      44.938  27.517  30.058  1.00  0.00     0.029 A 
ATOM     59  N   UNL A   1      43.389  26.658  31.389  1.00  0.00    -0.354 N 
ATOM     60  N   UNL A   1      42.811  29.095  33.850  1.00  0.00    -0.248 NA
ATOM     61  C   UNL A   1      43.240  29.840  35.974  1.00  0.00     0.031 C 
ATOM     62  C   UNL A   1      45.228  27.879  31.403  1.00  0.00     0.029 A 
ATOM     63  C   UNL A   1      44.267  27.310  32.225  1.00  0.00     0.049 A 
ATOM     64  H   UNL A   1      42.610  26.141  31.699  1.00  0.00     0.167 HD
ATOM     65  C   UNL A   1      43.689  28.203  34.384  1.00  0.00     0.074 A 
ATOM     66  C   UNL A   1      43.894  28.683  35.739  1.00  0.00     0.031 C 
ATOM     67  C   UNL A   1      44.181  27.150  33.671  1.00  0.00     0.037 A 
BRANCH  54  68
ATOM     68  C   UNL A   1      43.321  25.804  27.666  1.00  0.00     0.064 A 
ATOM     69  C   UNL A   1      43.182  24.426  27.381  1.00  0.00     0.173 A 
ATOM     70  C   UNL A   1      44.058  26.525  26.700  1.00  0.00     0.173 A 
ATOM     71  F   UNL A   1      42.503  23.616  28.208  1.00  0.00    -0.203 F 
ATOM     72  C   UNL A   1      43.735  23.826  26.240  1.00  0.00     0.198 A 
ATOM     73  C   UNL A   1      44.549  25.938  25.525  1.00  0.00     0.198 A 
ATOM     74  F   UNL A   1      44.385  27.810  26.878  1.00  0.00    -0.203 F 
ATOM     75  F   UNL A   1      43.618  22.503  26.056  1.00  0.00    -0.200 F 
ATOM     76  C   UNL A   1      44.402  24.586  25.302  1.00  0.00     0.200 A 
ATOM     77  F   UNL A   1      45.188  26.697  24.622  1.00  0.00    -0.200 F 
ATOM     78  F   UNL A   1      44.911  24.021  24.198  1.00  0.00    -0.200 F 
ENDBRANCH  54  68
BRANCH  55  79
ATOM     79  C   UNL A   1      40.614  31.943  35.028  1.00  0.00     0.064 A 
ATOM     80  C   UNL A   1      40.741  33.344  35.128  1.00  0.00     0.173 A 
ATOM     81  C   UNL A   1      39.318  31.415  34.936  1.00  0.00     0.173 A 
ATOM     82  F   UNL A   1      41.959  33.893  35.261  1.00  0.00    -0.203 F 
ATOM     83  C   UNL A   1      39.658  34.182  34.872  1.00  0.00     0.198 A 
ATOM     84  C   UNL A   1      38.229  32.262  34.701  1.00  0.00     0.198 A 
ATOM     85  F   UNL A   1      39.132  30.091  34.853  1.00  0.00    -0.203 F 
ATOM     86  F   UNL A   1      39.850  35.503  34.749  1.00  0.00    -0.200 F 
ATOM     87  C   UNL A   1      38.414  33.636  34.605  1.00  0.00     0.200 A 
ATOM     88  F   UNL A   1      37.029  31.740  34.411  1.00  0.00    -0.200 F 
ATOM     89  F   UNL A   1      37.416  34.420  34.175  1.00  0.00    -0.200 F 
ENDBRANCH  55  79
BRANCH  67  90
ATOM     90  C   UNL A   1      44.670  25.854  34.268  1.00  0.00     0.064 A 
ATOM     91  C   UNL A   1      43.799  24.816  34.633  1.00  0.00     0.173 A 
ATOM     92  C   UNL A   1      46.048  25.519  34.248  1.00  0.00     0.173 A 
ATOM     93  F   UNL A   1      42.468  24.975  34.600  1.00  0.00    -0.203 F 
ATOM     94  C   UNL A   1      44.269  23.547  34.976  1.00  0.00     0.198 A 
ATOM     95  C   UNL A   1      46.507  24.237  34.538  1.00  0.00     0.198 A 
ATOM     96  F   UNL A   1      46.987  26.411  33.902  1.00  0.00    -0.203 F 
ATOM     97  F   UNL A   1      43.396  22.593  35.330  1.00  0.00    -0.200 F 
ATOM     98  C   UNL A   1      45.618  23.253  34.910  1.00  0.00     0.200 A 
ATOM     99  F   UNL A   1      47.813  23.955  34.419  1.00  0.00    -0.200 F 
ATOM    100  F   UNL A   1      46.056  22.017  35.181  1.00  0.00    -0.200 F 
ENDBRANCH  67  90
ENDBRANCH  41  42
ENDBRANCH  34  36
ENDBRANCH  33  34
ENDBRANCH  32  33
ENDBRANCH  31  32
ENDBRANCH  30  31
ENDBRANCH  29  30
ENDBRANCH   1  29
TORSDOF 21
ENDMDL
MODEL 2
REMARK VINA RESULT:     -11.1      4.944     11.015
REMARK SMILES Cc1cc(C(=O)OCCOCCOCCOCCOC(=O)c2ccc(-c3c4nc(c(-c5c(F)c(F)c(F)c(F)c5F)c5ccc([nH]5)c(-c5c(F)c(F)c(F)c(F)c5F)c5nc(c(-c6c(F)c(F)c(F)c(F)c6F)c6ccc3[nH]6)C=C5)C=C4)cc2)ccc1NC(=O)N1C[C@@H](C)[C@H](C)C1
REMARK SMILES IDX 14 1 13 2 12 3 11 4 10 5 9 6 8 7 7 8 5 9 6 10 4 11 1 12 2 13
REMARK SMILES IDX 3 14 87 15 86 16 85 17 88 18 89 19 90 21 91 22 92 23 97 24
REMARK SMILES IDX 93 25 95 26 94 27 96 28 15 29 16 30 17 31 18 32 19 33 20 34
REMARK SMILES IDX 21 35 22 36 23 37 84 38 24 39 83 40 25 41 26 42 27 43 77 44
REMARK SMILES IDX 28 45 82 46 76 47 78 48 29 49 81 50 75 51 74 52 30 54 62 55
REMARK SMILES IDX 42 56 61 57 43 58 46 59 60 60 79 61 44 62 45 63 59 65 80 66
REMARK SMILES IDX 47 67 31 68 32 69 40 70 33 71 34 72 38 73 41 74 35 75 36 76
REMARK SMILES IDX 39 77 37 78 63 79 64 80 72 81 65 82 66 83 70 84 73 85 67 86
REMARK SMILES IDX 68 87 71 88 69 89 48 90 49 91 57 92 50 93 51 94 55 95 58 96
REMARK SMILES IDX 52 97 53 98 56 99 54 100
REMARK H PARENT 88 20 78 53 46 64
REMARK Flexibility Score: inf
ROOT
ATOM      1  C   UNL A   1      41.565  19.961  27.851  1.00  0.00     0.188 C 
ENDROOT
BRANCH   1   2
ATOM      2  O   UNL A   1      41.656  21.308  27.382  1.00  0.00    -0.377 OA
BRANCH   2   3
ATOM      3  C   UNL A   1      40.449  22.026  27.150  1.00  0.00     0.188 C 
BRANCH   3   4
ATOM      4  C   UNL A   1      39.584  21.584  25.964  1.00  0.00     0.188 C 
BRANCH   4   5
ATOM      5  O   UNL A   1      38.222  21.993  25.940  1.00  0.00    -0.376 OA
BRANCH   5   6
ATOM      6  C   UNL A   1      37.399  21.359  24.960  1.00  0.00     0.202 C 
BRANCH   6   7
ATOM      7  C   UNL A   1      36.029  20.869  25.433  1.00  0.00     0.261 C 
BRANCH   7   8
ATOM      8  O   UNL A   1      35.067  21.182  24.426  1.00  0.00    -0.460 OA
BRANCH   8   9
ATOM      9  C   UNL A   1      33.879  20.555  24.544  1.00  0.00     0.338 C 
ATOM     10  O   UNL A   1      33.668  19.470  25.045  1.00  0.00    -0.246 OA
BRANCH   9  11
ATOM     11  C   UNL A   1      32.846  21.577  24.259  1.00  0.00     0.060 A 
ATOM     12  C   UNL A   1      30.794  23.809  26.487  1.00  0.00     0.046 C 
ATOM     13  C   UNL A   1      31.281  23.176  25.210  1.00  0.00    -0.027 A 
ATOM     14  C   UNL A   1      32.142  22.077  25.353  1.00  0.00     0.021 A 
ATOM     15  C   UNL A   1      31.073  23.719  23.925  1.00  0.00     0.045 A 
ATOM     16  C   UNL A   1      31.930  23.338  22.895  1.00  0.00     0.027 A 
ATOM     17  C   UNL A   1      32.770  22.239  23.034  1.00  0.00     0.018 A 
BRANCH  15  18
ATOM     18  N   UNL A   1      30.021  24.620  23.715  1.00  0.00    -0.308 N 
ATOM     19  C   UNL A   1      29.845  25.944  23.948  1.00  0.00     0.321 C 
ATOM     20  H   UNL A   1      29.231  24.197  23.307  1.00  0.00     0.171 HD
ATOM     21  O   UNL A   1      28.683  26.360  23.886  1.00  0.00    -0.248 OA
ATOM     22  N   UNL A   1      30.885  26.777  24.243  1.00  0.00    -0.324 N 
ATOM     23  C   UNL A   1      30.614  27.991  24.997  1.00  0.00     0.125 C 
ATOM     24  C   UNL A   1      32.110  26.938  23.453  1.00  0.00     0.125 C 
ATOM     25  C   UNL A   1      31.563  29.041  24.428  1.00  0.00     0.010 C 
ATOM     26  C   UNL A   1      32.778  28.196  24.022  1.00  0.00     0.010 C 
ATOM     27  C   UNL A   1      31.866  30.143  25.427  1.00  0.00     0.010 C 
ATOM     28  C   UNL A   1      33.712  28.882  23.033  1.00  0.00     0.010 C 
ENDBRANCH  15  18
ENDBRANCH   9  11
ENDBRANCH   8   9
ENDBRANCH   7   8
ENDBRANCH   6   7
ENDBRANCH   5   6
ENDBRANCH   4   5
ENDBRANCH   3   4
ENDBRANCH   2   3
ENDBRANCH   1   2
BRANCH   1  29
ATOM     29  C   UNL A   1      42.325  18.885  27.076  1.00  0.00     0.188 C 
BRANCH  29  30
ATOM     30  O   UNL A   1      42.781  19.464  25.853  1.00  0.00    -0.376 OA
BRANCH  30  31
ATOM     31  C   UNL A   1      43.601  18.624  25.043  1.00  0.00     0.202 C 
BRANCH  31  32
ATOM     32  C   UNL A   1      44.978  19.222  24.732  1.00  0.00     0.261 C 
BRANCH  32  33
ATOM     33  O   UNL A   1      45.121  20.471  25.432  1.00  0.00    -0.460 OA
BRANCH  33  34
ATOM     34  C   UNL A   1      45.059  21.576  24.644  1.00  0.00     0.338 C 
ATOM     35  O   UNL A   1      44.816  21.580  23.450  1.00  0.00    -0.246 OA
BRANCH  34  36
ATOM     36  C   UNL A   1      45.598  22.748  25.388  1.00  0.00     0.060 A 
ATOM     37  C   UNL A   1      45.410  22.838  26.776  1.00  0.00     0.016 A 
ATOM     38  C   UNL A   1      46.020  23.868  24.679  1.00  0.00     0.016 A 
ATOM     39  C   UNL A   1      45.484  24.084  27.418  1.00  0.00     0.010 A 
ATOM     40  C   UNL A   1      46.009  25.102  25.302  1.00  0.00     0.010 A 
ATOM     41  C   UNL A   1      45.682  25.240  26.659  1.00  0.00    -0.014 A 
BRANCH  41  42
ATOM     42  C   UNL A   1      45.333  26.609  27.098  1.00  0.00     0.031 A 
ATOM     43  C   UNL A   1      43.920  27.119  27.033  1.00  0.00     0.074 A 
ATOM     44  C   UNL A   1      46.220  27.250  27.908  1.00  0.00     0.049 A 
ATOM     45  N   UNL A   1      43.552  28.290  27.443  1.00  0.00    -0.248 NA
ATOM     46  C   UNL A   1      42.783  26.363  26.502  1.00  0.00     0.031 C 
ATOM     47  C   UNL A   1      45.890  28.223  28.953  1.00  0.00     0.029 A 
ATOM     48  N   UNL A   1      47.596  27.134  28.058  1.00  0.00    -0.354 N 
ATOM     49  C   UNL A   1      42.185  28.278  27.614  1.00  0.00     0.074 A 
ATOM     50  C   UNL A   1      41.744  27.124  26.875  1.00  0.00     0.031 C 
ATOM     51  C   UNL A   1      47.005  28.679  29.538  1.00  0.00     0.029 A 
ATOM     52  C   UNL A   1      48.101  28.267  28.698  1.00  0.00     0.049 A 
ATOM     53  H   UNL A   1      48.136  26.367  27.757  1.00  0.00     0.167 HD
ATOM     54  C   UNL A   1      41.615  29.146  28.504  1.00  0.00     0.037 A 
ATOM     55  C   UNL A   1      48.927  29.178  28.098  1.00  0.00     0.037 A 
ATOM     56  C   UNL A   1      42.570  30.155  28.994  1.00  0.00     0.049 A 
ATOM     57  C   UNL A   1      48.245  30.526  27.916  1.00  0.00     0.074 A 
ATOM     58  C   UNL A   1      42.936  30.614  30.248  1.00  0.00     0.029 A 
ATOM     59  N   UNL A   1      43.438  30.781  28.097  1.00  0.00    -0.354 N 
ATOM     60  N   UNL A   1      46.943  30.659  27.939  1.00  0.00    -0.248 NA
ATOM     61  C   UNL A   1      48.915  31.818  27.781  1.00  0.00     0.031 C 
ATOM     62  C   UNL A   1      44.105  31.412  30.104  1.00  0.00     0.029 A 
ATOM     63  C   UNL A   1      44.388  31.531  28.752  1.00  0.00     0.049 A 
ATOM     64  H   UNL A   1      43.377  30.697  27.117  1.00  0.00     0.167 HD
ATOM     65  C   UNL A   1      46.598  31.975  27.906  1.00  0.00     0.074 A 
ATOM     66  C   UNL A   1      47.866  32.667  27.757  1.00  0.00     0.031 C 
ATOM     67  C   UNL A   1      45.303  32.391  28.012  1.00  0.00     0.037 A 
BRANCH  54  68
ATOM     68  C   UNL A   1      40.226  28.985  29.121  1.00  0.00     0.064 A 
ATOM     69  C   UNL A   1      39.068  29.315  28.379  1.00  0.00     0.173 A 
ATOM     70  C   UNL A   1      39.973  28.637  30.467  1.00  0.00     0.173 A 
ATOM     71  F   UNL A   1      39.153  29.662  27.087  1.00  0.00    -0.203 F 
ATOM     72  C   UNL A   1      37.780  29.303  28.935  1.00  0.00     0.198 A 
ATOM     73  C   UNL A   1      38.679  28.557  31.002  1.00  0.00     0.198 A 
ATOM     74  F   UNL A   1      40.966  28.416  31.336  1.00  0.00    -0.203 F 
ATOM     75  F   UNL A   1      36.727  29.683  28.196  1.00  0.00    -0.200 F 
ATOM     76  C   UNL A   1      37.584  28.905  30.242  1.00  0.00     0.200 A 
ATOM     77  F   UNL A   1      38.509  28.159  32.271  1.00  0.00    -0.200 F 
ATOM     78  F   UNL A   1      36.352  28.868  30.770  1.00  0.00    -0.200 F 
ENDBRANCH  54  68
BRANCH  55  79
ATOM     79  C   UNL A   1      50.010  28.531  27.315  1.00  0.00     0.064 A 
ATOM     80  C   UNL A   1      51.044  27.987  28.106  1.00  0.00     0.173 A 
ATOM     81  C   UNL A   1      49.718  27.891  26.102  1.00  0.00     0.173 A 
ATOM     82  F   UNL A   1      51.388  28.590  29.255  1.00  0.00    -0.203 F 
ATOM     83  C   UNL A   1      51.563  26.723  27.835  1.00  0.00     0.198 A 
ATOM     84  C   UNL A   1      50.259  26.631  25.824  1.00  0.00     0.198 A 
ATOM     85  F   UNL A   1      48.757  28.369  25.300  1.00  0.00    -0.203 F 
ATOM     86  F   UNL A   1      52.375  26.131  28.723  1.00  0.00    -0.200 F 
ATOM     87  C   UNL A   1      51.128  26.025  26.722  1.00  0.00     0.200 A 
ATOM     88  F   UNL A   1      49.819  25.936  24.765  1.00  0.00    -0.200 F 
ATOM     89  F   UNL A   1      51.477  24.741  26.558  1.00  0.00    -0.200 F 
ENDBRANCH  55  79
BRANCH  67  90
ATOM     90  C   UNL A   1      44.760  33.681  27.451  1.00  0.00     0.064 A 
ATOM     91  C   UNL A   1      44.028  33.735  26.254  1.00  0.00     0.173 A 
ATOM     92  C   UNL A   1      44.739  34.862  28.235  1.00  0.00     0.173 A 
ATOM     93  F   UNL A   1      43.890  32.657  25.470  1.00  0.00    -0.203 F 
ATOM     94  C   UNL A   1      43.347  34.888  25.859  1.00  0.00     0.198 A 
ATOM     95  C   UNL A   1      44.013  35.991  27.864  1.00  0.00     0.198 A 
ATOM     96  F   UNL A   1      45.382  34.943  29.409  1.00  0.00    -0.203 F 
ATOM     97  F   UNL A   1      42.673  34.891  24.701  1.00  0.00    -0.200 F 
ATOM     98  C   UNL A   1      43.324  36.006  26.671  1.00  0.00     0.200 A 
ATOM     99  F   UNL A   1      43.960  37.048  28.686  1.00  0.00    -0.200 F 
ATOM    100  F   UNL A   1      42.618  37.087  26.314  1.00  0.00    -0.200 F 
ENDBRANCH  67  90
ENDBRANCH  41  42
ENDBRANCH  34  36
ENDBRANCH  33  34
ENDBRANCH  32  33
ENDBRANCH  31  32
ENDBRANCH  30  31
ENDBRANCH  29  30
ENDBRANCH   1  29
TORSDOF 21
ENDMDL
MODEL 3
REMARK VINA RESULT:     -11.0      1.410      2.374
REMARK SMILES Cc1cc(C(=O)OCCOCCOCCOCCOC(=O)c2ccc(-c3c4nc(c(-c5c(F)c(F)c(F)c(F)c5F)c5ccc([nH]5)c(-c5c(F)c(F)c(F)c(F)c5F)c5nc(c(-c6c(F)c(F)c(F)c(F)c6F)c6ccc3[nH]6)C=C5)C=C4)cc2)ccc1NC(=O)N1C[C@@H](C)[C@H](C)C1
REMARK SMILES IDX 14 1 13 2 12 3 11 4 10 5 9 6 8 7 7 8 5 9 6 10 4 11 1 12 2 13
REMARK SMILES IDX 3 14 87 15 86 16 85 17 88 18 89 19 90 21 91 22 92 23 97 24
REMARK SMILES IDX 93 25 95 26 94 27 96 28 15 29 16 30 17 31 18 32 19 33 20 34
REMARK SMILES IDX 21 35 22 36 23 37 84 38 24 39 83 40 25 41 26 42 27 43 77 44
REMARK SMILES IDX 28 45 82 46 76 47 78 48 29 49 81 50 75 51 74 52 30 54 62 55
REMARK SMILES IDX 42 56 61 57 43 58 46 59 60 60 79 61 44 62 45 63 59 65 80 66
REMARK SMILES IDX 47 67 31 68 32 69 40 70 33 71 34 72 38 73 41 74 35 75 36 76
REMARK SMILES IDX 39 77 37 78 63 79 64 80 72 81 65 82 66 83 70 84 73 85 67 86
REMARK SMILES IDX 68 87 71 88 69 89 48 90 49 91 57 92 50 93 51 94 55 95 58 96
REMARK SMILES IDX 52 97 53 98 56 99 54 100
REMARK H PARENT 88 20 78 53 46 64
REMARK Flexibility Score: inf
ROOT
ATOM      1  C   UNL A   1      33.379  35.203  29.021  1.00  0.00     0.188 C 
ENDROOT
BRANCH   1   2
ATOM      2  O   UNL A   1      32.422  34.231  28.597  1.00  0.00    -0.377 OA
BRANCH   2   3
ATOM      3  C   UNL A   1      32.711  33.457  27.438  1.00  0.00     0.188 C 
BRANCH   3   4
ATOM      4  C   UNL A   1      32.537  31.938  27.545  1.00  0.00     0.188 C 
BRANCH   4   5
ATOM      5  O   UNL A   1      31.952  31.252  26.444  1.00  0.00    -0.376 OA
BRANCH   5   6
ATOM      6  C   UNL A   1      32.595  30.038  26.055  1.00  0.00     0.202 C 
BRANCH   6   7
ATOM      7  C   UNL A   1      32.220  29.477  24.682  1.00  0.00     0.261 C 
BRANCH   7   8
ATOM      8  O   UNL A   1      30.809  29.260  24.654  1.00  0.00    -0.460 OA
BRANCH   8   9
ATOM      9  C   UNL A   1      30.292  28.959  23.446  1.00  0.00     0.338 C 
ATOM     10  O   UNL A   1      30.031  29.730  22.546  1.00  0.00    -0.246 OA
BRANCH   9  11
ATOM     11  C   UNL A   1      30.421  27.491  23.299  1.00  0.00     0.060 A 
ATOM     12  C   UNL A   1      32.819  25.330  21.365  1.00  0.00     0.046 C 
ATOM     13  C   UNL A   1      31.646  25.674  22.245  1.00  0.00    -0.027 A 
ATOM     14  C   UNL A   1      31.315  27.035  22.332  1.00  0.00     0.021 A 
ATOM     15  C   UNL A   1      30.998  24.757  23.099  1.00  0.00     0.045 A 
ATOM     16  C   UNL A   1      30.270  25.254  24.178  1.00  0.00     0.027 A 
ATOM     17  C   UNL A   1      29.930  26.599  24.253  1.00  0.00     0.018 A 
BRANCH  15  18
ATOM     18  N   UNL A   1      31.099  23.383  22.846  1.00  0.00    -0.308 N 
ATOM     19  C   UNL A   1      32.008  22.427  23.156  1.00  0.00     0.321 C 
ATOM     20  H   UNL A   1      30.340  23.033  22.326  1.00  0.00     0.171 HD
ATOM     21  O   UNL A   1      31.913  21.362  22.536  1.00  0.00    -0.248 OA
ATOM     22  N   UNL A   1      32.982  22.621  24.092  1.00  0.00    -0.324 N 
ATOM     23  C   UNL A   1      34.205  21.841  23.999  1.00  0.00     0.125 C 
ATOM     24  C   UNL A   1      32.770  23.063  25.475  1.00  0.00     0.125 C 
ATOM     25  C   UNL A   1      34.616  21.557  25.440  1.00  0.00     0.010 C 
ATOM     26  C   UNL A   1      34.112  22.807  26.174  1.00  0.00     0.010 C 
ATOM     27  C   UNL A   1      36.106  21.305  25.574  1.00  0.00     0.010 C 
ATOM     28  C   UNL A   1      33.981  22.635  27.683  1.00  0.00     0.010 C 
ENDBRANCH  15  18
ENDBRANCH   9  11
ENDBRANCH   8   9
ENDBRANCH   7   8
ENDBRANCH   6   7
ENDBRANCH   5   6
ENDBRANCH   4   5
ENDBRANCH   3   4
ENDBRANCH   2   3
ENDBRANCH   1   2
BRANCH   1  29
ATOM     29  C   UNL A   1      33.724  35.260  30.510  1.00  0.00     0.188 C 
BRANCH  29  30
ATOM     30  O   UNL A   1      33.774  33.919  31.000  1.00  0.00    -0.376 OA
BRANCH  30  31
ATOM     31  C   UNL A   1      35.041  33.495  31.501  1.00  0.00     0.202 C 
BRANCH  31  32
ATOM     32  C   UNL A   1      36.037  33.103  30.405  1.00  0.00     0.261 C 
BRANCH  32  33
ATOM     33  O   UNL A   1      35.539  31.952  29.700  1.00  0.00    -0.460 OA
BRANCH  33  34
ATOM     34  C   UNL A   1      36.123  31.725  28.494  1.00  0.00     0.338 C 
ATOM     35  O   UNL A   1      35.907  32.356  27.474  1.00  0.00    -0.246 OA
BRANCH  34  36
ATOM     36  C   UNL A   1      36.856  30.428  28.533  1.00  0.00     0.060 A 
ATOM     37  C   UNL A   1      36.754  29.606  29.666  1.00  0.00     0.016 A 
ATOM     38  C   UNL A   1      37.848  30.180  27.590  1.00  0.00     0.016 A 
ATOM     39  C   UNL A   1      37.746  28.648  29.931  1.00  0.00     0.010 A 
ATOM     40  C   UNL A   1      38.862  29.294  27.901  1.00  0.00     0.010 A 
ATOM     41  C   UNL A   1      38.863  28.562  29.097  1.00  0.00    -0.014 A 
BRANCH  41  42
ATOM     42  C   UNL A   1      40.159  27.960  29.480  1.00  0.00     0.031 A 
ATOM     43  C   UNL A   1      40.532  26.565  29.062  1.00  0.00     0.074 A 
ATOM     44  C   UNL A   1      41.148  28.807  29.875  1.00  0.00     0.049 A 
ATOM     45  N   UNL A   1      41.667  26.006  29.332  1.00  0.00    -0.248 NA
ATOM     46  C   UNL A   1      39.666  25.663  28.298  1.00  0.00     0.031 C 
ATOM     47  C   UNL A   1      42.586  28.611  29.676  1.00  0.00     0.029 A 
ATOM     48  N   UNL A   1      41.116  30.066  30.464  1.00  0.00    -0.354 N 
ATOM     49  C   UNL A   1      41.832  24.932  28.485  1.00  0.00     0.074 A 
ATOM     50  C   UNL A   1      40.510  24.671  27.978  1.00  0.00     0.031 C 
ATOM     51  C   UNL A   1      43.278  29.623  30.215  1.00  0.00     0.029 A 
ATOM     52  C   UNL A   1      42.352  30.347  31.049  1.00  0.00     0.049 A 
ATOM     53  H   UNL A   1      40.338  30.669  30.467  1.00  0.00     0.167 HD
ATOM     54  C   UNL A   1      43.097  24.507  28.181  1.00  0.00     0.037 A 
ATOM     55  C   UNL A   1      42.547  30.470  32.398  1.00  0.00     0.037 A 
ATOM     56  C   UNL A   1      44.121  25.150  29.023  1.00  0.00     0.049 A 
ATOM     57  C   UNL A   1      43.406  29.342  32.951  1.00  0.00     0.074 A 
ATOM     58  C   UNL A   1      45.313  25.807  28.767  1.00  0.00     0.029 A 
ATOM     59  N   UNL A   1      43.903  25.288  30.395  1.00  0.00    -0.354 N 
ATOM     60  N   UNL A   1      43.568  28.210  32.312  1.00  0.00    -0.248 NA
ATOM     61  C   UNL A   1      44.204  29.388  34.173  1.00  0.00     0.031 C 
ATOM     62  C   UNL A   1      45.734  26.445  29.967  1.00  0.00     0.029 A 
ATOM     63  C   UNL A   1      44.859  26.087  30.981  1.00  0.00     0.049 A 
ATOM     64  H   UNL A   1      43.159  24.866  30.883  1.00  0.00     0.167 HD
ATOM     65  C   UNL A   1      44.495  27.437  32.941  1.00  0.00     0.074 A 
ATOM     66  C   UNL A   1      44.832  28.194  34.133  1.00  0.00     0.031 C 
ATOM     67  C   UNL A   1      44.916  26.245  32.429  1.00  0.00     0.037 A 
BRANCH  54  68
ATOM     68  C   UNL A   1      43.469  23.651  26.971  1.00  0.00     0.064 A 
ATOM     69  C   UNL A   1      43.156  22.272  26.943  1.00  0.00     0.173 A 
ATOM     70  C   UNL A   1      44.242  24.093  25.874  1.00  0.00     0.173 A 
ATOM     71  F   UNL A   1      42.425  21.712  27.918  1.00  0.00    -0.203 F 
ATOM     72  C   UNL A   1      43.582  21.417  25.916  1.00  0.00     0.198 A 
ATOM     73  C   UNL A   1      44.606  23.251  24.812  1.00  0.00     0.198 A 
ATOM     74  F   UNL A   1      44.726  25.338  25.808  1.00  0.00    -0.203 F 
ATOM     75  F   UNL A   1      43.301  20.107  25.977  1.00  0.00    -0.200 F 
ATOM     76  C   UNL A   1      44.290  21.910  24.841  1.00  0.00     0.200 A 
ATOM     77  F   UNL A   1      45.288  23.753  23.772  1.00  0.00    -0.200 F 
ATOM     78  F   UNL A   1      44.678  21.101  23.845  1.00  0.00    -0.200 F 
ENDBRANCH  54  68
BRANCH  55  79
ATOM     79  C   UNL A   1      41.495  31.290  33.050  1.00  0.00     0.064 A 
ATOM     80  C   UNL A   1      40.587  30.544  33.830  1.00  0.00     0.173 A 
ATOM     81  C   UNL A   1      41.775  32.602  33.458  1.00  0.00     0.173 A 
ATOM     82  F   UNL A   1      40.254  29.299  33.453  1.00  0.00    -0.203 F 
ATOM     83  C   UNL A   1      40.199  30.984  35.093  1.00  0.00     0.198 A 
ATOM     84  C   UNL A   1      41.364  33.047  34.720  1.00  0.00     0.198 A 
ATOM     85  F   UNL A   1      42.618  33.365  32.750  1.00  0.00    -0.203 F 
ATOM     86  F   UNL A   1      39.523  30.161  35.907  1.00  0.00    -0.200 F 
ATOM     87  C   UNL A   1      40.634  32.213  35.557  1.00  0.00     0.200 A 
ATOM     88  F   UNL A   1      41.807  34.223  35.188  1.00  0.00    -0.200 F 
ATOM     89  F   UNL A   1      40.424  32.560  36.835  1.00  0.00    -0.200 F 
ENDBRANCH  55  79
BRANCH  67  90
ATOM     90  C   UNL A   1      45.462  25.099  33.244  1.00  0.00     0.064 A 
ATOM     91  C   UNL A   1      46.838  24.880  33.411  1.00  0.00     0.173 A 
ATOM     92  C   UNL A   1      44.613  24.343  34.092  1.00  0.00     0.173 A 
ATOM     93  F   UNL A   1      47.747  25.598  32.737  1.00  0.00    -0.203 F 
ATOM     94  C   UNL A   1      47.329  23.958  34.337  1.00  0.00     0.198 A 
ATOM     95  C   UNL A   1      45.110  23.466  35.052  1.00  0.00     0.198 A 
ATOM     96  F   UNL A   1      43.279  24.466  34.050  1.00  0.00    -0.203 F 
ATOM     97  F   UNL A   1      48.652  23.777  34.448  1.00  0.00    -0.200 F 
ATOM     98  C   UNL A   1      46.469  23.267  35.169  1.00  0.00     0.200 A 
ATOM     99  F   UNL A   1      44.265  22.842  35.886  1.00  0.00    -0.200 F 
ATOM    100  F   UNL A   1      46.950  22.430  36.097  1.00  0.00    -0.200 F 
ENDBRANCH  67  90
ENDBRANCH  41  42
ENDBRANCH  34  36
ENDBRANCH  33  34
ENDBRANCH  32  33
ENDBRANCH  31  32
ENDBRANCH  30  31
ENDBRANCH  29  30
ENDBRANCH   1  29
TORSDOF 21
ENDMDL
