MODEL 1
REMARK VINA RESULT:     -12.1      0.000      0.000
REMARK SMILES Cc1cc(F)cc(NC(=O)N[C@@H]2COC[C@H]2C(=O)OCCOCCOCCOCCOC(=O)c2ccc(-c3c4nc(c(-c5c(F)c(F)c(F)c(F)c5F)c5ccc([nH]5)c(-c5c(F)c(F)c(F)c(F)c5F)c5nc(c(-c6c(F)c(F)c(F)c(F)c6F)c6ccc3[nH]6)C=C5)C=C4)cc2)c1
REMARK SMILES IDX 25 1 24 2 23 3 22 4 21 5 20 6 19 7 17 8 18 9 16 10 12 11
REMARK SMILES IDX 13 12 14 13 15 14 11 15 8 16 9 17 10 19 7 21 1 22 2 23 3 24
REMARK SMILES IDX 97 25 4 26 5 27 6 28 26 29 27 30 28 31 29 32 30 33 31 34
REMARK SMILES IDX 32 35 33 36 34 37 35 38 96 39 36 40 95 41 37 42 38 43 39 44
REMARK SMILES IDX 89 45 40 46 94 47 88 48 90 49 41 50 93 51 87 52 86 53 42 55
REMARK SMILES IDX 74 56 54 57 73 58 55 59 58 60 72 61 91 62 56 63 57 64 71 66
REMARK SMILES IDX 92 67 59 68 43 69 44 70 52 71 45 72 46 73 50 74 53 75 47 76
REMARK SMILES IDX 48 77 51 78 49 79 75 80 76 81 84 82 77 83 78 84 82 85 85 86
REMARK SMILES IDX 79 87 80 88 83 89 81 90 60 91 61 92 69 93 62 94 63 95 67 96
REMARK SMILES IDX 70 97 64 98 65 99 68 100 66 101
REMARK H PARENT 8 18 11 20 90 54 58 65
REMARK Flexibility Score: inf
ROOT
ATOM      1  O   UNL A   1      42.688  19.304  25.057  1.00  0.00    -0.377 OA
ENDROOT
BRANCH   1   2
ATOM      2  C   UNL A   1      42.232  19.200  26.404  1.00  0.00     0.188 C 
BRANCH   2   3
ATOM      3  C   UNL A   1      41.119  20.147  26.865  1.00  0.00     0.188 C 
BRANCH   3   4
ATOM      4  O   UNL A   1      40.640  20.981  25.829  1.00  0.00    -0.376 OA
BRANCH   4   5
ATOM      5  C   UNL A   1      39.542  21.820  26.146  1.00  0.00     0.202 C 
BRANCH   5   6
ATOM      6  C   UNL A   1      38.137  21.588  25.532  1.00  0.00     0.261 C 
BRANCH   6   7
ATOM      7  O   UNL A   1      37.489  22.656  24.815  1.00  0.00    -0.463 OA
BRANCH   7   8
ATOM      8  C   UNL A   1      36.458  23.257  25.454  1.00  0.00     0.313 C 
ATOM      9  O   UNL A   1      36.552  23.722  26.589  1.00  0.00    -0.252 OA
BRANCH   8  10
ATOM     10  C   UNL A   1      35.125  23.247  24.735  1.00  0.00     0.150 C 
ATOM     11  C   UNL A   1      33.997  24.217  25.035  1.00  0.00     0.126 C 
ATOM     12  C   UNL A   1      33.423  24.633  23.682  1.00  0.00     0.186 C 
ATOM     13  O   UNL A   1      34.285  24.127  22.663  1.00  0.00    -0.378 OA
ATOM     14  C   UNL A   1      35.442  23.552  23.279  1.00  0.00     0.177 C 
BRANCH  11  15
ATOM     15  N   UNL A   1      32.933  23.827  25.983  1.00  0.00    -0.332 N 
ATOM     16  N   UNL A   1      31.325  25.418  26.839  1.00  0.00    -0.308 N 
ATOM     17  C   UNL A   1      31.936  24.242  26.749  1.00  0.00     0.319 C 
ATOM     18  H   UNL A   1      30.530  25.324  27.411  1.00  0.00     0.171 HD
ATOM     19  O   UNL A   1      31.432  23.357  27.459  1.00  0.00    -0.248 OA
ATOM     20  H   UNL A   1      32.989  22.851  26.090  1.00  0.00     0.165 HD
BRANCH  16  21
ATOM     21  C   UNL A   1      31.416  26.745  26.404  1.00  0.00     0.046 A 
ATOM     22  C   UNL A   1      30.875  28.577  23.073  1.00  0.00     0.044 C 
ATOM     23  C   UNL A   1      31.227  28.292  24.503  1.00  0.00    -0.046 A 
ATOM     24  C   UNL A   1      31.660  29.335  25.322  1.00  0.00     0.042 A 
ATOM     25  C   UNL A   1      31.130  26.998  25.047  1.00  0.00     0.029 A 
ATOM     26  C   UNL A   1      31.886  29.091  26.666  1.00  0.00     0.125 A 
ATOM     27  F   UNL A   1      32.270  30.095  27.464  1.00  0.00    -0.207 F 
ATOM     28  C   UNL A   1      31.713  27.822  27.208  1.00  0.00     0.065 A 
ENDBRANCH  16  21
ENDBRANCH  11  15
ENDBRANCH   8  10
ENDBRANCH   7   8
ENDBRANCH   6   7
ENDBRANCH   5   6
ENDBRANCH   4   5
ENDBRANCH   3   4
ENDBRANCH   2   3
ENDBRANCH   1   2
BRANCH   1  29
ATOM     29  C   UNL A   1      44.088  19.218  24.808  1.00  0.00     0.188 C 
BRANCH  29  30
ATOM     30  C   UNL A   1      44.868  20.516  24.534  1.00  0.00     0.188 C 
BRANCH  30  31
ATOM     31  O   UNL A   1      44.757  21.504  25.551  1.00  0.00    -0.376 OA
BRANCH  31  32
ATOM     32  C   UNL A   1      43.892  22.604  25.300  1.00  0.00     0.202 C 
BRANCH  32  33
ATOM     33  C   UNL A   1      43.441  23.405  26.529  1.00  0.00     0.261 C 
BRANCH  33  34
ATOM     34  O   UNL A   1      42.405  24.356  26.283  1.00  0.00    -0.460 OA
BRANCH  34  35
ATOM     35  C   UNL A   1      41.691  24.679  27.368  1.00  0.00     0.338 C 
ATOM     36  O   UNL A   1      41.957  24.426  28.543  1.00  0.00    -0.246 OA
BRANCH  35  37
ATOM     37  C   UNL A   1      40.445  25.356  26.950  1.00  0.00     0.060 A 
ATOM     38  C   UNL A   1      40.712  26.509  26.195  1.00  0.00     0.016 A 
ATOM     39  C   UNL A   1      39.554  25.361  28.019  1.00  0.00     0.016 A 
ATOM     40  C   UNL A   1      40.576  27.717  26.838  1.00  0.00     0.010 A 
ATOM     41  C   UNL A   1      39.439  26.555  28.678  1.00  0.00     0.010 A 
ATOM     42  C   UNL A   1      40.069  27.683  28.133  1.00  0.00    -0.014 A 
BRANCH  42  43
ATOM     43  C   UNL A   1      40.237  28.788  29.042  1.00  0.00     0.031 A 
ATOM     44  C   UNL A   1      39.173  29.782  29.102  1.00  0.00     0.074 A 
ATOM     45  C   UNL A   1      41.339  28.838  29.814  1.00  0.00     0.049 A 
ATOM     46  N   UNL A   1      39.320  30.984  29.530  1.00  0.00    -0.248 NA
ATOM     47  C   UNL A   1      37.847  29.502  28.566  1.00  0.00     0.031 C 
ATOM     48  C   UNL A   1      41.559  29.676  30.982  1.00  0.00     0.029 A 
ATOM     49  N   UNL A   1      42.580  28.244  29.557  1.00  0.00    -0.354 N 
ATOM     50  C   UNL A   1      38.066  31.539  29.605  1.00  0.00     0.074 A 
ATOM     51  C   UNL A   1      37.212  30.631  28.876  1.00  0.00     0.031 C 
ATOM     52  C   UNL A   1      42.878  29.737  31.223  1.00  0.00     0.029 A 
ATOM     53  C   UNL A   1      43.562  29.082  30.119  1.00  0.00     0.049 A 
ATOM     54  H   UNL A   1      42.736  27.400  29.075  1.00  0.00     0.167 HD
ATOM     55  C   UNL A   1      37.889  32.617  30.421  1.00  0.00     0.037 A 
ATOM     56  C   UNL A   1      44.455  29.706  29.295  1.00  0.00     0.037 A 
ATOM     57  C   UNL A   1      39.178  33.087  30.941  1.00  0.00     0.049 A 
ATOM     58  C   UNL A   1      44.269  31.209  29.187  1.00  0.00     0.074 A 
ATOM     59  C   UNL A   1      39.880  32.872  32.118  1.00  0.00     0.029 A 
ATOM     60  N   UNL A   1      40.096  33.612  30.048  1.00  0.00    -0.354 N 
ATOM     61  N   UNL A   1      43.302  31.881  29.750  1.00  0.00    -0.248 NA
ATOM     62  C   UNL A   1      45.121  32.059  28.352  1.00  0.00     0.031 C 
ATOM     63  C   UNL A   1      41.242  33.241  31.898  1.00  0.00     0.029 A 
ATOM     64  C   UNL A   1      41.362  33.693  30.597  1.00  0.00     0.049 A 
ATOM     65  H   UNL A   1      39.873  33.895  29.131  1.00  0.00     0.167 HD
ATOM     66  C   UNL A   1      43.367  33.190  29.358  1.00  0.00     0.074 A 
ATOM     67  C   UNL A   1      44.517  33.253  28.475  1.00  0.00     0.031 C 
ATOM     68  C   UNL A   1      42.465  34.133  29.756  1.00  0.00     0.037 A 
BRANCH  55  69
ATOM     69  C   UNL A   1      36.547  33.035  30.977  1.00  0.00     0.064 A 
ATOM     70  C   UNL A   1      35.683  33.839  30.204  1.00  0.00     0.173 A 
ATOM     71  C   UNL A   1      36.077  32.762  32.277  1.00  0.00     0.173 A 
ATOM     72  F   UNL A   1      35.930  34.087  28.911  1.00  0.00    -0.203 F 
ATOM     73  C   UNL A   1      34.525  34.420  30.729  1.00  0.00     0.198 A 
ATOM     74  C   UNL A   1      34.953  33.388  32.822  1.00  0.00     0.198 A 
ATOM     75  F   UNL A   1      36.639  31.828  33.049  1.00  0.00    -0.203 F 
ATOM     76  F   UNL A   1      33.751  35.182  29.945  1.00  0.00    -0.200 F 
ATOM     77  C   UNL A   1      34.183  34.228  32.051  1.00  0.00     0.200 A 
ATOM     78  F   UNL A   1      34.622  33.158  34.102  1.00  0.00    -0.200 F 
ATOM     79  F   UNL A   1      33.098  34.819  32.568  1.00  0.00    -0.200 F 
ENDBRANCH  55  69
BRANCH  56  80
ATOM     80  C   UNL A   1      44.949  28.835  28.195  1.00  0.00     0.064 A 
ATOM     81  C   UNL A   1      45.975  27.910  28.469  1.00  0.00     0.173 A 
ATOM     82  C   UNL A   1      44.255  28.691  26.988  1.00  0.00     0.173 A 
ATOM     83  F   UNL A   1      46.667  27.996  29.616  1.00  0.00    -0.203 F 
ATOM     84  C   UNL A   1      46.256  26.857  27.600  1.00  0.00     0.198 A 
ATOM     85  C   UNL A   1      44.541  27.638  26.117  1.00  0.00     0.198 A 
ATOM     86  F   UNL A   1      43.258  29.531  26.674  1.00  0.00    -0.203 F 
ATOM     87  F   UNL A   1      47.194  25.954  27.922  1.00  0.00    -0.200 F 
ATOM     88  C   UNL A   1      45.532  26.718  26.428  1.00  0.00     0.200 A 
ATOM     89  F   UNL A   1      43.823  27.486  24.995  1.00  0.00    -0.200 F 
ATOM     90  F   UNL A   1      45.771  25.685  25.607  1.00  0.00    -0.200 F 
ENDBRANCH  56  80
BRANCH  68  91
ATOM     91  C   UNL A   1      42.579  35.581  29.381  1.00  0.00     0.064 A 
ATOM     92  C   UNL A   1      41.987  36.094  28.217  1.00  0.00     0.173 A 
ATOM     93  C   UNL A   1      43.400  36.467  30.108  1.00  0.00     0.173 A 
ATOM     94  F   UNL A   1      41.231  35.314  27.430  1.00  0.00    -0.203 F 
ATOM     95  C   UNL A   1      42.175  37.421  27.825  1.00  0.00     0.198 A 
ATOM     96  C   UNL A   1      43.635  37.772  29.683  1.00  0.00     0.198 A 
ATOM     97  F   UNL A   1      43.976  36.099  31.261  1.00  0.00    -0.203 F 
ATOM     98  F   UNL A   1      41.549  37.888  26.737  1.00  0.00    -0.200 F 
ATOM     99  C   UNL A   1      43.011  38.253  28.548  1.00  0.00     0.200 A 
ATOM    100  F   UNL A   1      44.463  38.560  30.383  1.00  0.00    -0.200 F 
ATOM    101  F   UNL A   1      43.214  39.518  28.155  1.00  0.00    -0.200 F 
ENDBRANCH  68  91
ENDBRANCH  42  43
ENDBRANCH  35  37
ENDBRANCH  34  35
ENDBRANCH  33  34
ENDBRANCH  32  33
ENDBRANCH  31  32
ENDBRANCH  30  31
ENDBRANCH  29  30
ENDBRANCH   1  29
TORSDOF 22
ENDMDL
MODEL 2
REMARK VINA RESULT:     -12.0      1.818      2.810
REMARK SMILES Cc1cc(F)cc(NC(=O)N[C@@H]2COC[C@H]2C(=O)OCCOCCOCCOCCOC(=O)c2ccc(-c3c4nc(c(-c5c(F)c(F)c(F)c(F)c5F)c5ccc([nH]5)c(-c5c(F)c(F)c(F)c(F)c5F)c5nc(c(-c6c(F)c(F)c(F)c(F)c6F)c6ccc3[nH]6)C=C5)C=C4)cc2)c1
REMARK SMILES IDX 25 1 24 2 23 3 22 4 21 5 20 6 19 7 17 8 18 9 16 10 12 11
REMARK SMILES IDX 13 12 14 13 15 14 11 15 8 16 9 17 10 19 7 21 1 22 2 23 3 24
REMARK SMILES IDX 97 25 4 26 5 27 6 28 26 29 27 30 28 31 29 32 30 33 31 34
REMARK SMILES IDX 32 35 33 36 34 37 35 38 96 39 36 40 95 41 37 42 38 43 39 44
REMARK SMILES IDX 89 45 40 46 94 47 88 48 90 49 41 50 93 51 87 52 86 53 42 55
REMARK SMILES IDX 74 56 54 57 73 58 55 59 58 60 72 61 91 62 56 63 57 64 71 66
REMARK SMILES IDX 92 67 59 68 43 69 44 70 52 71 45 72 46 73 50 74 53 75 47 76
REMARK SMILES IDX 48 77 51 78 49 79 75 80 76 81 84 82 77 83 78 84 82 85 85 86
REMARK SMILES IDX 79 87 80 88 83 89 81 90 60 91 61 92 69 93 62 94 63 95 67 96
REMARK SMILES IDX 70 97 64 98 65 99 68 100 66 101
REMARK H PARENT 8 18 11 20 90 54 58 65
REMARK Flexibility Score: inf
ROOT
ATOM      1  O   UNL A   1      43.186  19.001  24.873  1.00  0.00    -0.377 OA
ENDROOT
BRANCH   1   2
ATOM      2  C   UNL A   1      42.648  18.830  26.183  1.00  0.00     0.188 C 
BRANCH   2   3
ATOM      3  C   UNL A   1      41.779  19.952  26.760  1.00  0.00     0.188 C 
BRANCH   3   4
ATOM      4  O   UNL A   1      41.137  20.720  25.763  1.00  0.00    -0.376 OA
BRANCH   4   5
ATOM      5  C   UNL A   1      40.172  21.659  26.207  1.00  0.00     0.202 C 
BRANCH   5   6
ATOM      6  C   UNL A   1      38.653  21.412  26.025  1.00  0.00     0.261 C 
BRANCH   6   7
ATOM      7  O   UNL A   1      37.974  21.966  24.881  1.00  0.00    -0.463 OA
BRANCH   7   8
ATOM      8  C   UNL A   1      37.177  23.032  25.126  1.00  0.00     0.313 C 
ATOM      9  O   UNL A   1      37.560  24.031  25.732  1.00  0.00    -0.252 OA
BRANCH   8  10
ATOM     10  C   UNL A   1      35.730  22.901  24.696  1.00  0.00     0.150 C 
ATOM     11  C   UNL A   1      34.620  23.814  25.180  1.00  0.00     0.126 C 
ATOM     12  C   UNL A   1      33.756  24.121  23.958  1.00  0.00     0.186 C 
ATOM     13  O   UNL A   1      34.429  23.614  22.805  1.00  0.00    -0.378 OA
ATOM     14  C   UNL A   1      35.724  23.145  23.194  1.00  0.00     0.177 C 
BRANCH  11  15
ATOM     15  N   UNL A   1      33.799  23.413  26.341  1.00  0.00    -0.332 N 
ATOM     16  N   UNL A   1      32.412  21.431  26.315  1.00  0.00    -0.308 N 
ATOM     17  C   UNL A   1      32.899  22.563  26.811  1.00  0.00     0.319 C 
ATOM     18  H   UNL A   1      31.866  20.988  27.003  1.00  0.00     0.171 HD
ATOM     19  O   UNL A   1      32.486  22.832  27.952  1.00  0.00    -0.248 OA
ATOM     20  H   UNL A   1      34.011  24.037  27.072  1.00  0.00     0.165 HD
BRANCH  16  21
ATOM     21  C   UNL A   1      32.406  20.647  25.156  1.00  0.00     0.046 A 
ATOM     22  C   UNL A   1      33.064  16.952  24.346  1.00  0.00     0.044 C 
ATOM     23  C   UNL A   1      32.778  18.417  24.193  1.00  0.00    -0.046 A 
ATOM     24  C   UNL A   1      32.557  18.941  22.919  1.00  0.00     0.042 A 
ATOM     25  C   UNL A   1      32.723  19.282  25.301  1.00  0.00     0.029 A 
ATOM     26  C   UNL A   1      32.193  20.271  22.789  1.00  0.00     0.125 A 
ATOM     27  F   UNL A   1      31.948  20.771  21.571  1.00  0.00    -0.207 F 
ATOM     28  C   UNL A   1      32.067  21.097  23.899  1.00  0.00     0.065 A 
ENDBRANCH  16  21
ENDBRANCH  11  15
ENDBRANCH   8  10
ENDBRANCH   7   8
ENDBRANCH   6   7
ENDBRANCH   5   6
ENDBRANCH   4   5
ENDBRANCH   3   4
ENDBRANCH   2   3
ENDBRANCH   1   2
BRANCH   1  29
ATOM     29  C   UNL A   1      44.585  19.232  24.741  1.00  0.00     0.188 C 
BRANCH  29  30
ATOM     30  C   UNL A   1      45.078  20.680  24.564  1.00  0.00     0.188 C 
BRANCH  30  31
ATOM     31  O   UNL A   1      44.775  21.549  25.649  1.00  0.00    -0.376 OA
BRANCH  31  32
ATOM     32  C   UNL A   1      43.971  22.687  25.368  1.00  0.00     0.202 C 
BRANCH  32  33
ATOM     33  C   UNL A   1      43.512  23.509  26.580  1.00  0.00     0.261 C 
BRANCH  33  34
ATOM     34  O   UNL A   1      42.451  24.428  26.320  1.00  0.00    -0.460 OA
BRANCH  34  35
ATOM     35  C   UNL A   1      41.863  24.909  27.422  1.00  0.00     0.338 C 
ATOM     36  O   UNL A   1      42.275  24.846  28.580  1.00  0.00    -0.246 OA
BRANCH  35  37
ATOM     37  C   UNL A   1      40.557  25.500  27.061  1.00  0.00     0.060 A 
ATOM     38  C   UNL A   1      40.711  26.650  26.269  1.00  0.00     0.016 A 
ATOM     39  C   UNL A   1      39.727  25.477  28.178  1.00  0.00     0.016 A 
ATOM     40  C   UNL A   1      40.537  27.862  26.894  1.00  0.00     0.010 A 
ATOM     41  C   UNL A   1      39.576  26.678  28.818  1.00  0.00     0.010 A 
ATOM     42  C   UNL A   1      40.105  27.828  28.217  1.00  0.00    -0.014 A 
BRANCH  42  43
ATOM     43  C   UNL A   1      40.254  28.962  29.092  1.00  0.00     0.031 A 
ATOM     44  C   UNL A   1      39.183  29.951  29.107  1.00  0.00     0.074 A 
ATOM     45  C   UNL A   1      41.346  29.044  29.876  1.00  0.00     0.049 A 
ATOM     46  N   UNL A   1      39.318  31.166  29.499  1.00  0.00    -0.248 NA
ATOM     47  C   UNL A   1      37.867  29.645  28.564  1.00  0.00     0.031 C 
ATOM     48  C   UNL A   1      41.546  29.919  31.020  1.00  0.00     0.029 A 
ATOM     49  N   UNL A   1      42.594  28.450  29.654  1.00  0.00    -0.354 N 
ATOM     50  C   UNL A   1      38.060  31.715  29.540  1.00  0.00     0.074 A 
ATOM     51  C   UNL A   1      37.221  30.780  28.830  1.00  0.00     0.031 C 
ATOM     52  C   UNL A   1      42.861  29.996  31.276  1.00  0.00     0.029 A 
ATOM     53  C   UNL A   1      43.564  29.311  30.202  1.00  0.00     0.049 A 
ATOM     54  H   UNL A   1      42.761  27.592  29.201  1.00  0.00     0.167 HD
ATOM     55  C   UNL A   1      37.866  32.818  30.320  1.00  0.00     0.037 A 
ATOM     56  C   UNL A   1      44.463  29.914  29.371  1.00  0.00     0.037 A 
ATOM     57  C   UNL A   1      39.146  33.312  30.841  1.00  0.00     0.049 A 
ATOM     58  C   UNL A   1      44.270  31.412  29.213  1.00  0.00     0.074 A 
ATOM     59  C   UNL A   1      39.833  33.138  32.033  1.00  0.00     0.029 A 
ATOM     60  N   UNL A   1      40.072  33.815  29.944  1.00  0.00    -0.354 N 
ATOM     61  N   UNL A   1      43.291  32.095  29.742  1.00  0.00    -0.248 NA
ATOM     62  C   UNL A   1      45.127  32.241  28.362  1.00  0.00     0.031 C 
ATOM     63  C   UNL A   1      41.195  33.509  31.820  1.00  0.00     0.029 A 
ATOM     64  C   UNL A   1      41.330  33.920  30.506  1.00  0.00     0.049 A 
ATOM     65  H   UNL A   1      39.859  34.066  29.016  1.00  0.00     0.167 HD
ATOM     66  C   UNL A   1      43.354  33.392  29.310  1.00  0.00     0.074 A 
ATOM     67  C   UNL A   1      44.515  33.434  28.440  1.00  0.00     0.031 C 
ATOM     68  C   UNL A   1      42.441  34.341  29.667  1.00  0.00     0.037 A 
BRANCH  55  69
ATOM     69  C   UNL A   1      36.514  33.244  30.845  1.00  0.00     0.064 A 
ATOM     70  C   UNL A   1      35.594  33.882  29.987  1.00  0.00     0.173 A 
ATOM     71  C   UNL A   1      36.085  33.141  32.183  1.00  0.00     0.173 A 
ATOM     72  F   UNL A   1      35.803  33.951  28.666  1.00  0.00    -0.203 F 
ATOM     73  C   UNL A   1      34.417  34.475  30.454  1.00  0.00     0.198 A 
ATOM     74  C   UNL A   1      34.940  33.782  32.662  1.00  0.00     0.198 A 
ATOM     75  F   UNL A   1      36.711  32.358  33.067  1.00  0.00    -0.203 F 
ATOM     76  F   UNL A   1      33.588  35.074  29.589  1.00  0.00    -0.200 F 
ATOM     77  C   UNL A   1      34.111  34.461  31.798  1.00  0.00     0.200 A 
ATOM     78  F   UNL A   1      34.646  33.726  33.970  1.00  0.00    -0.200 F 
ATOM     79  F   UNL A   1      33.006  35.065  32.253  1.00  0.00    -0.200 F 
ENDBRANCH  55  69
BRANCH  56  80
ATOM     80  C   UNL A   1      44.977  29.013  28.305  1.00  0.00     0.064 A 
ATOM     81  C   UNL A   1      46.019  28.117  28.615  1.00  0.00     0.173 A 
ATOM     82  C   UNL A   1      44.290  28.812  27.101  1.00  0.00     0.173 A 
ATOM     83  F   UNL A   1      46.704  28.258  29.761  1.00  0.00    -0.203 F 
ATOM     84  C   UNL A   1      46.322  27.038  27.787  1.00  0.00     0.198 A 
ATOM     85  C   UNL A   1      44.598  27.732  26.271  1.00  0.00     0.198 A 
ATOM     86  F   UNL A   1      43.278  29.621  26.754  1.00  0.00    -0.203 F 
ATOM     87  F   UNL A   1      47.274  26.164  28.145  1.00  0.00    -0.200 F 
ATOM     88  C   UNL A   1      45.604  26.843  26.619  1.00  0.00     0.200 A 
ATOM     89  F   UNL A   1      43.886  27.526  25.153  1.00  0.00    -0.200 F 
ATOM     90  F   UNL A   1      45.864  25.785  25.837  1.00  0.00    -0.200 F 
ENDBRANCH  56  80
BRANCH  68  91
ATOM     91  C   UNL A   1      42.551  35.777  29.248  1.00  0.00     0.064 A 
ATOM     92  C   UNL A   1      41.966  36.251  28.064  1.00  0.00     0.173 A 
ATOM     93  C   UNL A   1      43.363  36.689  29.953  1.00  0.00     0.173 A 
ATOM     94  F   UNL A   1      41.221  35.443  27.295  1.00  0.00    -0.203 F 
ATOM     95  C   UNL A   1      42.152  37.566  27.632  1.00  0.00     0.198 A 
ATOM     96  C   UNL A   1      43.594  37.982  29.489  1.00  0.00     0.198 A 
ATOM     97  F   UNL A   1      43.931  36.360  31.122  1.00  0.00    -0.203 F 
ATOM     98  F   UNL A   1      41.532  37.996  26.525  1.00  0.00    -0.200 F 
ATOM     99  C   UNL A   1      42.978  38.424  28.335  1.00  0.00     0.200 A 
ATOM    100  F   UNL A   1      44.413  38.795  30.171  1.00  0.00    -0.200 F 
ATOM    101  F   UNL A   1      43.178  39.677  27.905  1.00  0.00    -0.200 F 
ENDBRANCH  68  91
ENDBRANCH  42  43
ENDBRANCH  35  37
ENDBRANCH  34  35
ENDBRANCH  33  34
ENDBRANCH  32  33
ENDBRANCH  31  32
ENDBRANCH  30  31
ENDBRANCH  29  30
ENDBRANCH   1  29
TORSDOF 22
ENDMDL
MODEL 3
REMARK VINA RESULT:     -11.8      1.642      3.141
REMARK SMILES Cc1cc(F)cc(NC(=O)N[C@@H]2COC[C@H]2C(=O)OCCOCCOCCOCCOC(=O)c2ccc(-c3c4nc(c(-c5c(F)c(F)c(F)c(F)c5F)c5ccc([nH]5)c(-c5c(F)c(F)c(F)c(F)c5F)c5nc(c(-c6c(F)c(F)c(F)c(F)c6F)c6ccc3[nH]6)C=C5)C=C4)cc2)c1
REMARK SMILES IDX 25 1 24 2 23 3 22 4 21 5 20 6 19 7 17 8 18 9 16 10 12 11
REMARK SMILES IDX 13 12 14 13 15 14 11 15 8 16 9 17 10 19 7 21 1 22 2 23 3 24
REMARK SMILES IDX 97 25 4 26 5 27 6 28 26 29 27 30 28 31 29 32 30 33 31 34
REMARK SMILES IDX 32 35 33 36 34 37 35 38 96 39 36 40 95 41 37 42 38 43 39 44
REMARK SMILES IDX 89 45 40 46 94 47 88 48 90 49 41 50 93 51 87 52 86 53 42 55
REMARK SMILES IDX 74 56 54 57 73 58 55 59 58 60 72 61 91 62 56 63 57 64 71 66
REMARK SMILES IDX 92 67 59 68 43 69 44 70 52 71 45 72 46 73 50 74 53 75 47 76
REMARK SMILES IDX 48 77 51 78 49 79 75 80 76 81 84 82 77 83 78 84 82 85 85 86
REMARK SMILES IDX 79 87 80 88 83 89 81 90 60 91 61 92 69 93 62 94 63 95 67 96
REMARK SMILES IDX 70 97 64 98 65 99 68 100 66 101
REMARK H PARENT 8 18 11 20 90 54 58 65
REMARK Flexibility Score: inf
ROOT
ATOM      1  O   UNL A   1      38.888  22.378  26.451  1.00  0.00    -0.377 OA
ENDROOT
BRANCH   1   2
ATOM      2  C   UNL A   1      37.936  22.692  25.437  1.00  0.00     0.188 C 
BRANCH   2   3
ATOM      3  C   UNL A   1      36.610  21.925  25.429  1.00  0.00     0.188 C 
BRANCH   3   4
ATOM      4  O   UNL A   1      35.505  22.736  25.085  1.00  0.00    -0.376 OA
BRANCH   4   5
ATOM      5  C   UNL A   1      35.566  24.095  25.485  1.00  0.00     0.202 C 
BRANCH   5   6
ATOM      6  C   UNL A   1      34.285  24.908  25.802  1.00  0.00     0.261 C 
BRANCH   6   7
ATOM      7  O   UNL A   1      34.197  26.286  25.390  1.00  0.00    -0.463 OA
BRANCH   7   8
ATOM      8  C   UNL A   1      32.948  26.801  25.313  1.00  0.00     0.313 C 
ATOM      9  O   UNL A   1      32.070  26.559  26.140  1.00  0.00    -0.252 OA
BRANCH   8  10
ATOM     10  C   UNL A   1      32.639  27.632  24.084  1.00  0.00     0.150 C 
ATOM     11  C   UNL A   1      31.675  27.201  22.995  1.00  0.00     0.126 C 
ATOM     12  C   UNL A   1      30.865  28.443  22.627  1.00  0.00     0.186 C 
ATOM     13  O   UNL A   1      31.170  29.465  23.576  1.00  0.00    -0.378 OA
ATOM     14  C   UNL A   1      31.997  28.910  24.604  1.00  0.00     0.177 C 
BRANCH  11  15
ATOM     15  N   UNL A   1      32.191  26.510  21.796  1.00  0.00    -0.332 N 
ATOM     16  N   UNL A   1      32.557  24.119  21.743  1.00  0.00    -0.308 N 
ATOM     17  C   UNL A   1      32.606  25.363  21.280  1.00  0.00     0.319 C 
ATOM     18  H   UNL A   1      32.826  23.499  21.028  1.00  0.00     0.171 HD
ATOM     19  O   UNL A   1      33.055  25.453  20.125  1.00  0.00    -0.248 OA
ATOM     20  H   UNL A   1      32.253  27.184  21.082  1.00  0.00     0.165 HD
BRANCH  16  21
ATOM     21  C   UNL A   1      32.256  23.382  22.893  1.00  0.00     0.046 A 
ATOM     22  C   UNL A   1      33.256  19.945  24.283  1.00  0.00     0.044 C 
ATOM     23  C   UNL A   1      32.586  21.277  24.119  1.00  0.00    -0.046 A 
ATOM     24  C   UNL A   1      31.675  21.707  25.083  1.00  0.00     0.042 A 
ATOM     25  C   UNL A   1      32.852  22.111  23.017  1.00  0.00     0.029 A 
ATOM     26  C   UNL A   1      31.134  22.978  24.984  1.00  0.00     0.125 A 
ATOM     27  F   UNL A   1      30.284  23.409  25.925  1.00  0.00    -0.207 F 
ATOM     28  C   UNL A   1      31.465  23.823  23.931  1.00  0.00     0.065 A 
ENDBRANCH  16  21
ENDBRANCH  11  15
ENDBRANCH   8  10
ENDBRANCH   7   8
ENDBRANCH   6   7
ENDBRANCH   5   6
ENDBRANCH   4   5
ENDBRANCH   3   4
ENDBRANCH   2   3
ENDBRANCH   1   2
BRANCH   1  29
ATOM     29  C   UNL A   1      39.799  21.308  26.215  1.00  0.00     0.188 C 
BRANCH  29  30
ATOM     30  C   UNL A   1      40.878  21.014  27.273  1.00  0.00     0.188 C 
BRANCH  30  31
ATOM     31  O   UNL A   1      42.217  21.152  26.814  1.00  0.00    -0.376 OA
BRANCH  31  32
ATOM     32  C   UNL A   1      42.467  22.138  25.820  1.00  0.00     0.202 C 
BRANCH  32  33
ATOM     33  C   UNL A   1      43.245  23.379  26.278  1.00  0.00     0.261 C 
BRANCH  33  34
ATOM     34  O   UNL A   1      42.493  24.593  26.283  1.00  0.00    -0.460 OA
BRANCH  34  35
ATOM     35  C   UNL A   1      41.711  24.747  27.359  1.00  0.00     0.338 C 
ATOM     36  O   UNL A   1      41.935  24.367  28.508  1.00  0.00    -0.246 OA
BRANCH  35  37
ATOM     37  C   UNL A   1      40.451  25.408  26.957  1.00  0.00     0.060 A 
ATOM     38  C   UNL A   1      40.694  26.562  26.194  1.00  0.00     0.016 A 
ATOM     39  C   UNL A   1      39.576  25.407  28.040  1.00  0.00     0.016 A 
ATOM     40  C   UNL A   1      40.553  27.770  26.836  1.00  0.00     0.010 A 
ATOM     41  C   UNL A   1      39.458  26.602  28.696  1.00  0.00     0.010 A 
ATOM     42  C   UNL A   1      40.066  27.735  28.139  1.00  0.00    -0.014 A 
BRANCH  42  43
ATOM     43  C   UNL A   1      40.234  28.845  29.041  1.00  0.00     0.031 A 
ATOM     44  C   UNL A   1      39.169  29.838  29.098  1.00  0.00     0.074 A 
ATOM     45  C   UNL A   1      41.338  28.900  29.811  1.00  0.00     0.049 A 
ATOM     46  N   UNL A   1      39.317  31.042  29.519  1.00  0.00    -0.248 NA
ATOM     47  C   UNL A   1      37.844  29.554  28.567  1.00  0.00     0.031 C 
ATOM     48  C   UNL A   1      41.559  29.744  30.974  1.00  0.00     0.029 A 
ATOM     49  N   UNL A   1      42.579  28.306  29.555  1.00  0.00    -0.354 N 
ATOM     50  C   UNL A   1      38.062  31.596  29.594  1.00  0.00     0.074 A 
ATOM     51  C   UNL A   1      37.207  30.684  28.872  1.00  0.00     0.031 C 
ATOM     52  C   UNL A   1      42.879  29.808  31.213  1.00  0.00     0.029 A 
ATOM     53  C   UNL A   1      43.562  29.148  30.110  1.00  0.00     0.049 A 
ATOM     54  H   UNL A   1      42.735  27.460  29.077  1.00  0.00     0.167 HD
ATOM     55  C   UNL A   1      37.886  32.679  30.405  1.00  0.00     0.037 A 
ATOM     56  C   UNL A   1      44.452  29.768  29.282  1.00  0.00     0.037 A 
ATOM     57  C   UNL A   1      39.175  33.153  30.920  1.00  0.00     0.049 A 
ATOM     58  C   UNL A   1      44.264  31.271  29.167  1.00  0.00     0.074 A 
ATOM     59  C   UNL A   1      39.879  32.945  32.096  1.00  0.00     0.029 A 
ATOM     60  N   UNL A   1      40.091  33.674  30.022  1.00  0.00    -0.354 N 
ATOM     61  N   UNL A   1      43.297  31.945  29.728  1.00  0.00    -0.248 NA
ATOM     62  C   UNL A   1      45.114  32.118  28.325  1.00  0.00     0.031 C 
ATOM     63  C   UNL A   1      41.240  33.314  31.873  1.00  0.00     0.029 A 
ATOM     64  C   UNL A   1      41.358  33.759  30.568  1.00  0.00     0.049 A 
ATOM     65  H   UNL A   1      39.866  33.951  29.104  1.00  0.00     0.167 HD
ATOM     66  C   UNL A   1      43.361  33.252  29.329  1.00  0.00     0.074 A 
ATOM     67  C   UNL A   1      44.509  33.311  28.443  1.00  0.00     0.031 C 
ATOM     68  C   UNL A   1      42.458  34.196  29.724  1.00  0.00     0.037 A 
BRANCH  55  69
ATOM     69  C   UNL A   1      36.543  33.098  30.961  1.00  0.00     0.064 A 
ATOM     70  C   UNL A   1      35.673  33.887  30.181  1.00  0.00     0.173 A 
ATOM     71  C   UNL A   1      36.081  32.840  32.267  1.00  0.00     0.173 A 
ATOM     72  F   UNL A   1      35.913  34.119  28.884  1.00  0.00    -0.203 F 
ATOM     73  C   UNL A   1      34.515  34.471  30.704  1.00  0.00     0.198 A 
ATOM     74  C   UNL A   1      34.956  33.469  32.809  1.00  0.00     0.198 A 
ATOM     75  F   UNL A   1      36.650  31.919  33.049  1.00  0.00    -0.203 F 
ATOM     76  F   UNL A   1      33.734  35.219  29.913  1.00  0.00    -0.200 F 
ATOM     77  C   UNL A   1      34.179  34.295  32.030  1.00  0.00     0.200 A 
ATOM     78  F   UNL A   1      34.632  33.255  34.093  1.00  0.00    -0.200 F 
ATOM     79  F   UNL A   1      33.094  34.888  32.543  1.00  0.00    -0.200 F 
ENDBRANCH  55  69
BRANCH  56  80
ATOM     80  C   UNL A   1      44.945  28.893  28.186  1.00  0.00     0.064 A 
ATOM     81  C   UNL A   1      45.975  27.972  28.461  1.00  0.00     0.173 A 
ATOM     82  C   UNL A   1      44.248  28.739  26.981  1.00  0.00     0.173 A 
ATOM     83  F   UNL A   1      46.670  28.067  29.606  1.00  0.00    -0.203 F 
ATOM     84  C   UNL A   1      46.256  26.915  27.598  1.00  0.00     0.198 A 
ATOM     85  C   UNL A   1      44.534  27.681  26.116  1.00  0.00     0.198 A 
ATOM     86  F   UNL A   1      43.247  29.574  26.666  1.00  0.00    -0.203 F 
ATOM     87  F   UNL A   1      47.197  26.016  27.923  1.00  0.00    -0.200 F 
ATOM     88  C   UNL A   1      45.529  26.767  26.429  1.00  0.00     0.200 A 
ATOM     89  F   UNL A   1      43.812  27.521  24.997  1.00  0.00    -0.200 F 
ATOM     90  F   UNL A   1      45.767  25.729  25.614  1.00  0.00    -0.200 F 
ENDBRANCH  56  80
BRANCH  68  91
ATOM     91  C   UNL A   1      42.570  35.642  29.341  1.00  0.00     0.064 A 
ATOM     92  C   UNL A   1      41.985  36.146  28.170  1.00  0.00     0.173 A 
ATOM     93  C   UNL A   1      43.383  36.535  30.068  1.00  0.00     0.173 A 
ATOM     94  F   UNL A   1      41.238  35.358  27.382  1.00  0.00    -0.203 F 
ATOM     95  C   UNL A   1      42.172  37.471  27.771  1.00  0.00     0.198 A 
ATOM     96  C   UNL A   1      43.616  37.838  29.637  1.00  0.00     0.198 A 
ATOM     97  F   UNL A   1      43.952  36.176  31.228  1.00  0.00    -0.203 F 
ATOM     98  F   UNL A   1      41.551  37.929  26.675  1.00  0.00    -0.200 F 
ATOM     99  C   UNL A   1      43.000  38.311  28.495  1.00  0.00     0.200 A 
ATOM    100  F   UNL A   1      44.437  38.634  30.338  1.00  0.00    -0.200 F 
ATOM    101  F   UNL A   1      43.201  39.573  28.096  1.00  0.00    -0.200 F 
ENDBRANCH  68  91
ENDBRANCH  42  43
ENDBRANCH  35  37
ENDBRANCH  34  35
ENDBRANCH  33  34
ENDBRANCH  32  33
ENDBRANCH  31  32
ENDBRANCH  30  31
ENDBRANCH  29  30
ENDBRANCH   1  29
TORSDOF 22
ENDMDL
