MODEL 1
REMARK VINA RESULT:     -10.9      0.000      0.000
REMARK SMILES O=C(OCCOCCOCCOCCOC(=O)c1ccc(-c2c3nc(c(-c4c(F)c(F)c(F)c(F)c4F)c4ccc([nH]4)c(-c4c(F)c(F)c(F)c(F)c4F)c4nc(c(-c5c(F)c(F)c(F)c(F)c5F)c5ccc2[nH]5)C=C4)C=C3)cc1)C1=Cc2c(cc(Cl)c(Cl)c2Cl)O[C@H]1C(F)(F)F
REMARK SMILES IDX 10 1 9 2 8 3 7 4 6 5 5 6 4 7 3 8 2 9 1 10 81 11 82 12 93 13
REMARK SMILES IDX 83 14 92 15 84 16 90 17 85 18 88 19 91 20 86 21 89 22 87 23
REMARK SMILES IDX 94 24 95 25 96 26 97 27 11 28 12 29 13 30 14 31 15 32 16 33
REMARK SMILES IDX 17 34 18 35 19 36 80 37 20 38 79 39 21 40 22 41 23 42 73 43
REMARK SMILES IDX 24 44 78 45 72 46 74 47 25 48 77 49 71 50 70 51 26 53 58 54
REMARK SMILES IDX 38 55 57 56 39 57 42 58 56 59 75 60 40 61 41 62 55 64 76 65
REMARK SMILES IDX 43 66 27 67 28 68 36 69 29 70 30 71 34 72 37 73 31 74 32 75
REMARK SMILES IDX 35 76 33 77 59 78 60 79 68 80 61 81 62 82 66 83 69 84 63 85
REMARK SMILES IDX 64 86 67 87 65 88 44 89 45 90 53 91 46 92 47 93 51 94 54 95
REMARK SMILES IDX 48 96 49 97 52 98 50 99
REMARK H PARENT 74 52 42 63
REMARK Flexibility Score: inf
ROOT
ATOM      1  C   UNL A   1      42.661  18.565  26.510  1.00  0.00     0.188 C 
ENDROOT
BRANCH   1   2
ATOM      2  O   UNL A   1      42.323  19.854  27.011  1.00  0.00    -0.377 OA
BRANCH   2   3
ATOM      3  C   UNL A   1      41.623  20.755  26.168  1.00  0.00     0.188 C 
BRANCH   3   4
ATOM      4  C   UNL A   1      40.124  20.908  26.440  1.00  0.00     0.188 C 
BRANCH   4   5
ATOM      5  O   UNL A   1      39.615  22.153  25.990  1.00  0.00    -0.376 OA
BRANCH   5   6
ATOM      6  C   UNL A   1      38.869  22.869  26.964  1.00  0.00     0.202 C 
BRANCH   6   7
ATOM      7  C   UNL A   1      38.074  24.021  26.361  1.00  0.00     0.261 C 
BRANCH   7   8
ATOM      8  O   UNL A   1      37.806  23.850  24.949  1.00  0.00    -0.460 OA
BRANCH   8   9
ATOM      9  C   UNL A   1      36.792  23.186  24.342  1.00  0.00     0.338 C 
ATOM     10  O   UNL A   1      37.042  22.188  23.673  1.00  0.00    -0.246 OA
BRANCH   9  11
ATOM     11  C   UNL A   1      35.374  23.534  24.592  1.00  0.00     0.087 C 
ATOM     12  C   UNL A   1      34.549  24.020  23.670  1.00  0.00     0.029 C 
ATOM     13  C   UNL A   1      34.707  22.884  25.793  1.00  0.00     0.316 C 
ATOM     14  C   UNL A   1      33.297  24.630  24.021  1.00  0.00     0.038 A 
ATOM     15  O   UNL A   1      33.328  23.334  26.061  1.00  0.00    -0.475 OA
ATOM     16  C   UNL A   1      32.715  24.205  25.201  1.00  0.00     0.131 A 
ATOM     17  C   UNL A   1      32.695  25.630  23.222  1.00  0.00     0.072 A 
ATOM     18  C   UNL A   1      31.459  24.697  25.538  1.00  0.00     0.069 A 
ATOM     19  C   UNL A   1      31.426  26.108  23.546  1.00  0.00     0.079 A 
ATOM     20  Cl  UNL A   1      33.576  26.343  21.897  1.00  0.00    -0.082 Cl
ATOM     21  C   UNL A   1      30.808  25.625  24.706  1.00  0.00     0.064 A 
ATOM     22  Cl  UNL A   1      30.633  27.264  22.519  1.00  0.00    -0.081 Cl
ATOM     23  Cl  UNL A   1      29.236  26.160  25.186  1.00  0.00    -0.083 Cl
BRANCH  13  24
ATOM     24  C   UNL A   1      34.712  21.331  25.595  1.00  0.00     0.430 C 
ATOM     25  F   UNL A   1      35.931  20.782  25.837  1.00  0.00    -0.167 F 
ATOM     26  F   UNL A   1      33.820  20.714  26.401  1.00  0.00    -0.167 F 
ATOM     27  F   UNL A   1      34.393  20.984  24.323  1.00  0.00    -0.167 F 
ENDBRANCH  13  24
ENDBRANCH   9  11
ENDBRANCH   8   9
ENDBRANCH   7   8
ENDBRANCH   6   7
ENDBRANCH   5   6
ENDBRANCH   4   5
ENDBRANCH   3   4
ENDBRANCH   2   3
ENDBRANCH   1   2
BRANCH   1  28
ATOM     28  C   UNL A   1      43.642  18.587  25.313  1.00  0.00     0.188 C 
BRANCH  28  29
ATOM     29  O   UNL A   1      44.893  19.273  25.410  1.00  0.00    -0.376 OA
BRANCH  29  30
ATOM     30  C   UNL A   1      45.069  20.443  24.626  1.00  0.00     0.202 C 
BRANCH  30  31
ATOM     31  C   UNL A   1      45.115  21.728  25.479  1.00  0.00     0.261 C 
BRANCH  31  32
ATOM     32  O   UNL A   1      44.088  22.694  25.169  1.00  0.00    -0.460 OA
BRANCH  32  33
ATOM     33  C   UNL A   1      44.503  23.988  25.074  1.00  0.00     0.338 C 
ATOM     34  O   UNL A   1      45.364  24.423  24.343  1.00  0.00    -0.246 OA
BRANCH  33  35
ATOM     35  C   UNL A   1      43.636  24.865  25.919  1.00  0.00     0.060 A 
ATOM     36  C   UNL A   1      43.876  26.246  25.890  1.00  0.00     0.016 A 
ATOM     37  C   UNL A   1      42.613  24.364  26.732  1.00  0.00     0.016 A 
ATOM     38  C   UNL A   1      43.151  27.116  26.716  1.00  0.00     0.010 A 
ATOM     39  C   UNL A   1      41.889  25.234  27.564  1.00  0.00     0.010 A 
ATOM     40  C   UNL A   1      42.188  26.611  27.601  1.00  0.00    -0.014 A 
BRANCH  40  41
ATOM     41  C   UNL A   1      41.707  27.460  28.731  1.00  0.00     0.031 A 
ATOM     42  C   UNL A   1      42.487  27.418  30.023  1.00  0.00     0.074 A 
ATOM     43  C   UNL A   1      40.650  28.289  28.629  1.00  0.00     0.049 A 
ATOM     44  N   UNL A   1      42.265  28.030  31.160  1.00  0.00    -0.248 NA
ATOM     45  C   UNL A   1      43.684  26.563  30.028  1.00  0.00     0.031 C 
ATOM     46  C   UNL A   1      39.835  28.484  27.434  1.00  0.00     0.029 A 
ATOM     47  N   UNL A   1      40.082  29.126  29.564  1.00  0.00    -0.354 N 
ATOM     48  C   UNL A   1      43.288  27.629  32.011  1.00  0.00     0.074 A 
ATOM     49  C   UNL A   1      44.108  26.691  31.276  1.00  0.00     0.031 C 
ATOM     50  C   UNL A   1      38.866  29.377  27.709  1.00  0.00     0.029 A 
ATOM     51  C   UNL A   1      38.971  29.795  29.108  1.00  0.00     0.049 A 
ATOM     52  H   UNL A   1      40.439  29.236  30.475  1.00  0.00     0.167 HD
ATOM     53  C   UNL A   1      43.537  28.011  33.287  1.00  0.00     0.037 A 
ATOM     54  C   UNL A   1      38.126  30.630  29.750  1.00  0.00     0.037 A 
ATOM     55  C   UNL A   1      42.730  28.942  34.030  1.00  0.00     0.049 A 
ATOM     56  C   UNL A   1      38.370  30.972  31.204  1.00  0.00     0.074 A 
ATOM     57  C   UNL A   1      42.906  29.392  35.327  1.00  0.00     0.029 A 
ATOM     58  N   UNL A   1      41.587  29.558  33.544  1.00  0.00    -0.354 N 
ATOM     59  N   UNL A   1      39.348  30.599  31.995  1.00  0.00    -0.248 NA
ATOM     60  C   UNL A   1      37.388  31.856  31.854  1.00  0.00     0.031 C 
ATOM     61  C   UNL A   1      41.835  30.231  35.648  1.00  0.00     0.029 A 
ATOM     62  C   UNL A   1      41.030  30.362  34.527  1.00  0.00     0.049 A 
ATOM     63  H   UNL A   1      41.224  29.443  32.636  1.00  0.00     0.167 HD
ATOM     64  C   UNL A   1      39.119  31.228  33.215  1.00  0.00     0.074 A 
ATOM     65  C   UNL A   1      37.918  32.019  33.058  1.00  0.00     0.031 C 
ATOM     66  C   UNL A   1      39.841  31.158  34.361  1.00  0.00     0.037 A 
BRANCH  53  67
ATOM     67  C   UNL A   1      44.721  27.392  33.975  1.00  0.00     0.064 A 
ATOM     68  C   UNL A   1      44.641  26.139  34.603  1.00  0.00     0.173 A 
ATOM     69  C   UNL A   1      45.959  28.052  33.986  1.00  0.00     0.173 A 
ATOM     70  F   UNL A   1      43.478  25.472  34.635  1.00  0.00    -0.203 F 
ATOM     71  C   UNL A   1      45.748  25.588  35.244  1.00  0.00     0.198 A 
ATOM     72  C   UNL A   1      47.071  27.482  34.596  1.00  0.00     0.198 A 
ATOM     73  F   UNL A   1      46.092  29.250  33.396  1.00  0.00    -0.203 F 
ATOM     74  F   UNL A   1      45.633  24.417  35.887  1.00  0.00    -0.200 F 
ATOM     75  C   UNL A   1      46.963  26.255  35.233  1.00  0.00     0.200 A 
ATOM     76  F   UNL A   1      48.249  28.121  34.571  1.00  0.00    -0.200 F 
ATOM     77  F   UNL A   1      48.029  25.720  35.845  1.00  0.00    -0.200 F 
ENDBRANCH  53  67
BRANCH  54  78
ATOM     78  C   UNL A   1      36.944  31.199  29.042  1.00  0.00     0.064 A 
ATOM     79  C   UNL A   1      36.896  32.552  28.673  1.00  0.00     0.173 A 
ATOM     80  C   UNL A   1      35.813  30.414  28.771  1.00  0.00     0.173 A 
ATOM     81  F   UNL A   1      37.934  33.357  28.942  1.00  0.00    -0.203 F 
ATOM     82  C   UNL A   1      35.757  33.101  28.082  1.00  0.00     0.198 A 
ATOM     83  C   UNL A   1      34.689  30.955  28.149  1.00  0.00     0.198 A 
ATOM     84  F   UNL A   1      35.797  29.117  29.112  1.00  0.00    -0.203 F 
ATOM     85  F   UNL A   1      35.717  34.409  27.798  1.00  0.00    -0.200 F 
ATOM     86  C   UNL A   1      34.657  32.300  27.814  1.00  0.00     0.200 A 
ATOM     87  F   UNL A   1      33.633  30.175  27.883  1.00  0.00    -0.200 F 
ATOM     88  F   UNL A   1      33.564  32.826  27.247  1.00  0.00    -0.200 F 
ENDBRANCH  54  78
BRANCH  66  89
ATOM     89  C   UNL A   1      39.389  31.993  35.528  1.00  0.00     0.064 A 
ATOM     90  C   UNL A   1      38.494  31.504  36.491  1.00  0.00     0.173 A 
ATOM     91  C   UNL A   1      39.898  33.290  35.709  1.00  0.00     0.173 A 
ATOM     92  F   UNL A   1      37.970  30.276  36.362  1.00  0.00    -0.203 F 
ATOM     93  C   UNL A   1      38.102  32.291  37.572  1.00  0.00     0.198 A 
ATOM     94  C   UNL A   1      39.530  34.061  36.811  1.00  0.00     0.198 A 
ATOM     95  F   UNL A   1      40.765  33.807  34.827  1.00  0.00    -0.203 F 
ATOM     96  F   UNL A   1      37.204  31.820  38.449  1.00  0.00    -0.200 F 
ATOM     97  C   UNL A   1      38.625  33.564  37.735  1.00  0.00     0.200 A 
ATOM     98  F   UNL A   1      40.054  35.283  36.976  1.00  0.00    -0.200 F 
ATOM     99  F   UNL A   1      38.253  34.315  38.780  1.00  0.00    -0.200 F 
ENDBRANCH  66  89
ENDBRANCH  40  41
ENDBRANCH  33  35
ENDBRANCH  32  33
ENDBRANCH  31  32
ENDBRANCH  30  31
ENDBRANCH  29  30
ENDBRANCH  28  29
ENDBRANCH   1  28
TORSDOF 21
ENDMDL
MODEL 2
REMARK VINA RESULT:     -10.6      3.345      8.496
REMARK SMILES O=C(OCCOCCOCCOCCOC(=O)c1ccc(-c2c3nc(c(-c4c(F)c(F)c(F)c(F)c4F)c4ccc([nH]4)c(-c4c(F)c(F)c(F)c(F)c4F)c4nc(c(-c5c(F)c(F)c(F)c(F)c5F)c5ccc2[nH]5)C=C4)C=C3)cc1)C1=Cc2c(cc(Cl)c(Cl)c2Cl)O[C@H]1C(F)(F)F
REMARK SMILES IDX 10 1 9 2 8 3 7 4 6 5 5 6 4 7 3 8 2 9 1 10 81 11 82 12 93 13
REMARK SMILES IDX 83 14 92 15 84 16 90 17 85 18 88 19 91 20 86 21 89 22 87 23
REMARK SMILES IDX 94 24 95 25 96 26 97 27 11 28 12 29 13 30 14 31 15 32 16 33
REMARK SMILES IDX 17 34 18 35 19 36 80 37 20 38 79 39 21 40 22 41 23 42 73 43
REMARK SMILES IDX 24 44 78 45 72 46 74 47 25 48 77 49 71 50 70 51 26 53 58 54
REMARK SMILES IDX 38 55 57 56 39 57 42 58 56 59 75 60 40 61 41 62 55 64 76 65
REMARK SMILES IDX 43 66 27 67 28 68 36 69 29 70 30 71 34 72 37 73 31 74 32 75
REMARK SMILES IDX 35 76 33 77 59 78 60 79 68 80 61 81 62 82 66 83 69 84 63 85
REMARK SMILES IDX 64 86 67 87 65 88 44 89 45 90 53 91 46 92 47 93 51 94 54 95
REMARK SMILES IDX 48 96 49 97 52 98 50 99
REMARK H PARENT 74 52 42 63
REMARK Flexibility Score: inf
ROOT
ATOM      1  C   UNL A   1      30.709  25.296  25.753  1.00  0.00     0.188 C 
ENDROOT
BRANCH   1   2
ATOM      2  O   UNL A   1      31.515  24.165  25.441  1.00  0.00    -0.377 OA
BRANCH   2   3
ATOM      3  C   UNL A   1      31.003  23.181  24.557  1.00  0.00     0.188 C 
BRANCH   3   4
ATOM      4  C   UNL A   1      31.527  23.226  23.119  1.00  0.00     0.188 C 
BRANCH   4   5
ATOM      5  O   UNL A   1      31.542  24.540  22.586  1.00  0.00    -0.376 OA
BRANCH   5   6
ATOM      6  C   UNL A   1      32.738  24.883  21.900  1.00  0.00     0.202 C 
BRANCH   6   7
ATOM      7  C   UNL A   1      33.793  25.476  22.826  1.00  0.00     0.261 C 
BRANCH   7   8
ATOM      8  O   UNL A   1      34.727  24.493  23.330  1.00  0.00    -0.460 OA
BRANCH   8   9
ATOM      9  C   UNL A   1      35.163  24.294  24.598  1.00  0.00     0.338 C 
ATOM     10  O   UNL A   1      34.588  24.855  25.527  1.00  0.00    -0.246 OA
BRANCH   9  11
ATOM     11  C   UNL A   1      36.211  23.296  24.914  1.00  0.00     0.087 C 
ATOM     12  C   UNL A   1      36.974  23.331  26.002  1.00  0.00     0.029 C 
ATOM     13  C   UNL A   1      36.101  21.942  24.232  1.00  0.00     0.316 C 
ATOM     14  C   UNL A   1      38.169  22.541  26.114  1.00  0.00     0.038 A 
ATOM     15  O   UNL A   1      37.218  21.016  24.497  1.00  0.00    -0.475 OA
ATOM     16  C   UNL A   1      38.204  21.371  25.377  1.00  0.00     0.131 A 
ATOM     17  C   UNL A   1      39.265  22.941  26.912  1.00  0.00     0.072 A 
ATOM     18  C   UNL A   1      39.299  20.527  25.522  1.00  0.00     0.069 A 
ATOM     19  C   UNL A   1      40.354  22.085  27.077  1.00  0.00     0.079 A 
ATOM     20  Cl  UNL A   1      39.309  24.541  27.604  1.00  0.00    -0.082 Cl
ATOM     21  C   UNL A   1      40.357  20.870  26.383  1.00  0.00     0.064 A 
ATOM     22  Cl  UNL A   1      41.663  22.522  28.134  1.00  0.00    -0.081 Cl
ATOM     23  Cl  UNL A   1      41.663  19.747  26.527  1.00  0.00    -0.083 Cl
BRANCH  13  24
ATOM     24  C   UNL A   1      34.757  21.267  24.666  1.00  0.00     0.430 C 
ATOM     25  F   UNL A   1      33.738  21.546  23.812  1.00  0.00    -0.167 F 
ATOM     26  F   UNL A   1      34.867  19.922  24.742  1.00  0.00    -0.167 F 
ATOM     27  F   UNL A   1      34.349  21.694  25.886  1.00  0.00    -0.167 F 
ENDBRANCH  13  24
ENDBRANCH   9  11
ENDBRANCH   8   9
ENDBRANCH   7   8
ENDBRANCH   6   7
ENDBRANCH   5   6
ENDBRANCH   4   5
ENDBRANCH   3   4
ENDBRANCH   2   3
ENDBRANCH   1   2
BRANCH   1  28
ATOM     28  C   UNL A   1      31.510  26.546  26.190  1.00  0.00     0.188 C 
BRANCH  28  29
ATOM     29  O   UNL A   1      31.002  27.420  27.201  1.00  0.00    -0.376 OA
BRANCH  29  30
ATOM     30  C   UNL A   1      31.829  28.492  27.626  1.00  0.00     0.202 C 
BRANCH  30  31
ATOM     31  C   UNL A   1      31.875  29.648  26.604  1.00  0.00     0.261 C 
BRANCH  31  32
ATOM     32  O   UNL A   1      33.187  30.212  26.392  1.00  0.00    -0.460 OA
BRANCH  32  33
ATOM     33  C   UNL A   1      33.524  31.246  27.211  1.00  0.00     0.338 C 
ATOM     34  O   UNL A   1      32.805  32.148  27.577  1.00  0.00    -0.246 OA
BRANCH  33  35
ATOM     35  C   UNL A   1      34.911  31.050  27.736  1.00  0.00     0.060 A 
ATOM     36  C   UNL A   1      35.303  29.748  28.080  1.00  0.00     0.016 A 
ATOM     37  C   UNL A   1      35.817  32.103  27.901  1.00  0.00     0.016 A 
ATOM     38  C   UNL A   1      36.560  29.506  28.649  1.00  0.00     0.010 A 
ATOM     39  C   UNL A   1      37.076  31.863  28.475  1.00  0.00     0.010 A 
ATOM     40  C   UNL A   1      37.437  30.569  28.902  1.00  0.00    -0.014 A 
BRANCH  40  41
ATOM     41  C   UNL A   1      38.581  30.374  29.841  1.00  0.00     0.031 A 
ATOM     42  C   UNL A   1      39.781  29.607  29.338  1.00  0.00     0.074 A 
ATOM     43  C   UNL A   1      38.608  30.892  31.084  1.00  0.00     0.049 A 
ATOM     44  N   UNL A   1      40.886  29.273  29.958  1.00  0.00    -0.248 NA
ATOM     45  C   UNL A   1      39.720  29.156  27.940  1.00  0.00     0.031 C 
ATOM     46  C   UNL A   1      37.556  31.702  31.690  1.00  0.00     0.029 A 
ATOM     47  N   UNL A   1      39.571  30.804  32.065  1.00  0.00    -0.354 N 
ATOM     48  C   UNL A   1      41.643  28.570  29.027  1.00  0.00     0.074 A 
ATOM     49  C   UNL A   1      40.857  28.490  27.816  1.00  0.00     0.031 C 
ATOM     50  C   UNL A   1      37.926  32.031  32.942  1.00  0.00     0.029 A 
ATOM     51  C   UNL A   1      39.227  31.430  33.240  1.00  0.00     0.049 A 
ATOM     52  H   UNL A   1      40.428  30.337  31.937  1.00  0.00     0.167 HD
ATOM     53  C   UNL A   1      42.885  28.046  29.158  1.00  0.00     0.037 A 
ATOM     54  C   UNL A   1      39.876  31.492  34.422  1.00  0.00     0.037 A 
ATOM     55  C   UNL A   1      43.677  28.117  30.358  1.00  0.00     0.049 A 
ATOM     56  C   UNL A   1      41.223  30.819  34.575  1.00  0.00     0.074 A 
ATOM     57  C   UNL A   1      44.948  27.618  30.583  1.00  0.00     0.029 A 
ATOM     58  N   UNL A   1      43.268  28.719  31.538  1.00  0.00    -0.354 N 
ATOM     59  N   UNL A   1      41.935  30.171  33.686  1.00  0.00    -0.248 NA
ATOM     60  C   UNL A   1      41.857  30.892  35.902  1.00  0.00     0.031 C 
ATOM     61  C   UNL A   1      45.283  27.861  31.918  1.00  0.00     0.029 A 
ATOM     62  C   UNL A   1      44.252  28.577  32.505  1.00  0.00     0.049 A 
ATOM     63  H   UNL A   1      42.408  29.179  31.671  1.00  0.00     0.167 HD
ATOM     64  C   UNL A   1      43.109  29.793  34.332  1.00  0.00     0.074 A 
ATOM     65  C   UNL A   1      43.020  30.296  35.685  1.00  0.00     0.031 C 
ATOM     66  C   UNL A   1      44.164  29.093  33.847  1.00  0.00     0.037 A 
BRANCH  53  67
ATOM     67  C   UNL A   1      43.454  27.314  27.975  1.00  0.00     0.064 A 
ATOM     68  C   UNL A   1      44.132  27.985  26.945  1.00  0.00     0.173 A 
ATOM     69  C   UNL A   1      43.338  25.919  27.883  1.00  0.00     0.173 A 
ATOM     70  F   UNL A   1      44.258  29.320  26.977  1.00  0.00    -0.203 F 
ATOM     71  C   UNL A   1      44.642  27.289  25.852  1.00  0.00     0.198 A 
ATOM     72  C   UNL A   1      43.881  25.223  26.807  1.00  0.00     0.198 A 
ATOM     73  F   UNL A   1      42.704  25.228  28.842  1.00  0.00    -0.203 F 
ATOM     74  F   UNL A   1      45.235  27.957  24.852  1.00  0.00    -0.200 F 
ATOM     75  C   UNL A   1      44.524  25.909  25.788  1.00  0.00     0.200 A 
ATOM     76  F   UNL A   1      43.779  23.888  26.755  1.00  0.00    -0.200 F 
ATOM     77  F   UNL A   1      45.022  25.239  24.739  1.00  0.00    -0.200 F 
ENDBRANCH  53  67
BRANCH  54  78
ATOM     78  C   UNL A   1      39.264  32.200  35.583  1.00  0.00     0.064 A 
ATOM     79  C   UNL A   1      39.545  33.549  35.846  1.00  0.00     0.173 A 
ATOM     80  C   UNL A   1      38.428  31.526  36.486  1.00  0.00     0.173 A 
ATOM     81  F   UNL A   1      40.368  34.232  35.037  1.00  0.00    -0.203 F 
ATOM     82  C   UNL A   1      39.035  34.187  36.977  1.00  0.00     0.198 A 
ATOM     83  C   UNL A   1      37.890  32.173  37.597  1.00  0.00     0.198 A 
ATOM     84  F   UNL A   1      38.133  30.232  36.292  1.00  0.00    -0.203 F 
ATOM     85  F   UNL A   1      39.372  35.458  37.236  1.00  0.00    -0.200 F 
ATOM     86  C   UNL A   1      38.202  33.501  37.847  1.00  0.00     0.200 A 
ATOM     87  F   UNL A   1      37.078  31.509  38.430  1.00  0.00    -0.200 F 
ATOM     88  F   UNL A   1      37.711  34.114  38.934  1.00  0.00    -0.200 F 
ENDBRANCH  54  78
BRANCH  66  89
ATOM     89  C   UNL A   1      45.338  28.867  34.761  1.00  0.00     0.064 A 
ATOM     90  C   UNL A   1      45.445  27.723  35.567  1.00  0.00     0.173 A 
ATOM     91  C   UNL A   1      46.395  29.792  34.797  1.00  0.00     0.173 A 
ATOM     92  F   UNL A   1      44.460  26.813  35.580  1.00  0.00    -0.203 F 
ATOM     93  C   UNL A   1      46.549  27.529  36.394  1.00  0.00     0.198 A 
ATOM     94  C   UNL A   1      47.514  29.576  35.599  1.00  0.00     0.198 A 
ATOM     95  F   UNL A   1      46.353  30.898  34.040  1.00  0.00    -0.203 F 
ATOM     96  F   UNL A   1      46.602  26.455  37.194  1.00  0.00    -0.200 F 
ATOM     97  C   UNL A   1      47.585  28.451  36.404  1.00  0.00     0.200 A 
ATOM     98  F   UNL A   1      48.522  30.459  35.590  1.00  0.00    -0.200 F 
ATOM     99  F   UNL A   1      48.650  28.257  37.194  1.00  0.00    -0.200 F 
ENDBRANCH  66  89
ENDBRANCH  40  41
ENDBRANCH  33  35
ENDBRANCH  32  33
ENDBRANCH  31  32
ENDBRANCH  30  31
ENDBRANCH  29  30
ENDBRANCH  28  29
ENDBRANCH   1  28
TORSDOF 21
ENDMDL
MODEL 3
REMARK VINA RESULT:     -10.5      3.973      8.925
REMARK SMILES O=C(OCCOCCOCCOCCOC(=O)c1ccc(-c2c3nc(c(-c4c(F)c(F)c(F)c(F)c4F)c4ccc([nH]4)c(-c4c(F)c(F)c(F)c(F)c4F)c4nc(c(-c5c(F)c(F)c(F)c(F)c5F)c5ccc2[nH]5)C=C4)C=C3)cc1)C1=Cc2c(cc(Cl)c(Cl)c2Cl)O[C@H]1C(F)(F)F
REMARK SMILES IDX 10 1 9 2 8 3 7 4 6 5 5 6 4 7 3 8 2 9 1 10 81 11 82 12 93 13
REMARK SMILES IDX 83 14 92 15 84 16 90 17 85 18 88 19 91 20 86 21 89 22 87 23
REMARK SMILES IDX 94 24 95 25 96 26 97 27 11 28 12 29 13 30 14 31 15 32 16 33
REMARK SMILES IDX 17 34 18 35 19 36 80 37 20 38 79 39 21 40 22 41 23 42 73 43
REMARK SMILES IDX 24 44 78 45 72 46 74 47 25 48 77 49 71 50 70 51 26 53 58 54
REMARK SMILES IDX 38 55 57 56 39 57 42 58 56 59 75 60 40 61 41 62 55 64 76 65
REMARK SMILES IDX 43 66 27 67 28 68 36 69 29 70 30 71 34 72 37 73 31 74 32 75
REMARK SMILES IDX 35 76 33 77 59 78 60 79 68 80 61 81 62 82 66 83 69 84 63 85
REMARK SMILES IDX 64 86 67 87 65 88 44 89 45 90 53 91 46 92 47 93 51 94 54 95
REMARK SMILES IDX 48 96 49 97 52 98 50 99
REMARK H PARENT 74 52 42 63
REMARK Flexibility Score: inf
ROOT
ATOM      1  C   UNL A   1      31.454  23.858  26.879  1.00  0.00     0.188 C 
ENDROOT
BRANCH   1   2
ATOM      2  O   UNL A   1      32.807  23.509  27.156  1.00  0.00    -0.377 OA
BRANCH   2   3
ATOM      3  C   UNL A   1      33.072  22.332  27.902  1.00  0.00     0.188 C 
BRANCH   3   4
ATOM      4  C   UNL A   1      34.212  21.449  27.388  1.00  0.00     0.188 C 
BRANCH   4   5
ATOM      5  O   UNL A   1      34.245  21.373  25.973  1.00  0.00    -0.376 OA
BRANCH   5   6
ATOM      6  C   UNL A   1      35.525  21.077  25.430  1.00  0.00     0.202 C 
BRANCH   6   7
ATOM      7  C   UNL A   1      36.389  22.321  25.259  1.00  0.00     0.261 C 
BRANCH   7   8
ATOM      8  O   UNL A   1      35.645  23.471  24.792  1.00  0.00    -0.460 OA
BRANCH   8   9
ATOM      9  C   UNL A   1      35.093  23.699  23.575  1.00  0.00     0.338 C 
ATOM     10  O   UNL A   1      35.653  23.272  22.570  1.00  0.00    -0.246 OA
BRANCH   9  11
ATOM     11  C   UNL A   1      33.750  24.310  23.433  1.00  0.00     0.087 C 
ATOM     12  C   UNL A   1      33.502  25.415  22.736  1.00  0.00     0.029 C 
ATOM     13  C   UNL A   1      32.553  23.409  23.685  1.00  0.00     0.316 C 
ATOM     14  C   UNL A   1      32.269  26.138  22.879  1.00  0.00     0.038 A 
ATOM     15  O   UNL A   1      31.242  24.082  23.629  1.00  0.00    -0.475 OA
ATOM     16  C   UNL A   1      31.167  25.403  23.278  1.00  0.00     0.131 A 
ATOM     17  C   UNL A   1      32.181  27.531  22.651  1.00  0.00     0.072 A 
ATOM     18  C   UNL A   1      29.932  26.038  23.341  1.00  0.00     0.069 A 
ATOM     19  C   UNL A   1      30.939  28.165  22.693  1.00  0.00     0.079 A 
ATOM     20  Cl  UNL A   1      33.628  28.476  22.425  1.00  0.00    -0.082 Cl
ATOM     21  C   UNL A   1      29.814  27.404  23.029  1.00  0.00     0.064 A 
ATOM     22  Cl  UNL A   1      30.803  29.857  22.317  1.00  0.00    -0.081 Cl
ATOM     23  Cl  UNL A   1      28.235  28.105  23.105  1.00  0.00    -0.083 Cl
BRANCH  13  24
ATOM     24  C   UNL A   1      32.575  22.237  22.647  1.00  0.00     0.430 C 
ATOM     25  F   UNL A   1      31.332  21.763  22.375  1.00  0.00    -0.167 F 
ATOM     26  F   UNL A   1      33.134  22.610  21.474  1.00  0.00    -0.167 F 
ATOM     27  F   UNL A   1      33.289  21.177  23.099  1.00  0.00    -0.167 F 
ENDBRANCH  13  24
ENDBRANCH   9  11
ENDBRANCH   8   9
ENDBRANCH   7   8
ENDBRANCH   6   7
ENDBRANCH   5   6
ENDBRANCH   4   5
ENDBRANCH   3   4
ENDBRANCH   2   3
ENDBRANCH   1   2
BRANCH   1  28
ATOM     28  C   UNL A   1      31.186  25.382  26.848  1.00  0.00     0.188 C 
BRANCH  28  29
ATOM     29  O   UNL A   1      32.213  26.293  26.449  1.00  0.00    -0.376 OA
BRANCH  29  30
ATOM     30  C   UNL A   1      31.896  27.677  26.422  1.00  0.00     0.202 C 
BRANCH  30  31
ATOM     31  C   UNL A   1      33.136  28.567  26.197  1.00  0.00     0.261 C 
BRANCH  31  32
ATOM     32  O   UNL A   1      34.065  28.594  27.302  1.00  0.00    -0.460 OA
BRANCH  32  33
ATOM     33  C   UNL A   1      34.493  29.830  27.682  1.00  0.00     0.338 C 
ATOM     34  O   UNL A   1      33.838  30.847  27.717  1.00  0.00    -0.246 OA
BRANCH  33  35
ATOM     35  C   UNL A   1      35.892  29.747  28.204  1.00  0.00     0.060 A 
ATOM     36  C   UNL A   1      36.936  30.113  27.341  1.00  0.00     0.016 A 
ATOM     37  C   UNL A   1      36.195  29.317  29.500  1.00  0.00     0.016 A 
ATOM     38  C   UNL A   1      38.273  29.985  27.741  1.00  0.00     0.010 A 
ATOM     39  C   UNL A   1      37.535  29.184  29.901  1.00  0.00     0.010 A 
ATOM     40  C   UNL A   1      38.585  29.468  29.005  1.00  0.00    -0.014 A 
BRANCH  40  41
ATOM     41  C   UNL A   1      39.967  28.974  29.279  1.00  0.00     0.031 A 
ATOM     42  C   UNL A   1      40.865  29.835  30.135  1.00  0.00     0.074 A 
ATOM     43  C   UNL A   1      40.423  27.784  28.842  1.00  0.00     0.049 A 
ATOM     44  N   UNL A   1      42.111  29.653  30.495  1.00  0.00    -0.248 NA
ATOM     45  C   UNL A   1      40.268  31.074  30.655  1.00  0.00     0.031 C 
ATOM     46  C   UNL A   1      39.659  26.818  28.058  1.00  0.00     0.029 A 
ATOM     47  N   UNL A   1      41.654  27.188  29.002  1.00  0.00    -0.354 N 
ATOM     48  C   UNL A   1      42.445  30.755  31.274  1.00  0.00     0.074 A 
ATOM     49  C   UNL A   1      41.285  31.619  31.303  1.00  0.00     0.031 C 
ATOM     50  C   UNL A   1      40.440  25.753  27.797  1.00  0.00     0.029 A 
ATOM     51  C   UNL A   1      41.771  25.973  28.368  1.00  0.00     0.049 A 
ATOM     52  H   UNL A   1      42.384  27.594  29.523  1.00  0.00     0.167 HD
ATOM     53  C   UNL A   1      43.604  31.024  31.921  1.00  0.00     0.037 A 
ATOM     54  C   UNL A   1      42.831  25.147  28.246  1.00  0.00     0.037 A 
ATOM     55  C   UNL A   1      44.765  30.174  31.900  1.00  0.00     0.049 A 
ATOM     56  C   UNL A   1      44.146  25.513  28.900  1.00  0.00     0.074 A 
ATOM     57  C   UNL A   1      45.984  30.363  32.528  1.00  0.00     0.029 A 
ATOM     58  N   UNL A   1      44.853  28.977  31.206  1.00  0.00    -0.354 N 
ATOM     59  N   UNL A   1      44.446  26.548  29.647  1.00  0.00    -0.248 NA
ATOM     60  C   UNL A   1      45.273  24.586  28.694  1.00  0.00     0.031 C 
ATOM     61  C   UNL A   1      46.831  29.313  32.163  1.00  0.00     0.029 A 
ATOM     62  C   UNL A   1      46.117  28.431  31.367  1.00  0.00     0.049 A 
ATOM     63  H   UNL A   1      44.127  28.574  30.678  1.00  0.00     0.167 HD
ATOM     64  C   UNL A   1      45.774  26.380  30.025  1.00  0.00     0.074 A 
ATOM     65  C   UNL A   1      46.221  25.136  29.439  1.00  0.00     0.031 C 
ATOM     66  C   UNL A   1      46.553  27.184  30.791  1.00  0.00     0.037 A 
BRANCH  53  67
ATOM     67  C   UNL A   1      43.685  32.316  32.684  1.00  0.00     0.064 A 
ATOM     68  C   UNL A   1      44.172  33.494  32.097  1.00  0.00     0.173 A 
ATOM     69  C   UNL A   1      43.248  32.381  34.016  1.00  0.00     0.173 A 
ATOM     70  F   UNL A   1      44.616  33.485  30.831  1.00  0.00    -0.203 F 
ATOM     71  C   UNL A   1      44.248  34.679  32.825  1.00  0.00     0.198 A 
ATOM     72  C   UNL A   1      43.292  33.574  34.729  1.00  0.00     0.198 A 
ATOM     73  F   UNL A   1      42.769  31.285  34.625  1.00  0.00    -0.203 F 
ATOM     74  F   UNL A   1      44.770  35.778  32.261  1.00  0.00    -0.200 F 
ATOM     75  C   UNL A   1      43.801  34.720  34.137  1.00  0.00     0.200 A 
ATOM     76  F   UNL A   1      42.845  33.616  35.992  1.00  0.00    -0.200 F 
ATOM     77  F   UNL A   1      43.868  35.863  34.835  1.00  0.00    -0.200 F 
ENDBRANCH  53  67
BRANCH  54  78
ATOM     78  C   UNL A   1      42.721  23.889  27.454  1.00  0.00     0.064 A 
ATOM     79  C   UNL A   1      42.284  22.692  28.041  1.00  0.00     0.173 A 
ATOM     80  C   UNL A   1      43.103  23.845  26.104  1.00  0.00     0.173 A 
ATOM     81  F   UNL A   1      41.943  22.668  29.338  1.00  0.00    -0.203 F 
ATOM     82  C   UNL A   1      42.258  21.499  27.319  1.00  0.00     0.198 A 
ATOM     83  C   UNL A   1      43.043  22.660  25.373  1.00  0.00     0.198 A 
ATOM     84  F   UNL A   1      43.540  24.956  25.492  1.00  0.00    -0.203 F 
ATOM     85  F   UNL A   1      41.897  20.359  27.923  1.00  0.00    -0.200 F 
ATOM     86  C   UNL A   1      42.631  21.486  25.983  1.00  0.00     0.200 A 
ATOM     87  F   UNL A   1      43.395  22.654  24.081  1.00  0.00    -0.200 F 
ATOM     88  F   UNL A   1      42.605  20.340  25.288  1.00  0.00    -0.200 F 
ENDBRANCH  54  78
BRANCH  66  89
ATOM     89  C   UNL A   1      47.956  26.728  31.088  1.00  0.00     0.064 A 
ATOM     90  C   UNL A   1      49.050  27.128  30.307  1.00  0.00     0.173 A 
ATOM     91  C   UNL A   1      48.213  25.913  32.203  1.00  0.00     0.173 A 
ATOM     92  F   UNL A   1      48.860  27.899  29.225  1.00  0.00    -0.203 F 
ATOM     93  C   UNL A   1      50.342  26.705  30.611  1.00  0.00     0.198 A 
ATOM     94  C   UNL A   1      49.511  25.521  32.524  1.00  0.00     0.198 A 
ATOM     95  F   UNL A   1      47.208  25.508  32.993  1.00  0.00    -0.203 F 
ATOM     96  F   UNL A   1      51.363  27.058  29.817  1.00  0.00    -0.200 F 
ATOM     97  C   UNL A   1      50.573  25.909  31.722  1.00  0.00     0.200 A 
ATOM     98  F   UNL A   1      49.733  24.768  33.611  1.00  0.00    -0.200 F 
ATOM     99  F   UNL A   1      51.818  25.511  32.017  1.00  0.00    -0.200 F 
ENDBRANCH  66  89
ENDBRANCH  40  41
ENDBRANCH  33  35
ENDBRANCH  32  33
ENDBRANCH  31  32
ENDBRANCH  30  31
ENDBRANCH  29  30
ENDBRANCH  28  29
ENDBRANCH   1  28
TORSDOF 21
ENDMDL
