MODEL 1
REMARK VINA RESULT:     -11.5      0.000      0.000
REMARK SMILES O=C(OCCOCCOCCOCCOC(=O)c1ccc(-c2c3nc(c(-c4c(F)c(F)c(F)c(F)c4F)c4ccc([nH]4)c(-c4c(F)c(F)c(F)c(F)c4F)c4nc(c(-c5c(F)c(F)c(F)c(F)c5F)c5ccc2[nH]5)C=C4)C=C3)cc1)C1=Cc2cc(S(F)(F)(F)(F)F)ccc2O[C@H]1C(F)(F)F
REMARK SMILES IDX 10 1 9 2 8 3 7 4 6 5 5 6 4 7 3 8 2 9 1 10 81 11 82 12 96 13
REMARK SMILES IDX 83 14 95 15 84 16 94 17 85 18 93 19 92 20 97 21 98 22 99 23
REMARK SMILES IDX 100 24 86 25 87 26 88 27 89 28 90 29 91 30 11 31 12 32 13 33
REMARK SMILES IDX 14 34 15 35 16 36 17 37 18 38 19 39 80 40 20 41 79 42 21 43
REMARK SMILES IDX 22 44 23 45 73 46 24 47 78 48 72 49 74 50 25 51 77 52 71 53
REMARK SMILES IDX 70 54 26 56 58 57 38 58 57 59 39 60 42 61 56 62 75 63 40 64
REMARK SMILES IDX 41 65 55 67 76 68 43 69 27 70 28 71 36 72 29 73 30 74 34 75
REMARK SMILES IDX 37 76 31 77 32 78 35 79 33 80 59 81 60 82 68 83 61 84 62 85
REMARK SMILES IDX 66 86 69 87 63 88 64 89 67 90 65 91 44 92 45 93 53 94 46 95
REMARK SMILES IDX 47 96 51 97 54 98 48 99 49 100 52 101 50 102
REMARK H PARENT 74 55 42 66
REMARK Flexibility Score: inf
ROOT
ATOM      1  C   UNL A   1      41.004  20.177  26.732  1.00  0.00     0.188 C 
ENDROOT
BRANCH   1   2
ATOM      2  O   UNL A   1      40.043  21.111  27.201  1.00  0.00    -0.377 OA
BRANCH   2   3
ATOM      3  C   UNL A   1      39.573  21.893  26.113  1.00  0.00     0.188 C 
BRANCH   3   4
ATOM      4  C   UNL A   1      38.168  21.449  25.740  1.00  0.00     0.188 C 
BRANCH   4   5
ATOM      5  O   UNL A   1      37.398  22.582  25.364  1.00  0.00    -0.376 OA
BRANCH   5   6
ATOM      6  C   UNL A   1      37.003  22.455  24.006  1.00  0.00     0.202 C 
BRANCH   6   7
ATOM      7  C   UNL A   1      35.996  23.541  23.667  1.00  0.00     0.261 C 
BRANCH   7   8
ATOM      8  O   UNL A   1      34.808  23.336  24.417  1.00  0.00    -0.460 OA
BRANCH   8   9
ATOM      9  C   UNL A   1      33.612  22.942  23.759  1.00  0.00     0.338 C 
ATOM     10  O   UNL A   1      33.648  22.576  22.542  1.00  0.00    -0.246 OA
BRANCH   9  11
ATOM     11  C   UNL A   1      32.291  22.958  24.509  1.00  0.00     0.087 C 
ATOM     12  C   UNL A   1      31.654  24.138  24.740  1.00  0.00     0.027 C 
ATOM     13  C   UNL A   1      31.682  21.656  25.002  1.00  0.00     0.316 C 
ATOM     14  C   UNL A   1      32.263  25.440  24.247  1.00  0.00     0.019 A 
ATOM     15  O   UNL A   1      32.749  24.220  22.266  1.00  0.00    -0.475 OA
ATOM     16  C   UNL A   1      32.375  26.564  25.051  1.00  0.00     0.036 A 
ATOM     17  C   UNL A   1      32.734  25.432  23.006  1.00  0.00     0.128 A 
ATOM     18  C   UNL A   1      32.744  27.735  24.350  1.00  0.00     0.107 A 
ATOM     19  C   UNL A   1      33.207  26.587  22.430  1.00  0.00     0.048 A 
ATOM     20  C   UNL A   1      33.289  27.748  23.147  1.00  0.00     0.028 A 
BRANCH  13  21
ATOM     21  C   UNL A   1      32.585  20.496  24.618  1.00  0.00     0.430 C 
ATOM     22  F   UNL A   1      32.153  19.482  25.361  1.00  0.00    -0.167 F 
ATOM     23  F   UNL A   1      32.438  20.197  23.330  1.00  0.00    -0.167 F 
ATOM     24  F   UNL A   1      33.870  20.719  24.878  1.00  0.00    -0.167 F 
ENDBRANCH  13  21
BRANCH  18  25
ATOM     25  S   UNL A   1      32.451  29.328  25.158  1.00  0.00     0.310 S 
ATOM     26  F   UNL A   1      31.918  28.631  26.480  1.00  0.00    -0.094 F 
ATOM     27  F   UNL A   1      30.969  29.294  24.626  1.00  0.00    -0.094 F 
ATOM     28  F   UNL A   1      32.200  30.696  25.853  1.00  0.00    -0.094 F 
ATOM     29  F   UNL A   1      33.894  29.276  25.801  1.00  0.00    -0.094 F 
ATOM     30  F   UNL A   1      32.684  27.885  24.555  1.00  0.00    -0.094 F 
ENDBRANCH  18  25
ENDBRANCH   9  11
ENDBRANCH   8   9
ENDBRANCH   7   8
ENDBRANCH   6   7
ENDBRANCH   5   6
ENDBRANCH   4   5
ENDBRANCH   3   4
ENDBRANCH   2   3
ENDBRANCH   1   2
BRANCH   1  31
ATOM     31  C   UNL A   1      42.386  20.810  26.768  1.00  0.00     0.188 C 
BRANCH  31  32
ATOM     32  O   UNL A   1      42.920  20.855  25.453  1.00  0.00    -0.376 OA
BRANCH  32  33
ATOM     33  C   UNL A   1      44.097  21.651  25.448  1.00  0.00     0.202 C 
BRANCH  33  34
ATOM     34  C   UNL A   1      44.154  22.461  24.163  1.00  0.00     0.261 C 
BRANCH  34  35
ATOM     35  O   UNL A   1      43.476  23.695  24.352  1.00  0.00    -0.460 OA
BRANCH  35  36
ATOM     36  C   UNL A   1      44.122  24.764  25.026  1.00  0.00     0.338 C 
ATOM     37  O   UNL A   1      45.257  25.174  24.627  1.00  0.00    -0.246 OA
BRANCH  36  38
ATOM     38  C   UNL A   1      43.457  25.420  26.226  1.00  0.00     0.060 A 
ATOM     39  C   UNL A   1      42.512  24.789  27.017  1.00  0.00     0.016 A 
ATOM     40  C   UNL A   1      43.903  26.635  26.522  1.00  0.00     0.016 A 
ATOM     41  C   UNL A   1      41.879  25.646  27.948  1.00  0.00     0.010 A 
ATOM     42  C   UNL A   1      43.327  27.364  27.534  1.00  0.00     0.010 A 
ATOM     43  C   UNL A   1      42.347  26.824  28.319  1.00  0.00    -0.014 A 
BRANCH  43  44
ATOM     44  C   UNL A   1      41.822  27.542  29.552  1.00  0.00     0.031 A 
ATOM     45  C   UNL A   1      40.747  28.400  29.313  1.00  0.00     0.074 A 
ATOM     46  C   UNL A   1      42.458  27.421  30.776  1.00  0.00     0.049 A 
ATOM     47  N   UNL A   1      40.137  29.203  30.186  1.00  0.00    -0.248 NA
ATOM     48  C   UNL A   1      40.091  28.555  28.006  1.00  0.00     0.031 C 
ATOM     49  C   UNL A   1      43.537  26.551  31.026  1.00  0.00     0.029 A 
ATOM     50  N   UNL A   1      42.181  28.097  31.943  1.00  0.00    -0.354 N 
ATOM     51  C   UNL A   1      39.138  29.857  29.591  1.00  0.00     0.074 A 
ATOM     52  C   UNL A   1      39.098  29.454  28.179  1.00  0.00     0.031 C 
ATOM     53  C   UNL A   1      43.913  26.708  32.323  1.00  0.00     0.029 A 
ATOM     54  C   UNL A   1      43.074  27.678  32.905  1.00  0.00     0.049 A 
ATOM     55  H   UNL A   1      41.468  28.763  32.068  1.00  0.00     0.167 HD
ATOM     56  C   UNL A   1      38.258  30.772  30.171  1.00  0.00     0.037 A 
ATOM     57  C   UNL A   1      43.169  28.108  34.219  1.00  0.00     0.037 A 
ATOM     58  C   UNL A   1      38.324  31.169  31.497  1.00  0.00     0.049 A 
ATOM     59  C   UNL A   1      42.324  29.067  34.784  1.00  0.00     0.074 A 
ATOM     60  C   UNL A   1      37.441  32.084  32.098  1.00  0.00     0.029 A 
ATOM     61  N   UNL A   1      39.233  30.769  32.452  1.00  0.00    -0.354 N 
ATOM     62  N   UNL A   1      41.301  29.691  34.199  1.00  0.00    -0.248 NA
ATOM     63  C   UNL A   1      42.435  29.552  36.166  1.00  0.00     0.031 C 
ATOM     64  C   UNL A   1      37.815  32.242  33.397  1.00  0.00     0.029 A 
ATOM     65  C   UNL A   1      38.941  31.428  33.626  1.00  0.00     0.049 A 
ATOM     66  H   UNL A   1      39.966  30.124  32.318  1.00  0.00     0.167 HD
ATOM     67  C   UNL A   1      40.717  30.524  35.062  1.00  0.00     0.074 A 
ATOM     68  C   UNL A   1      41.443  30.453  36.337  1.00  0.00     0.031 C 
ATOM     69  C   UNL A   1      39.606  31.340  34.839  1.00  0.00     0.037 A 
BRANCH  56  70
ATOM     70  C   UNL A   1      37.163  31.366  29.299  1.00  0.00     0.064 A 
ATOM     71  C   UNL A   1      37.248  32.686  28.887  1.00  0.00     0.173 A 
ATOM     72  C   UNL A   1      36.090  30.630  29.034  1.00  0.00     0.173 A 
ATOM     73  F   UNL A   1      38.384  33.378  28.904  1.00  0.00    -0.203 F 
ATOM     74  C   UNL A   1      36.018  33.230  28.447  1.00  0.00     0.198 A 
ATOM     75  C   UNL A   1      34.970  31.200  28.478  1.00  0.00     0.198 A 
ATOM     76  F   UNL A   1      36.099  29.328  29.309  1.00  0.00    -0.203 F 
ATOM     77  F   UNL A   1      35.917  34.554  28.378  1.00  0.00    -0.200 F 
ATOM     78  C   UNL A   1      34.964  32.514  28.101  1.00  0.00     0.200 A 
ATOM     79  F   UNL A   1      33.876  30.463  28.304  1.00  0.00    -0.200 F 
ATOM     80  F   UNL A   1      33.951  33.043  27.420  1.00  0.00    -0.200 F 
ENDBRANCH  56  70
BRANCH  57  81
ATOM     81  C   UNL A   1      44.252  27.501  35.095  1.00  0.00     0.064 A 
ATOM     82  C   UNL A   1      45.485  28.119  35.223  1.00  0.00     0.173 A 
ATOM     83  C   UNL A   1      43.945  26.422  35.805  1.00  0.00     0.173 A 
ATOM     84  F   UNL A   1      45.745  29.328  34.734  1.00  0.00    -0.203 F 
ATOM     85  C   UNL A   1      46.443  27.347  35.924  1.00  0.00     0.198 A 
ATOM     86  C   UNL A   1      44.896  25.796  36.575  1.00  0.00     0.198 A 
ATOM     87  F   UNL A   1      42.705  25.941  35.772  1.00  0.00    -0.203 F 
ATOM     88  F   UNL A   1      47.724  27.680  35.790  1.00  0.00    -0.200 F 
ATOM     89  C   UNL A   1      46.154  26.320  36.701  1.00  0.00     0.200 A 
ATOM     90  F   UNL A   1      44.590  24.667  37.207  1.00  0.00    -0.200 F 
ATOM     91  F   UNL A   1      47.038  25.819  37.560  1.00  0.00    -0.200 F 
ENDBRANCH  57  81
BRANCH  69  92
ATOM     92  C   UNL A   1      39.094  32.181  35.997  1.00  0.00     0.064 A 
ATOM     93  C   UNL A   1      38.162  31.718  36.910  1.00  0.00     0.173 A 
ATOM     94  C   UNL A   1      39.641  33.386  36.120  1.00  0.00     0.173 A 
ATOM     95  F   UNL A   1      37.782  30.446  36.976  1.00  0.00    -0.203 F 
ATOM     96  C   UNL A   1      37.651  32.721  37.766  1.00  0.00     0.198 A 
ATOM     97  C   UNL A   1      39.183  34.268  37.069  1.00  0.00     0.198 A 
ATOM     98  F   UNL A   1      40.639  33.742  35.317  1.00  0.00    -0.203 F 
ATOM     99  F   UNL A   1      36.519  32.465  38.414  1.00  0.00    -0.200 F 
ATOM    100  C   UNL A   1      38.220  33.897  37.967  1.00  0.00     0.200 A 
ATOM    101  F   UNL A   1      39.682  35.499  37.115  1.00  0.00    -0.200 F 
ATOM    102  F   UNL A   1      37.876  34.677  38.987  1.00  0.00    -0.200 F 
ENDBRANCH  69  92
ENDBRANCH  43  44
ENDBRANCH  36  38
ENDBRANCH  35  36
ENDBRANCH  34  35
ENDBRANCH  33  34
ENDBRANCH  32  33
ENDBRANCH  31  32
ENDBRANCH   1  31
TORSDOF 22
ENDMDL
MODEL 2
REMARK VINA RESULT:     -11.3      0.704      6.854
REMARK SMILES O=C(OCCOCCOCCOCCOC(=O)c1ccc(-c2c3nc(c(-c4c(F)c(F)c(F)c(F)c4F)c4ccc([nH]4)c(-c4c(F)c(F)c(F)c(F)c4F)c4nc(c(-c5c(F)c(F)c(F)c(F)c5F)c5ccc2[nH]5)C=C4)C=C3)cc1)C1=Cc2cc(S(F)(F)(F)(F)F)ccc2O[C@H]1C(F)(F)F
REMARK SMILES IDX 10 1 9 2 8 3 7 4 6 5 5 6 4 7 3 8 2 9 1 10 81 11 82 12 96 13
REMARK SMILES IDX 83 14 95 15 84 16 94 17 85 18 93 19 92 20 97 21 98 22 99 23
REMARK SMILES IDX 100 24 86 25 87 26 88 27 89 28 90 29 91 30 11 31 12 32 13 33
REMARK SMILES IDX 14 34 15 35 16 36 17 37 18 38 19 39 80 40 20 41 79 42 21 43
REMARK SMILES IDX 22 44 23 45 73 46 24 47 78 48 72 49 74 50 25 51 77 52 71 53
REMARK SMILES IDX 70 54 26 56 58 57 38 58 57 59 39 60 42 61 56 62 75 63 40 64
REMARK SMILES IDX 41 65 55 67 76 68 43 69 27 70 28 71 36 72 29 73 30 74 34 75
REMARK SMILES IDX 37 76 31 77 32 78 35 79 33 80 59 81 60 82 68 83 61 84 62 85
REMARK SMILES IDX 66 86 69 87 63 88 64 89 67 90 65 91 44 92 45 93 53 94 46 95
REMARK SMILES IDX 47 96 51 97 54 98 48 99 49 100 52 101 50 102
REMARK H PARENT 74 55 42 66
REMARK Flexibility Score: inf
ROOT
ATOM      1  C   UNL A   1      41.457  20.306  27.330  1.00  0.00     0.188 C 
ENDROOT
BRANCH   1   2
ATOM      2  O   UNL A   1      40.215  20.961  27.542  1.00  0.00    -0.377 OA
BRANCH   2   3
ATOM      3  C   UNL A   1      40.017  21.937  26.531  1.00  0.00     0.188 C 
BRANCH   3   4
ATOM      4  C   UNL A   1      39.128  23.048  27.067  1.00  0.00     0.188 C 
BRANCH   4   5
ATOM      5  O   UNL A   1      38.483  23.703  25.985  1.00  0.00    -0.376 OA
BRANCH   5   6
ATOM      6  C   UNL A   1      37.444  22.876  25.483  1.00  0.00     0.202 C 
BRANCH   6   7
ATOM      7  C   UNL A   1      36.518  23.701  24.605  1.00  0.00     0.261 C 
BRANCH   7   8
ATOM      8  O   UNL A   1      35.190  23.608  25.098  1.00  0.00    -0.460 OA
BRANCH   8   9
ATOM      9  C   UNL A   1      34.176  23.016  24.299  1.00  0.00     0.338 C 
ATOM     10  O   UNL A   1      34.453  22.592  23.133  1.00  0.00    -0.246 OA
BRANCH   9  11
ATOM     11  C   UNL A   1      32.761  22.889  24.838  1.00  0.00     0.087 C 
ATOM     12  C   UNL A   1      31.933  23.970  24.837  1.00  0.00     0.027 C 
ATOM     13  C   UNL A   1      32.270  21.557  25.378  1.00  0.00     0.316 C 
ATOM     14  C   UNL A   1      32.424  25.303  24.296  1.00  0.00     0.019 A 
ATOM     15  O   UNL A   1      33.397  24.003  22.560  1.00  0.00    -0.475 OA
ATOM     16  C   UNL A   1      32.241  26.496  24.975  1.00  0.00     0.036 A 
ATOM     17  C   UNL A   1      33.089  25.259  23.147  1.00  0.00     0.128 A 
ATOM     18  C   UNL A   1      32.551  27.645  24.210  1.00  0.00     0.107 A 
ATOM     19  C   UNL A   1      33.481  26.417  22.522  1.00  0.00     0.048 A 
ATOM     20  C   UNL A   1      33.279  27.637  23.108  1.00  0.00     0.028 A 
BRANCH  13  21
ATOM     21  C   UNL A   1      33.379  20.524  25.266  1.00  0.00     0.430 C 
ATOM     22  F   UNL A   1      32.932  19.483  25.961  1.00  0.00    -0.167 F 
ATOM     23  F   UNL A   1      33.558  20.167  23.997  1.00  0.00    -0.167 F 
ATOM     24  F   UNL A   1      34.536  20.935  25.778  1.00  0.00    -0.167 F 
ENDBRANCH  13  21
BRANCH  18  25
ATOM     25  S   UNL A   1      31.906  29.236  24.781  1.00  0.00     0.310 S 
ATOM     26  F   UNL A   1      31.401  28.613  26.149  1.00  0.00    -0.094 F 
ATOM     27  F   UNL A   1      30.504  28.856  24.170  1.00  0.00    -0.094 F 
ATOM     28  F   UNL A   1      31.353  30.604  25.271  1.00  0.00    -0.094 F 
ATOM     29  F   UNL A   1      33.275  29.539  25.509  1.00  0.00    -0.094 F 
ATOM     30  F   UNL A   1      32.448  27.803  24.389  1.00  0.00    -0.094 F 
ENDBRANCH  18  25
ENDBRANCH   9  11
ENDBRANCH   8   9
ENDBRANCH   7   8
ENDBRANCH   6   7
ENDBRANCH   5   6
ENDBRANCH   4   5
ENDBRANCH   3   4
ENDBRANCH   2   3
ENDBRANCH   1   2
BRANCH   1  31
ATOM     31  C   UNL A   1      41.356  19.414  26.103  1.00  0.00     0.188 C 
BRANCH  31  32
ATOM     32  O   UNL A   1      42.370  19.770  25.174  1.00  0.00    -0.376 OA
BRANCH  32  33
ATOM     33  C   UNL A   1      43.415  20.451  25.853  1.00  0.00     0.202 C 
BRANCH  33  34
ATOM     34  C   UNL A   1      43.903  21.610  24.999  1.00  0.00     0.261 C 
BRANCH  34  35
ATOM     35  O   UNL A   1      43.083  22.746  25.230  1.00  0.00    -0.460 OA
BRANCH  35  36
ATOM     36  C   UNL A   1      43.657  24.045  25.244  1.00  0.00     0.338 C 
ATOM     37  O   UNL A   1      44.489  24.381  24.343  1.00  0.00    -0.246 OA
BRANCH  36  38
ATOM     38  C   UNL A   1      43.278  25.033  26.334  1.00  0.00     0.060 A 
ATOM     39  C   UNL A   1      43.670  26.362  26.335  1.00  0.00     0.016 A 
ATOM     40  C   UNL A   1      42.465  24.555  27.269  1.00  0.00     0.016 A 
ATOM     41  C   UNL A   1      43.379  27.044  27.540  1.00  0.00     0.010 A 
ATOM     42  C   UNL A   1      42.113  25.324  28.351  1.00  0.00     0.010 A 
ATOM     43  C   UNL A   1      42.514  26.628  28.446  1.00  0.00    -0.014 A 
BRANCH  43  44
ATOM     44  C   UNL A   1      41.992  27.549  29.538  1.00  0.00     0.031 A 
ATOM     45  C   UNL A   1      42.678  27.461  30.750  1.00  0.00     0.074 A 
ATOM     46  C   UNL A   1      40.852  28.311  29.347  1.00  0.00     0.049 A 
ATOM     47  N   UNL A   1      42.398  28.094  31.891  1.00  0.00    -0.248 NA
ATOM     48  C   UNL A   1      43.870  26.626  30.964  1.00  0.00     0.031 C 
ATOM     49  C   UNL A   1      40.160  28.411  28.125  1.00  0.00     0.029 A 
ATOM     50  N   UNL A   1      40.193  29.091  30.270  1.00  0.00    -0.354 N 
ATOM     51  C   UNL A   1      43.293  27.772  32.827  1.00  0.00     0.074 A 
ATOM     52  C   UNL A   1      44.248  26.819  32.247  1.00  0.00     0.031 C 
ATOM     53  C   UNL A   1      39.091  29.229  28.311  1.00  0.00     0.029 A 
ATOM     54  C   UNL A   1      39.098  29.655  29.653  1.00  0.00     0.049 A 
ATOM     55  H   UNL A   1      40.457  29.222  31.209  1.00  0.00     0.167 HD
ATOM     56  C   UNL A   1      43.350  28.238  34.142  1.00  0.00     0.037 A 
ATOM     57  C   UNL A   1      38.148  30.496  30.212  1.00  0.00     0.037 A 
ATOM     58  C   UNL A   1      42.425  29.113  34.689  1.00  0.00     0.049 A 
ATOM     59  C   UNL A   1      38.173  30.916  31.544  1.00  0.00     0.074 A 
ATOM     60  C   UNL A   1      42.472  29.598  36.009  1.00  0.00     0.029 A 
ATOM     61  N   UNL A   1      41.317  29.658  34.079  1.00  0.00    -0.354 N 
ATOM     62  N   UNL A   1      39.089  30.626  32.469  1.00  0.00    -0.248 NA
ATOM     63  C   UNL A   1      37.154  31.780  32.155  1.00  0.00     0.031 C 
ATOM     64  C   UNL A   1      41.403  30.418  36.197  1.00  0.00     0.029 A 
ATOM     65  C   UNL A   1      40.670  30.456  34.996  1.00  0.00     0.049 A 
ATOM     66  H   UNL A   1      41.036  29.504  33.147  1.00  0.00     0.167 HD
ATOM     67  C   UNL A   1      38.785  31.225  33.621  1.00  0.00     0.074 A 
ATOM     68  C   UNL A   1      37.532  31.971  33.438  1.00  0.00     0.031 C 
ATOM     69  C   UNL A   1      39.504  31.185  34.817  1.00  0.00     0.037 A 
BRANCH  56  70
ATOM     70  C   UNL A   1      44.493  27.760  35.024  1.00  0.00     0.064 A 
ATOM     71  C   UNL A   1      45.678  28.475  35.066  1.00  0.00     0.173 A 
ATOM     72  C   UNL A   1      44.364  26.601  35.660  1.00  0.00     0.173 A 
ATOM     73  F   UNL A   1      45.775  29.740  34.664  1.00  0.00    -0.203 F 
ATOM     74  C   UNL A   1      46.774  27.739  35.574  1.00  0.00     0.198 A 
ATOM     75  C   UNL A   1      45.451  26.004  36.253  1.00  0.00     0.198 A 
ATOM     76  F   UNL A   1      43.173  26.013  35.726  1.00  0.00    -0.203 F 
ATOM     77  F   UNL A   1      47.997  28.199  35.325  1.00  0.00    -0.200 F 
ATOM     78  C   UNL A   1      46.668  26.628  36.280  1.00  0.00     0.200 A 
ATOM     79  F   UNL A   1      45.318  24.802  36.806  1.00  0.00    -0.200 F 
ATOM     80  F   UNL A   1      47.689  26.143  36.980  1.00  0.00    -0.200 F 
ENDBRANCH  56  70
BRANCH  57  81
ATOM     81  C   UNL A   1      37.016  30.988  29.325  1.00  0.00     0.064 A 
ATOM     82  C   UNL A   1      37.070  32.243  28.742  1.00  0.00     0.173 A 
ATOM     83  C   UNL A   1      36.030  30.143  29.050  1.00  0.00     0.173 A 
ATOM     84  F   UNL A   1      38.151  33.017  28.785  1.00  0.00    -0.203 F 
ATOM     85  C   UNL A   1      35.871  32.627  28.095  1.00  0.00     0.198 A 
ATOM     86  C   UNL A   1      34.952  30.544  28.298  1.00  0.00     0.198 A 
ATOM     87  F   UNL A   1      36.085  28.894  29.507  1.00  0.00    -0.203 F 
ATOM     88  F   UNL A   1      35.698  33.918  27.827  1.00  0.00    -0.200 F 
ATOM     89  C   UNL A   1      34.912  31.792  27.739  1.00  0.00     0.200 A 
ATOM     90  F   UNL A   1      33.935  29.709  28.110  1.00  0.00    -0.200 F 
ATOM     91  F   UNL A   1      33.957  32.145  26.883  1.00  0.00    -0.200 F 
ENDBRANCH  57  81
BRANCH  69  92
ATOM     92  C   UNL A   1      38.976  31.988  35.995  1.00  0.00     0.064 A 
ATOM     93  C   UNL A   1      39.269  33.328  36.183  1.00  0.00     0.173 A 
ATOM     94  C   UNL A   1      38.158  31.338  36.816  1.00  0.00     0.173 A 
ATOM     95  F   UNL A   1      39.866  34.077  35.262  1.00  0.00    -0.203 F 
ATOM     96  C   UNL A   1      38.875  33.828  37.447  1.00  0.00     0.198 A 
ATOM     97  C   UNL A   1      37.703  31.936  37.966  1.00  0.00     0.198 A 
ATOM     98  F   UNL A   1      37.780  30.098  36.524  1.00  0.00    -0.203 F 
ATOM     99  F   UNL A   1      39.420  34.969  37.859  1.00  0.00    -0.200 F 
ATOM    100  C   UNL A   1      38.003  33.241  38.247  1.00  0.00     0.200 A 
ATOM    101  F   UNL A   1      36.960  31.238  38.819  1.00  0.00    -0.200 F 
ATOM    102  F   UNL A   1      37.446  33.884  39.269  1.00  0.00    -0.200 F 
ENDBRANCH  69  92
ENDBRANCH  43  44
ENDBRANCH  36  38
ENDBRANCH  35  36
ENDBRANCH  34  35
ENDBRANCH  33  34
ENDBRANCH  32  33
ENDBRANCH  31  32
ENDBRANCH   1  31
TORSDOF 22
ENDMDL
MODEL 3
REMARK VINA RESULT:     -11.2      4.934      9.019
REMARK SMILES O=C(OCCOCCOCCOCCOC(=O)c1ccc(-c2c3nc(c(-c4c(F)c(F)c(F)c(F)c4F)c4ccc([nH]4)c(-c4c(F)c(F)c(F)c(F)c4F)c4nc(c(-c5c(F)c(F)c(F)c(F)c5F)c5ccc2[nH]5)C=C4)C=C3)cc1)C1=Cc2cc(S(F)(F)(F)(F)F)ccc2O[C@H]1C(F)(F)F
REMARK SMILES IDX 10 1 9 2 8 3 7 4 6 5 5 6 4 7 3 8 2 9 1 10 81 11 82 12 96 13
REMARK SMILES IDX 83 14 95 15 84 16 94 17 85 18 93 19 92 20 97 21 98 22 99 23
REMARK SMILES IDX 100 24 86 25 87 26 88 27 89 28 90 29 91 30 11 31 12 32 13 33
REMARK SMILES IDX 14 34 15 35 16 36 17 37 18 38 19 39 80 40 20 41 79 42 21 43
REMARK SMILES IDX 22 44 23 45 73 46 24 47 78 48 72 49 74 50 25 51 77 52 71 53
REMARK SMILES IDX 70 54 26 56 58 57 38 58 57 59 39 60 42 61 56 62 75 63 40 64
REMARK SMILES IDX 41 65 55 67 76 68 43 69 27 70 28 71 36 72 29 73 30 74 34 75
REMARK SMILES IDX 37 76 31 77 32 78 35 79 33 80 59 81 60 82 68 83 61 84 62 85
REMARK SMILES IDX 66 86 69 87 63 88 64 89 67 90 65 91 44 92 45 93 53 94 46 95
REMARK SMILES IDX 47 96 51 97 54 98 48 99 49 100 52 101 50 102
REMARK H PARENT 74 55 42 66
REMARK Flexibility Score: inf
ROOT
ATOM      1  C   UNL A   1      41.374  21.560  26.337  1.00  0.00     0.188 C 
ENDROOT
BRANCH   1   2
ATOM      2  O   UNL A   1      40.708  22.663  26.933  1.00  0.00    -0.377 OA
BRANCH   2   3
ATOM      3  C   UNL A   1      39.345  22.662  26.538  1.00  0.00     0.188 C 
BRANCH   3   4
ATOM      4  C   UNL A   1      38.806  24.083  26.574  1.00  0.00     0.188 C 
BRANCH   4   5
ATOM      5  O   UNL A   1      37.447  24.085  26.164  1.00  0.00    -0.376 OA
BRANCH   5   6
ATOM      6  C   UNL A   1      37.166  22.891  25.451  1.00  0.00     0.202 C 
BRANCH   6   7
ATOM      7  C   UNL A   1      35.666  22.650  25.435  1.00  0.00     0.261 C 
BRANCH   7   8
ATOM      8  O   UNL A   1      35.111  23.195  24.247  1.00  0.00    -0.460 OA
BRANCH   8   9
ATOM      9  C   UNL A   1      33.804  22.820  23.837  1.00  0.00     0.338 C 
ATOM     10  O   UNL A   1      33.563  22.592  22.610  1.00  0.00    -0.246 OA
BRANCH   9  11
ATOM     11  C   UNL A   1      32.693  22.693  24.866  1.00  0.00     0.087 C 
ATOM     12  C   UNL A   1      32.223  23.801  25.502  1.00  0.00     0.027 C 
ATOM     13  C   UNL A   1      32.106  21.327  25.185  1.00  0.00     0.316 C 
ATOM     14  C   UNL A   1      32.810  25.166  25.183  1.00  0.00     0.019 A 
ATOM     15  O   UNL A   1      32.733  24.438  22.921  1.00  0.00    -0.475 OA
ATOM     16  C   UNL A   1      33.192  26.062  26.167  1.00  0.00     0.036 A 
ATOM     17  C   UNL A   1      32.985  25.440  23.895  1.00  0.00     0.128 A 
ATOM     18  C   UNL A   1      33.488  27.357  25.680  1.00  0.00     0.107 A 
ATOM     19  C   UNL A   1      33.408  26.686  23.498  1.00  0.00     0.048 A 
ATOM     20  C   UNL A   1      33.746  27.641  24.417  1.00  0.00     0.028 A 
BRANCH  13  21
ATOM     21  C   UNL A   1      32.801  20.268  24.345  1.00  0.00     0.430 C 
ATOM     22  F   UNL A   1      32.358  19.115  24.837  1.00  0.00    -0.167 F 
ATOM     23  F   UNL A   1      32.440  20.374  23.070  1.00  0.00    -0.167 F 
ATOM     24  F   UNL A   1      34.127  20.309  24.436  1.00  0.00    -0.167 F 
ENDBRANCH  13  21
BRANCH  18  25
ATOM     25  S   UNL A   1      33.517  28.719  26.872  1.00  0.00     0.310 S 
ATOM     26  F   UNL A   1      33.645  29.805  25.723  1.00  0.00    -0.094 F 
ATOM     27  F   UNL A   1      35.091  28.642  26.879  1.00  0.00    -0.094 F 
ATOM     28  F   UNL A   1      33.542  29.889  27.895  1.00  0.00    -0.094 F 
ATOM     29  F   UNL A   1      31.951  28.875  26.744  1.00  0.00    -0.094 F 
ATOM     30  F   UNL A   1      33.485  27.609  25.746  1.00  0.00    -0.094 F 
ENDBRANCH  18  25
ENDBRANCH   9  11
ENDBRANCH   8   9
ENDBRANCH   7   8
ENDBRANCH   6   7
ENDBRANCH   5   6
ENDBRANCH   4   5
ENDBRANCH   3   4
ENDBRANCH   2   3
ENDBRANCH   1   2
BRANCH   1  31
ATOM     31  C   UNL A   1      40.396  20.408  26.168  1.00  0.00     0.188 C 
BRANCH  31  32
ATOM     32  O   UNL A   1      41.108  19.228  25.825  1.00  0.00    -0.376 OA
BRANCH  32  33
ATOM     33  C   UNL A   1      42.256  19.111  26.654  1.00  0.00     0.202 C 
BRANCH  33  34
ATOM     34  C   UNL A   1      43.347  18.364  25.905  1.00  0.00     0.261 C 
BRANCH  34  35
ATOM     35  O   UNL A   1      43.531  18.952  24.625  1.00  0.00    -0.460 OA
BRANCH  35  36
ATOM     36  C   UNL A   1      44.751  19.609  24.315  1.00  0.00     0.338 C 
ATOM     37  O   UNL A   1      45.702  18.961  23.774  1.00  0.00    -0.246 OA
BRANCH  36  38
ATOM     38  C   UNL A   1      44.920  21.086  24.629  1.00  0.00     0.060 A 
ATOM     39  C   UNL A   1      44.591  22.100  23.745  1.00  0.00     0.016 A 
ATOM     40  C   UNL A   1      45.342  21.355  25.859  1.00  0.00     0.016 A 
ATOM     41  C   UNL A   1      45.018  23.384  24.160  1.00  0.00     0.010 A 
ATOM     42  C   UNL A   1      45.611  22.648  26.239  1.00  0.00     0.010 A 
ATOM     43  C   UNL A   1      45.364  23.694  25.395  1.00  0.00    -0.014 A 
BRANCH  43  44
ATOM     44  C   UNL A   1      45.483  25.139  25.855  1.00  0.00     0.031 A 
ATOM     45  C   UNL A   1      46.780  25.654  25.826  1.00  0.00     0.074 A 
ATOM     46  C   UNL A   1      44.391  25.820  26.365  1.00  0.00     0.049 A 
ATOM     47  N   UNL A   1      47.187  26.857  26.236  1.00  0.00    -0.248 NA
ATOM     48  C   UNL A   1      47.947  24.920  25.315  1.00  0.00     0.031 C 
ATOM     49  C   UNL A   1      43.078  25.310  26.389  1.00  0.00     0.029 A 
ATOM     50  N   UNL A   1      44.366  27.075  26.930  1.00  0.00    -0.354 N 
ATOM     51  C   UNL A   1      48.499  26.993  26.031  1.00  0.00     0.074 A 
ATOM     52  C   UNL A   1      49.007  25.748  25.442  1.00  0.00     0.031 C 
ATOM     53  C   UNL A   1      42.275  26.240  26.970  1.00  0.00     0.029 A 
ATOM     54  C   UNL A   1      43.073  27.347  27.318  1.00  0.00     0.049 A 
ATOM     55  H   UNL A   1      45.139  27.675  27.037  1.00  0.00     0.167 HD
ATOM     56  C   UNL A   1      49.289  28.109  26.311  1.00  0.00     0.037 A 
ATOM     57  C   UNL A   1      42.597  28.489  27.944  1.00  0.00     0.037 A 
ATOM     58  C   UNL A   1      48.805  29.268  26.896  1.00  0.00     0.049 A 
ATOM     59  C   UNL A   1      43.400  29.583  28.277  1.00  0.00     0.074 A 
ATOM     60  C   UNL A   1      49.587  30.403  27.178  1.00  0.00     0.029 A 
ATOM     61  N   UNL A   1      47.517  29.530  27.307  1.00  0.00    -0.354 N 
ATOM     62  N   UNL A   1      44.702  29.735  28.036  1.00  0.00    -0.248 NA
ATOM     63  C   UNL A   1      42.912  30.783  28.968  1.00  0.00     0.031 C 
ATOM     64  C   UNL A   1      48.784  31.336  27.759  1.00  0.00     0.029 A 
ATOM     65  C   UNL A   1      47.488  30.795  27.851  1.00  0.00     0.049 A 
ATOM     66  H   UNL A   1      46.749  28.918  27.227  1.00  0.00     0.167 HD
ATOM     67  C   UNL A   1      45.117  30.921  28.483  1.00  0.00     0.074 A 
ATOM     68  C   UNL A   1      43.973  31.610  29.096  1.00  0.00     0.031 C 
ATOM     69  C   UNL A   1      46.403  31.459  28.402  1.00  0.00     0.037 A 
BRANCH  56  70
ATOM     70  C   UNL A   1      50.766  28.050  25.952  1.00  0.00     0.064 A 
ATOM     71  C   UNL A   1      51.708  27.820  26.941  1.00  0.00     0.173 A 
ATOM     72  C   UNL A   1      51.129  28.323  24.704  1.00  0.00     0.173 A 
ATOM     73  F   UNL A   1      51.401  27.302  28.127  1.00  0.00    -0.203 F 
ATOM     74  C   UNL A   1      53.024  28.188  26.575  1.00  0.00     0.198 A 
ATOM     75  C   UNL A   1      52.450  28.537  24.391  1.00  0.00     0.198 A 
ATOM     76  F   UNL A   1      50.207  28.390  23.748  1.00  0.00    -0.203 F 
ATOM     77  F   UNL A   1      53.916  28.345  27.549  1.00  0.00    -0.200 F 
ATOM     78  C   UNL A   1      53.429  28.386  25.334  1.00  0.00     0.200 A 
ATOM     79  F   UNL A   1      52.781  28.897  23.154  1.00  0.00    -0.200 F 
ATOM     80  F   UNL A   1      54.720  28.434  25.018  1.00  0.00    -0.200 F 
ENDBRANCH  56  70
BRANCH  57  81
ATOM     81  C   UNL A   1      41.117  28.554  28.287  1.00  0.00     0.064 A 
ATOM     82  C   UNL A   1      40.193  28.977  27.346  1.00  0.00     0.173 A 
ATOM     83  C   UNL A   1      40.734  28.101  29.474  1.00  0.00     0.173 A 
ATOM     84  F   UNL A   1      40.503  29.196  26.071  1.00  0.00    -0.203 F 
ATOM     85  C   UNL A   1      38.887  29.154  27.864  1.00  0.00     0.198 A 
ATOM     86  C   UNL A   1      39.419  28.182  29.863  1.00  0.00     0.198 A 
ATOM     87  F   UNL A   1      41.632  27.564  30.296  1.00  0.00    -0.203 F 
ATOM     88  F   UNL A   1      38.033  29.884  27.153  1.00  0.00    -0.200 F 
ATOM     89  C   UNL A   1      38.459  28.644  29.005  1.00  0.00     0.200 A 
ATOM     90  F   UNL A   1      39.073  27.804  31.090  1.00  0.00    -0.200 F 
ATOM     91  F   UNL A   1      37.164  28.585  29.304  1.00  0.00    -0.200 F 
ENDBRANCH  57  81
BRANCH  69  92
ATOM     92  C   UNL A   1      46.627  32.859  28.952  1.00  0.00     0.064 A 
ATOM     93  C   UNL A   1      46.413  34.004  28.204  1.00  0.00     0.173 A 
ATOM     94  C   UNL A   1      46.989  32.926  30.229  1.00  0.00     0.173 A 
ATOM     95  F   UNL A   1      45.813  33.995  27.018  1.00  0.00    -0.203 F 
ATOM     96  C   UNL A   1      46.894  35.186  28.816  1.00  0.00     0.198 A 
ATOM     97  C   UNL A   1      47.315  34.132  30.800  1.00  0.00     0.198 A 
ATOM     98  F   UNL A   1      47.039  31.816  30.958  1.00  0.00    -0.203 F 
ATOM     99  F   UNL A   1      47.065  36.257  28.046  1.00  0.00    -0.200 F 
ATOM    100  C   UNL A   1      47.185  35.300  30.100  1.00  0.00     0.200 A 
ATOM    101  F   UNL A   1      47.762  34.166  32.051  1.00  0.00    -0.200 F 
ATOM    102  F   UNL A   1      47.343  36.486  30.679  1.00  0.00    -0.200 F 
ENDBRANCH  69  92
ENDBRANCH  43  44
ENDBRANCH  36  38
ENDBRANCH  35  36
ENDBRANCH  34  35
ENDBRANCH  33  34
ENDBRANCH  32  33
ENDBRANCH  31  32
ENDBRANCH   1  31
TORSDOF 22
ENDMDL
