MODEL 1
REMARK VINA RESULT:     -10.6      0.000      0.000
REMARK SMILES Cc1c(C)c2c(c(C)c1O)CC[C@@](C)(C(=O)OCCOCCOCCOCCOC(=O)c1ccc(-c3c4nc(c(-c5c(F)c(F)c(F)c(F)c5F)c5ccc([nH]5)c(-c5c(F)c(F)c(F)c(F)c5F)c5nc(c(-c6c(F)c(F)c(F)c(F)c6F)c6ccc3[nH]6)C=C5)C=C4)cc1)O2
REMARK SMILES IDX 24 1 23 2 22 3 21 4 20 5 19 6 18 7 17 8 15 9 16 10 13 11
REMARK SMILES IDX 1 12 2 13 3 14 9 15 4 16 5 17 7 18 6 19 95 20 8 21 11 22
REMARK SMILES IDX 12 23 14 24 10 25 25 27 26 28 27 29 28 30 29 31 30 32 31 33
REMARK SMILES IDX 32 34 33 35 94 36 34 37 93 38 35 39 36 40 37 41 87 42 38 43
REMARK SMILES IDX 92 44 86 45 88 46 39 47 91 48 85 49 84 50 40 52 72 53 52 54
REMARK SMILES IDX 71 55 53 56 56 57 70 58 89 59 54 60 55 61 69 63 90 64 57 65
REMARK SMILES IDX 41 66 42 67 50 68 43 69 44 70 48 71 51 72 45 73 46 74 49 75
REMARK SMILES IDX 47 76 73 77 74 78 82 79 75 80 76 81 80 82 83 83 77 84 78 85
REMARK SMILES IDX 81 86 79 87 58 88 59 89 67 90 60 91 61 92 65 93 68 94 62 95
REMARK SMILES IDX 63 96 66 97 64 98
REMARK H PARENT 10 26 88 51 56 62
REMARK Flexibility Score: inf
ROOT
ATOM      1  C   UNL A   1      36.655  23.500  25.033  1.00  0.00     0.188 C 
ENDROOT
BRANCH   1   2
ATOM      2  O   UNL A   1      35.273  23.561  25.375  1.00  0.00    -0.377 OA
BRANCH   2   3
ATOM      3  C   UNL A   1      34.881  22.963  26.596  1.00  0.00     0.188 C 
BRANCH   3   4
ATOM      4  C   UNL A   1      34.208  21.592  26.466  1.00  0.00     0.188 C 
BRANCH   4   5
ATOM      5  O   UNL A   1      32.822  21.480  26.191  1.00  0.00    -0.376 OA
BRANCH   5   6
ATOM      6  C   UNL A   1      32.332  21.131  24.906  1.00  0.00     0.202 C 
BRANCH   6   7
ATOM      7  C   UNL A   1      32.929  21.665  23.592  1.00  0.00     0.261 C 
BRANCH   7   8
ATOM      8  O   UNL A   1      32.176  22.644  22.855  1.00  0.00    -0.460 OA
BRANCH   8   9
ATOM      9  C   UNL A   1      32.827  23.814  22.642  1.00  0.00     0.350 C 
ATOM     10  O   UNL A   1      34.030  23.872  22.389  1.00  0.00    -0.247 OA
BRANCH   9  11
ATOM     11  C   UNL A   1      31.954  25.073  22.811  1.00  0.00     0.203 C 
ATOM     12  C   UNL A   1      32.929  29.407  27.066  1.00  0.00     0.049 C 
ATOM     13  C   UNL A   1      32.470  28.868  25.734  1.00  0.00    -0.002 A 
ATOM     14  C   UNL A   1      32.920  27.616  25.260  1.00  0.00    -0.002 A 
ATOM     15  C   UNL A   1      31.525  29.572  24.963  1.00  0.00     0.122 A 
ATOM     16  C   UNL A   1      33.970  26.833  26.017  1.00  0.00     0.049 C 
ATOM     17  C   UNL A   1      32.362  27.084  24.078  1.00  0.00     0.127 A 
ATOM     18  C   UNL A   1      31.039  29.081  23.736  1.00  0.00    -0.002 A 
ATOM     19  C   UNL A   1      31.465  27.814  23.286  1.00  0.00     0.001 A 
ATOM     20  O   UNL A   1      32.746  25.813  23.761  1.00  0.00    -0.475 OA
ATOM     21  C   UNL A   1      30.080  29.899  22.909  1.00  0.00     0.049 C 
ATOM     22  C   UNL A   1      30.929  27.220  22.003  1.00  0.00     0.044 C 
ATOM     23  C   UNL A   1      31.666  25.945  21.589  1.00  0.00     0.065 C 
ATOM     24  C   UNL A   1      30.654  24.560  23.446  1.00  0.00     0.069 C 
BRANCH  15  25
ATOM     25  O   UNL A   1      31.028  30.777  25.388  1.00  0.00    -0.507 OA
ATOM     26  H   UNL A   1      31.273  31.116  26.228  1.00  0.00     0.293 HD
ENDBRANCH  15  25
ENDBRANCH   9  11
ENDBRANCH   8   9
ENDBRANCH   7   8
ENDBRANCH   6   7
ENDBRANCH   5   6
ENDBRANCH   4   5
ENDBRANCH   3   4
ENDBRANCH   2   3
ENDBRANCH   1   2
BRANCH   1  27
ATOM     27  C   UNL A   1      37.501  22.331  25.576  1.00  0.00     0.188 C 
BRANCH  27  28
ATOM     28  O   UNL A   1      37.754  21.309  24.623  1.00  0.00    -0.376 OA
BRANCH  28  29
ATOM     29  C   UNL A   1      37.662  19.952  25.032  1.00  0.00     0.202 C 
BRANCH  29  30
ATOM     30  C   UNL A   1      38.966  19.207  25.366  1.00  0.00     0.261 C 
BRANCH  30  31
ATOM     31  O   UNL A   1      39.842  19.831  26.320  1.00  0.00    -0.460 OA
BRANCH  31  32
ATOM     32  C   UNL A   1      41.172  19.669  26.177  1.00  0.00     0.338 C 
ATOM     33  O   UNL A   1      41.756  18.689  25.751  1.00  0.00    -0.246 OA
BRANCH  32  34
ATOM     34  C   UNL A   1      41.810  20.979  26.430  1.00  0.00     0.060 A 
ATOM     35  C   UNL A   1      42.121  21.335  27.749  1.00  0.00     0.016 A 
ATOM     36  C   UNL A   1      42.104  21.851  25.377  1.00  0.00     0.016 A 
ATOM     37  C   UNL A   1      42.694  22.576  28.023  1.00  0.00     0.010 A 
ATOM     38  C   UNL A   1      42.651  23.106  25.655  1.00  0.00     0.010 A 
ATOM     39  C   UNL A   1      42.914  23.489  26.983  1.00  0.00    -0.014 A 
BRANCH  39  40
ATOM     40  C   UNL A   1      43.192  24.908  27.315  1.00  0.00     0.031 A 
ATOM     41  C   UNL A   1      44.571  25.440  27.037  1.00  0.00     0.074 A 
ATOM     42  C   UNL A   1      42.236  25.722  27.795  1.00  0.00     0.049 A 
ATOM     43  N   UNL A   1      45.060  26.635  27.243  1.00  0.00    -0.248 NA
ATOM     44  C   UNL A   1      45.528  24.493  26.439  1.00  0.00     0.031 C 
ATOM     45  C   UNL A   1      40.849  25.341  28.048  1.00  0.00     0.029 A 
ATOM     46  N   UNL A   1      42.294  27.048  28.151  1.00  0.00    -0.354 N 
ATOM     47  C   UNL A   1      46.373  26.585  26.794  1.00  0.00     0.074 A 
ATOM     48  C   UNL A   1      46.621  25.234  26.344  1.00  0.00     0.031 C 
ATOM     49  C   UNL A   1      40.184  26.411  28.519  1.00  0.00     0.029 A 
ATOM     50  C   UNL A   1      41.106  27.542  28.630  1.00  0.00     0.049 A 
ATOM     51  H   UNL A   1      43.109  27.593  28.069  1.00  0.00     0.167 HD
ATOM     52  C   UNL A   1      47.287  27.582  26.745  1.00  0.00     0.037 A 
ATOM     53  C   UNL A   1      40.806  28.764  29.116  1.00  0.00     0.037 A 
ATOM     54  C   UNL A   1      47.041  28.924  27.197  1.00  0.00     0.049 A 
ATOM     55  C   UNL A   1      41.874  29.830  29.152  1.00  0.00     0.074 A 
ATOM     56  C   UNL A   1      47.904  30.005  27.192  1.00  0.00     0.029 A 
ATOM     57  N   UNL A   1      45.844  29.368  27.740  1.00  0.00    -0.354 N 
ATOM     58  N   UNL A   1      43.109  29.780  28.716  1.00  0.00    -0.248 NA
ATOM     59  C   UNL A   1      41.505  31.123  29.750  1.00  0.00     0.031 C 
ATOM     60  C   UNL A   1      47.250  31.087  27.786  1.00  0.00     0.029 A 
ATOM     61  C   UNL A   1      45.958  30.699  28.103  1.00  0.00     0.049 A 
ATOM     62  H   UNL A   1      45.036  28.818  27.852  1.00  0.00     0.167 HD
ATOM     63  C   UNL A   1      43.655  31.035  28.959  1.00  0.00     0.074 A 
ATOM     64  C   UNL A   1      42.612  31.832  29.569  1.00  0.00     0.031 C 
ATOM     65  C   UNL A   1      44.908  31.484  28.701  1.00  0.00     0.037 A 
BRANCH  52  66
ATOM     66  C   UNL A   1      48.645  27.258  26.197  1.00  0.00     0.064 A 
ATOM     67  C   UNL A   1      49.678  26.790  27.023  1.00  0.00     0.173 A 
ATOM     68  C   UNL A   1      48.899  27.357  24.821  1.00  0.00     0.173 A 
ATOM     69  F   UNL A   1      49.491  26.693  28.348  1.00  0.00    -0.203 F 
ATOM     70  C   UNL A   1      50.919  26.448  26.494  1.00  0.00     0.198 A 
ATOM     71  C   UNL A   1      50.131  26.984  24.291  1.00  0.00     0.198 A 
ATOM     72  F   UNL A   1      47.945  27.797  23.987  1.00  0.00    -0.203 F 
ATOM     73  F   UNL A   1      51.902  26.039  27.308  1.00  0.00    -0.200 F 
ATOM     74  C   UNL A   1      51.141  26.534  25.128  1.00  0.00     0.200 A 
ATOM     75  F   UNL A   1      50.339  27.055  22.969  1.00  0.00    -0.200 F 
ATOM     76  F   UNL A   1      52.330  26.187  24.618  1.00  0.00    -0.200 F 
ENDBRANCH  52  66
BRANCH  53  77
ATOM     77  C   UNL A   1      39.430  29.049  29.607  1.00  0.00     0.064 A 
ATOM     78  C   UNL A   1      39.091  28.860  30.954  1.00  0.00     0.173 A 
ATOM     79  C   UNL A   1      38.427  29.512  28.743  1.00  0.00     0.173 A 
ATOM     80  F   UNL A   1      40.005  28.389  31.815  1.00  0.00    -0.203 F 
ATOM     81  C   UNL A   1      37.801  29.117  31.416  1.00  0.00     0.198 A 
ATOM     82  C   UNL A   1      37.146  29.798  29.212  1.00  0.00     0.198 A 
ATOM     83  F   UNL A   1      38.695  29.703  27.443  1.00  0.00    -0.203 F 
ATOM     84  F   UNL A   1      37.494  28.892  32.701  1.00  0.00    -0.200 F 
ATOM     85  C   UNL A   1      36.833  29.595  30.547  1.00  0.00     0.200 A 
ATOM     86  F   UNL A   1      36.217  30.271  28.370  1.00  0.00    -0.200 F 
ATOM     87  F   UNL A   1      35.596  29.855  30.993  1.00  0.00    -0.200 F 
ENDBRANCH  53  77
BRANCH  65  88
ATOM     88  C   UNL A   1      45.232  32.909  29.053  1.00  0.00     0.064 A 
ATOM     89  C   UNL A   1      45.834  33.244  30.275  1.00  0.00     0.173 A 
ATOM     90  C   UNL A   1      45.032  33.936  28.117  1.00  0.00     0.173 A 
ATOM     91  F   UNL A   1      46.039  32.302  31.207  1.00  0.00    -0.203 F 
ATOM     92  C   UNL A   1      46.213  34.556  30.551  1.00  0.00     0.198 A 
ATOM     93  C   UNL A   1      45.442  35.240  28.383  1.00  0.00     0.198 A 
ATOM     94  F   UNL A   1      44.472  33.668  26.928  1.00  0.00    -0.203 F 
ATOM     95  F   UNL A   1      46.757  34.858  31.737  1.00  0.00    -0.200 F 
ATOM     96  C   UNL A   1      46.029  35.550  29.600  1.00  0.00     0.200 A 
ATOM     97  F   UNL A   1      45.282  36.193  27.455  1.00  0.00    -0.200 F 
ATOM     98  F   UNL A   1      46.416  36.805  29.858  1.00  0.00    -0.200 F 
ENDBRANCH  65  88
ENDBRANCH  39  40
ENDBRANCH  32  34
ENDBRANCH  31  32
ENDBRANCH  30  31
ENDBRANCH  29  30
ENDBRANCH  28  29
ENDBRANCH  27  28
ENDBRANCH   1  27
TORSDOF 21
ENDMDL
MODEL 2
REMARK VINA RESULT:     -10.2      1.621      7.376
REMARK SMILES Cc1c(C)c2c(c(C)c1O)CC[C@@](C)(C(=O)OCCOCCOCCOCCOC(=O)c1ccc(-c3c4nc(c(-c5c(F)c(F)c(F)c(F)c5F)c5ccc([nH]5)c(-c5c(F)c(F)c(F)c(F)c5F)c5nc(c(-c6c(F)c(F)c(F)c(F)c6F)c6ccc3[nH]6)C=C5)C=C4)cc1)O2
REMARK SMILES IDX 24 1 23 2 22 3 21 4 20 5 19 6 18 7 17 8 15 9 16 10 13 11
REMARK SMILES IDX 1 12 2 13 3 14 9 15 4 16 5 17 7 18 6 19 95 20 8 21 11 22
REMARK SMILES IDX 12 23 14 24 10 25 25 27 26 28 27 29 28 30 29 31 30 32 31 33
REMARK SMILES IDX 32 34 33 35 94 36 34 37 93 38 35 39 36 40 37 41 87 42 38 43
REMARK SMILES IDX 92 44 86 45 88 46 39 47 91 48 85 49 84 50 40 52 72 53 52 54
REMARK SMILES IDX 71 55 53 56 56 57 70 58 89 59 54 60 55 61 69 63 90 64 57 65
REMARK SMILES IDX 41 66 42 67 50 68 43 69 44 70 48 71 51 72 45 73 46 74 49 75
REMARK SMILES IDX 47 76 73 77 74 78 82 79 75 80 76 81 80 82 83 83 77 84 78 85
REMARK SMILES IDX 81 86 79 87 58 88 59 89 67 90 60 91 61 92 65 93 68 94 62 95
REMARK SMILES IDX 63 96 66 97 64 98
REMARK H PARENT 10 26 88 51 56 62
REMARK Flexibility Score: inf
ROOT
ATOM      1  C   UNL A   1      32.935  20.375  25.628  1.00  0.00     0.188 C 
ENDROOT
BRANCH   1   2
ATOM      2  O   UNL A   1      33.299  21.053  26.827  1.00  0.00    -0.377 OA
BRANCH   2   3
ATOM      3  C   UNL A   1      33.497  22.452  26.744  1.00  0.00     0.188 C 
BRANCH   3   4
ATOM      4  C   UNL A   1      32.237  23.304  26.936  1.00  0.00     0.188 C 
BRANCH   4   5
ATOM      5  O   UNL A   1      31.313  23.492  25.877  1.00  0.00    -0.376 OA
BRANCH   5   6
ATOM      6  C   UNL A   1      31.724  23.591  24.523  1.00  0.00     0.202 C 
BRANCH   6   7
ATOM      7  C   UNL A   1      30.745  23.702  23.341  1.00  0.00     0.261 C 
BRANCH   7   8
ATOM      8  O   UNL A   1      30.118  24.974  23.099  1.00  0.00    -0.460 OA
BRANCH   8   9
ATOM      9  C   UNL A   1      30.980  25.992  22.856  1.00  0.00     0.350 C 
ATOM     10  O   UNL A   1      31.865  25.927  22.003  1.00  0.00    -0.247 OA
BRANCH   9  11
ATOM     11  C   UNL A   1      30.808  27.212  23.781  1.00  0.00     0.203 C 
ATOM     12  C   UNL A   1      35.081  29.167  27.751  1.00  0.00     0.049 C 
ATOM     13  C   UNL A   1      33.922  29.314  26.797  1.00  0.00    -0.002 A 
ATOM     14  C   UNL A   1      33.616  28.304  25.859  1.00  0.00    -0.002 A 
ATOM     15  C   UNL A   1      33.072  30.436  26.869  1.00  0.00     0.122 A 
ATOM     16  C   UNL A   1      34.515  27.098  25.699  1.00  0.00     0.049 C 
ATOM     17  C   UNL A   1      32.445  28.416  25.080  1.00  0.00     0.127 A 
ATOM     18  C   UNL A   1      31.956  30.589  26.025  1.00  0.00    -0.002 A 
ATOM     19  C   UNL A   1      31.636  29.560  25.115  1.00  0.00     0.001 A 
ATOM     20  O   UNL A   1      32.147  27.337  24.299  1.00  0.00    -0.475 OA
ATOM     21  C   UNL A   1      31.113  31.838  26.088  1.00  0.00     0.049 C 
ATOM     22  C   UNL A   1      30.415  29.653  24.228  1.00  0.00     0.044 C 
ATOM     23  C   UNL A   1      30.362  28.544  23.176  1.00  0.00     0.065 C 
ATOM     24  C   UNL A   1      29.831  26.740  24.866  1.00  0.00     0.069 C 
BRANCH  15  25
ATOM     25  O   UNL A   1      33.301  31.433  27.782  1.00  0.00    -0.507 OA
ATOM     26  H   UNL A   1      34.089  31.939  27.737  1.00  0.00     0.293 HD
ENDBRANCH  15  25
ENDBRANCH   9  11
ENDBRANCH   8   9
ENDBRANCH   7   8
ENDBRANCH   6   7
ENDBRANCH   5   6
ENDBRANCH   4   5
ENDBRANCH   3   4
ENDBRANCH   2   3
ENDBRANCH   1   2
BRANCH   1  27
ATOM     27  C   UNL A   1      33.967  19.444  24.961  1.00  0.00     0.188 C 
BRANCH  27  28
ATOM     28  O   UNL A   1      35.070  20.125  24.381  1.00  0.00    -0.376 OA
BRANCH  28  29
ATOM     29  C   UNL A   1      36.328  20.079  25.038  1.00  0.00     0.202 C 
BRANCH  29  30
ATOM     30  C   UNL A   1      36.911  21.394  25.584  1.00  0.00     0.261 C 
BRANCH  30  31
ATOM     31  O   UNL A   1      38.296  21.655  25.302  1.00  0.00    -0.460 OA
BRANCH  31  32
ATOM     32  C   UNL A   1      39.213  21.356  26.242  1.00  0.00     0.338 C 
ATOM     33  O   UNL A   1      39.662  20.257  26.515  1.00  0.00    -0.246 OA
BRANCH  32  34
ATOM     34  C   UNL A   1      39.753  22.633  26.759  1.00  0.00     0.060 A 
ATOM     35  C   UNL A   1      39.174  23.834  26.331  1.00  0.00     0.016 A 
ATOM     36  C   UNL A   1      40.821  22.646  27.662  1.00  0.00     0.016 A 
ATOM     37  C   UNL A   1      39.682  25.053  26.775  1.00  0.00     0.010 A 
ATOM     38  C   UNL A   1      41.349  23.870  28.084  1.00  0.00     0.010 A 
ATOM     39  C   UNL A   1      40.805  25.079  27.613  1.00  0.00    -0.014 A 
BRANCH  39  40
ATOM     40  C   UNL A   1      41.538  26.355  27.797  1.00  0.00     0.031 A 
ATOM     41  C   UNL A   1      40.841  27.471  28.527  1.00  0.00     0.074 A 
ATOM     42  C   UNL A   1      42.808  26.507  27.384  1.00  0.00     0.049 A 
ATOM     43  N   UNL A   1      41.264  28.676  28.808  1.00  0.00    -0.248 NA
ATOM     44  C   UNL A   1      39.479  27.184  29.010  1.00  0.00     0.031 C 
ATOM     45  C   UNL A   1      43.610  25.482  26.722  1.00  0.00     0.029 A 
ATOM     46  N   UNL A   1      43.648  27.591  27.469  1.00  0.00    -0.354 N 
ATOM     47  C   UNL A   1      40.228  29.284  29.505  1.00  0.00     0.074 A 
ATOM     48  C   UNL A   1      39.140  28.335  29.568  1.00  0.00     0.031 C 
ATOM     49  C   UNL A   1      44.829  25.986  26.460  1.00  0.00     0.029 A 
ATOM     50  C   UNL A   1      44.882  27.379  26.907  1.00  0.00     0.049 A 
ATOM     51  H   UNL A   1      43.389  28.441  27.894  1.00  0.00     0.167 HD
ATOM     52  C   UNL A   1      40.195  30.518  30.058  1.00  0.00     0.037 A 
ATOM     53  C   UNL A   1      45.927  28.219  26.759  1.00  0.00     0.037 A 
ATOM     54  C   UNL A   1      41.276  31.463  29.989  1.00  0.00     0.049 A 
ATOM     55  C   UNL A   1      45.824  29.629  27.289  1.00  0.00     0.074 A 
ATOM     56  C   UNL A   1      41.336  32.741  30.516  1.00  0.00     0.029 A 
ATOM     57  N   UNL A   1      42.486  31.233  29.351  1.00  0.00    -0.354 N 
ATOM     58  N   UNL A   1      44.847  30.194  27.957  1.00  0.00    -0.248 NA
ATOM     59  C   UNL A   1      46.970  30.518  27.043  1.00  0.00     0.031 C 
ATOM     60  C   UNL A   1      42.559  33.307  30.146  1.00  0.00     0.029 A 
ATOM     61  C   UNL A   1      43.287  32.359  29.444  1.00  0.00     0.049 A 
ATOM     62  H   UNL A   1      42.737  30.396  28.899  1.00  0.00     0.167 HD
ATOM     63  C   UNL A   1      45.269  31.489  28.234  1.00  0.00     0.074 A 
ATOM     64  C   UNL A   1      46.598  31.624  27.675  1.00  0.00     0.031 C 
ATOM     65  C   UNL A   1      44.613  32.477  28.891  1.00  0.00     0.037 A 
BRANCH  52  66
ATOM     66  C   UNL A   1      38.942  30.928  30.773  1.00  0.00     0.064 A 
ATOM     67  C   UNL A   1      37.829  31.426  30.079  1.00  0.00     0.173 A 
ATOM     68  C   UNL A   1      38.829  30.764  32.162  1.00  0.00     0.173 A 
ATOM     69  F   UNL A   1      37.891  31.618  28.752  1.00  0.00    -0.203 F 
ATOM     70  C   UNL A   1      36.656  31.758  30.750  1.00  0.00     0.198 A 
ATOM     71  C   UNL A   1      37.644  31.068  32.825  1.00  0.00     0.198 A 
ATOM     72  F   UNL A   1      39.864  30.291  32.873  1.00  0.00    -0.203 F 
ATOM     73  F   UNL A   1      35.618  32.267  30.071  1.00  0.00    -0.200 F 
ATOM     74  C   UNL A   1      36.560  31.568  32.120  1.00  0.00     0.200 A 
ATOM     75  F   UNL A   1      37.550  30.870  34.148  1.00  0.00    -0.200 F 
ATOM     76  F   UNL A   1      35.424  31.870  32.762  1.00  0.00    -0.200 F 
ENDBRANCH  52  66
BRANCH  53  77
ATOM     77  C   UNL A   1      47.165  27.750  26.080  1.00  0.00     0.064 A 
ATOM     78  C   UNL A   1      48.258  27.277  26.819  1.00  0.00     0.173 A 
ATOM     79  C   UNL A   1      47.283  27.766  24.682  1.00  0.00     0.173 A 
ATOM     80  F   UNL A   1      48.208  27.269  28.159  1.00  0.00    -0.203 F 
ATOM     81  C   UNL A   1      49.423  26.844  26.187  1.00  0.00     0.198 A 
ATOM     82  C   UNL A   1      48.436  27.305  24.051  1.00  0.00     0.198 A 
ATOM     83  F   UNL A   1      46.270  28.216  23.927  1.00  0.00    -0.203 F 
ATOM     84  F   UNL A   1      50.467  26.431  26.919  1.00  0.00    -0.200 F 
ATOM     85  C   UNL A   1      49.507  26.848  24.803  1.00  0.00     0.200 A 
ATOM     86  F   UNL A   1      48.508  27.300  22.712  1.00  0.00    -0.200 F 
ATOM     87  F   UNL A   1      50.622  26.420  24.195  1.00  0.00    -0.200 F 
ENDBRANCH  53  77
BRANCH  65  88
ATOM     88  C   UNL A   1      45.316  33.793  29.069  1.00  0.00     0.064 A 
ATOM     89  C   UNL A   1      46.222  34.006  30.118  1.00  0.00     0.173 A 
ATOM     90  C   UNL A   1      45.157  34.818  28.122  1.00  0.00     0.173 A 
ATOM     91  F   UNL A   1      46.404  33.062  31.054  1.00  0.00    -0.203 F 
ATOM     92  C   UNL A   1      46.934  35.198  30.219  1.00  0.00     0.198 A 
ATOM     93  C   UNL A   1      45.895  35.995  28.207  1.00  0.00     0.198 A 
ATOM     94  F   UNL A   1      44.312  34.661  27.092  1.00  0.00    -0.203 F 
ATOM     95  F   UNL A   1      47.771  35.390  31.247  1.00  0.00    -0.200 F 
ATOM     96  C   UNL A   1      46.781  36.186  29.257  1.00  0.00     0.200 A 
ATOM     97  F   UNL A   1      45.760  36.938  27.265  1.00  0.00    -0.200 F 
ATOM     98  F   UNL A   1      47.486  37.321  29.342  1.00  0.00    -0.200 F 
ENDBRANCH  65  88
ENDBRANCH  39  40
ENDBRANCH  32  34
ENDBRANCH  31  32
ENDBRANCH  30  31
ENDBRANCH  29  30
ENDBRANCH  28  29
ENDBRANCH  27  28
ENDBRANCH   1  27
TORSDOF 21
ENDMDL
MODEL 3
REMARK VINA RESULT:     -10.2      5.231     10.301
REMARK SMILES Cc1c(C)c2c(c(C)c1O)CC[C@@](C)(C(=O)OCCOCCOCCOCCOC(=O)c1ccc(-c3c4nc(c(-c5c(F)c(F)c(F)c(F)c5F)c5ccc([nH]5)c(-c5c(F)c(F)c(F)c(F)c5F)c5nc(c(-c6c(F)c(F)c(F)c(F)c6F)c6ccc3[nH]6)C=C5)C=C4)cc1)O2
REMARK SMILES IDX 24 1 23 2 22 3 21 4 20 5 19 6 18 7 17 8 15 9 16 10 13 11
REMARK SMILES IDX 1 12 2 13 3 14 9 15 4 16 5 17 7 18 6 19 95 20 8 21 11 22
REMARK SMILES IDX 12 23 14 24 10 25 25 27 26 28 27 29 28 30 29 31 30 32 31 33
REMARK SMILES IDX 32 34 33 35 94 36 34 37 93 38 35 39 36 40 37 41 87 42 38 43
REMARK SMILES IDX 92 44 86 45 88 46 39 47 91 48 85 49 84 50 40 52 72 53 52 54
REMARK SMILES IDX 71 55 53 56 56 57 70 58 89 59 54 60 55 61 69 63 90 64 57 65
REMARK SMILES IDX 41 66 42 67 50 68 43 69 44 70 48 71 51 72 45 73 46 74 49 75
REMARK SMILES IDX 47 76 73 77 74 78 82 79 75 80 76 81 80 82 83 83 77 84 78 85
REMARK SMILES IDX 81 86 79 87 58 88 59 89 67 90 60 91 61 92 65 93 68 94 62 95
REMARK SMILES IDX 63 96 66 97 64 98
REMARK H PARENT 10 26 88 51 56 62
REMARK Flexibility Score: inf
ROOT
ATOM      1  C   UNL A   1      33.280  34.995  29.201  1.00  0.00     0.188 C 
ENDROOT
BRANCH   1   2
ATOM      2  O   UNL A   1      32.475  36.169  29.283  1.00  0.00    -0.377 OA
BRANCH   2   3
ATOM      3  C   UNL A   1      33.125  37.375  29.634  1.00  0.00     0.188 C 
BRANCH   3   4
ATOM      4  C   UNL A   1      33.369  37.574  31.134  1.00  0.00     0.188 C 
BRANCH   4   5
ATOM      5  O   UNL A   1      32.508  36.994  32.100  1.00  0.00    -0.376 OA
BRANCH   5   6
ATOM      6  C   UNL A   1      32.871  35.839  32.839  1.00  0.00     0.202 C 
BRANCH   6   7
ATOM      7  C   UNL A   1      34.322  35.484  33.208  1.00  0.00     0.261 C 
BRANCH   7   8
ATOM      8  O   UNL A   1      34.564  34.232  33.874  1.00  0.00    -0.460 OA
BRANCH   8   9
ATOM      9  C   UNL A   1      34.780  33.183  33.043  1.00  0.00     0.350 C 
ATOM     10  O   UNL A   1      33.897  32.700  32.334  1.00  0.00    -0.247 OA
BRANCH   9  11
ATOM     11  C   UNL A   1      36.204  32.598  33.106  1.00  0.00     0.203 C 
ATOM     12  C   UNL A   1      39.804  32.798  38.090  1.00  0.00     0.049 C 
ATOM     13  C   UNL A   1      39.270  32.220  36.803  1.00  0.00    -0.002 A 
ATOM     14  C   UNL A   1      38.022  32.629  36.282  1.00  0.00    -0.002 A 
ATOM     15  C   UNL A   1      40.039  31.308  36.053  1.00  0.00     0.122 A 
ATOM     16  C   UNL A   1      37.129  33.568  37.061  1.00  0.00     0.049 C 
ATOM     17  C   UNL A   1      37.622  32.170  35.010  1.00  0.00     0.127 A 
ATOM     18  C   UNL A   1      39.594  30.780  34.827  1.00  0.00    -0.002 A 
ATOM     19  C   UNL A   1      38.364  31.219  34.295  1.00  0.00     0.001 A 
ATOM     20  O   UNL A   1      36.472  32.717  34.517  1.00  0.00    -0.475 OA
ATOM     21  C   UNL A   1      40.418  29.754  34.091  1.00  0.00     0.049 C 
ATOM     22  C   UNL A   1      37.871  30.724  32.954  1.00  0.00     0.044 C 
ATOM     23  C   UNL A   1      36.433  31.155  32.657  1.00  0.00     0.065 C 
ATOM     24  C   UNL A   1      37.060  33.576  32.290  1.00  0.00     0.069 C 
BRANCH  15  25
ATOM     25  O   UNL A   1      41.272  30.900  36.494  1.00  0.00    -0.507 OA
ATOM     26  H   UNL A   1      41.352  30.448  37.311  1.00  0.00     0.293 HD
ENDBRANCH  15  25
ENDBRANCH   9  11
ENDBRANCH   8   9
ENDBRANCH   7   8
ENDBRANCH   6   7
ENDBRANCH   5   6
ENDBRANCH   4   5
ENDBRANCH   3   4
ENDBRANCH   2   3
ENDBRANCH   1   2
BRANCH   1  27
ATOM     27  C   UNL A   1      33.059  34.027  28.021  1.00  0.00     0.188 C 
BRANCH  27  28
ATOM     28  O   UNL A   1      34.242  33.716  27.301  1.00  0.00    -0.376 OA
BRANCH  28  29
ATOM     29  C   UNL A   1      35.436  33.450  28.023  1.00  0.00     0.202 C 
BRANCH  29  30
ATOM     30  C   UNL A   1      35.348  32.538  29.259  1.00  0.00     0.261 C 
BRANCH  30  31
ATOM     31  O   UNL A   1      34.606  31.316  29.110  1.00  0.00    -0.460 OA
BRANCH  31  32
ATOM     32  C   UNL A   1      34.902  30.503  28.077  1.00  0.00     0.338 C 
ATOM     33  O   UNL A   1      34.264  30.348  27.051  1.00  0.00    -0.246 OA
BRANCH  32  34
ATOM     34  C   UNL A   1      36.265  29.974  28.303  1.00  0.00     0.060 A 
ATOM     35  C   UNL A   1      36.560  29.372  29.533  1.00  0.00     0.016 A 
ATOM     36  C   UNL A   1      37.244  30.066  27.309  1.00  0.00     0.016 A 
ATOM     37  C   UNL A   1      37.844  28.893  29.787  1.00  0.00     0.010 A 
ATOM     38  C   UNL A   1      38.539  29.612  27.576  1.00  0.00     0.010 A 
ATOM     39  C   UNL A   1      38.854  29.057  28.830  1.00  0.00    -0.014 A 
BRANCH  39  40
ATOM     40  C   UNL A   1      40.268  28.865  29.232  1.00  0.00     0.031 A 
ATOM     41  C   UNL A   1      40.962  27.604  28.792  1.00  0.00     0.074 A 
ATOM     42  C   UNL A   1      40.942  29.803  29.919  1.00  0.00     0.049 A 
ATOM     43  N   UNL A   1      42.186  27.204  29.019  1.00  0.00    -0.248 NA
ATOM     44  C   UNL A   1      40.165  26.671  27.977  1.00  0.00     0.031 C 
ATOM     45  C   UNL A   1      40.399  31.089  30.348  1.00  0.00     0.029 A 
ATOM     46  N   UNL A   1      42.239  29.816  30.371  1.00  0.00    -0.354 N 
ATOM     47  C   UNL A   1      42.307  25.981  28.372  1.00  0.00     0.074 A 
ATOM     48  C   UNL A   1      41.023  25.682  27.779  1.00  0.00     0.031 C 
ATOM     49  C   UNL A   1      41.358  31.768  31.003  1.00  0.00     0.029 A 
ATOM     50  C   UNL A   1      42.571  30.952  31.066  1.00  0.00     0.049 A 
ATOM     51  H   UNL A   1      42.872  29.079  30.211  1.00  0.00     0.167 HD
ATOM     52  C   UNL A   1      43.396  25.187  28.267  1.00  0.00     0.037 A 
ATOM     53  C   UNL A   1      43.718  31.285  31.692  1.00  0.00     0.037 A 
ATOM     54  C   UNL A   1      44.671  25.483  28.862  1.00  0.00     0.049 A 
ATOM     55  C   UNL A   1      44.887  30.331  31.653  1.00  0.00     0.074 A 
ATOM     56  C   UNL A   1      45.836  24.738  28.815  1.00  0.00     0.029 A 
ATOM     57  N   UNL A   1      44.947  26.613  29.617  1.00  0.00    -0.354 N 
ATOM     58  N   UNL A   1      44.999  29.183  31.030  1.00  0.00    -0.248 NA
ATOM     59  C   UNL A   1      46.090  30.720  32.406  1.00  0.00     0.031 C 
ATOM     60  C   UNL A   1      46.800  25.387  29.590  1.00  0.00     0.029 A 
ATOM     61  C   UNL A   1      46.256  26.570  30.068  1.00  0.00     0.049 A 
ATOM     62  H   UNL A   1      44.308  27.338  29.805  1.00  0.00     0.167 HD
ATOM     63  C   UNL A   1      46.285  28.726  31.291  1.00  0.00     0.074 A 
ATOM     64  C   UNL A   1      46.924  29.729  32.118  1.00  0.00     0.031 C 
ATOM     65  C   UNL A   1      46.882  27.580  30.883  1.00  0.00     0.037 A 
BRANCH  52  66
ATOM     66  C   UNL A   1      43.257  23.910  27.493  1.00  0.00     0.064 A 
ATOM     67  C   UNL A   1      42.772  22.737  28.092  1.00  0.00     0.173 A 
ATOM     68  C   UNL A   1      43.554  23.872  26.122  1.00  0.00     0.173 A 
ATOM     69  F   UNL A   1      42.489  22.716  29.403  1.00  0.00    -0.203 F 
ATOM     70  C   UNL A   1      42.602  21.572  27.350  1.00  0.00     0.198 A 
ATOM     71  C   UNL A   1      43.354  22.715  25.377  1.00  0.00     0.198 A 
ATOM     72  F   UNL A   1      44.020  24.967  25.501  1.00  0.00    -0.203 F 
ATOM     73  F   UNL A   1      42.172  20.454  27.951  1.00  0.00    -0.200 F 
ATOM     74  C   UNL A   1      42.882  21.564  25.992  1.00  0.00     0.200 A 
ATOM     75  F   UNL A   1      43.612  22.713  24.062  1.00  0.00    -0.200 F 
ATOM     76  F   UNL A   1      42.701  20.447  25.275  1.00  0.00    -0.200 F 
ENDBRANCH  52  66
BRANCH  53  77
ATOM     77  C   UNL A   1      43.820  32.585  32.410  1.00  0.00     0.064 A 
ATOM     78  C   UNL A   1      44.202  33.753  31.736  1.00  0.00     0.173 A 
ATOM     79  C   UNL A   1      43.542  32.686  33.781  1.00  0.00     0.173 A 
ATOM     80  F   UNL A   1      44.508  33.704  30.432  1.00  0.00    -0.203 F 
ATOM     81  C   UNL A   1      44.306  34.971  32.407  1.00  0.00     0.198 A 
ATOM     82  C   UNL A   1      43.618  33.909  34.444  1.00  0.00     0.198 A 
ATOM     83  F   UNL A   1      43.180  31.598  34.476  1.00  0.00    -0.203 F 
ATOM     84  F   UNL A   1      44.709  36.065  31.747  1.00  0.00    -0.200 F 
ATOM     85  C   UNL A   1      44.005  35.050  33.757  1.00  0.00     0.200 A 
ATOM     86  F   UNL A   1      43.313  33.983  35.747  1.00  0.00    -0.200 F 
ATOM     87  F   UNL A   1      44.093  36.223  34.400  1.00  0.00    -0.200 F 
ENDBRANCH  53  77
BRANCH  65  88
ATOM     88  C   UNL A   1      48.306  27.339  31.298  1.00  0.00     0.064 A 
ATOM     89  C   UNL A   1      48.620  26.603  32.451  1.00  0.00     0.173 A 
ATOM     90  C   UNL A   1      49.367  27.763  30.481  1.00  0.00     0.173 A 
ATOM     91  F   UNL A   1      47.645  26.183  33.270  1.00  0.00    -0.203 F 
ATOM     92  C   UNL A   1      49.943  26.310  32.775  1.00  0.00     0.198 A 
ATOM     93  C   UNL A   1      50.685  27.440  30.791  1.00  0.00     0.198 A 
ATOM     94  F   UNL A   1      49.121  28.459  29.362  1.00  0.00    -0.203 F 
ATOM     95  F   UNL A   1      50.220  25.633  33.897  1.00  0.00    -0.200 F 
ATOM     96  C   UNL A   1      50.973  26.717  31.939  1.00  0.00     0.200 A 
ATOM     97  F   UNL A   1      51.676  27.815  29.971  1.00  0.00    -0.200 F 
ATOM     98  F   UNL A   1      52.242  26.412  32.240  1.00  0.00    -0.200 F 
ENDBRANCH  65  88
ENDBRANCH  39  40
ENDBRANCH  32  34
ENDBRANCH  31  32
ENDBRANCH  30  31
ENDBRANCH  29  30
ENDBRANCH  28  29
ENDBRANCH  27  28
ENDBRANCH   1  27
TORSDOF 21
ENDMDL
