MODEL 1
REMARK VINA RESULT:     -11.2      0.000      0.000
REMARK SMILES Cn1cc(NC(=O)N2Cc3nc[nH]c3C[C@@H]2C(=O)OCCOCCOCCOCCOC(=O)c2ccc(-c3c4nc(c(-c5c(F)c(F)c(F)c(F)c5F)c5ccc([nH]5)c(-c5c(F)c(F)c(F)c(F)c5F)c5nc(c(-c6c(F)c(F)c(F)c(F)c6F)c6ccc3[nH]6)C=C5)C=C4)cc2)cn1
REMARK SMILES IDX 25 1 24 2 23 3 22 4 21 5 20 6 19 7 17 8 18 9 16 10 8 11 9 12
REMARK SMILES IDX 10 13 15 14 11 15 14 16 12 17 13 18 6 20 5 21 7 23 4 24 1 25
REMARK SMILES IDX 2 26 3 27 98 28 97 29 26 30 27 31 28 32 29 33 30 34 31 35
REMARK SMILES IDX 32 36 33 37 34 38 35 39 96 40 36 41 95 42 37 43 38 44 39 45
REMARK SMILES IDX 89 46 40 47 94 48 88 49 90 50 41 51 93 52 87 53 86 54 42 56
REMARK SMILES IDX 74 57 54 58 73 59 55 60 58 61 72 62 91 63 56 64 57 65 71 67
REMARK SMILES IDX 92 68 59 69 43 70 44 71 52 72 45 73 46 74 50 75 53 76 47 77
REMARK SMILES IDX 48 78 51 79 49 80 75 81 76 82 84 83 77 84 78 85 82 86 85 87
REMARK SMILES IDX 79 88 80 89 83 90 81 91 60 92 61 93 69 94 62 95 63 96 67 97
REMARK SMILES IDX 70 98 64 99 65 100 68 101 66 102
REMARK H PARENT 13 19 5 22 90 55 58 66
REMARK Flexibility Score: inf
ROOT
ATOM      1  O   UNL A   1      37.143  23.494  25.002  1.00  0.00    -0.377 OA
ENDROOT
BRANCH   1   2
ATOM      2  C   UNL A   1      36.398  22.404  24.482  1.00  0.00     0.188 C 
BRANCH   2   3
ATOM      3  C   UNL A   1      34.935  22.596  24.017  1.00  0.00     0.188 C 
BRANCH   3   4
ATOM      4  O   UNL A   1      34.793  23.378  22.839  1.00  0.00    -0.376 OA
BRANCH   4   5
ATOM      5  C   UNL A   1      34.047  24.577  22.984  1.00  0.00     0.202 C 
BRANCH   5   6
ATOM      6  C   UNL A   1      33.184  24.888  21.758  1.00  0.00     0.261 C 
BRANCH   6   7
ATOM      7  O   UNL A   1      32.484  26.140  21.867  1.00  0.00    -0.462 OA
BRANCH   7   8
ATOM      8  C   UNL A   1      33.200  27.240  22.259  1.00  0.00     0.329 C 
ATOM      9  O   UNL A   1      34.011  27.818  21.553  1.00  0.00    -0.250 OA
BRANCH   8  10
ATOM     10  C   UNL A   1      32.701  27.671  23.658  1.00  0.00     0.203 C 
ATOM     11  N   UNL A   1      31.329  28.273  23.683  1.00  0.00    -0.304 N 
ATOM     12  C   UNL A   1      31.026  29.535  24.375  1.00  0.00     0.180 C 
ATOM     13  C   UNL A   1      32.058  29.839  25.396  1.00  0.00     0.081 A 
ATOM     14  C   UNL A   1      33.862  28.479  24.303  1.00  0.00     0.093 C 
ATOM     15  N   UNL A   1      31.882  30.615  26.508  1.00  0.00    -0.240 NA
ATOM     16  C   UNL A   1      33.338  29.355  25.355  1.00  0.00     0.042 A 
ATOM     17  C   UNL A   1      33.052  30.616  27.116  1.00  0.00     0.197 A 
ATOM     18  N   UNL A   1      33.976  29.859  26.446  1.00  0.00    -0.348 N 
ATOM     19  H   UNL A   1      34.915  29.707  26.703  1.00  0.00     0.167 HD
BRANCH  11  20
ATOM     20  C   UNL A   1      30.248  27.664  23.098  1.00  0.00     0.323 C 
ATOM     21  N   UNL A   1      30.040  26.329  23.270  1.00  0.00    -0.305 N 
ATOM     22  H   UNL A   1      29.726  25.835  22.478  1.00  0.00     0.171 HD
ATOM     23  O   UNL A   1      29.431  28.307  22.438  1.00  0.00    -0.248 OA
BRANCH  21  24
ATOM     24  C   UNL A   1      30.215  25.581  24.423  1.00  0.00     0.081 A 
ATOM     25  C   UNL A   1      31.058  22.563  26.208  1.00  0.00     0.173 C 
ATOM     26  N   UNL A   1      30.691  23.868  25.713  1.00  0.00    -0.274 N 
ATOM     27  C   UNL A   1      30.712  24.296  24.417  1.00  0.00     0.134 A 
ATOM     28  N   UNL A   1      30.249  24.802  26.573  1.00  0.00    -0.180 NA
ATOM     29  C   UNL A   1      29.903  25.820  25.780  1.00  0.00     0.161 A 
ENDBRANCH  21  24
ENDBRANCH  11  20
ENDBRANCH   8  10
ENDBRANCH   7   8
ENDBRANCH   6   7
ENDBRANCH   5   6
ENDBRANCH   4   5
ENDBRANCH   3   4
ENDBRANCH   2   3
ENDBRANCH   1   2
BRANCH   1  30
ATOM     30  C   UNL A   1      38.122  23.253  26.000  1.00  0.00     0.188 C 
BRANCH  30  31
ATOM     31  C   UNL A   1      38.854  21.889  26.091  1.00  0.00     0.188 C 
BRANCH  31  32
ATOM     32  O   UNL A   1      40.276  21.935  26.059  1.00  0.00    -0.376 OA
BRANCH  32  33
ATOM     33  C   UNL A   1      41.007  21.100  26.943  1.00  0.00     0.202 C 
BRANCH  33  34
ATOM     34  C   UNL A   1      41.784  19.984  26.248  1.00  0.00     0.261 C 
BRANCH  34  35
ATOM     35  O   UNL A   1      43.187  20.163  26.323  1.00  0.00    -0.460 OA
BRANCH  35  36
ATOM     36  C   UNL A   1      43.787  20.348  25.135  1.00  0.00     0.338 C 
ATOM     37  O   UNL A   1      43.994  19.519  24.268  1.00  0.00    -0.246 OA
BRANCH  36  38
ATOM     38  C   UNL A   1      44.266  21.726  25.071  1.00  0.00     0.060 A 
ATOM     39  C   UNL A   1      45.265  22.053  25.987  1.00  0.00     0.016 A 
ATOM     40  C   UNL A   1      43.466  22.687  24.437  1.00  0.00     0.016 A 
ATOM     41  C   UNL A   1      45.247  23.319  26.509  1.00  0.00     0.010 A 
ATOM     42  C   UNL A   1      43.433  23.944  24.975  1.00  0.00     0.010 A 
ATOM     43  C   UNL A   1      44.246  24.194  26.076  1.00  0.00    -0.014 A 
BRANCH  43  44
ATOM     44  C   UNL A   1      44.033  25.374  26.870  1.00  0.00     0.031 A 
ATOM     45  C   UNL A   1      45.079  26.396  26.717  1.00  0.00     0.074 A 
ATOM     46  C   UNL A   1      42.937  25.515  27.636  1.00  0.00     0.049 A 
ATOM     47  N   UNL A   1      45.890  26.840  27.615  1.00  0.00    -0.248 NA
ATOM     48  C   UNL A   1      45.328  26.894  25.358  1.00  0.00     0.031 C 
ATOM     49  C   UNL A   1      41.713  24.709  27.626  1.00  0.00     0.029 A 
ATOM     50  N   UNL A   1      42.657  26.502  28.523  1.00  0.00    -0.354 N 
ATOM     51  C   UNL A   1      46.649  27.808  26.973  1.00  0.00     0.074 A 
ATOM     52  C   UNL A   1      46.374  27.692  25.564  1.00  0.00     0.031 C 
ATOM     53  C   UNL A   1      40.749  25.373  28.304  1.00  0.00     0.029 A 
ATOM     54  C   UNL A   1      41.324  26.575  28.885  1.00  0.00     0.049 A 
ATOM     55  H   UNL A   1      43.342  27.114  28.877  1.00  0.00     0.167 HD
ATOM     56  C   UNL A   1      47.262  28.797  27.671  1.00  0.00     0.037 A 
ATOM     57  C   UNL A   1      40.737  27.612  29.528  1.00  0.00     0.037 A 
ATOM     58  C   UNL A   1      47.445  28.443  29.053  1.00  0.00     0.049 A 
ATOM     59  C   UNL A   1      41.813  28.416  30.167  1.00  0.00     0.074 A 
ATOM     60  C   UNL A   1      48.114  27.424  29.706  1.00  0.00     0.029 A 
ATOM     61  N   UNL A   1      46.602  28.992  29.987  1.00  0.00    -0.354 N 
ATOM     62  N   UNL A   1      42.524  28.019  31.186  1.00  0.00    -0.248 NA
ATOM     63  C   UNL A   1      42.385  29.517  29.404  1.00  0.00     0.031 C 
ATOM     64  C   UNL A   1      47.314  27.120  30.847  1.00  0.00     0.029 A 
ATOM     65  C   UNL A   1      46.219  27.984  30.835  1.00  0.00     0.049 A 
ATOM     66  H   UNL A   1      46.324  29.935  30.039  1.00  0.00     0.167 HD
ATOM     67  C   UNL A   1      43.795  28.523  30.952  1.00  0.00     0.074 A 
ATOM     68  C   UNL A   1      43.622  29.523  29.906  1.00  0.00     0.031 C 
ATOM     69  C   UNL A   1      44.905  27.884  31.425  1.00  0.00     0.037 A 
BRANCH  56  70
ATOM     70  C   UNL A   1      47.361  30.205  27.158  1.00  0.00     0.064 A 
ATOM     71  C   UNL A   1      48.608  30.851  27.161  1.00  0.00     0.173 A 
ATOM     72  C   UNL A   1      46.238  31.034  26.931  1.00  0.00     0.173 A 
ATOM     73  F   UNL A   1      49.733  30.163  27.404  1.00  0.00    -0.203 F 
ATOM     74  C   UNL A   1      48.716  32.235  27.001  1.00  0.00     0.198 A 
ATOM     75  C   UNL A   1      46.356  32.402  26.711  1.00  0.00     0.198 A 
ATOM     76  F   UNL A   1      44.983  30.577  27.027  1.00  0.00    -0.203 F 
ATOM     77  F   UNL A   1      49.911  32.826  27.131  1.00  0.00    -0.200 F 
ATOM     78  C   UNL A   1      47.590  33.008  26.777  1.00  0.00     0.200 A 
ATOM     79  F   UNL A   1      45.250  33.135  26.517  1.00  0.00    -0.200 F 
ATOM     80  F   UNL A   1      47.688  34.339  26.677  1.00  0.00    -0.200 F 
ENDBRANCH  56  70
BRANCH  57  81
ATOM     81  C   UNL A   1      39.358  28.119  29.352  1.00  0.00     0.064 A 
ATOM     82  C   UNL A   1      38.491  28.239  30.448  1.00  0.00     0.173 A 
ATOM     83  C   UNL A   1      38.945  28.740  28.156  1.00  0.00     0.173 A 
ATOM     84  F   UNL A   1      38.831  27.720  31.637  1.00  0.00    -0.203 F 
ATOM     85  C   UNL A   1      37.291  28.953  30.359  1.00  0.00     0.198 A 
ATOM     86  C   UNL A   1      37.742  29.439  28.064  1.00  0.00     0.198 A 
ATOM     87  F   UNL A   1      39.743  28.763  27.078  1.00  0.00    -0.203 F 
ATOM     88  F   UNL A   1      36.520  29.100  31.445  1.00  0.00    -0.200 F 
ATOM     89  C   UNL A   1      36.922  29.557  29.169  1.00  0.00     0.200 A 
ATOM     90  F   UNL A   1      37.415  30.048  26.915  1.00  0.00    -0.200 F 
ATOM     91  F   UNL A   1      35.801  30.288  29.098  1.00  0.00    -0.200 F 
ENDBRANCH  57  81
BRANCH  69  92
ATOM     92  C   UNL A   1      44.699  26.804  32.449  1.00  0.00     0.064 A 
ATOM     93  C   UNL A   1      44.471  25.455  32.125  1.00  0.00     0.173 A 
ATOM     94  C   UNL A   1      44.872  27.124  33.802  1.00  0.00     0.173 A 
ATOM     95  F   UNL A   1      44.404  25.055  30.849  1.00  0.00    -0.203 F 
ATOM     96  C   UNL A   1      44.364  24.483  33.119  1.00  0.00     0.198 A 
ATOM     97  C   UNL A   1      44.804  26.144  34.789  1.00  0.00     0.198 A 
ATOM     98  F   UNL A   1      45.154  28.385  34.165  1.00  0.00    -0.203 F 
ATOM     99  F   UNL A   1      44.127  23.206  32.786  1.00  0.00    -0.200 F 
ATOM    100  C   UNL A   1      44.537  24.829  34.449  1.00  0.00     0.200 A 
ATOM    101  F   UNL A   1      45.023  26.472  36.070  1.00  0.00    -0.200 F 
ATOM    102  F   UNL A   1      44.474  23.887  35.402  1.00  0.00    -0.200 F 
ENDBRANCH  69  92
ENDBRANCH  43  44
ENDBRANCH  36  38
ENDBRANCH  35  36
ENDBRANCH  34  35
ENDBRANCH  33  34
ENDBRANCH  32  33
ENDBRANCH  31  32
ENDBRANCH  30  31
ENDBRANCH   1  30
TORSDOF 22
ENDMDL
MODEL 2
REMARK VINA RESULT:     -11.1      1.279      2.311
REMARK SMILES Cn1cc(NC(=O)N2Cc3nc[nH]c3C[C@@H]2C(=O)OCCOCCOCCOCCOC(=O)c2ccc(-c3c4nc(c(-c5c(F)c(F)c(F)c(F)c5F)c5ccc([nH]5)c(-c5c(F)c(F)c(F)c(F)c5F)c5nc(c(-c6c(F)c(F)c(F)c(F)c6F)c6ccc3[nH]6)C=C5)C=C4)cc2)cn1
REMARK SMILES IDX 25 1 24 2 23 3 22 4 21 5 20 6 19 7 17 8 18 9 16 10 8 11 9 12
REMARK SMILES IDX 10 13 15 14 11 15 14 16 12 17 13 18 6 20 5 21 7 23 4 24 1 25
REMARK SMILES IDX 2 26 3 27 98 28 97 29 26 30 27 31 28 32 29 33 30 34 31 35
REMARK SMILES IDX 32 36 33 37 34 38 35 39 96 40 36 41 95 42 37 43 38 44 39 45
REMARK SMILES IDX 89 46 40 47 94 48 88 49 90 50 41 51 93 52 87 53 86 54 42 56
REMARK SMILES IDX 74 57 54 58 73 59 55 60 58 61 72 62 91 63 56 64 57 65 71 67
REMARK SMILES IDX 92 68 59 69 43 70 44 71 52 72 45 73 46 74 50 75 53 76 47 77
REMARK SMILES IDX 48 78 51 79 49 80 75 81 76 82 84 83 77 84 78 85 82 86 85 87
REMARK SMILES IDX 79 88 80 89 83 90 81 91 60 92 61 93 69 94 62 95 63 96 67 97
REMARK SMILES IDX 70 98 64 99 65 100 68 101 66 102
REMARK H PARENT 13 19 5 22 90 55 58 66
REMARK Flexibility Score: inf
ROOT
ATOM      1  O   UNL A   1      37.843  22.254  26.135  1.00  0.00    -0.377 OA
ENDROOT
BRANCH   1   2
ATOM      2  C   UNL A   1      36.571  22.544  25.577  1.00  0.00     0.188 C 
BRANCH   2   3
ATOM      3  C   UNL A   1      35.326  21.715  25.973  1.00  0.00     0.188 C 
BRANCH   3   4
ATOM      4  O   UNL A   1      34.479  22.349  26.922  1.00  0.00    -0.376 OA
BRANCH   4   5
ATOM      5  C   UNL A   1      33.119  22.483  26.537  1.00  0.00     0.202 C 
BRANCH   5   6
ATOM      6  C   UNL A   1      32.939  22.548  25.018  1.00  0.00     0.261 C 
BRANCH   6   7
ATOM      7  O   UNL A   1      32.502  23.840  24.560  1.00  0.00    -0.462 OA
BRANCH   7   8
ATOM      8  C   UNL A   1      33.457  24.797  24.340  1.00  0.00     0.329 C 
ATOM      9  O   UNL A   1      34.547  24.575  23.836  1.00  0.00    -0.250 OA
BRANCH   8  10
ATOM     10  C   UNL A   1      32.859  26.174  24.709  1.00  0.00     0.203 C 
ATOM     11  N   UNL A   1      33.103  27.259  23.704  1.00  0.00    -0.304 N 
ATOM     12  C   UNL A   1      33.614  28.588  24.076  1.00  0.00     0.180 C 
ATOM     13  C   UNL A   1      33.380  28.860  25.515  1.00  0.00     0.081 A 
ATOM     14  C   UNL A   1      33.268  26.443  26.185  1.00  0.00     0.093 C 
ATOM     15  N   UNL A   1      33.275  30.095  26.092  1.00  0.00    -0.240 NA
ATOM     16  C   UNL A   1      33.224  27.882  26.461  1.00  0.00     0.042 A 
ATOM     17  C   UNL A   1      33.081  29.862  27.374  1.00  0.00     0.197 A 
ATOM     18  N   UNL A   1      33.044  28.520  27.649  1.00  0.00    -0.348 N 
ATOM     19  H   UNL A   1      32.910  28.100  28.531  1.00  0.00     0.167 HD
BRANCH  11  20
ATOM     20  C   UNL A   1      32.824  27.103  22.370  1.00  0.00     0.323 C 
ATOM     21  N   UNL A   1      31.534  27.117  21.936  1.00  0.00    -0.305 N 
ATOM     22  H   UNL A   1      31.308  26.466  21.232  1.00  0.00     0.171 HD
ATOM     23  O   UNL A   1      33.724  26.979  21.539  1.00  0.00    -0.248 OA
BRANCH  21  24
ATOM     24  C   UNL A   1      30.501  27.936  22.361  1.00  0.00     0.081 A 
ATOM     25  C   UNL A   1      28.950  31.147  22.902  1.00  0.00     0.173 C 
ATOM     26  N   UNL A   1      29.363  29.770  22.772  1.00  0.00    -0.274 N 
ATOM     27  C   UNL A   1      30.504  29.303  22.185  1.00  0.00     0.134 A 
ATOM     28  N   UNL A   1      28.594  28.797  23.287  1.00  0.00    -0.180 NA
ATOM     29  C   UNL A   1      29.316  27.689  23.091  1.00  0.00     0.161 A 
ENDBRANCH  21  24
ENDBRANCH  11  20
ENDBRANCH   8  10
ENDBRANCH   7   8
ENDBRANCH   6   7
ENDBRANCH   5   6
ENDBRANCH   4   5
ENDBRANCH   3   4
ENDBRANCH   2   3
ENDBRANCH   1   2
BRANCH   1  30
ATOM     30  C   UNL A   1      38.757  21.453  25.401  1.00  0.00     0.188 C 
BRANCH  30  31
ATOM     31  C   UNL A   1      38.647  19.907  25.403  1.00  0.00     0.188 C 
BRANCH  31  32
ATOM     32  O   UNL A   1      39.849  19.191  25.671  1.00  0.00    -0.376 OA
BRANCH  32  33
ATOM     33  C   UNL A   1      40.813  19.775  26.533  1.00  0.00     0.202 C 
BRANCH  33  34
ATOM     34  C   UNL A   1      42.258  19.435  26.172  1.00  0.00     0.261 C 
BRANCH  34  35
ATOM     35  O   UNL A   1      42.786  20.279  25.166  1.00  0.00    -0.460 OA
BRANCH  35  36
ATOM     36  C   UNL A   1      44.128  20.290  25.099  1.00  0.00     0.338 C 
ATOM     37  O   UNL A   1      44.885  19.340  25.175  1.00  0.00    -0.246 OA
BRANCH  36  38
ATOM     38  C   UNL A   1      44.574  21.678  25.020  1.00  0.00     0.060 A 
ATOM     39  C   UNL A   1      45.584  22.032  25.913  1.00  0.00     0.016 A 
ATOM     40  C   UNL A   1      43.738  22.617  24.400  1.00  0.00     0.016 A 
ATOM     41  C   UNL A   1      45.547  23.299  26.431  1.00  0.00     0.010 A 
ATOM     42  C   UNL A   1      43.686  23.875  24.934  1.00  0.00     0.010 A 
ATOM     43  C   UNL A   1      44.517  24.149  26.017  1.00  0.00    -0.014 A 
BRANCH  43  44
ATOM     44  C   UNL A   1      44.293  25.327  26.812  1.00  0.00     0.031 A 
ATOM     45  C   UNL A   1      45.328  26.359  26.656  1.00  0.00     0.074 A 
ATOM     46  C   UNL A   1      43.197  25.456  27.579  1.00  0.00     0.049 A 
ATOM     47  N   UNL A   1      46.136  26.812  27.553  1.00  0.00    -0.248 NA
ATOM     48  C   UNL A   1      45.569  26.861  25.296  1.00  0.00     0.031 C 
ATOM     49  C   UNL A   1      41.981  24.638  27.573  1.00  0.00     0.029 A 
ATOM     50  N   UNL A   1      42.908  26.441  28.467  1.00  0.00    -0.354 N 
ATOM     51  C   UNL A   1      46.883  27.788  26.908  1.00  0.00     0.074 A 
ATOM     52  C   UNL A   1      46.606  27.670  25.500  1.00  0.00     0.031 C 
ATOM     53  C   UNL A   1      41.011  25.291  28.252  1.00  0.00     0.029 A 
ATOM     54  C   UNL A   1      41.575  26.499  28.832  1.00  0.00     0.049 A 
ATOM     55  H   UNL A   1      43.587  27.060  28.820  1.00  0.00     0.167 HD
ATOM     56  C   UNL A   1      47.487  28.783  27.605  1.00  0.00     0.037 A 
ATOM     57  C   UNL A   1      40.979  27.530  29.476  1.00  0.00     0.037 A 
ATOM     58  C   UNL A   1      47.677  28.432  28.987  1.00  0.00     0.049 A 
ATOM     59  C   UNL A   1      42.048  28.345  30.113  1.00  0.00     0.074 A 
ATOM     60  C   UNL A   1      48.357  27.420  29.639  1.00  0.00     0.029 A 
ATOM     61  N   UNL A   1      46.830  28.972  29.923  1.00  0.00    -0.354 N 
ATOM     62  N   UNL A   1      42.765  27.956  31.131  1.00  0.00    -0.248 NA
ATOM     63  C   UNL A   1      42.606  29.452  29.349  1.00  0.00     0.031 C 
ATOM     64  C   UNL A   1      47.564  27.107  30.781  1.00  0.00     0.029 A 
ATOM     65  C   UNL A   1      46.459  27.959  30.772  1.00  0.00     0.049 A 
ATOM     66  H   UNL A   1      46.542  29.912  29.975  1.00  0.00     0.167 HD
ATOM     67  C   UNL A   1      44.030  28.473  30.894  1.00  0.00     0.074 A 
ATOM     68  C   UNL A   1      43.845  29.472  29.848  1.00  0.00     0.031 C 
ATOM     69  C   UNL A   1      45.147  27.846  31.365  1.00  0.00     0.037 A 
BRANCH  56  70
ATOM     70  C   UNL A   1      47.571  30.192  27.093  1.00  0.00     0.064 A 
ATOM     71  C   UNL A   1      48.785  30.890  27.193  1.00  0.00     0.173 A 
ATOM     72  C   UNL A   1      46.437  30.973  26.767  1.00  0.00     0.173 A 
ATOM     73  F   UNL A   1      49.914  30.250  27.534  1.00  0.00    -0.203 F 
ATOM     74  C   UNL A   1      48.849  32.277  27.033  1.00  0.00     0.198 A 
ATOM     75  C   UNL A   1      46.516  32.344  26.548  1.00  0.00     0.198 A 
ATOM     76  F   UNL A   1      45.198  30.465  26.762  1.00  0.00    -0.203 F 
ATOM     77  F   UNL A   1      50.003  32.918  27.258  1.00  0.00    -0.200 F 
ATOM     78  C   UNL A   1      47.715  33.001  26.711  1.00  0.00     0.200 A 
ATOM     79  F   UNL A   1      45.400  33.029  26.257  1.00  0.00    -0.200 F 
ATOM     80  F   UNL A   1      47.765  34.335  26.609  1.00  0.00    -0.200 F 
ENDBRANCH  56  70
BRANCH  57  81
ATOM     81  C   UNL A   1      39.594  28.023  29.304  1.00  0.00     0.064 A 
ATOM     82  C   UNL A   1      38.718  28.102  30.396  1.00  0.00     0.173 A 
ATOM     83  C   UNL A   1      39.181  28.669  28.121  1.00  0.00     0.173 A 
ATOM     84  F   UNL A   1      39.057  27.557  31.574  1.00  0.00    -0.203 F 
ATOM     85  C   UNL A   1      37.509  28.802  30.316  1.00  0.00     0.198 A 
ATOM     86  C   UNL A   1      37.970  29.353  28.038  1.00  0.00     0.198 A 
ATOM     87  F   UNL A   1      39.986  28.731  27.049  1.00  0.00    -0.203 F 
ATOM     88  F   UNL A   1      36.728  28.910  31.400  1.00  0.00    -0.200 F 
ATOM     89  C   UNL A   1      37.140  29.432  29.140  1.00  0.00     0.200 A 
ATOM     90  F   UNL A   1      37.642  29.987  26.902  1.00  0.00    -0.200 F 
ATOM     91  F   UNL A   1      36.009  30.148  29.079  1.00  0.00    -0.200 F 
ENDBRANCH  57  81
BRANCH  69  92
ATOM     92  C   UNL A   1      44.956  26.764  32.389  1.00  0.00     0.064 A 
ATOM     93  C   UNL A   1      44.861  27.006  33.770  1.00  0.00     0.173 A 
ATOM     94  C   UNL A   1      44.728  25.455  31.944  1.00  0.00     0.173 A 
ATOM     95  F   UNL A   1      44.958  28.248  34.260  1.00  0.00    -0.203 F 
ATOM     96  C   UNL A   1      44.606  25.970  34.668  1.00  0.00     0.198 A 
ATOM     97  C   UNL A   1      44.434  24.430  32.840  1.00  0.00     0.198 A 
ATOM     98  F   UNL A   1      44.744  25.177  30.631  1.00  0.00    -0.203 F 
ATOM     99  F   UNL A   1      44.538  26.222  35.983  1.00  0.00    -0.200 F 
ATOM    100  C   UNL A   1      44.387  24.685  34.200  1.00  0.00     0.200 A 
ATOM    101  F   UNL A   1      44.171  23.198  32.381  1.00  0.00    -0.200 F 
ATOM    102  F   UNL A   1      44.102  23.696  35.060  1.00  0.00    -0.200 F 
ENDBRANCH  69  92
ENDBRANCH  43  44
ENDBRANCH  36  38
ENDBRANCH  35  36
ENDBRANCH  34  35
ENDBRANCH  33  34
ENDBRANCH  32  33
ENDBRANCH  31  32
ENDBRANCH  30  31
ENDBRANCH   1  30
TORSDOF 22
ENDMDL
MODEL 3
REMARK VINA RESULT:     -10.6      4.354      9.874
REMARK SMILES Cn1cc(NC(=O)N2Cc3nc[nH]c3C[C@@H]2C(=O)OCCOCCOCCOCCOC(=O)c2ccc(-c3c4nc(c(-c5c(F)c(F)c(F)c(F)c5F)c5ccc([nH]5)c(-c5c(F)c(F)c(F)c(F)c5F)c5nc(c(-c6c(F)c(F)c(F)c(F)c6F)c6ccc3[nH]6)C=C5)C=C4)cc2)cn1
REMARK SMILES IDX 25 1 24 2 23 3 22 4 21 5 20 6 19 7 17 8 18 9 16 10 8 11 9 12
REMARK SMILES IDX 10 13 15 14 11 15 14 16 12 17 13 18 6 20 5 21 7 23 4 24 1 25
REMARK SMILES IDX 2 26 3 27 98 28 97 29 26 30 27 31 28 32 29 33 30 34 31 35
REMARK SMILES IDX 32 36 33 37 34 38 35 39 96 40 36 41 95 42 37 43 38 44 39 45
REMARK SMILES IDX 89 46 40 47 94 48 88 49 90 50 41 51 93 52 87 53 86 54 42 56
REMARK SMILES IDX 74 57 54 58 73 59 55 60 58 61 72 62 91 63 56 64 57 65 71 67
REMARK SMILES IDX 92 68 59 69 43 70 44 71 52 72 45 73 46 74 50 75 53 76 47 77
REMARK SMILES IDX 48 78 51 79 49 80 75 81 76 82 84 83 77 84 78 85 82 86 85 87
REMARK SMILES IDX 79 88 80 89 83 90 81 91 60 92 61 93 69 94 62 95 63 96 67 97
REMARK SMILES IDX 70 98 64 99 65 100 68 101 66 102
REMARK H PARENT 13 19 5 22 90 55 58 66
REMARK Flexibility Score: inf
ROOT
ATOM      1  O   UNL A   1      32.371  29.322  27.467  1.00  0.00    -0.377 OA
ENDROOT
BRANCH   1   2
ATOM      2  C   UNL A   1      32.637  28.061  26.874  1.00  0.00     0.188 C 
BRANCH   2   3
ATOM      3  C   UNL A   1      31.528  27.295  26.114  1.00  0.00     0.188 C 
BRANCH   3   4
ATOM      4  O   UNL A   1      30.903  26.267  26.871  1.00  0.00    -0.376 OA
BRANCH   4   5
ATOM      5  C   UNL A   1      30.639  25.062  26.168  1.00  0.00     0.202 C 
BRANCH   5   6
ATOM      6  C   UNL A   1      31.635  23.951  26.507  1.00  0.00     0.261 C 
BRANCH   6   7
ATOM      7  O   UNL A   1      31.200  22.653  26.063  1.00  0.00    -0.462 OA
BRANCH   7   8
ATOM      8  C   UNL A   1      31.800  22.124  24.951  1.00  0.00     0.329 C 
ATOM      9  O   UNL A   1      31.777  22.644  23.846  1.00  0.00    -0.250 OA
BRANCH   8  10
ATOM     10  C   UNL A   1      32.593  20.867  25.378  1.00  0.00     0.203 C 
ATOM     11  N   UNL A   1      34.063  21.085  25.579  1.00  0.00    -0.304 N 
ATOM     12  C   UNL A   1      35.085  20.207  24.989  1.00  0.00     0.180 C 
ATOM     13  C   UNL A   1      34.507  18.889  24.632  1.00  0.00     0.081 A 
ATOM     14  C   UNL A   1      32.151  19.727  24.418  1.00  0.00     0.093 C 
ATOM     15  N   UNL A   1      35.197  17.713  24.522  1.00  0.00    -0.240 NA
ATOM     16  C   UNL A   1      33.178  18.682  24.376  1.00  0.00     0.042 A 
ATOM     17  C   UNL A   1      34.295  16.815  24.181  1.00  0.00     0.197 A 
ATOM     18  N   UNL A   1      33.043  17.362  24.079  1.00  0.00    -0.348 N 
ATOM     19  H   UNL A   1      32.211  16.892  23.839  1.00  0.00     0.167 HD
BRANCH  11  20
ATOM     20  C   UNL A   1      34.556  22.095  26.365  1.00  0.00     0.323 C 
ATOM     21  N   UNL A   1      35.178  23.163  25.794  1.00  0.00    -0.305 N 
ATOM     22  H   UNL A   1      35.976  23.500  26.263  1.00  0.00     0.171 HD
ATOM     23  O   UNL A   1      34.424  22.075  27.590  1.00  0.00    -0.248 OA
BRANCH  21  24
ATOM     24  C   UNL A   1      34.825  23.835  24.635  1.00  0.00     0.081 A 
ATOM     25  C   UNL A   1      33.329  26.573  22.828  1.00  0.00     0.173 C 
ATOM     26  N   UNL A   1      33.991  25.394  23.333  1.00  0.00    -0.274 N 
ATOM     27  C   UNL A   1      34.240  25.082  24.638  1.00  0.00     0.134 A 
ATOM     28  N   UNL A   1      34.409  24.451  22.472  1.00  0.00    -0.180 NA
ATOM     29  C   UNL A   1      34.861  23.477  23.268  1.00  0.00     0.161 A 
ENDBRANCH  21  24
ENDBRANCH  11  20
ENDBRANCH   8  10
ENDBRANCH   7   8
ENDBRANCH   6   7
ENDBRANCH   5   6
ENDBRANCH   4   5
ENDBRANCH   3   4
ENDBRANCH   2   3
ENDBRANCH   1   2
BRANCH   1  30
ATOM     30  C   UNL A   1      33.043  30.474  26.980  1.00  0.00     0.188 C 
BRANCH  30  31
ATOM     31  C   UNL A   1      34.074  31.230  27.858  1.00  0.00     0.188 C 
BRANCH  31  32
ATOM     32  O   UNL A   1      34.600  32.435  27.313  1.00  0.00    -0.376 OA
BRANCH  32  33
ATOM     33  C   UNL A   1      34.913  33.503  28.194  1.00  0.00     0.202 C 
BRANCH  33  34
ATOM     34  C   UNL A   1      33.774  33.890  29.135  1.00  0.00     0.261 C 
BRANCH  34  35
ATOM     35  O   UNL A   1      34.099  34.985  29.970  1.00  0.00    -0.460 OA
BRANCH  35  36
ATOM     36  C   UNL A   1      33.608  34.897  31.218  1.00  0.00     0.338 C 
ATOM     37  O   UNL A   1      32.555  35.341  31.637  1.00  0.00    -0.246 OA
BRANCH  36  38
ATOM     38  C   UNL A   1      34.609  34.251  32.062  1.00  0.00     0.060 A 
ATOM     39  C   UNL A   1      35.774  34.987  32.277  1.00  0.00     0.016 A 
ATOM     40  C   UNL A   1      34.537  32.863  32.247  1.00  0.00     0.016 A 
ATOM     41  C   UNL A   1      36.949  34.290  32.366  1.00  0.00     0.010 A 
ATOM     42  C   UNL A   1      35.713  32.167  32.312  1.00  0.00     0.010 A 
ATOM     43  C   UNL A   1      36.896  32.897  32.254  1.00  0.00    -0.014 A 
BRANCH  43  44
ATOM     44  C   UNL A   1      38.143  32.222  32.006  1.00  0.00     0.031 A 
ATOM     45  C   UNL A   1      39.009  32.110  33.188  1.00  0.00     0.074 A 
ATOM     46  C   UNL A   1      38.433  31.709  30.797  1.00  0.00     0.049 A 
ATOM     47  N   UNL A   1      40.178  32.625  33.365  1.00  0.00    -0.248 NA
ATOM     48  C   UNL A   1      38.444  31.439  34.366  1.00  0.00     0.031 C 
ATOM     49  C   UNL A   1      37.533  31.502  29.659  1.00  0.00     0.029 A 
ATOM     50  N   UNL A   1      39.600  31.160  30.379  1.00  0.00    -0.354 N 
ATOM     51  C   UNL A   1      40.575  32.199  34.624  1.00  0.00     0.074 A 
ATOM     52  C   UNL A   1      39.422  31.610  35.253  1.00  0.00     0.031 C 
ATOM     53  C   UNL A   1      38.135  30.677  28.772  1.00  0.00     0.029 A 
ATOM     54  C   UNL A   1      39.489  30.405  29.226  1.00  0.00     0.049 A 
ATOM     55  H   UNL A   1      40.453  31.287  30.856  1.00  0.00     0.167 HD
ATOM     56  C   UNL A   1      41.888  32.140  34.963  1.00  0.00     0.037 A 
ATOM     57  C   UNL A   1      40.421  29.543  28.756  1.00  0.00     0.037 A 
ATOM     58  C   UNL A   1      42.696  32.988  34.128  1.00  0.00     0.049 A 
ATOM     59  C   UNL A   1      41.717  29.881  29.400  1.00  0.00     0.074 A 
ATOM     60  C   UNL A   1      42.716  34.346  33.868  1.00  0.00     0.029 A 
ATOM     61  N   UNL A   1      43.443  32.408  33.133  1.00  0.00    -0.354 N 
ATOM     62  N   UNL A   1      42.405  30.961  29.152  1.00  0.00    -0.248 NA
ATOM     63  C   UNL A   1      42.057  29.202  30.644  1.00  0.00     0.031 C 
ATOM     64  C   UNL A   1      43.079  34.461  32.495  1.00  0.00     0.029 A 
ATOM     65  C   UNL A   1      43.281  33.171  32.003  1.00  0.00     0.049 A 
ATOM     66  H   UNL A   1      43.993  31.596  33.215  1.00  0.00     0.167 HD
ATOM     67  C   UNL A   1      42.955  31.322  30.374  1.00  0.00     0.074 A 
ATOM     68  C   UNL A   1      42.799  30.148  31.224  1.00  0.00     0.031 C 
ATOM     69  C   UNL A   1      43.226  32.627  30.667  1.00  0.00     0.037 A 
BRANCH  56  70
ATOM     70  C   UNL A   1      42.453  31.040  35.815  1.00  0.00     0.064 A 
ATOM     71  C   UNL A   1      43.269  31.369  36.911  1.00  0.00     0.173 A 
ATOM     72  C   UNL A   1      42.456  29.679  35.433  1.00  0.00     0.173 A 
ATOM     73  F   UNL A   1      43.367  32.639  37.330  1.00  0.00    -0.203 F 
ATOM     74  C   UNL A   1      44.069  30.413  37.542  1.00  0.00     0.198 A 
ATOM     75  C   UNL A   1      43.207  28.719  36.103  1.00  0.00     0.198 A 
ATOM     76  F   UNL A   1      41.827  29.245  34.334  1.00  0.00    -0.203 F 
ATOM     77  F   UNL A   1      44.922  30.792  38.501  1.00  0.00    -0.200 F 
ATOM     78  C   UNL A   1      44.037  29.090  37.137  1.00  0.00     0.200 A 
ATOM     79  F   UNL A   1      43.177  27.446  35.681  1.00  0.00    -0.200 F 
ATOM     80  F   UNL A   1      44.842  28.185  37.706  1.00  0.00    -0.200 F 
ENDBRANCH  56  70
BRANCH  57  81
ATOM     81  C   UNL A   1      40.192  28.266  28.043  1.00  0.00     0.064 A 
ATOM     82  C   UNL A   1      40.842  27.992  26.831  1.00  0.00     0.173 A 
ATOM     83  C   UNL A   1      39.535  27.182  28.661  1.00  0.00     0.173 A 
ATOM     84  F   UNL A   1      41.533  28.955  26.203  1.00  0.00    -0.203 F 
ATOM     85  C   UNL A   1      40.852  26.706  26.279  1.00  0.00     0.198 A 
ATOM     86  C   UNL A   1      39.532  25.905  28.102  1.00  0.00     0.198 A 
ATOM     87  F   UNL A   1      38.962  27.317  29.866  1.00  0.00    -0.203 F 
ATOM     88  F   UNL A   1      41.538  26.469  25.153  1.00  0.00    -0.200 F 
ATOM     89  C   UNL A   1      40.203  25.664  26.919  1.00  0.00     0.200 A 
ATOM     90  F   UNL A   1      38.929  24.898  28.751  1.00  0.00    -0.200 F 
ATOM     91  F   UNL A   1      40.257  24.422  26.419  1.00  0.00    -0.200 F 
ENDBRANCH  57  81
BRANCH  69  92
ATOM     92  C   UNL A   1      43.198  33.612  29.533  1.00  0.00     0.064 A 
ATOM     93  C   UNL A   1      44.271  33.812  28.647  1.00  0.00     0.173 A 
ATOM     94  C   UNL A   1      41.997  34.280  29.256  1.00  0.00     0.173 A 
ATOM     95  F   UNL A   1      45.413  33.127  28.782  1.00  0.00    -0.203 F 
ATOM     96  C   UNL A   1      44.160  34.685  27.565  1.00  0.00     0.198 A 
ATOM     97  C   UNL A   1      41.877  35.120  28.153  1.00  0.00     0.198 A 
ATOM     98  F   UNL A   1      40.921  34.079  30.033  1.00  0.00    -0.203 F 
ATOM     99  F   UNL A   1      45.203  34.873  26.744  1.00  0.00    -0.200 F 
ATOM    100  C   UNL A   1      42.961  35.333  27.317  1.00  0.00     0.200 A 
ATOM    101  F   UNL A   1      40.701  35.705  27.885  1.00  0.00    -0.200 F 
ATOM    102  F   UNL A   1      42.842  36.142  26.254  1.00  0.00    -0.200 F 
ENDBRANCH  69  92
ENDBRANCH  43  44
ENDBRANCH  36  38
ENDBRANCH  35  36
ENDBRANCH  34  35
ENDBRANCH  33  34
ENDBRANCH  32  33
ENDBRANCH  31  32
ENDBRANCH  30  31
ENDBRANCH   1  30
TORSDOF 22
ENDMDL
