MODEL 1
REMARK VINA RESULT:     -10.8      0.000      0.000
REMARK SMILES O=C(Cc1cccn1-c1ccccc1F)OCCOCCOCCOCCOC(=O)c1ccc(-c2c3nc(c(-c4c(F)c(F)c(F)c(F)c4F)c4ccc([nH]4)c(-c4c(F)c(F)c(F)c(F)c4F)c4nc(c(-c5c(F)c(F)c(F)c(F)c5F)c5ccc2[nH]5)C=C4)C=C3)cc1
REMARK SMILES IDX 22 1 21 2 20 3 19 4 18 5 17 6 16 7 2 8 1 9 3 10 4 11 5 12
REMARK SMILES IDX 8 13 6 14 7 15 9 16 10 17 14 18 11 19 13 20 15 21 12 22
REMARK SMILES IDX 23 23 24 24 25 25 26 26 27 27 28 28 29 29 30 30 31 31 32 32
REMARK SMILES IDX 93 33 33 34 92 35 34 36 35 37 36 38 86 39 37 40 91 41 85 42
REMARK SMILES IDX 87 43 38 44 90 45 84 46 83 47 39 49 71 50 51 51 70 52 52 53
REMARK SMILES IDX 55 54 69 55 88 56 53 57 54 58 68 60 89 61 56 62 40 63 41 64
REMARK SMILES IDX 49 65 42 66 43 67 47 68 50 69 44 70 45 71 48 72 46 73 72 74
REMARK SMILES IDX 73 75 81 76 74 77 75 78 79 79 82 80 76 81 77 82 80 83 78 84
REMARK SMILES IDX 57 85 58 86 66 87 59 88 60 89 64 90 67 91 61 92 62 93 65 94
REMARK SMILES IDX 63 95
REMARK H PARENT 87 48 55 59
REMARK Flexibility Score: inf
ROOT
ATOM      1  O   UNL A   1      34.388  25.681  23.905  1.00  0.00    -0.377 OA
ENDROOT
BRANCH   1   2
ATOM      2  C   UNL A   1      33.119  25.861  23.277  1.00  0.00     0.188 C 
BRANCH   2   3
ATOM      3  C   UNL A   1      32.258  26.993  23.872  1.00  0.00     0.188 C 
BRANCH   3   4
ATOM      4  O   UNL A   1      32.399  27.128  25.277  1.00  0.00    -0.376 OA
BRANCH   4   5
ATOM      5  C   UNL A   1      31.887  26.155  26.164  1.00  0.00     0.202 C 
BRANCH   5   6
ATOM      6  C   UNL A   1      30.404  25.816  26.091  1.00  0.00     0.261 C 
BRANCH   6   7
ATOM      7  O   UNL A   1      30.074  24.470  25.698  1.00  0.00    -0.463 OA
BRANCH   7   8
ATOM      8  C   UNL A   1      30.129  23.340  26.431  1.00  0.00     0.311 C 
ATOM      9  O   UNL A   1      29.594  23.318  27.541  1.00  0.00    -0.252 OA
BRANCH   8  10
ATOM     10  C   UNL A   1      30.952  22.167  25.964  1.00  0.00     0.177 C 
BRANCH  10  11
ATOM     11  C   UNL A   1      32.331  22.043  26.528  1.00  0.00     0.034 A 
ATOM     12  C   UNL A   1      32.916  22.905  27.440  1.00  0.00     0.024 A 
ATOM     13  N   UNL A   1      33.278  21.089  26.171  1.00  0.00    -0.318 N 
ATOM     14  C   UNL A   1      34.254  22.504  27.614  1.00  0.00     0.020 A 
ATOM     15  C   UNL A   1      34.461  21.415  26.797  1.00  0.00     0.091 A 
BRANCH  13  16
ATOM     16  C   UNL A   1      33.120  20.076  25.201  1.00  0.00     0.081 A 
ATOM     17  C   UNL A   1      32.877  18.763  25.613  1.00  0.00     0.030 A 
ATOM     18  C   UNL A   1      32.960  20.436  23.858  1.00  0.00     0.147 A 
ATOM     19  C   UNL A   1      32.434  17.826  24.677  1.00  0.00     0.002 A 
ATOM     20  C   UNL A   1      32.457  19.515  22.945  1.00  0.00     0.041 A 
ATOM     21  F   UNL A   1      33.137  21.703  23.455  1.00  0.00    -0.205 F 
ATOM     22  C   UNL A   1      32.191  18.209  23.354  1.00  0.00     0.003 A 
ENDBRANCH  13  16
ENDBRANCH  10  11
ENDBRANCH   8  10
ENDBRANCH   7   8
ENDBRANCH   6   7
ENDBRANCH   5   6
ENDBRANCH   4   5
ENDBRANCH   3   4
ENDBRANCH   2   3
ENDBRANCH   1   2
BRANCH   1  23
ATOM     23  C   UNL A   1      34.709  24.338  24.223  1.00  0.00     0.188 C 
BRANCH  23  24
ATOM     24  C   UNL A   1      36.040  24.105  24.980  1.00  0.00     0.188 C 
BRANCH  24  25
ATOM     25  O   UNL A   1      36.924  23.002  24.790  1.00  0.00    -0.376 OA
BRANCH  25  26
ATOM     26  C   UNL A   1      37.902  22.602  25.737  1.00  0.00     0.202 C 
BRANCH  26  27
ATOM     27  C   UNL A   1      38.627  21.265  25.578  1.00  0.00     0.261 C 
BRANCH  27  28
ATOM     28  O   UNL A   1      39.678  21.110  26.503  1.00  0.00    -0.460 OA
BRANCH  28  29
ATOM     29  C   UNL A   1      40.438  20.058  26.199  1.00  0.00     0.338 C 
ATOM     30  O   UNL A   1      40.080  18.962  25.745  1.00  0.00    -0.246 OA
BRANCH  29  31
ATOM     31  C   UNL A   1      41.823  20.362  26.548  1.00  0.00     0.060 A 
ATOM     32  C   UNL A   1      41.934  20.803  27.870  1.00  0.00     0.016 A 
ATOM     33  C   UNL A   1      42.489  20.962  25.475  1.00  0.00     0.016 A 
ATOM     34  C   UNL A   1      42.301  22.104  28.045  1.00  0.00     0.010 A 
ATOM     35  C   UNL A   1      42.811  22.279  25.632  1.00  0.00     0.010 A 
ATOM     36  C   UNL A   1      42.648  22.838  26.907  1.00  0.00    -0.014 A 
BRANCH  36  37
ATOM     37  C   UNL A   1      43.083  24.199  27.132  1.00  0.00     0.031 A 
ATOM     38  C   UNL A   1      41.816  25.059  27.369  1.00  0.00     0.074 A 
ATOM     39  C   UNL A   1      44.439  24.358  27.031  1.00  0.00     0.049 A 
ATOM     40  N   UNL A   1      41.658  26.342  27.349  1.00  0.00    -0.248 NA
ATOM     41  C   UNL A   1      40.503  24.384  27.648  1.00  0.00     0.031 C 
ATOM     42  C   UNL A   1      45.445  23.284  26.787  1.00  0.00     0.029 A 
ATOM     43  N   UNL A   1      45.257  25.456  27.087  1.00  0.00    -0.354 N 
ATOM     44  C   UNL A   1      40.354  26.623  27.809  1.00  0.00     0.074 A 
ATOM     45  C   UNL A   1      39.660  25.382  27.902  1.00  0.00     0.031 C 
ATOM     46  C   UNL A   1      46.682  23.804  26.604  1.00  0.00     0.029 A 
ATOM     47  C   UNL A   1      46.617  25.245  26.730  1.00  0.00     0.049 A 
ATOM     48  H   UNL A   1      44.921  26.341  27.358  1.00  0.00     0.167 HD
ATOM     49  C   UNL A   1      39.953  27.872  28.170  1.00  0.00     0.037 A 
ATOM     50  C   UNL A   1      47.572  26.201  26.490  1.00  0.00     0.037 A 
ATOM     51  C   UNL A   1      40.969  28.817  27.860  1.00  0.00     0.049 A 
ATOM     52  C   UNL A   1      46.889  27.455  26.845  1.00  0.00     0.074 A 
ATOM     53  C   UNL A   1      41.333  29.336  26.645  1.00  0.00     0.029 A 
ATOM     54  N   UNL A   1      42.016  28.945  28.740  1.00  0.00    -0.354 N 
ATOM     55  N   UNL A   1      46.566  27.802  28.055  1.00  0.00    -0.248 NA
ATOM     56  C   UNL A   1      46.363  28.288  25.758  1.00  0.00     0.031 C 
ATOM     57  C   UNL A   1      42.740  29.275  26.685  1.00  0.00     0.029 A 
ATOM     58  C   UNL A   1      43.171  29.016  27.991  1.00  0.00     0.049 A 
ATOM     59  H   UNL A   1      41.953  28.981  29.722  1.00  0.00     0.167 HD
ATOM     60  C   UNL A   1      45.538  28.690  27.845  1.00  0.00     0.074 A 
ATOM     61  C   UNL A   1      45.663  29.156  26.480  1.00  0.00     0.031 C 
ATOM     62  C   UNL A   1      44.417  28.635  28.611  1.00  0.00     0.037 A 
BRANCH  49  63
ATOM     63  C   UNL A   1      38.737  28.348  28.890  1.00  0.00     0.064 A 
ATOM     64  C   UNL A   1      38.478  28.047  30.233  1.00  0.00     0.173 A 
ATOM     65  C   UNL A   1      37.993  29.407  28.322  1.00  0.00     0.173 A 
ATOM     66  F   UNL A   1      39.143  27.066  30.859  1.00  0.00    -0.203 F 
ATOM     67  C   UNL A   1      37.592  28.821  30.987  1.00  0.00     0.198 A 
ATOM     68  C   UNL A   1      37.143  30.201  29.085  1.00  0.00     0.198 A 
ATOM     69  F   UNL A   1      38.137  29.728  27.026  1.00  0.00    -0.203 F 
ATOM     70  F   UNL A   1      37.406  28.543  32.285  1.00  0.00    -0.200 F 
ATOM     71  C   UNL A   1      36.957  29.918  30.424  1.00  0.00     0.200 A 
ATOM     72  F   UNL A   1      36.557  31.272  28.532  1.00  0.00    -0.200 F 
ATOM     73  F   UNL A   1      36.190  30.718  31.178  1.00  0.00    -0.200 F 
ENDBRANCH  49  63
BRANCH  50  74
ATOM     74  C   UNL A   1      48.940  26.329  25.852  1.00  0.00     0.064 A 
ATOM     75  C   UNL A   1      50.100  26.304  26.682  1.00  0.00     0.173 A 
ATOM     76  C   UNL A   1      49.210  26.607  24.508  1.00  0.00     0.173 A 
ATOM     77  F   UNL A   1      50.046  25.877  27.951  1.00  0.00    -0.203 F 
ATOM     78  C   UNL A   1      51.359  26.737  26.266  1.00  0.00     0.198 A 
ATOM     79  C   UNL A   1      50.499  26.979  24.069  1.00  0.00     0.198 A 
ATOM     80  F   UNL A   1      48.249  26.524  23.582  1.00  0.00    -0.203 F 
ATOM     81  F   UNL A   1      52.359  26.827  27.156  1.00  0.00    -0.200 F 
ATOM     82  C   UNL A   1      51.556  27.098  24.957  1.00  0.00     0.200 A 
ATOM     83  F   UNL A   1      50.711  27.252  22.774  1.00  0.00    -0.200 F 
ATOM     84  F   UNL A   1      52.754  27.546  24.556  1.00  0.00    -0.200 F 
ENDBRANCH  50  74
BRANCH  62  85
ATOM     85  C   UNL A   1      44.578  27.879  29.921  1.00  0.00     0.064 A 
ATOM     86  C   UNL A   1      44.065  26.593  30.175  1.00  0.00     0.173 A 
ATOM     87  C   UNL A   1      45.364  28.425  30.945  1.00  0.00     0.173 A 
ATOM     88  F   UNL A   1      43.285  25.981  29.290  1.00  0.00    -0.203 F 
ATOM     89  C   UNL A   1      44.318  25.892  31.356  1.00  0.00     0.198 A 
ATOM     90  C   UNL A   1      45.621  27.728  32.132  1.00  0.00     0.198 A 
ATOM     91  F   UNL A   1      45.883  29.654  30.802  1.00  0.00    -0.203 F 
ATOM     92  F   UNL A   1      43.788  24.672  31.542  1.00  0.00    -0.200 F 
ATOM     93  C   UNL A   1      45.099  26.462  32.338  1.00  0.00     0.200 A 
ATOM     94  F   UNL A   1      46.369  28.297  33.088  1.00  0.00    -0.200 F 
ATOM     95  F   UNL A   1      45.328  25.807  33.484  1.00  0.00    -0.200 F 
ENDBRANCH  62  85
ENDBRANCH  36  37
ENDBRANCH  29  31
ENDBRANCH  28  29
ENDBRANCH  27  28
ENDBRANCH  26  27
ENDBRANCH  25  26
ENDBRANCH  24  25
ENDBRANCH  23  24
ENDBRANCH   1  23
TORSDOF 22
ENDMDL
MODEL 2
REMARK VINA RESULT:     -10.7      1.689      3.503
REMARK SMILES O=C(Cc1cccn1-c1ccccc1F)OCCOCCOCCOCCOC(=O)c1ccc(-c2c3nc(c(-c4c(F)c(F)c(F)c(F)c4F)c4ccc([nH]4)c(-c4c(F)c(F)c(F)c(F)c4F)c4nc(c(-c5c(F)c(F)c(F)c(F)c5F)c5ccc2[nH]5)C=C4)C=C3)cc1
REMARK SMILES IDX 22 1 21 2 20 3 19 4 18 5 17 6 16 7 2 8 1 9 3 10 4 11 5 12
REMARK SMILES IDX 8 13 6 14 7 15 9 16 10 17 14 18 11 19 13 20 15 21 12 22
REMARK SMILES IDX 23 23 24 24 25 25 26 26 27 27 28 28 29 29 30 30 31 31 32 32
REMARK SMILES IDX 93 33 33 34 92 35 34 36 35 37 36 38 86 39 37 40 91 41 85 42
REMARK SMILES IDX 87 43 38 44 90 45 84 46 83 47 39 49 71 50 51 51 70 52 52 53
REMARK SMILES IDX 55 54 69 55 88 56 53 57 54 58 68 60 89 61 56 62 40 63 41 64
REMARK SMILES IDX 49 65 42 66 43 67 47 68 50 69 44 70 45 71 48 72 46 73 72 74
REMARK SMILES IDX 73 75 81 76 74 77 75 78 79 79 82 80 76 81 77 82 80 83 78 84
REMARK SMILES IDX 57 85 58 86 66 87 59 88 60 89 64 90 67 91 61 92 62 93 65 94
REMARK SMILES IDX 63 95
REMARK H PARENT 87 48 55 59
REMARK Flexibility Score: inf
ROOT
ATOM      1  O   UNL A   1      33.980  22.714  24.768  1.00  0.00    -0.377 OA
ENDROOT
BRANCH   1   2
ATOM      2  C   UNL A   1      34.470  23.329  23.578  1.00  0.00     0.188 C 
BRANCH   2   3
ATOM      3  C   UNL A   1      33.613  23.079  22.321  1.00  0.00     0.188 C 
BRANCH   3   4
ATOM      4  O   UNL A   1      33.211  24.272  21.667  1.00  0.00    -0.376 OA
BRANCH   4   5
ATOM      5  C   UNL A   1      32.135  25.049  22.151  1.00  0.00     0.202 C 
BRANCH   5   6
ATOM      6  C   UNL A   1      31.784  26.337  21.418  1.00  0.00     0.261 C 
BRANCH   6   7
ATOM      7  O   UNL A   1      31.684  27.525  22.226  1.00  0.00    -0.463 OA
BRANCH   7   8
ATOM      8  C   UNL A   1      30.590  28.261  22.511  1.00  0.00     0.311 C 
ATOM      9  O   UNL A   1      30.169  29.060  21.672  1.00  0.00    -0.252 OA
BRANCH   8  10
ATOM     10  C   UNL A   1      29.975  28.212  23.886  1.00  0.00     0.177 C 
BRANCH  10  11
ATOM     11  C   UNL A   1      30.356  27.056  24.754  1.00  0.00     0.034 A 
ATOM     12  C   UNL A   1      29.693  25.843  24.828  1.00  0.00     0.024 A 
ATOM     13  N   UNL A   1      31.390  27.038  25.685  1.00  0.00    -0.318 N 
ATOM     14  C   UNL A   1      30.298  25.085  25.848  1.00  0.00     0.020 A 
ATOM     15  C   UNL A   1      31.308  25.854  26.382  1.00  0.00     0.091 A 
BRANCH  13  16
ATOM     16  C   UNL A   1      32.255  28.109  25.993  1.00  0.00     0.081 A 
ATOM     17  C   UNL A   1      31.757  29.218  26.681  1.00  0.00     0.030 A 
ATOM     18  C   UNL A   1      33.635  27.939  25.834  1.00  0.00     0.147 A 
ATOM     19  C   UNL A   1      32.651  30.132  27.241  1.00  0.00     0.002 A 
ATOM     20  C   UNL A   1      34.522  28.817  26.448  1.00  0.00     0.041 A 
ATOM     21  F   UNL A   1      34.133  26.854  25.224  1.00  0.00    -0.205 F 
ATOM     22  C   UNL A   1      34.030  29.915  27.155  1.00  0.00     0.003 A 
ENDBRANCH  13  16
ENDBRANCH  10  11
ENDBRANCH   8  10
ENDBRANCH   7   8
ENDBRANCH   6   7
ENDBRANCH   5   6
ENDBRANCH   4   5
ENDBRANCH   3   4
ENDBRANCH   2   3
ENDBRANCH   1   2
BRANCH   1  23
ATOM     23  C   UNL A   1      34.399  21.373  24.960  1.00  0.00     0.188 C 
BRANCH  23  24
ATOM     24  C   UNL A   1      35.905  21.153  25.251  1.00  0.00     0.188 C 
BRANCH  24  25
ATOM     25  O   UNL A   1      36.913  22.162  25.225  1.00  0.00    -0.376 OA
BRANCH  25  26
ATOM     26  C   UNL A   1      37.994  22.221  26.142  1.00  0.00     0.202 C 
BRANCH  26  27
ATOM     27  C   UNL A   1      39.366  21.675  25.751  1.00  0.00     0.261 C 
BRANCH  27  28
ATOM     28  O   UNL A   1      39.976  20.954  26.796  1.00  0.00    -0.460 OA
BRANCH  28  29
ATOM     29  C   UNL A   1      40.815  20.032  26.322  1.00  0.00     0.338 C 
ATOM     30  O   UNL A   1      40.540  18.996  25.701  1.00  0.00    -0.246 OA
BRANCH  29  31
ATOM     31  C   UNL A   1      42.177  20.394  26.705  1.00  0.00     0.060 A 
ATOM     32  C   UNL A   1      42.231  20.871  28.019  1.00  0.00     0.016 A 
ATOM     33  C   UNL A   1      42.854  20.992  25.639  1.00  0.00     0.016 A 
ATOM     34  C   UNL A   1      42.545  22.187  28.172  1.00  0.00     0.010 A 
ATOM     35  C   UNL A   1      43.125  22.323  25.772  1.00  0.00     0.010 A 
ATOM     36  C   UNL A   1      42.902  22.906  27.026  1.00  0.00    -0.014 A 
BRANCH  36  37
ATOM     37  C   UNL A   1      43.281  24.287  27.230  1.00  0.00     0.031 A 
ATOM     38  C   UNL A   1      41.981  25.097  27.463  1.00  0.00     0.074 A 
ATOM     39  C   UNL A   1      44.629  24.500  27.120  1.00  0.00     0.049 A 
ATOM     40  N   UNL A   1      41.770  26.372  27.426  1.00  0.00    -0.248 NA
ATOM     41  C   UNL A   1      40.698  24.372  27.758  1.00  0.00     0.031 C 
ATOM     42  C   UNL A   1      45.677  23.466  26.885  1.00  0.00     0.029 A 
ATOM     43  N   UNL A   1      45.401  25.632  27.157  1.00  0.00    -0.354 N 
ATOM     44  C   UNL A   1      40.458  26.605  27.889  1.00  0.00     0.074 A 
ATOM     45  C   UNL A   1      39.816  25.339  28.003  1.00  0.00     0.031 C 
ATOM     46  C   UNL A   1      46.891  24.034  26.688  1.00  0.00     0.029 A 
ATOM     47  C   UNL A   1      46.767  25.473  26.795  1.00  0.00     0.049 A 
ATOM     48  H   UNL A   1      45.030  26.506  27.417  1.00  0.00     0.167 HD
ATOM     49  C   UNL A   1      40.007  27.842  28.235  1.00  0.00     0.037 A 
ATOM     50  C   UNL A   1      47.680  26.464  26.536  1.00  0.00     0.037 A 
ATOM     51  C   UNL A   1      40.982  28.824  27.906  1.00  0.00     0.049 A 
ATOM     52  C   UNL A   1      46.947  27.694  26.878  1.00  0.00     0.074 A 
ATOM     53  C   UNL A   1      41.318  29.340  26.682  1.00  0.00     0.029 A 
ATOM     54  N   UNL A   1      42.026  29.008  28.779  1.00  0.00    -0.354 N 
ATOM     55  N   UNL A   1      46.616  28.044  28.084  1.00  0.00    -0.248 NA
ATOM     56  C   UNL A   1      46.382  28.488  25.783  1.00  0.00     0.031 C 
ATOM     57  C   UNL A   1      42.726  29.338  26.715  1.00  0.00     0.029 A 
ATOM     58  C   UNL A   1      43.174  29.116  28.022  1.00  0.00     0.049 A 
ATOM     59  H   UNL A   1      41.967  29.054  29.760  1.00  0.00     0.167 HD
ATOM     60  C   UNL A   1      45.551  28.885  27.869  1.00  0.00     0.074 A 
ATOM     61  C   UNL A   1      45.651  29.337  26.496  1.00  0.00     0.031 C 
ATOM     62  C   UNL A   1      44.437  28.795  28.641  1.00  0.00     0.037 A 
BRANCH  49  63
ATOM     63  C   UNL A   1      38.775  28.277  28.955  1.00  0.00     0.064 A 
ATOM     64  C   UNL A   1      38.520  27.956  30.293  1.00  0.00     0.173 A 
ATOM     65  C   UNL A   1      38.005  29.322  28.394  1.00  0.00     0.173 A 
ATOM     66  F   UNL A   1      39.210  26.987  30.912  1.00  0.00    -0.203 F 
ATOM     67  C   UNL A   1      37.610  28.698  31.052  1.00  0.00     0.198 A 
ATOM     68  C   UNL A   1      37.131  30.084  29.162  1.00  0.00     0.198 A 
ATOM     69  F   UNL A   1      38.145  29.659  27.103  1.00  0.00    -0.203 F 
ATOM     70  F   UNL A   1      37.427  28.402  32.346  1.00  0.00    -0.200 F 
ATOM     71  C   UNL A   1      36.948  29.783  30.498  1.00  0.00     0.200 A 
ATOM     72  F   UNL A   1      36.517  31.144  28.618  1.00  0.00    -0.200 F 
ATOM     73  F   UNL A   1      36.157  30.554  31.256  1.00  0.00    -0.200 F 
ENDBRANCH  49  63
BRANCH  50  74
ATOM     74  C   UNL A   1      49.039  26.639  25.889  1.00  0.00     0.064 A 
ATOM     75  C   UNL A   1      50.130  27.110  26.679  1.00  0.00     0.173 A 
ATOM     76  C   UNL A   1      49.336  26.513  24.528  1.00  0.00     0.173 A 
ATOM     77  F   UNL A   1      50.077  27.115  28.018  1.00  0.00    -0.203 F 
ATOM     78  C   UNL A   1      51.312  27.618  26.141  1.00  0.00     0.198 A 
ATOM     79  C   UNL A   1      50.560  26.963  23.988  1.00  0.00     0.198 A 
ATOM     80  F   UNL A   1      48.465  25.950  23.683  1.00  0.00    -0.203 F 
ATOM     81  F   UNL A   1      52.222  28.183  26.949  1.00  0.00    -0.200 F 
ATOM     82  C   UNL A   1      51.520  27.566  24.786  1.00  0.00     0.200 A 
ATOM     83  F   UNL A   1      50.798  26.837  22.676  1.00  0.00    -0.200 F 
ATOM     84  F   UNL A   1      52.638  28.081  24.257  1.00  0.00    -0.200 F 
ENDBRANCH  50  74
BRANCH  62  85
ATOM     85  C   UNL A   1      44.636  28.064  29.960  1.00  0.00     0.064 A 
ATOM     86  C   UNL A   1      44.140  26.779  30.250  1.00  0.00     0.173 A 
ATOM     87  C   UNL A   1      45.441  28.636  30.955  1.00  0.00     0.173 A 
ATOM     88  F   UNL A   1      43.345  26.145  29.395  1.00  0.00    -0.203 F 
ATOM     89  C   UNL A   1      44.428  26.103  31.437  1.00  0.00     0.198 A 
ATOM     90  C   UNL A   1      45.733  27.963  32.148  1.00  0.00     0.198 A 
ATOM     91  F   UNL A   1      45.946  29.866  30.778  1.00  0.00    -0.203 F 
ATOM     92  F   UNL A   1      43.913  24.882  31.658  1.00  0.00    -0.200 F 
ATOM     93  C   UNL A   1      45.227  26.697  32.390  1.00  0.00     0.200 A 
ATOM     94  F   UNL A   1      46.498  28.556  33.076  1.00  0.00    -0.200 F 
ATOM     95  F   UNL A   1      45.489  26.065  33.542  1.00  0.00    -0.200 F 
ENDBRANCH  62  85
ENDBRANCH  36  37
ENDBRANCH  29  31
ENDBRANCH  28  29
ENDBRANCH  27  28
ENDBRANCH  26  27
ENDBRANCH  25  26
ENDBRANCH  24  25
ENDBRANCH  23  24
ENDBRANCH   1  23
TORSDOF 22
ENDMDL
MODEL 3
REMARK VINA RESULT:     -10.3      1.839      3.642
REMARK SMILES O=C(Cc1cccn1-c1ccccc1F)OCCOCCOCCOCCOC(=O)c1ccc(-c2c3nc(c(-c4c(F)c(F)c(F)c(F)c4F)c4ccc([nH]4)c(-c4c(F)c(F)c(F)c(F)c4F)c4nc(c(-c5c(F)c(F)c(F)c(F)c5F)c5ccc2[nH]5)C=C4)C=C3)cc1
REMARK SMILES IDX 22 1 21 2 20 3 19 4 18 5 17 6 16 7 2 8 1 9 3 10 4 11 5 12
REMARK SMILES IDX 8 13 6 14 7 15 9 16 10 17 14 18 11 19 13 20 15 21 12 22
REMARK SMILES IDX 23 23 24 24 25 25 26 26 27 27 28 28 29 29 30 30 31 31 32 32
REMARK SMILES IDX 93 33 33 34 92 35 34 36 35 37 36 38 86 39 37 40 91 41 85 42
REMARK SMILES IDX 87 43 38 44 90 45 84 46 83 47 39 49 71 50 51 51 70 52 52 53
REMARK SMILES IDX 55 54 69 55 88 56 53 57 54 58 68 60 89 61 56 62 40 63 41 64
REMARK SMILES IDX 49 65 42 66 43 67 47 68 50 69 44 70 45 71 48 72 46 73 72 74
REMARK SMILES IDX 73 75 81 76 74 77 75 78 79 79 82 80 76 81 77 82 80 83 78 84
REMARK SMILES IDX 57 85 58 86 66 87 59 88 60 89 64 90 67 91 61 92 62 93 65 94
REMARK SMILES IDX 63 95
REMARK H PARENT 87 48 55 59
REMARK Flexibility Score: inf
ROOT
ATOM      1  O   UNL A   1      33.346  22.816  23.845  1.00  0.00    -0.377 OA
ENDROOT
BRANCH   1   2
ATOM      2  C   UNL A   1      33.340  22.946  22.423  1.00  0.00     0.188 C 
BRANCH   2   3
ATOM      3  C   UNL A   1      32.992  24.355  21.904  1.00  0.00     0.188 C 
BRANCH   3   4
ATOM      4  O   UNL A   1      33.981  25.326  22.208  1.00  0.00    -0.376 OA
BRANCH   4   5
ATOM      5  C   UNL A   1      34.017  25.972  23.464  1.00  0.00     0.202 C 
BRANCH   5   6
ATOM      6  C   UNL A   1      33.730  27.467  23.519  1.00  0.00     0.261 C 
BRANCH   6   7
ATOM      7  O   UNL A   1      33.603  28.045  24.832  1.00  0.00    -0.463 OA
BRANCH   7   8
ATOM      8  C   UNL A   1      32.606  28.809  25.324  1.00  0.00     0.311 C 
ATOM      9  O   UNL A   1      32.764  30.029  25.392  1.00  0.00    -0.252 OA
BRANCH   8  10
ATOM     10  C   UNL A   1      31.375  28.170  25.912  1.00  0.00     0.177 C 
BRANCH  10  11
ATOM     11  C   UNL A   1      30.827  26.977  25.197  1.00  0.00     0.034 A 
ATOM     12  C   UNL A   1      31.144  25.655  25.461  1.00  0.00     0.024 A 
ATOM     13  N   UNL A   1      29.972  27.002  24.100  1.00  0.00    -0.318 N 
ATOM     14  C   UNL A   1      30.512  24.859  24.488  1.00  0.00     0.020 A 
ATOM     15  C   UNL A   1      29.832  25.710  23.645  1.00  0.00     0.091 A 
BRANCH  13  16
ATOM     16  C   UNL A   1      29.478  28.154  23.451  1.00  0.00     0.081 A 
ATOM     17  C   UNL A   1      30.355  28.956  22.716  1.00  0.00     0.030 A 
ATOM     18  C   UNL A   1      28.095  28.336  23.343  1.00  0.00     0.147 A 
ATOM     19  C   UNL A   1      29.834  29.914  21.844  1.00  0.00     0.002 A 
ATOM     20  C   UNL A   1      27.581  29.247  22.425  1.00  0.00     0.041 A 
ATOM     21  F   UNL A   1      27.238  27.541  23.999  1.00  0.00    -0.205 F 
ATOM     22  C   UNL A   1      28.451  30.036  21.672  1.00  0.00     0.003 A 
ENDBRANCH  13  16
ENDBRANCH  10  11
ENDBRANCH   8  10
ENDBRANCH   7   8
ENDBRANCH   6   7
ENDBRANCH   5   6
ENDBRANCH   4   5
ENDBRANCH   3   4
ENDBRANCH   2   3
ENDBRANCH   1   2
BRANCH   1  23
ATOM     23  C   UNL A   1      33.612  21.508  24.321  1.00  0.00     0.188 C 
BRANCH  23  24
ATOM     24  C   UNL A   1      35.098  21.156  24.583  1.00  0.00     0.188 C 
BRANCH  24  25
ATOM     25  O   UNL A   1      36.161  22.095  24.735  1.00  0.00    -0.376 OA
BRANCH  25  26
ATOM     26  C   UNL A   1      37.117  22.043  25.783  1.00  0.00     0.202 C 
BRANCH  26  27
ATOM     27  C   UNL A   1      38.583  21.746  25.474  1.00  0.00     0.261 C 
BRANCH  27  28
ATOM     28  O   UNL A   1      39.257  21.168  26.569  1.00  0.00    -0.460 OA
BRANCH  28  29
ATOM     29  C   UNL A   1      40.029  20.153  26.180  1.00  0.00     0.338 C 
ATOM     30  O   UNL A   1      39.692  19.122  25.582  1.00  0.00    -0.246 OA
BRANCH  29  31
ATOM     31  C   UNL A   1      41.396  20.402  26.629  1.00  0.00     0.060 A 
ATOM     32  C   UNL A   1      41.428  20.839  27.957  1.00  0.00     0.016 A 
ATOM     33  C   UNL A   1      42.161  20.977  25.609  1.00  0.00     0.016 A 
ATOM     34  C   UNL A   1      41.830  22.124  28.162  1.00  0.00     0.010 A 
ATOM     35  C   UNL A   1      42.522  22.280  25.793  1.00  0.00     0.010 A 
ATOM     36  C   UNL A   1      42.288  22.845  27.054  1.00  0.00    -0.014 A 
BRANCH  36  37
ATOM     37  C   UNL A   1      42.758  24.188  27.314  1.00  0.00     0.031 A 
ATOM     38  C   UNL A   1      41.514  25.073  27.580  1.00  0.00     0.074 A 
ATOM     39  C   UNL A   1      44.117  24.315  27.213  1.00  0.00     0.049 A 
ATOM     40  N   UNL A   1      41.389  26.359  27.595  1.00  0.00    -0.248 NA
ATOM     41  C   UNL A   1      40.185  24.423  27.844  1.00  0.00     0.031 C 
ATOM     42  C   UNL A   1      45.095  23.223  26.936  1.00  0.00     0.029 A 
ATOM     43  N   UNL A   1      44.963  25.390  27.296  1.00  0.00    -0.354 N 
ATOM     44  C   UNL A   1      40.094  26.660  28.067  1.00  0.00     0.074 A 
ATOM     45  C   UNL A   1      39.368  25.436  28.129  1.00  0.00     0.031 C 
ATOM     46  C   UNL A   1      46.344  23.716  26.763  1.00  0.00     0.029 A 
ATOM     47  C   UNL A   1      46.317  25.155  26.928  1.00  0.00     0.049 A 
ATOM     48  H   UNL A   1      44.650  26.276  27.592  1.00  0.00     0.167 HD
ATOM     49  C   UNL A   1      39.725  27.909  28.463  1.00  0.00     0.037 A 
ATOM     50  C   UNL A   1      47.294  26.092  26.710  1.00  0.00     0.037 A 
ATOM     51  C   UNL A   1      40.764  28.836  28.175  1.00  0.00     0.049 A 
ATOM     52  C   UNL A   1      46.644  27.353  27.102  1.00  0.00     0.074 A 
ATOM     53  C   UNL A   1      41.137  29.378  26.973  1.00  0.00     0.029 A 
ATOM     54  N   UNL A   1      41.816  28.914  29.055  1.00  0.00    -0.354 N 
ATOM     55  N   UNL A   1      46.333  27.676  28.321  1.00  0.00    -0.248 NA
ATOM     56  C   UNL A   1      46.136  28.228  26.040  1.00  0.00     0.031 C 
ATOM     57  C   UNL A   1      42.542  29.281  27.006  1.00  0.00     0.029 A 
ATOM     58  C   UNL A   1      42.970  28.976  28.303  1.00  0.00     0.049 A 
ATOM     59  H   UNL A   1      41.758  28.925  30.037  1.00  0.00     0.167 HD
ATOM     60  C   UNL A   1      45.328  28.594  28.140  1.00  0.00     0.074 A 
ATOM     61  C   UNL A   1      45.461  29.094  26.787  1.00  0.00     0.031 C 
ATOM     62  C   UNL A   1      44.208  28.547  28.908  1.00  0.00     0.037 A 
BRANCH  49  63
ATOM     63  C   UNL A   1      38.523  28.396  29.200  1.00  0.00     0.064 A 
ATOM     64  C   UNL A   1      38.342  28.205  30.575  1.00  0.00     0.173 A 
ATOM     65  C   UNL A   1      37.706  29.369  28.581  1.00  0.00     0.173 A 
ATOM     66  F   UNL A   1      39.081  27.312  31.249  1.00  0.00    -0.203 F 
ATOM     67  C   UNL A   1      37.458  29.005  31.304  1.00  0.00     0.198 A 
ATOM     68  C   UNL A   1      36.858  30.191  29.315  1.00  0.00     0.198 A 
ATOM     69  F   UNL A   1      37.774  29.579  27.257  1.00  0.00    -0.203 F 
ATOM     70  F   UNL A   1      37.346  28.836  32.629  1.00  0.00    -0.200 F 
ATOM     71  C   UNL A   1      36.747  30.020  30.681  1.00  0.00     0.200 A 
ATOM     72  F   UNL A   1      36.197  31.183  28.702  1.00  0.00    -0.200 F 
ATOM     73  F   UNL A   1      35.981  30.852  31.401  1.00  0.00    -0.200 F 
ENDBRANCH  49  63
BRANCH  50  74
ATOM     74  C   UNL A   1      48.663  26.203  26.071  1.00  0.00     0.064 A 
ATOM     75  C   UNL A   1      49.811  26.349  26.906  1.00  0.00     0.173 A 
ATOM     76  C   UNL A   1      48.938  26.312  24.704  1.00  0.00     0.173 A 
ATOM     77  F   UNL A   1      49.760  26.092  28.220  1.00  0.00    -0.203 F 
ATOM     78  C   UNL A   1      51.053  26.785  26.445  1.00  0.00     0.198 A 
ATOM     79  C   UNL A   1      50.214  26.687  24.228  1.00  0.00     0.198 A 
ATOM     80  F   UNL A   1      47.995  26.057  23.790  1.00  0.00    -0.203 F 
ATOM     81  F   UNL A   1      52.035  27.043  27.321  1.00  0.00    -0.200 F 
ATOM     82  C   UNL A   1      51.251  26.977  25.101  1.00  0.00     0.200 A 
ATOM     83  F   UNL A   1      50.430  26.794  22.910  1.00  0.00    -0.200 F 
ATOM     84  F   UNL A   1      52.430  27.427  24.652  1.00  0.00    -0.200 F 
ENDBRANCH  50  74
BRANCH  62  85
ATOM     85  C   UNL A   1      44.354  27.752  30.197  1.00  0.00     0.064 A 
ATOM     86  C   UNL A   1      43.958  26.411  30.362  1.00  0.00     0.173 A 
ATOM     87  C   UNL A   1      45.007  28.326  31.295  1.00  0.00     0.173 A 
ATOM     88  F   UNL A   1      43.308  25.766  29.400  1.00  0.00    -0.203 F 
ATOM     89  C   UNL A   1      44.199  25.686  31.532  1.00  0.00     0.198 A 
ATOM     90  C   UNL A   1      45.251  27.605  32.471  1.00  0.00     0.198 A 
ATOM     91  F   UNL A   1      45.407  29.605  31.239  1.00  0.00    -0.203 F 
ATOM     92  F   UNL A   1      43.784  24.412  31.631  1.00  0.00    -0.200 F 
ATOM     93  C   UNL A   1      44.847  26.285  32.590  1.00  0.00     0.200 A 
ATOM     94  F   UNL A   1      45.868  28.201  33.501  1.00  0.00    -0.200 F 
ATOM     95  F   UNL A   1      45.062  25.604  33.724  1.00  0.00    -0.200 F 
ENDBRANCH  62  85
ENDBRANCH  36  37
ENDBRANCH  29  31
ENDBRANCH  28  29
ENDBRANCH  27  28
ENDBRANCH  26  27
ENDBRANCH  25  26
ENDBRANCH  24  25
ENDBRANCH  23  24
ENDBRANCH   1  23
TORSDOF 22
ENDMDL
