MODEL 1
REMARK VINA RESULT:     -10.5      0.000      0.000
REMARK SMILES Cc1ccc(C(=O)[C@@H](C)[C@H](C)C(=O)OCCOCCOCCOCCOC(=O)c2ccc(-c3c4nc(c(-c5c(F)c(F)c(F)c(F)c5F)c5ccc([nH]5)c(-c5c(F)c(F)c(F)c(F)c5F)c5nc(c(-c6c(F)c(F)c(F)c(F)c6F)c6ccc3[nH]6)C=C5)C=C4)cc2)cc1
REMARK SMILES IDX 19 1 18 2 17 3 16 4 15 5 14 6 12 7 13 8 10 9 11 10 8 11 9 12
REMARK SMILES IDX 6 13 7 14 5 15 1 16 2 17 3 18 93 19 4 20 92 21 20 22 21 23
REMARK SMILES IDX 22 24 23 25 24 26 25 27 26 28 27 29 28 30 29 31 30 32 91 33
REMARK SMILES IDX 31 34 90 35 32 36 33 37 34 38 84 39 35 40 89 41 83 42 85 43
REMARK SMILES IDX 36 44 88 45 82 46 81 47 37 49 69 50 49 51 68 52 50 53 53 54
REMARK SMILES IDX 67 55 86 56 51 57 52 58 66 60 87 61 54 62 38 63 39 64 47 65
REMARK SMILES IDX 40 66 41 67 45 68 48 69 42 70 43 71 46 72 44 73 70 74 71 75
REMARK SMILES IDX 79 76 72 77 73 78 77 79 80 80 74 81 75 82 78 83 76 84 55 85
REMARK SMILES IDX 56 86 64 87 57 88 58 89 62 90 65 91 59 92 60 93 63 94 61 95
REMARK H PARENT 85 48 53 59
REMARK Flexibility Score: inf
ROOT
ATOM      1  C   UNL A   1      34.633  21.465  26.589  1.00  0.00     0.188 C 
ENDROOT
BRANCH   1   2
ATOM      2  C   UNL A   1      33.841  22.779  26.624  1.00  0.00     0.188 C 
BRANCH   2   3
ATOM      3  O   UNL A   1      33.502  23.394  25.391  1.00  0.00    -0.376 OA
BRANCH   3   4
ATOM      4  C   UNL A   1      34.535  24.170  24.788  1.00  0.00     0.202 C 
BRANCH   4   5
ATOM      5  C   UNL A   1      34.728  23.997  23.282  1.00  0.00     0.261 C 
BRANCH   5   6
ATOM      6  O   UNL A   1      33.439  23.926  22.617  1.00  0.00    -0.463 OA
BRANCH   6   7
ATOM      7  C   UNL A   1      32.894  25.133  22.299  1.00  0.00     0.309 C 
ATOM      8  O   UNL A   1      33.359  25.895  21.477  1.00  0.00    -0.252 OA
BRANCH   7   9
ATOM      9  C   UNL A   1      31.582  25.428  23.048  1.00  0.00     0.106 C 
ATOM     10  C   UNL A   1      30.675  24.216  23.156  1.00  0.00     0.021 C 
BRANCH   9  11
ATOM     11  C   UNL A   1      31.695  26.301  24.321  1.00  0.00     0.072 C 
ATOM     12  C   UNL A   1      30.869  25.854  25.518  1.00  0.00     0.017 C 
BRANCH  11  13
ATOM     13  C   UNL A   1      31.866  27.838  24.172  1.00  0.00     0.166 C 
ATOM     14  O   UNL A   1      31.551  28.357  23.095  1.00  0.00    -0.294 OA
BRANCH  13  15
ATOM     15  C   UNL A   1      32.419  28.772  25.210  1.00  0.00     0.018 A 
ATOM     16  C   UNL A   1      33.921  31.675  28.100  1.00  0.00     0.044 C 
ATOM     17  C   UNL A   1      33.388  30.703  27.081  1.00  0.00    -0.051 A 
ATOM     18  C   UNL A   1      32.134  30.859  26.510  1.00  0.00     0.004 A 
ATOM     19  C   UNL A   1      34.128  29.588  26.681  1.00  0.00     0.004 A 
ATOM     20  C   UNL A   1      31.671  29.917  25.570  1.00  0.00     0.012 A 
ATOM     21  C   UNL A   1      33.648  28.602  25.811  1.00  0.00     0.012 A 
ENDBRANCH  13  15
ENDBRANCH  11  13
ENDBRANCH   9  11
ENDBRANCH   7   9
ENDBRANCH   6   7
ENDBRANCH   5   6
ENDBRANCH   4   5
ENDBRANCH   3   4
ENDBRANCH   2   3
ENDBRANCH   1   2
BRANCH   1  22
ATOM     22  O   UNL A   1      34.889  20.879  25.322  1.00  0.00    -0.377 OA
BRANCH  22  23
ATOM     23  C   UNL A   1      36.232  20.531  25.002  1.00  0.00     0.188 C 
BRANCH  23  24
ATOM     24  C   UNL A   1      37.165  21.557  24.402  1.00  0.00     0.188 C 
BRANCH  24  25
ATOM     25  O   UNL A   1      38.086  21.917  25.430  1.00  0.00    -0.376 OA
BRANCH  25  26
ATOM     26  C   UNL A   1      39.002  20.900  25.806  1.00  0.00     0.202 C 
BRANCH  26  27
ATOM     27  C   UNL A   1      40.388  21.454  26.144  1.00  0.00     0.261 C 
BRANCH  27  28
ATOM     28  O   UNL A   1      40.315  22.894  26.180  1.00  0.00    -0.460 OA
BRANCH  28  29
ATOM     29  C   UNL A   1      40.633  23.460  27.369  1.00  0.00     0.338 C 
ATOM     30  O   UNL A   1      41.087  22.853  28.342  1.00  0.00    -0.246 OA
BRANCH  29  31
ATOM     31  C   UNL A   1      40.089  24.843  27.452  1.00  0.00     0.060 A 
ATOM     32  C   UNL A   1      40.411  25.782  26.459  1.00  0.00     0.016 A 
ATOM     33  C   UNL A   1      39.566  25.285  28.664  1.00  0.00     0.016 A 
ATOM     34  C   UNL A   1      40.392  27.153  26.757  1.00  0.00     0.010 A 
ATOM     35  C   UNL A   1      39.661  26.626  28.983  1.00  0.00     0.010 A 
ATOM     36  C   UNL A   1      40.126  27.571  28.057  1.00  0.00    -0.014 A 
BRANCH  36  37
ATOM     37  C   UNL A   1      40.431  28.907  28.606  1.00  0.00     0.031 A 
ATOM     38  C   UNL A   1      39.359  29.928  28.655  1.00  0.00     0.074 A 
ATOM     39  C   UNL A   1      41.538  29.084  29.369  1.00  0.00     0.049 A 
ATOM     40  N   UNL A   1      39.432  31.009  29.341  1.00  0.00    -0.248 NA
ATOM     41  C   UNL A   1      38.072  29.783  27.996  1.00  0.00     0.031 C 
ATOM     42  C   UNL A   1      41.844  30.126  30.353  1.00  0.00     0.029 A 
ATOM     43  N   UNL A   1      42.717  28.343  29.360  1.00  0.00    -0.354 N 
ATOM     44  C   UNL A   1      38.187  31.576  29.450  1.00  0.00     0.074 A 
ATOM     45  C   UNL A   1      37.378  30.781  28.556  1.00  0.00     0.031 C 
ATOM     46  C   UNL A   1      43.155  30.132  30.632  1.00  0.00     0.029 A 
ATOM     47  C   UNL A   1      43.744  29.250  29.665  1.00  0.00     0.049 A 
ATOM     48  H   UNL A   1      42.810  27.380  29.178  1.00  0.00     0.167 HD
ATOM     49  C   UNL A   1      38.038  32.580  30.369  1.00  0.00     0.037 A 
ATOM     50  C   UNL A   1      44.622  29.604  28.695  1.00  0.00     0.037 A 
ATOM     51  C   UNL A   1      39.370  33.061  30.843  1.00  0.00     0.049 A 
ATOM     52  C   UNL A   1      44.450  31.142  28.522  1.00  0.00     0.074 A 
ATOM     53  C   UNL A   1      40.007  33.237  32.062  1.00  0.00     0.029 A 
ATOM     54  N   UNL A   1      40.374  33.275  29.886  1.00  0.00    -0.354 N 
ATOM     55  N   UNL A   1      43.313  31.802  28.699  1.00  0.00    -0.248 NA
ATOM     56  C   UNL A   1      45.584  32.059  28.468  1.00  0.00     0.031 C 
ATOM     57  C   UNL A   1      41.379  33.565  31.814  1.00  0.00     0.029 A 
ATOM     58  C   UNL A   1      41.601  33.561  30.444  1.00  0.00     0.049 A 
ATOM     59  H   UNL A   1      40.218  33.226  28.915  1.00  0.00     0.167 HD
ATOM     60  C   UNL A   1      43.574  33.131  28.993  1.00  0.00     0.074 A 
ATOM     61  C   UNL A   1      44.997  33.254  28.691  1.00  0.00     0.031 C 
ATOM     62  C   UNL A   1      42.711  34.022  29.606  1.00  0.00     0.037 A 
BRANCH  49  63
ATOM     63  C   UNL A   1      36.701  33.058  30.956  1.00  0.00     0.064 A 
ATOM     64  C   UNL A   1      35.816  33.874  30.209  1.00  0.00     0.173 A 
ATOM     65  C   UNL A   1      36.241  32.811  32.269  1.00  0.00     0.173 A 
ATOM     66  F   UNL A   1      36.043  34.161  28.922  1.00  0.00    -0.203 F 
ATOM     67  C   UNL A   1      34.642  34.432  30.744  1.00  0.00     0.198 A 
ATOM     68  C   UNL A   1      35.064  33.355  32.801  1.00  0.00     0.198 A 
ATOM     69  F   UNL A   1      36.887  32.015  33.118  1.00  0.00    -0.203 F 
ATOM     70  F   UNL A   1      33.874  35.223  29.980  1.00  0.00    -0.200 F 
ATOM     71  C   UNL A   1      34.269  34.178  32.044  1.00  0.00     0.200 A 
ATOM     72  F   UNL A   1      34.716  33.066  34.064  1.00  0.00    -0.200 F 
ATOM     73  F   UNL A   1      33.149  34.704  32.557  1.00  0.00    -0.200 F 
ENDBRANCH  49  63
BRANCH  50  74
ATOM     74  C   UNL A   1      44.834  28.404  27.773  1.00  0.00     0.064 A 
ATOM     75  C   UNL A   1      45.602  27.282  28.254  1.00  0.00     0.173 A 
ATOM     76  C   UNL A   1      44.063  28.111  26.654  1.00  0.00     0.173 A 
ATOM     77  F   UNL A   1      46.286  27.350  29.394  1.00  0.00    -0.203 F 
ATOM     78  C   UNL A   1      45.533  25.987  27.750  1.00  0.00     0.198 A 
ATOM     79  C   UNL A   1      44.007  26.795  26.125  1.00  0.00     0.198 A 
ATOM     80  F   UNL A   1      43.260  29.044  26.131  1.00  0.00    -0.203 F 
ATOM     81  F   UNL A   1      46.160  24.988  28.395  1.00  0.00    -0.200 F 
ATOM     82  C   UNL A   1      44.717  25.737  26.685  1.00  0.00     0.200 A 
ATOM     83  F   UNL A   1      43.154  26.521  25.129  1.00  0.00    -0.200 F 
ATOM     84  F   UNL A   1      44.545  24.477  26.262  1.00  0.00    -0.200 F 
ENDBRANCH  50  74
BRANCH  62  85
ATOM     85  C   UNL A   1      42.757  35.528  29.405  1.00  0.00     0.064 A 
ATOM     86  C   UNL A   1      43.411  36.450  30.221  1.00  0.00     0.173 A 
ATOM     87  C   UNL A   1      42.107  36.087  28.266  1.00  0.00     0.173 A 
ATOM     88  F   UNL A   1      43.863  36.104  31.432  1.00  0.00    -0.203 F 
ATOM     89  C   UNL A   1      43.579  37.783  29.827  1.00  0.00     0.198 A 
ATOM     90  C   UNL A   1      42.217  37.426  27.912  1.00  0.00     0.198 A 
ATOM     91  F   UNL A   1      41.366  35.348  27.429  1.00  0.00    -0.203 F 
ATOM     92  F   UNL A   1      44.319  38.607  30.582  1.00  0.00    -0.200 F 
ATOM     93  C   UNL A   1      43.003  38.264  28.662  1.00  0.00     0.200 A 
ATOM     94  F   UNL A   1      41.585  37.877  26.818  1.00  0.00    -0.200 F 
ATOM     95  F   UNL A   1      43.198  39.529  28.271  1.00  0.00    -0.200 F 
ENDBRANCH  62  85
ENDBRANCH  36  37
ENDBRANCH  29  31
ENDBRANCH  28  29
ENDBRANCH  27  28
ENDBRANCH  26  27
ENDBRANCH  25  26
ENDBRANCH  24  25
ENDBRANCH  23  24
ENDBRANCH  22  23
ENDBRANCH   1  22
TORSDOF 23
ENDMDL
MODEL 2
REMARK VINA RESULT:     -10.2      0.947      2.031
REMARK SMILES Cc1ccc(C(=O)[C@@H](C)[C@H](C)C(=O)OCCOCCOCCOCCOC(=O)c2ccc(-c3c4nc(c(-c5c(F)c(F)c(F)c(F)c5F)c5ccc([nH]5)c(-c5c(F)c(F)c(F)c(F)c5F)c5nc(c(-c6c(F)c(F)c(F)c(F)c6F)c6ccc3[nH]6)C=C5)C=C4)cc2)cc1
REMARK SMILES IDX 19 1 18 2 17 3 16 4 15 5 14 6 12 7 13 8 10 9 11 10 8 11 9 12
REMARK SMILES IDX 6 13 7 14 5 15 1 16 2 17 3 18 93 19 4 20 92 21 20 22 21 23
REMARK SMILES IDX 22 24 23 25 24 26 25 27 26 28 27 29 28 30 29 31 30 32 91 33
REMARK SMILES IDX 31 34 90 35 32 36 33 37 34 38 84 39 35 40 89 41 83 42 85 43
REMARK SMILES IDX 36 44 88 45 82 46 81 47 37 49 69 50 49 51 68 52 50 53 53 54
REMARK SMILES IDX 67 55 86 56 51 57 52 58 66 60 87 61 54 62 38 63 39 64 47 65
REMARK SMILES IDX 40 66 41 67 45 68 48 69 42 70 43 71 46 72 44 73 70 74 71 75
REMARK SMILES IDX 79 76 72 77 73 78 77 79 80 80 74 81 75 82 78 83 76 84 55 85
REMARK SMILES IDX 56 86 64 87 57 88 58 89 62 90 65 91 59 92 60 93 63 94 61 95
REMARK H PARENT 85 48 53 59
REMARK Flexibility Score: inf
ROOT
ATOM      1  C   UNL A   1      34.304  21.365  27.227  1.00  0.00     0.188 C 
ENDROOT
BRANCH   1   2
ATOM      2  C   UNL A   1      33.371  22.420  27.838  1.00  0.00     0.188 C 
BRANCH   2   3
ATOM      3  O   UNL A   1      32.327  22.942  27.032  1.00  0.00    -0.376 OA
BRANCH   3   4
ATOM      4  C   UNL A   1      32.370  24.348  26.806  1.00  0.00     0.202 C 
BRANCH   4   5
ATOM      5  C   UNL A   1      33.181  24.820  25.600  1.00  0.00     0.261 C 
BRANCH   5   6
ATOM      6  O   UNL A   1      33.107  23.840  24.531  1.00  0.00    -0.463 OA
BRANCH   6   7
ATOM      7  C   UNL A   1      33.207  24.357  23.275  1.00  0.00     0.309 C 
ATOM      8  O   UNL A   1      34.258  24.629  22.733  1.00  0.00    -0.252 OA
BRANCH   7   9
ATOM      9  C   UNL A   1      31.848  24.520  22.570  1.00  0.00     0.106 C 
ATOM     10  C   UNL A   1      30.675  24.116  23.444  1.00  0.00     0.021 C 
BRANCH   9  11
ATOM     11  C   UNL A   1      31.655  25.806  21.732  1.00  0.00     0.072 C 
ATOM     12  C   UNL A   1      32.570  25.967  20.527  1.00  0.00     0.017 C 
BRANCH  11  13
ATOM     13  C   UNL A   1      31.271  27.128  22.452  1.00  0.00     0.166 C 
ATOM     14  O   UNL A   1      30.359  27.810  21.970  1.00  0.00    -0.294 OA
BRANCH  13  15
ATOM     15  C   UNL A   1      31.930  27.691  23.678  1.00  0.00     0.018 A 
ATOM     16  C   UNL A   1      34.052  29.199  27.180  1.00  0.00     0.044 C 
ATOM     17  C   UNL A   1      33.352  28.656  25.963  1.00  0.00    -0.051 A 
ATOM     18  C   UNL A   1      34.012  28.484  24.756  1.00  0.00     0.004 A 
ATOM     19  C   UNL A   1      31.996  28.320  25.992  1.00  0.00     0.004 A 
ATOM     20  C   UNL A   1      33.313  27.985  23.640  1.00  0.00     0.012 A 
ATOM     21  C   UNL A   1      31.270  27.901  24.870  1.00  0.00     0.012 A 
ENDBRANCH  13  15
ENDBRANCH  11  13
ENDBRANCH   9  11
ENDBRANCH   7   9
ENDBRANCH   6   7
ENDBRANCH   5   6
ENDBRANCH   4   5
ENDBRANCH   3   4
ENDBRANCH   2   3
ENDBRANCH   1   2
BRANCH   1  22
ATOM     22  O   UNL A   1      34.269  21.186  25.819  1.00  0.00    -0.377 OA
BRANCH  22  23
ATOM     23  C   UNL A   1      35.504  21.001  25.136  1.00  0.00     0.188 C 
BRANCH  23  24
ATOM     24  C   UNL A   1      36.081  22.110  24.287  1.00  0.00     0.188 C 
BRANCH  24  25
ATOM     25  O   UNL A   1      37.188  22.641  25.012  1.00  0.00    -0.376 OA
BRANCH  25  26
ATOM     26  C   UNL A   1      37.987  21.681  25.688  1.00  0.00     0.202 C 
BRANCH  26  27
ATOM     27  C   UNL A   1      39.388  22.205  26.009  1.00  0.00     0.261 C 
BRANCH  27  28
ATOM     28  O   UNL A   1      39.384  22.752  27.344  1.00  0.00    -0.460 OA
BRANCH  28  29
ATOM     29  C   UNL A   1      40.397  23.607  27.622  1.00  0.00     0.338 C 
ATOM     30  O   UNL A   1      41.521  23.271  28.003  1.00  0.00    -0.246 OA
BRANCH  29  31
ATOM     31  C   UNL A   1      39.894  25.007  27.699  1.00  0.00     0.060 A 
ATOM     32  C   UNL A   1      40.236  25.927  26.696  1.00  0.00     0.016 A 
ATOM     33  C   UNL A   1      39.394  25.472  28.911  1.00  0.00     0.016 A 
ATOM     34  C   UNL A   1      40.260  27.301  26.983  1.00  0.00     0.010 A 
ATOM     35  C   UNL A   1      39.531  26.813  29.219  1.00  0.00     0.010 A 
ATOM     36  C   UNL A   1      40.017  27.736  28.282  1.00  0.00    -0.014 A 
BRANCH  36  37
ATOM     37  C   UNL A   1      40.365  29.067  28.819  1.00  0.00     0.031 A 
ATOM     38  C   UNL A   1      39.325  30.120  28.866  1.00  0.00     0.074 A 
ATOM     39  C   UNL A   1      41.482  29.216  29.573  1.00  0.00     0.049 A 
ATOM     40  N   UNL A   1      39.435  31.204  29.543  1.00  0.00    -0.248 NA
ATOM     41  C   UNL A   1      38.030  30.008  28.216  1.00  0.00     0.031 C 
ATOM     42  C   UNL A   1      41.826  30.256  30.546  1.00  0.00     0.029 A 
ATOM     43  N   UNL A   1      42.638  28.440  29.563  1.00  0.00    -0.354 N 
ATOM     44  C   UNL A   1      38.208  31.808  29.655  1.00  0.00     0.074 A 
ATOM     45  C   UNL A   1      37.370  31.031  28.773  1.00  0.00     0.031 C 
ATOM     46  C   UNL A   1      43.138  30.224  30.818  1.00  0.00     0.029 A 
ATOM     47  C   UNL A   1      43.694  29.318  29.854  1.00  0.00     0.049 A 
ATOM     48  H   UNL A   1      42.701  27.473  29.387  1.00  0.00     0.167 HD
ATOM     49  C   UNL A   1      38.096  32.824  30.567  1.00  0.00     0.037 A 
ATOM     50  C   UNL A   1      44.576  29.638  28.876  1.00  0.00     0.037 A 
ATOM     51  C   UNL A   1      39.444  33.268  31.028  1.00  0.00     0.049 A 
ATOM     52  C   UNL A   1      44.449  31.179  28.692  1.00  0.00     0.074 A 
ATOM     53  C   UNL A   1      40.094  33.435  32.243  1.00  0.00     0.029 A 
ATOM     54  N   UNL A   1      40.448  33.444  30.063  1.00  0.00    -0.354 N 
ATOM     55  N   UNL A   1      43.334  31.875  28.870  1.00  0.00    -0.248 NA
ATOM     56  C   UNL A   1      45.609  32.061  28.623  1.00  0.00     0.031 C 
ATOM     57  C   UNL A   1      41.474  33.719  31.983  1.00  0.00     0.029 A 
ATOM     58  C   UNL A   1      41.687  33.698  30.611  1.00  0.00     0.049 A 
ATOM     59  H   UNL A   1      40.285  33.392  29.094  1.00  0.00     0.167 HD
ATOM     60  C   UNL A   1      43.637  33.197  29.151  1.00  0.00     0.074 A 
ATOM     61  C   UNL A   1      45.060  33.274  28.840  1.00  0.00     0.031 C 
ATOM     62  C   UNL A   1      42.804  34.119  29.763  1.00  0.00     0.037 A 
BRANCH  49  63
ATOM     63  C   UNL A   1      36.777  33.347  31.158  1.00  0.00     0.064 A 
ATOM     64  C   UNL A   1      36.417  33.089  32.504  1.00  0.00     0.173 A 
ATOM     65  C   UNL A   1      35.780  34.055  30.450  1.00  0.00     0.173 A 
ATOM     66  F   UNL A   1      37.258  32.492  33.354  1.00  0.00    -0.203 F 
ATOM     67  C   UNL A   1      35.171  33.443  33.051  1.00  0.00     0.198 A 
ATOM     68  C   UNL A   1      34.543  34.421  30.997  1.00  0.00     0.198 A 
ATOM     69  F   UNL A   1      35.942  34.457  29.192  1.00  0.00    -0.203 F 
ATOM     70  F   UNL A   1      34.893  33.134  34.326  1.00  0.00    -0.200 F 
ATOM     71  C   UNL A   1      34.230  34.104  32.295  1.00  0.00     0.200 A 
ATOM     72  F   UNL A   1      33.659  35.089  30.240  1.00  0.00    -0.200 F 
ATOM     73  F   UNL A   1      33.044  34.447  32.813  1.00  0.00    -0.200 F 
ENDBRANCH  49  63
BRANCH  50  74
ATOM     74  C   UNL A   1      44.745  28.425  27.962  1.00  0.00     0.064 A 
ATOM     75  C   UNL A   1      43.928  28.324  26.778  1.00  0.00     0.173 A 
ATOM     76  C   UNL A   1      45.855  27.586  27.945  1.00  0.00     0.173 A 
ATOM     77  F   UNL A   1      42.907  29.153  26.570  1.00  0.00    -0.203 F 
ATOM     78  C   UNL A   1      44.232  27.560  25.656  1.00  0.00     0.198 A 
ATOM     79  C   UNL A   1      46.155  26.790  26.809  1.00  0.00     0.198 A 
ATOM     80  F   UNL A   1      46.729  27.612  28.956  1.00  0.00    -0.203 F 
ATOM     81  F   UNL A   1      43.487  27.687  24.544  1.00  0.00    -0.200 F 
ATOM     82  C   UNL A   1      45.363  26.797  25.665  1.00  0.00     0.200 A 
ATOM     83  F   UNL A   1      47.300  26.095  26.776  1.00  0.00    -0.200 F 
ATOM     84  F   UNL A   1      45.735  26.149  24.552  1.00  0.00    -0.200 F 
ENDBRANCH  50  74
BRANCH  62  85
ATOM     85  C   UNL A   1      42.894  35.621  29.550  1.00  0.00     0.064 A 
ATOM     86  C   UNL A   1      43.610  36.524  30.334  1.00  0.00     0.173 A 
ATOM     87  C   UNL A   1      42.223  36.195  28.431  1.00  0.00     0.173 A 
ATOM     88  F   UNL A   1      44.094  36.170  31.531  1.00  0.00    -0.203 F 
ATOM     89  C   UNL A   1      43.808  37.849  29.925  1.00  0.00     0.198 A 
ATOM     90  C   UNL A   1      42.365  37.527  28.064  1.00  0.00     0.198 A 
ATOM     91  F   UNL A   1      41.427  35.477  27.627  1.00  0.00    -0.203 F 
ATOM     92  F   UNL A   1      44.604  38.651  30.647  1.00  0.00    -0.200 F 
ATOM     93  C   UNL A   1      43.206  38.342  28.779  1.00  0.00     0.200 A 
ATOM     94  F   UNL A   1      41.709  37.994  26.991  1.00  0.00    -0.200 F 
ATOM     95  F   UNL A   1      43.430  39.598  28.372  1.00  0.00    -0.200 F 
ENDBRANCH  62  85
ENDBRANCH  36  37
ENDBRANCH  29  31
ENDBRANCH  28  29
ENDBRANCH  27  28
ENDBRANCH  26  27
ENDBRANCH  25  26
ENDBRANCH  24  25
ENDBRANCH  23  24
ENDBRANCH  22  23
ENDBRANCH   1  22
TORSDOF 23
ENDMDL
MODEL 3
REMARK VINA RESULT:      -9.6      1.114      2.838
REMARK SMILES Cc1ccc(C(=O)[C@@H](C)[C@H](C)C(=O)OCCOCCOCCOCCOC(=O)c2ccc(-c3c4nc(c(-c5c(F)c(F)c(F)c(F)c5F)c5ccc([nH]5)c(-c5c(F)c(F)c(F)c(F)c5F)c5nc(c(-c6c(F)c(F)c(F)c(F)c6F)c6ccc3[nH]6)C=C5)C=C4)cc2)cc1
REMARK SMILES IDX 19 1 18 2 17 3 16 4 15 5 14 6 12 7 13 8 10 9 11 10 8 11 9 12
REMARK SMILES IDX 6 13 7 14 5 15 1 16 2 17 3 18 93 19 4 20 92 21 20 22 21 23
REMARK SMILES IDX 22 24 23 25 24 26 25 27 26 28 27 29 28 30 29 31 30 32 91 33
REMARK SMILES IDX 31 34 90 35 32 36 33 37 34 38 84 39 35 40 89 41 83 42 85 43
REMARK SMILES IDX 36 44 88 45 82 46 81 47 37 49 69 50 49 51 68 52 50 53 53 54
REMARK SMILES IDX 67 55 86 56 51 57 52 58 66 60 87 61 54 62 38 63 39 64 47 65
REMARK SMILES IDX 40 66 41 67 45 68 48 69 42 70 43 71 46 72 44 73 70 74 71 75
REMARK SMILES IDX 79 76 72 77 73 78 77 79 80 80 74 81 75 82 78 83 76 84 55 85
REMARK SMILES IDX 56 86 64 87 57 88 58 89 62 90 65 91 59 92 60 93 63 94 61 95
REMARK H PARENT 85 48 53 59
REMARK Flexibility Score: inf
ROOT
ATOM      1  C   UNL A   1      34.302  21.426  26.627  1.00  0.00     0.188 C 
ENDROOT
BRANCH   1   2
ATOM      2  C   UNL A   1      33.259  22.380  27.226  1.00  0.00     0.188 C 
BRANCH   2   3
ATOM      3  O   UNL A   1      32.289  22.946  26.359  1.00  0.00    -0.376 OA
BRANCH   3   4
ATOM      4  C   UNL A   1      31.517  24.010  26.911  1.00  0.00     0.202 C 
BRANCH   4   5
ATOM      5  C   UNL A   1      31.448  25.298  26.092  1.00  0.00     0.261 C 
BRANCH   5   6
ATOM      6  O   UNL A   1      32.454  26.239  26.551  1.00  0.00    -0.463 OA
BRANCH   6   7
ATOM      7  C   UNL A   1      31.959  27.413  27.034  1.00  0.00     0.309 C 
ATOM      8  O   UNL A   1      30.893  27.519  27.604  1.00  0.00    -0.252 OA
BRANCH   7   9
ATOM      9  C   UNL A   1      32.912  28.606  26.836  1.00  0.00     0.106 C 
ATOM     10  C   UNL A   1      34.341  28.182  26.552  1.00  0.00     0.021 C 
BRANCH   9  11
ATOM     11  C   UNL A   1      32.376  29.784  25.988  1.00  0.00     0.072 C 
ATOM     12  C   UNL A   1      31.966  31.032  26.755  1.00  0.00     0.017 C 
BRANCH  11  13
ATOM     13  C   UNL A   1      31.533  29.481  24.718  1.00  0.00     0.166 C 
ATOM     14  O   UNL A   1      30.525  30.167  24.511  1.00  0.00    -0.294 OA
BRANCH  13  15
ATOM     15  C   UNL A   1      31.803  28.397  23.715  1.00  0.00     0.018 A 
ATOM     16  C   UNL A   1      32.739  25.407  20.678  1.00  0.00     0.044 C 
ATOM     17  C   UNL A   1      32.438  26.465  21.706  1.00  0.00    -0.051 A 
ATOM     18  C   UNL A   1      33.415  27.334  22.166  1.00  0.00     0.004 A 
ATOM     19  C   UNL A   1      31.162  26.604  22.256  1.00  0.00     0.004 A 
ATOM     20  C   UNL A   1      33.091  28.300  23.138  1.00  0.00     0.012 A 
ATOM     21  C   UNL A   1      30.846  27.505  23.281  1.00  0.00     0.012 A 
ENDBRANCH  13  15
ENDBRANCH  11  13
ENDBRANCH   9  11
ENDBRANCH   7   9
ENDBRANCH   6   7
ENDBRANCH   5   6
ENDBRANCH   4   5
ENDBRANCH   3   4
ENDBRANCH   2   3
ENDBRANCH   1   2
BRANCH   1  22
ATOM     22  O   UNL A   1      34.188  21.099  25.250  1.00  0.00    -0.377 OA
BRANCH  22  23
ATOM     23  C   UNL A   1      35.192  21.577  24.362  1.00  0.00     0.188 C 
BRANCH  23  24
ATOM     24  C   UNL A   1      35.742  22.977  24.512  1.00  0.00     0.188 C 
BRANCH  24  25
ATOM     25  O   UNL A   1      36.507  22.984  25.716  1.00  0.00    -0.376 OA
BRANCH  25  26
ATOM     26  C   UNL A   1      37.698  22.212  25.681  1.00  0.00     0.202 C 
BRANCH  26  27
ATOM     27  C   UNL A   1      38.953  23.058  25.908  1.00  0.00     0.261 C 
BRANCH  27  28
ATOM     28  O   UNL A   1      39.593  22.620  27.124  1.00  0.00    -0.460 OA
BRANCH  28  29
ATOM     29  C   UNL A   1      40.549  23.449  27.606  1.00  0.00     0.338 C 
ATOM     30  O   UNL A   1      41.579  23.084  28.179  1.00  0.00    -0.246 OA
BRANCH  29  31
ATOM     31  C   UNL A   1      40.060  24.856  27.625  1.00  0.00     0.060 A 
ATOM     32  C   UNL A   1      40.437  25.740  26.602  1.00  0.00     0.016 A 
ATOM     33  C   UNL A   1      39.535  25.366  28.808  1.00  0.00     0.016 A 
ATOM     34  C   UNL A   1      40.469  27.121  26.844  1.00  0.00     0.010 A 
ATOM     35  C   UNL A   1      39.680  26.715  29.076  1.00  0.00     0.010 A 
ATOM     36  C   UNL A   1      40.199  27.602  28.122  1.00  0.00    -0.014 A 
BRANCH  36  37
ATOM     37  C   UNL A   1      40.549  28.945  28.624  1.00  0.00     0.031 A 
ATOM     38  C   UNL A   1      39.495  29.983  28.701  1.00  0.00     0.074 A 
ATOM     39  C   UNL A   1      41.695  29.124  29.326  1.00  0.00     0.049 A 
ATOM     40  N   UNL A   1      39.617  31.079  29.357  1.00  0.00    -0.248 NA
ATOM     41  C   UNL A   1      38.175  29.841  28.110  1.00  0.00     0.031 C 
ATOM     42  C   UNL A   1      42.064  30.184  30.268  1.00  0.00     0.029 A 
ATOM     43  N   UNL A   1      42.862  28.365  29.277  1.00  0.00    -0.354 N 
ATOM     44  C   UNL A   1      38.386  31.666  29.513  1.00  0.00     0.074 A 
ATOM     45  C   UNL A   1      37.524  30.862  28.680  1.00  0.00     0.031 C 
ATOM     46  C   UNL A   1      43.387  30.176  30.483  1.00  0.00     0.029 A 
ATOM     47  C   UNL A   1      43.915  29.263  29.509  1.00  0.00     0.049 A 
ATOM     48  H   UNL A   1      42.933  27.397  29.113  1.00  0.00     0.167 HD
ATOM     49  C   UNL A   1      38.297  32.693  30.415  1.00  0.00     0.037 A 
ATOM     50  C   UNL A   1      44.748  29.582  28.489  1.00  0.00     0.037 A 
ATOM     51  C   UNL A   1      39.657  33.165  30.810  1.00  0.00     0.049 A 
ATOM     52  C   UNL A   1      44.589  31.118  28.288  1.00  0.00     0.074 A 
ATOM     53  C   UNL A   1      40.356  33.360  31.992  1.00  0.00     0.029 A 
ATOM     54  N   UNL A   1      40.615  33.342  29.800  1.00  0.00    -0.354 N 
ATOM     55  N   UNL A   1      43.471  31.799  28.505  1.00  0.00    -0.248 NA
ATOM     56  C   UNL A   1      45.731  32.017  28.156  1.00  0.00     0.031 C 
ATOM     57  C   UNL A   1      41.719  33.662  31.669  1.00  0.00     0.029 A 
ATOM     58  C   UNL A   1      41.872  33.623  30.289  1.00  0.00     0.049 A 
ATOM     59  H   UNL A   1      40.411  33.273  28.839  1.00  0.00     0.167 HD
ATOM     60  C   UNL A   1      43.765  33.130  28.753  1.00  0.00     0.074 A 
ATOM     61  C   UNL A   1      45.172  33.225  28.378  1.00  0.00     0.031 C 
ATOM     62  C   UNL A   1      42.945  34.048  29.387  1.00  0.00     0.037 A 
BRANCH  49  63
ATOM     63  C   UNL A   1      36.997  33.204  31.055  1.00  0.00     0.064 A 
ATOM     64  C   UNL A   1      36.711  32.983  32.424  1.00  0.00     0.173 A 
ATOM     65  C   UNL A   1      35.949  33.866  30.376  1.00  0.00     0.173 A 
ATOM     66  F   UNL A   1      37.609  32.434  33.249  1.00  0.00    -0.203 F 
ATOM     67  C   UNL A   1      35.486  33.326  33.023  1.00  0.00     0.198 A 
ATOM     68  C   UNL A   1      34.732  34.221  30.973  1.00  0.00     0.198 A 
ATOM     69  F   UNL A   1      36.038  34.230  29.099  1.00  0.00    -0.203 F 
ATOM     70  F   UNL A   1      35.280  33.053  34.319  1.00  0.00    -0.200 F 
ATOM     71  C   UNL A   1      34.492  33.940  32.295  1.00  0.00     0.200 A 
ATOM     72  F   UNL A   1      33.795  34.843  30.241  1.00  0.00    -0.200 F 
ATOM     73  F   UNL A   1      33.325  34.272  32.861  1.00  0.00    -0.200 F 
ENDBRANCH  49  63
BRANCH  50  74
ATOM     74  C   UNL A   1      44.897  28.358  27.586  1.00  0.00     0.064 A 
ATOM     75  C   UNL A   1      45.648  27.224  28.067  1.00  0.00     0.173 A 
ATOM     76  C   UNL A   1      44.085  28.065  26.496  1.00  0.00     0.173 A 
ATOM     77  F   UNL A   1      46.367  27.295  29.185  1.00  0.00    -0.203 F 
ATOM     78  C   UNL A   1      45.526  25.922  27.593  1.00  0.00     0.198 A 
ATOM     79  C   UNL A   1      43.975  26.742  25.997  1.00  0.00     0.198 A 
ATOM     80  F   UNL A   1      43.294  29.011  25.978  1.00  0.00    -0.203 F 
ATOM     81  F   UNL A   1      46.143  24.919  28.240  1.00  0.00    -0.200 F 
ATOM     82  C   UNL A   1      44.672  25.675  26.558  1.00  0.00     0.200 A 
ATOM     83  F   UNL A   1      43.085  26.473  25.032  1.00  0.00    -0.200 F 
ATOM     84  F   UNL A   1      44.451  24.412  26.167  1.00  0.00    -0.200 F 
ENDBRANCH  50  74
BRANCH  62  85
ATOM     85  C   UNL A   1      43.001  35.548  29.148  1.00  0.00     0.064 A 
ATOM     86  C   UNL A   1      42.413  36.237  28.088  1.00  0.00     0.173 A 
ATOM     87  C   UNL A   1      43.685  36.367  30.093  1.00  0.00     0.173 A 
ATOM     88  F   UNL A   1      41.942  35.587  27.017  1.00  0.00    -0.203 F 
ATOM     89  C   UNL A   1      42.336  37.635  28.080  1.00  0.00     0.198 A 
ATOM     90  C   UNL A   1      43.666  37.756  30.047  1.00  0.00     0.198 A 
ATOM     91  F   UNL A   1      44.371  35.854  31.123  1.00  0.00    -0.203 F 
ATOM     92  F   UNL A   1      41.655  38.253  27.104  1.00  0.00    -0.200 F 
ATOM     93  C   UNL A   1      42.941  38.392  29.070  1.00  0.00     0.200 A 
ATOM     94  F   UNL A   1      44.324  38.461  30.979  1.00  0.00    -0.200 F 
ATOM     95  F   UNL A   1      42.831  39.726  29.079  1.00  0.00    -0.200 F 
ENDBRANCH  62  85
ENDBRANCH  36  37
ENDBRANCH  29  31
ENDBRANCH  28  29
ENDBRANCH  27  28
ENDBRANCH  26  27
ENDBRANCH  25  26
ENDBRANCH  24  25
ENDBRANCH  23  24
ENDBRANCH  22  23
ENDBRANCH   1  22
TORSDOF 23
ENDMDL
