MODEL 1
REMARK VINA RESULT:     -10.4      0.000      0.000
REMARK SMILES O=C(OCCOCCOCCOCCOC(=O)c1ccc(-c2c3nc(c(-c4c(F)c(F)c(F)c(F)c4F)c4ccc([nH]4)c(-c4c(F)c(F)c(F)c(F)c4F)c4nc(c(-c5c(F)c(F)c(F)c(F)c5F)c5ccc2[nH]5)C=C4)C=C3)cc1)C1=Cc2cc(Cl)ccc2O[C@@H]1C(F)(F)F
REMARK SMILES IDX 10 1 9 2 8 3 7 4 6 5 5 6 4 7 3 8 2 9 1 10 81 11 82 12 91 13
REMARK SMILES IDX 83 14 90 15 84 16 89 17 85 18 88 19 86 20 87 21 92 22 93 23
REMARK SMILES IDX 94 24 95 25 11 26 12 27 13 28 14 29 15 30 16 31 17 32 18 33
REMARK SMILES IDX 19 34 80 35 20 36 79 37 21 38 22 39 23 40 73 41 24 42 78 43
REMARK SMILES IDX 72 44 74 45 25 46 77 47 71 48 70 49 26 51 58 52 38 53 57 54
REMARK SMILES IDX 39 55 42 56 56 57 75 58 40 59 41 60 55 62 76 63 43 64 27 65
REMARK SMILES IDX 28 66 36 67 29 68 30 69 34 70 37 71 31 72 32 73 35 74 33 75
REMARK SMILES IDX 59 76 60 77 68 78 61 79 62 80 66 81 69 82 63 83 64 84 67 85
REMARK SMILES IDX 65 86 44 87 45 88 53 89 46 90 47 91 51 92 54 93 48 94 49 95
REMARK SMILES IDX 52 96 50 97
REMARK H PARENT 74 50 42 61
REMARK Flexibility Score: inf
ROOT
ATOM      1  C   UNL A   1      33.166  22.683  26.349  1.00  0.00     0.188 C 
ENDROOT
BRANCH   1   2
ATOM      2  O   UNL A   1      32.419  23.805  26.800  1.00  0.00    -0.377 OA
BRANCH   2   3
ATOM      3  C   UNL A   1      32.801  25.056  26.246  1.00  0.00     0.188 C 
BRANCH   3   4
ATOM      4  C   UNL A   1      31.735  26.121  26.452  1.00  0.00     0.188 C 
BRANCH   4   5
ATOM      5  O   UNL A   1      32.042  27.027  27.504  1.00  0.00    -0.376 OA
BRANCH   5   6
ATOM      6  C   UNL A   1      31.345  28.263  27.564  1.00  0.00     0.202 C 
BRANCH   6   7
ATOM      7  C   UNL A   1      32.105  29.462  26.995  1.00  0.00     0.261 C 
BRANCH   7   8
ATOM      8  O   UNL A   1      31.738  29.703  25.628  1.00  0.00    -0.460 OA
BRANCH   8   9
ATOM      9  C   UNL A   1      32.528  29.128  24.700  1.00  0.00     0.338 C 
ATOM     10  O   UNL A   1      33.730  28.973  24.852  1.00  0.00    -0.246 OA
BRANCH   9  11
ATOM     11  C   UNL A   1      31.794  28.763  23.459  1.00  0.00     0.087 C 
ATOM     12  C   UNL A   1      32.543  27.952  22.690  1.00  0.00     0.027 C 
ATOM     13  C   UNL A   1      30.293  28.583  23.546  1.00  0.00     0.316 C 
ATOM     14  C   UNL A   1      32.096  26.554  22.755  1.00  0.00     0.019 A 
ATOM     15  O   UNL A   1      29.831  27.222  23.330  1.00  0.00    -0.475 OA
ATOM     16  C   UNL A   1      33.018  25.526  22.541  1.00  0.00     0.032 A 
ATOM     17  C   UNL A   1      30.779  26.258  23.118  1.00  0.00     0.128 A 
ATOM     18  C   UNL A   1      32.623  24.203  22.729  1.00  0.00     0.041 A 
ATOM     19  C   UNL A   1      30.389  24.931  23.297  1.00  0.00     0.048 A 
ATOM     20  Cl  UNL A   1      33.764  22.935  22.506  1.00  0.00    -0.084 Cl
ATOM     21  C   UNL A   1      31.318  23.901  23.120  1.00  0.00     0.024 A 
BRANCH  13  22
ATOM     22  C   UNL A   1      29.550  29.574  22.647  1.00  0.00     0.430 C 
ATOM     23  F   UNL A   1      28.362  29.071  22.237  1.00  0.00    -0.167 F 
ATOM     24  F   UNL A   1      29.274  30.724  23.313  1.00  0.00    -0.167 F 
ATOM     25  F   UNL A   1      30.261  29.905  21.547  1.00  0.00    -0.167 F 
ENDBRANCH  13  22
ENDBRANCH   9  11
ENDBRANCH   8   9
ENDBRANCH   7   8
ENDBRANCH   6   7
ENDBRANCH   5   6
ENDBRANCH   4   5
ENDBRANCH   3   4
ENDBRANCH   2   3
ENDBRANCH   1   2
BRANCH   1  26
ATOM     26  C   UNL A   1      34.703  22.753  26.521  1.00  0.00     0.188 C 
BRANCH  26  27
ATOM     27  O   UNL A   1      35.623  22.575  25.450  1.00  0.00    -0.376 OA
BRANCH  27  28
ATOM     28  C   UNL A   1      36.297  21.341  25.294  1.00  0.00     0.202 C 
BRANCH  28  29
ATOM     29  C   UNL A   1      37.824  21.422  25.434  1.00  0.00     0.261 C 
BRANCH  29  30
ATOM     30  O   UNL A   1      38.308  22.743  25.733  1.00  0.00    -0.460 OA
BRANCH  30  31
ATOM     31  C   UNL A   1      39.494  22.807  26.394  1.00  0.00     0.338 C 
ATOM     32  O   UNL A   1      40.377  21.975  26.404  1.00  0.00    -0.246 OA
BRANCH  31  33
ATOM     33  C   UNL A   1      39.654  24.168  26.980  1.00  0.00     0.060 A 
ATOM     34  C   UNL A   1      40.288  25.147  26.200  1.00  0.00     0.016 A 
ATOM     35  C   UNL A   1      39.143  24.507  28.236  1.00  0.00     0.016 A 
ATOM     36  C   UNL A   1      40.417  26.459  26.670  1.00  0.00     0.010 A 
ATOM     37  C   UNL A   1      39.293  25.815  28.717  1.00  0.00     0.010 A 
ATOM     38  C   UNL A   1      39.952  26.792  27.948  1.00  0.00    -0.014 A 
BRANCH  38  39
ATOM     39  C   UNL A   1      40.354  28.073  28.584  1.00  0.00     0.031 A 
ATOM     40  C   UNL A   1      41.772  28.188  29.077  1.00  0.00     0.074 A 
ATOM     41  C   UNL A   1      39.500  29.100  28.755  1.00  0.00     0.049 A 
ATOM     42  N   UNL A   1      42.331  29.125  29.798  1.00  0.00    -0.248 NA
ATOM     43  C   UNL A   1      42.679  27.087  28.711  1.00  0.00     0.031 C 
ATOM     44  C   UNL A   1      38.122  29.148  28.277  1.00  0.00     0.029 A 
ATOM     45  N   UNL A   1      39.672  30.299  29.409  1.00  0.00    -0.354 N 
ATOM     46  C   UNL A   1      43.643  28.714  29.991  1.00  0.00     0.074 A 
ATOM     47  C   UNL A   1      43.800  27.445  29.317  1.00  0.00     0.031 C 
ATOM     48  C   UNL A   1      37.558  30.300  28.686  1.00  0.00     0.029 A 
ATOM     49  C   UNL A   1      38.524  31.051  29.491  1.00  0.00     0.049 A 
ATOM     50  H   UNL A   1      40.535  30.590  29.783  1.00  0.00     0.167 HD
ATOM     51  C   UNL A   1      44.629  29.337  30.677  1.00  0.00     0.037 A 
ATOM     52  C   UNL A   1      38.272  32.187  30.175  1.00  0.00     0.037 A 
ATOM     53  C   UNL A   1      44.484  30.605  31.335  1.00  0.00     0.049 A 
ATOM     54  C   UNL A   1      39.371  32.820  31.001  1.00  0.00     0.074 A 
ATOM     55  C   UNL A   1      45.445  31.338  32.009  1.00  0.00     0.029 A 
ATOM     56  N   UNL A   1      43.301  31.319  31.416  1.00  0.00    -0.354 N 
ATOM     57  N   UNL A   1      40.620  32.447  31.147  1.00  0.00    -0.248 NA
ATOM     58  C   UNL A   1      39.020  34.026  31.769  1.00  0.00     0.031 C 
ATOM     59  C   UNL A   1      44.828  32.468  32.551  1.00  0.00     0.029 A 
ATOM     60  C   UNL A   1      43.496  32.466  32.168  1.00  0.00     0.049 A 
ATOM     61  H   UNL A   1      42.449  31.054  31.001  1.00  0.00     0.167 HD
ATOM     62  C   UNL A   1      41.203  33.379  31.999  1.00  0.00     0.074 A 
ATOM     63  C   UNL A   1      40.179  34.347  32.325  1.00  0.00     0.031 C 
ATOM     64  C   UNL A   1      42.471  33.426  32.475  1.00  0.00     0.037 A 
BRANCH  51  65
ATOM     65  C   UNL A   1      45.950  28.640  30.788  1.00  0.00     0.064 A 
ATOM     66  C   UNL A   1      46.212  27.704  31.797  1.00  0.00     0.173 A 
ATOM     67  C   UNL A   1      46.945  28.870  29.825  1.00  0.00     0.173 A 
ATOM     68  F   UNL A   1      45.298  27.465  32.750  1.00  0.00    -0.203 F 
ATOM     69  C   UNL A   1      47.426  27.025  31.842  1.00  0.00     0.198 A 
ATOM     70  C   UNL A   1      48.147  28.171  29.858  1.00  0.00     0.198 A 
ATOM     71  F   UNL A   1      46.740  29.759  28.841  1.00  0.00    -0.203 F 
ATOM     72  F   UNL A   1      47.669  26.154  32.830  1.00  0.00    -0.200 F 
ATOM     73  C   UNL A   1      48.388  27.251  30.866  1.00  0.00     0.200 A 
ATOM     74  F   UNL A   1      49.069  28.384  28.909  1.00  0.00    -0.200 F 
ATOM     75  F   UNL A   1      49.549  26.583  30.902  1.00  0.00    -0.200 F 
ENDBRANCH  51  65
BRANCH  52  76
ATOM     76  C   UNL A   1      36.906  32.782  30.184  1.00  0.00     0.064 A 
ATOM     77  C   UNL A   1      36.474  33.635  29.157  1.00  0.00     0.173 A 
ATOM     78  C   UNL A   1      36.033  32.575  31.262  1.00  0.00     0.173 A 
ATOM     79  F   UNL A   1      37.284  33.896  28.120  1.00  0.00    -0.203 F 
ATOM     80  C   UNL A   1      35.239  34.279  29.224  1.00  0.00     0.198 A 
ATOM     81  C   UNL A   1      34.784  33.193  31.313  1.00  0.00     0.198 A 
ATOM     82  F   UNL A   1      36.396  31.776  32.278  1.00  0.00    -0.203 F 
ATOM     83  F   UNL A   1      34.883  35.142  28.262  1.00  0.00    -0.200 F 
ATOM     84  C   UNL A   1      34.394  34.055  30.300  1.00  0.00     0.200 A 
ATOM     85  F   UNL A   1      33.967  32.963  32.350  1.00  0.00    -0.200 F 
ATOM     86  F   UNL A   1      33.211  34.680  30.369  1.00  0.00    -0.200 F 
ENDBRANCH  52  76
BRANCH  64  87
ATOM     87  C   UNL A   1      42.839  34.568  33.379  1.00  0.00     0.064 A 
ATOM     88  C   UNL A   1      43.204  35.821  32.867  1.00  0.00     0.173 A 
ATOM     89  C   UNL A   1      42.754  34.427  34.773  1.00  0.00     0.173 A 
ATOM     90  F   UNL A   1      43.313  36.003  31.542  1.00  0.00    -0.203 F 
ATOM     91  C   UNL A   1      43.485  36.887  33.717  1.00  0.00     0.198 A 
ATOM     92  C   UNL A   1      43.006  35.504  35.620  1.00  0.00     0.198 A 
ATOM     93  F   UNL A   1      42.400  33.251  35.315  1.00  0.00    -0.203 F 
ATOM     94  F   UNL A   1      43.867  38.066  33.207  1.00  0.00    -0.200 F 
ATOM     95  C   UNL A   1      43.376  36.731  35.091  1.00  0.00     0.200 A 
ATOM     96  F   UNL A   1      42.883  35.355  36.945  1.00  0.00    -0.200 F 
ATOM     97  F   UNL A   1      43.630  37.763  35.907  1.00  0.00    -0.200 F 
ENDBRANCH  64  87
ENDBRANCH  38  39
ENDBRANCH  31  33
ENDBRANCH  30  31
ENDBRANCH  29  30
ENDBRANCH  28  29
ENDBRANCH  27  28
ENDBRANCH  26  27
ENDBRANCH   1  26
TORSDOF 21
ENDMDL
MODEL 2
REMARK VINA RESULT:     -10.2      3.544      5.158
REMARK SMILES O=C(OCCOCCOCCOCCOC(=O)c1ccc(-c2c3nc(c(-c4c(F)c(F)c(F)c(F)c4F)c4ccc([nH]4)c(-c4c(F)c(F)c(F)c(F)c4F)c4nc(c(-c5c(F)c(F)c(F)c(F)c5F)c5ccc2[nH]5)C=C4)C=C3)cc1)C1=Cc2cc(Cl)ccc2O[C@@H]1C(F)(F)F
REMARK SMILES IDX 10 1 9 2 8 3 7 4 6 5 5 6 4 7 3 8 2 9 1 10 81 11 82 12 91 13
REMARK SMILES IDX 83 14 90 15 84 16 89 17 85 18 88 19 86 20 87 21 92 22 93 23
REMARK SMILES IDX 94 24 95 25 11 26 12 27 13 28 14 29 15 30 16 31 17 32 18 33
REMARK SMILES IDX 19 34 80 35 20 36 79 37 21 38 22 39 23 40 73 41 24 42 78 43
REMARK SMILES IDX 72 44 74 45 25 46 77 47 71 48 70 49 26 51 58 52 38 53 57 54
REMARK SMILES IDX 39 55 42 56 56 57 75 58 40 59 41 60 55 62 76 63 43 64 27 65
REMARK SMILES IDX 28 66 36 67 29 68 30 69 34 70 37 71 31 72 32 73 35 74 33 75
REMARK SMILES IDX 59 76 60 77 68 78 61 79 62 80 66 81 69 82 63 83 64 84 67 85
REMARK SMILES IDX 65 86 44 87 45 88 53 89 46 90 47 91 51 92 54 93 48 94 49 95
REMARK SMILES IDX 52 96 50 97
REMARK H PARENT 74 50 42 61
REMARK Flexibility Score: inf
ROOT
ATOM      1  C   UNL A   1      40.795  20.808  27.560  1.00  0.00     0.188 C 
ENDROOT
BRANCH   1   2
ATOM      2  O   UNL A   1      39.878  21.854  27.267  1.00  0.00    -0.377 OA
BRANCH   2   3
ATOM      3  C   UNL A   1      39.125  21.690  26.073  1.00  0.00     0.188 C 
BRANCH   3   4
ATOM      4  C   UNL A   1      38.181  22.857  25.829  1.00  0.00     0.188 C 
BRANCH   4   5
ATOM      5  O   UNL A   1      36.915  22.458  25.322  1.00  0.00    -0.376 OA
BRANCH   5   6
ATOM      6  C   UNL A   1      36.710  22.466  23.916  1.00  0.00     0.202 C 
BRANCH   6   7
ATOM      7  C   UNL A   1      35.268  22.725  23.475  1.00  0.00     0.261 C 
BRANCH   7   8
ATOM      8  O   UNL A   1      35.077  24.104  23.123  1.00  0.00    -0.460 OA
BRANCH   8   9
ATOM      9  C   UNL A   1      33.797  24.493  22.955  1.00  0.00     0.338 C 
ATOM     10  O   UNL A   1      33.218  24.433  21.882  1.00  0.00    -0.246 OA
BRANCH   9  11
ATOM     11  C   UNL A   1      33.195  25.054  24.194  1.00  0.00     0.087 C 
ATOM     12  C   UNL A   1      33.138  26.396  24.124  1.00  0.00     0.027 C 
ATOM     13  C   UNL A   1      32.096  24.263  24.873  1.00  0.00     0.316 C 
ATOM     14  C   UNL A   1      31.778  26.882  23.855  1.00  0.00     0.019 A 
ATOM     15  O   UNL A   1      30.787  24.894  24.842  1.00  0.00    -0.475 OA
ATOM     16  C   UNL A   1      31.600  28.098  23.190  1.00  0.00     0.032 A 
ATOM     17  C   UNL A   1      30.674  26.088  24.182  1.00  0.00     0.128 A 
ATOM     18  C   UNL A   1      30.316  28.495  22.821  1.00  0.00     0.041 A 
ATOM     19  C   UNL A   1      29.392  26.496  23.817  1.00  0.00     0.048 A 
ATOM     20  Cl  UNL A   1      30.096  29.971  21.967  1.00  0.00    -0.084 Cl
ATOM     21  C   UNL A   1      29.214  27.693  23.119  1.00  0.00     0.024 A 
BRANCH  13  22
ATOM     22  C   UNL A   1      32.487  23.855  26.295  1.00  0.00     0.430 C 
ATOM     23  F   UNL A   1      32.245  22.541  26.514  1.00  0.00    -0.167 F 
ATOM     24  F   UNL A   1      33.813  24.045  26.510  1.00  0.00    -0.167 F 
ATOM     25  F   UNL A   1      31.820  24.561  27.235  1.00  0.00    -0.167 F 
ENDBRANCH  13  22
ENDBRANCH   9  11
ENDBRANCH   8   9
ENDBRANCH   7   8
ENDBRANCH   6   7
ENDBRANCH   5   6
ENDBRANCH   4   5
ENDBRANCH   3   4
ENDBRANCH   2   3
ENDBRANCH   1   2
BRANCH   1  26
ATOM     26  C   UNL A   1      41.238  19.916  26.376  1.00  0.00     0.188 C 
BRANCH  26  27
ATOM     27  O   UNL A   1      42.529  19.324  26.277  1.00  0.00    -0.376 OA
BRANCH  27  28
ATOM     28  C   UNL A   1      43.464  19.820  25.338  1.00  0.00     0.202 C 
BRANCH  28  29
ATOM     29  C   UNL A   1      44.091  21.171  25.712  1.00  0.00     0.261 C 
BRANCH  29  30
ATOM     30  O   UNL A   1      43.180  22.279  25.617  1.00  0.00    -0.460 OA
BRANCH  30  31
ATOM     31  C   UNL A   1      43.731  23.479  25.293  1.00  0.00     0.338 C 
ATOM     32  O   UNL A   1      44.219  23.800  24.230  1.00  0.00    -0.246 OA
BRANCH  31  33
ATOM     33  C   UNL A   1      43.479  24.447  26.397  1.00  0.00     0.060 A 
ATOM     34  C   UNL A   1      42.528  24.101  27.369  1.00  0.00     0.016 A 
ATOM     35  C   UNL A   1      44.195  25.641  26.523  1.00  0.00     0.016 A 
ATOM     36  C   UNL A   1      42.288  24.941  28.462  1.00  0.00     0.010 A 
ATOM     37  C   UNL A   1      43.939  26.494  27.605  1.00  0.00     0.010 A 
ATOM     38  C   UNL A   1      42.967  26.161  28.567  1.00  0.00    -0.014 A 
BRANCH  38  39
ATOM     39  C   UNL A   1      42.508  27.196  29.529  1.00  0.00     0.031 A 
ATOM     40  C   UNL A   1      43.216  27.275  30.855  1.00  0.00     0.074 A 
ATOM     41  C   UNL A   1      41.482  28.028  29.267  1.00  0.00     0.049 A 
ATOM     42  N   UNL A   1      42.918  27.973  31.920  1.00  0.00    -0.248 NA
ATOM     43  C   UNL A   1      44.421  26.441  30.999  1.00  0.00     0.031 C 
ATOM     44  C   UNL A   1      40.748  28.102  28.008  1.00  0.00     0.029 A 
ATOM     45  N   UNL A   1      40.866  28.960  30.072  1.00  0.00    -0.354 N 
ATOM     46  C   UNL A   1      43.883  27.643  32.863  1.00  0.00     0.074 A 
ATOM     47  C   UNL A   1      44.773  26.684  32.252  1.00  0.00     0.031 C 
ATOM     48  C   UNL A   1      39.754  29.002  28.135  1.00  0.00     0.029 A 
ATOM     49  C   UNL A   1      39.757  29.536  29.499  1.00  0.00     0.049 A 
ATOM     50  H   UNL A   1      41.189  29.192  30.973  1.00  0.00     0.167 HD
ATOM     51  C   UNL A   1      44.010  28.097  34.132  1.00  0.00     0.037 A 
ATOM     52  C   UNL A   1      38.828  30.359  30.030  1.00  0.00     0.037 A 
ATOM     53  C   UNL A   1      43.138  29.063  34.740  1.00  0.00     0.049 A 
ATOM     54  C   UNL A   1      38.950  30.787  31.477  1.00  0.00     0.074 A 
ATOM     55  C   UNL A   1      43.223  29.622  36.003  1.00  0.00     0.029 A 
ATOM     56  N   UNL A   1      42.015  29.600  34.136  1.00  0.00    -0.354 N 
ATOM     57  N   UNL A   1      39.886  30.503  32.351  1.00  0.00    -0.248 NA
ATOM     58  C   UNL A   1      37.877  31.639  32.014  1.00  0.00     0.031 C 
ATOM     59  C   UNL A   1      42.115  30.453  36.186  1.00  0.00     0.029 A 
ATOM     60  C   UNL A   1      41.371  30.453  35.017  1.00  0.00     0.049 A 
ATOM     61  H   UNL A   1      41.718  29.407  33.217  1.00  0.00     0.167 HD
ATOM     62  C   UNL A   1      39.526  31.156  33.525  1.00  0.00     0.074 A 
ATOM     63  C   UNL A   1      38.298  31.867  33.250  1.00  0.00     0.031 C 
ATOM     64  C   UNL A   1      40.154  31.162  34.726  1.00  0.00     0.037 A 
BRANCH  51  65
ATOM     65  C   UNL A   1      45.112  27.526  34.970  1.00  0.00     0.064 A 
ATOM     66  C   UNL A   1      46.385  28.110  35.017  1.00  0.00     0.173 A 
ATOM     67  C   UNL A   1      44.864  26.413  35.788  1.00  0.00     0.173 A 
ATOM     68  F   UNL A   1      46.674  29.164  34.238  1.00  0.00    -0.203 F 
ATOM     69  C   UNL A   1      47.374  27.596  35.850  1.00  0.00     0.198 A 
ATOM     70  C   UNL A   1      45.847  25.918  36.639  1.00  0.00     0.198 A 
ATOM     71  F   UNL A   1      43.661  25.820  35.775  1.00  0.00    -0.203 F 
ATOM     72  F   UNL A   1      48.594  28.150  35.862  1.00  0.00    -0.200 F 
ATOM     73  C   UNL A   1      47.101  26.508  36.668  1.00  0.00     0.200 A 
ATOM     74  F   UNL A   1      45.577  24.875  37.435  1.00  0.00    -0.200 F 
ATOM     75  F   UNL A   1      48.049  26.027  37.483  1.00  0.00    -0.200 F 
ENDBRANCH  51  65
BRANCH  52  76
ATOM     76  C   UNL A   1      37.648  30.790  29.229  1.00  0.00     0.064 A 
ATOM     77  C   UNL A   1      37.504  32.118  28.798  1.00  0.00     0.173 A 
ATOM     78  C   UNL A   1      36.600  29.901  28.948  1.00  0.00     0.173 A 
ATOM     79  F   UNL A   1      38.460  33.017  29.073  1.00  0.00    -0.203 F 
ATOM     80  C   UNL A   1      36.346  32.545  28.147  1.00  0.00     0.198 A 
ATOM     81  C   UNL A   1      35.458  30.320  28.268  1.00  0.00     0.198 A 
ATOM     82  F   UNL A   1      36.679  28.621  29.344  1.00  0.00    -0.203 F 
ATOM     83  F   UNL A   1      36.207  33.834  27.809  1.00  0.00    -0.200 F 
ATOM     84  C   UNL A   1      35.326  31.644  27.879  1.00  0.00     0.200 A 
ATOM     85  F   UNL A   1      34.480  29.443  28.002  1.00  0.00    -0.200 F 
ATOM     86  F   UNL A   1      34.210  32.056  27.261  1.00  0.00    -0.200 F 
ENDBRANCH  52  76
BRANCH  64  87
ATOM     87  C   UNL A   1      39.545  31.976  35.832  1.00  0.00     0.064 A 
ATOM     88  C   UNL A   1      39.882  33.323  36.022  1.00  0.00     0.173 A 
ATOM     89  C   UNL A   1      38.559  31.422  36.663  1.00  0.00     0.173 A 
ATOM     90  F   UNL A   1      40.829  33.896  35.263  1.00  0.00    -0.203 F 
ATOM     91  C   UNL A   1      39.265  34.083  37.014  1.00  0.00     0.198 A 
ATOM     92  C   UNL A   1      37.922  32.192  37.633  1.00  0.00     0.198 A 
ATOM     93  F   UNL A   1      38.193  30.139  36.516  1.00  0.00    -0.203 F 
ATOM     94  F   UNL A   1      39.629  35.359  37.201  1.00  0.00    -0.200 F 
ATOM     95  C   UNL A   1      38.280  33.519  37.811  1.00  0.00     0.200 A 
ATOM     96  F   UNL A   1      36.959  31.650  38.391  1.00  0.00    -0.200 F 
ATOM     97  F   UNL A   1      37.676  34.256  38.753  1.00  0.00    -0.200 F 
ENDBRANCH  64  87
ENDBRANCH  38  39
ENDBRANCH  31  33
ENDBRANCH  30  31
ENDBRANCH  29  30
ENDBRANCH  28  29
ENDBRANCH  27  28
ENDBRANCH  26  27
ENDBRANCH   1  26
TORSDOF 21
ENDMDL
MODEL 3
REMARK VINA RESULT:     -10.1      0.403      1.961
REMARK SMILES O=C(OCCOCCOCCOCCOC(=O)c1ccc(-c2c3nc(c(-c4c(F)c(F)c(F)c(F)c4F)c4ccc([nH]4)c(-c4c(F)c(F)c(F)c(F)c4F)c4nc(c(-c5c(F)c(F)c(F)c(F)c5F)c5ccc2[nH]5)C=C4)C=C3)cc1)C1=Cc2cc(Cl)ccc2O[C@@H]1C(F)(F)F
REMARK SMILES IDX 10 1 9 2 8 3 7 4 6 5 5 6 4 7 3 8 2 9 1 10 81 11 82 12 91 13
REMARK SMILES IDX 83 14 90 15 84 16 89 17 85 18 88 19 86 20 87 21 92 22 93 23
REMARK SMILES IDX 94 24 95 25 11 26 12 27 13 28 14 29 15 30 16 31 17 32 18 33
REMARK SMILES IDX 19 34 80 35 20 36 79 37 21 38 22 39 23 40 73 41 24 42 78 43
REMARK SMILES IDX 72 44 74 45 25 46 77 47 71 48 70 49 26 51 58 52 38 53 57 54
REMARK SMILES IDX 39 55 42 56 56 57 75 58 40 59 41 60 55 62 76 63 43 64 27 65
REMARK SMILES IDX 28 66 36 67 29 68 30 69 34 70 37 71 31 72 32 73 35 74 33 75
REMARK SMILES IDX 59 76 60 77 68 78 61 79 62 80 66 81 69 82 63 83 64 84 67 85
REMARK SMILES IDX 65 86 44 87 45 88 53 89 46 90 47 91 51 92 54 93 48 94 49 95
REMARK SMILES IDX 52 96 50 97
REMARK H PARENT 74 50 42 61
REMARK Flexibility Score: inf
ROOT
ATOM      1  C   UNL A   1      33.100  22.782  26.322  1.00  0.00     0.188 C 
ENDROOT
BRANCH   1   2
ATOM      2  O   UNL A   1      32.343  23.933  26.666  1.00  0.00    -0.377 OA
BRANCH   2   3
ATOM      3  C   UNL A   1      32.927  25.179  26.310  1.00  0.00     0.188 C 
BRANCH   3   4
ATOM      4  C   UNL A   1      31.940  26.329  26.435  1.00  0.00     0.188 C 
BRANCH   4   5
ATOM      5  O   UNL A   1      32.371  27.342  27.335  1.00  0.00    -0.376 OA
BRANCH   5   6
ATOM      6  C   UNL A   1      31.618  28.544  27.419  1.00  0.00     0.202 C 
BRANCH   6   7
ATOM      7  C   UNL A   1      32.325  29.787  26.876  1.00  0.00     0.261 C 
BRANCH   7   8
ATOM      8  O   UNL A   1      31.973  30.022  25.503  1.00  0.00    -0.460 OA
BRANCH   8   9
ATOM      9  C   UNL A   1      32.610  29.254  24.597  1.00  0.00     0.338 C 
ATOM     10  O   UNL A   1      33.786  28.942  24.697  1.00  0.00    -0.246 OA
BRANCH   9  11
ATOM     11  C   UNL A   1      31.748  28.884  23.443  1.00  0.00     0.087 C 
ATOM     12  C   UNL A   1      32.404  28.055  22.612  1.00  0.00     0.027 C 
ATOM     13  C   UNL A   1      30.261  28.726  23.685  1.00  0.00     0.316 C 
ATOM     14  C   UNL A   1      31.949  26.663  22.741  1.00  0.00     0.019 A 
ATOM     15  O   UNL A   1      29.763  27.368  23.536  1.00  0.00    -0.475 OA
ATOM     16  C   UNL A   1      32.832  25.620  22.447  1.00  0.00     0.032 A 
ATOM     17  C   UNL A   1      30.673  26.389  23.240  1.00  0.00     0.128 A 
ATOM     18  C   UNL A   1      32.442  24.305  22.692  1.00  0.00     0.041 A 
ATOM     19  C   UNL A   1      30.287  25.070  23.476  1.00  0.00     0.048 A 
ATOM     20  Cl  UNL A   1      33.539  23.020  22.370  1.00  0.00    -0.084 Cl
ATOM     21  C   UNL A   1      31.181  24.026  23.218  1.00  0.00     0.024 A 
BRANCH  13  22
ATOM     22  C   UNL A   1      29.443  29.716  22.854  1.00  0.00     0.430 C 
ATOM     23  F   UNL A   1      29.947  29.843  21.604  1.00  0.00    -0.167 F 
ATOM     24  F   UNL A   1      28.162  29.291  22.712  1.00  0.00    -0.167 F 
ATOM     25  F   UNL A   1      29.401  30.946  23.411  1.00  0.00    -0.167 F 
ENDBRANCH  13  22
ENDBRANCH   9  11
ENDBRANCH   8   9
ENDBRANCH   7   8
ENDBRANCH   6   7
ENDBRANCH   5   6
ENDBRANCH   4   5
ENDBRANCH   3   4
ENDBRANCH   2   3
ENDBRANCH   1   2
BRANCH   1  26
ATOM     26  C   UNL A   1      34.615  22.823  26.635  1.00  0.00     0.188 C 
BRANCH  26  27
ATOM     27  O   UNL A   1      35.627  22.764  25.635  1.00  0.00    -0.376 OA
BRANCH  27  28
ATOM     28  C   UNL A   1      36.330  21.557  25.412  1.00  0.00     0.202 C 
BRANCH  28  29
ATOM     29  C   UNL A   1      37.850  21.655  25.610  1.00  0.00     0.261 C 
BRANCH  29  30
ATOM     30  O   UNL A   1      38.312  22.987  25.891  1.00  0.00    -0.460 OA
BRANCH  30  31
ATOM     31  C   UNL A   1      39.560  23.085  26.421  1.00  0.00     0.338 C 
ATOM     32  O   UNL A   1      40.479  22.303  26.291  1.00  0.00    -0.246 OA
BRANCH  31  33
ATOM     33  C   UNL A   1      39.717  24.424  27.056  1.00  0.00     0.060 A 
ATOM     34  C   UNL A   1      40.325  25.440  26.302  1.00  0.00     0.016 A 
ATOM     35  C   UNL A   1      39.228  24.709  28.334  1.00  0.00     0.016 A 
ATOM     36  C   UNL A   1      40.450  26.734  26.820  1.00  0.00     0.010 A 
ATOM     37  C   UNL A   1      39.374  25.998  28.863  1.00  0.00     0.010 A 
ATOM     38  C   UNL A   1      40.007  27.012  28.119  1.00  0.00    -0.014 A 
BRANCH  38  39
ATOM     39  C   UNL A   1      40.408  28.272  28.797  1.00  0.00     0.031 A 
ATOM     40  C   UNL A   1      41.804  28.346  29.356  1.00  0.00     0.074 A 
ATOM     41  C   UNL A   1      39.570  29.315  28.948  1.00  0.00     0.049 A 
ATOM     42  N   UNL A   1      42.350  29.256  30.119  1.00  0.00    -0.248 NA
ATOM     43  C   UNL A   1      42.702  27.230  29.011  1.00  0.00     0.031 C 
ATOM     44  C   UNL A   1      38.217  29.403  28.409  1.00  0.00     0.029 A 
ATOM     45  N   UNL A   1      39.739  30.499  29.631  1.00  0.00    -0.354 N 
ATOM     46  C   UNL A   1      43.643  28.811  30.363  1.00  0.00     0.074 A 
ATOM     47  C   UNL A   1      43.802  27.551  29.673  1.00  0.00     0.031 C 
ATOM     48  C   UNL A   1      37.661  30.562  28.813  1.00  0.00     0.029 A 
ATOM     49  C   UNL A   1      38.606  31.276  29.675  1.00  0.00     0.049 A 
ATOM     50  H   UNL A   1      40.590  30.763  30.049  1.00  0.00     0.167 HD
ATOM     51  C   UNL A   1      44.610  29.399  31.104  1.00  0.00     0.037 A 
ATOM     52  C   UNL A   1      38.348  32.405  30.368  1.00  0.00     0.037 A 
ATOM     53  C   UNL A   1      44.464  30.658  31.779  1.00  0.00     0.049 A 
ATOM     54  C   UNL A   1      39.422  32.997  31.255  1.00  0.00     0.074 A 
ATOM     55  C   UNL A   1      45.408  31.357  32.509  1.00  0.00     0.029 A 
ATOM     56  N   UNL A   1      43.294  31.399  31.819  1.00  0.00    -0.354 N 
ATOM     57  N   UNL A   1      40.654  32.593  31.450  1.00  0.00    -0.248 NA
ATOM     58  C   UNL A   1      39.063  34.197  32.028  1.00  0.00     0.031 C 
ATOM     59  C   UNL A   1      44.793  32.492  33.043  1.00  0.00     0.029 A 
ATOM     60  C   UNL A   1      43.480  32.527  32.600  1.00  0.00     0.049 A 
ATOM     61  H   UNL A   1      42.457  31.160  31.361  1.00  0.00     0.167 HD
ATOM     62  C   UNL A   1      41.218  33.496  32.345  1.00  0.00     0.074 A 
ATOM     63  C   UNL A   1      40.203  34.482  32.642  1.00  0.00     0.031 C 
ATOM     64  C   UNL A   1      42.464  33.505  32.879  1.00  0.00     0.037 A 
BRANCH  51  65
ATOM     65  C   UNL A   1      45.908  28.670  31.262  1.00  0.00     0.064 A 
ATOM     66  C   UNL A   1      46.991  28.889  30.400  1.00  0.00     0.173 A 
ATOM     67  C   UNL A   1      46.088  27.785  32.337  1.00  0.00     0.173 A 
ATOM     68  F   UNL A   1      46.861  29.711  29.348  1.00  0.00    -0.203 F 
ATOM     69  C   UNL A   1      48.207  28.244  30.604  1.00  0.00     0.198 A 
ATOM     70  C   UNL A   1      47.313  27.162  32.553  1.00  0.00     0.198 A 
ATOM     71  F   UNL A   1      45.079  27.542  33.188  1.00  0.00    -0.203 F 
ATOM     72  F   UNL A   1      49.222  28.444  29.753  1.00  0.00    -0.200 F 
ATOM     73  C   UNL A   1      48.370  27.389  31.687  1.00  0.00     0.200 A 
ATOM     74  F   UNL A   1      47.470  26.346  33.605  1.00  0.00    -0.200 F 
ATOM     75  F   UNL A   1      49.547  26.784  31.892  1.00  0.00    -0.200 F 
ENDBRANCH  51  65
BRANCH  52  76
ATOM     76  C   UNL A   1      36.996  33.031  30.326  1.00  0.00     0.064 A 
ATOM     77  C   UNL A   1      36.078  32.858  31.372  1.00  0.00     0.173 A 
ATOM     78  C   UNL A   1      36.565  33.747  29.198  1.00  0.00     0.173 A 
ATOM     79  F   UNL A   1      36.427  32.151  32.457  1.00  0.00    -0.203 F 
ATOM     80  C   UNL A   1      34.776  33.349  31.280  1.00  0.00     0.198 A 
ATOM     81  C   UNL A   1      35.274  34.266  29.121  1.00  0.00     0.198 A 
ATOM     82  F   UNL A   1      37.398  33.935  28.163  1.00  0.00    -0.203 F 
ATOM     83  F   UNL A   1      33.900  33.109  32.265  1.00  0.00    -0.200 F 
ATOM     84  C   UNL A   1      34.377  34.056  30.156  1.00  0.00     0.200 A 
ATOM     85  F   UNL A   1      34.897  34.957  28.036  1.00  0.00    -0.200 F 
ATOM     86  F   UNL A   1      33.123  34.521  30.063  1.00  0.00    -0.200 F 
ENDBRANCH  52  76
BRANCH  64  87
ATOM     87  C   UNL A   1      42.816  34.622  33.819  1.00  0.00     0.064 A 
ATOM     88  C   UNL A   1      42.734  34.463  35.210  1.00  0.00     0.173 A 
ATOM     89  C   UNL A   1      43.312  35.838  33.325  1.00  0.00     0.173 A 
ATOM     90  F   UNL A   1      42.254  33.324  35.732  1.00  0.00    -0.203 F 
ATOM     91  C   UNL A   1      43.121  35.487  36.071  1.00  0.00     0.198 A 
ATOM     92  C   UNL A   1      43.727  36.849  34.190  1.00  0.00     0.198 A 
ATOM     93  F   UNL A   1      43.420  36.038  32.003  1.00  0.00    -0.203 F 
ATOM     94  F   UNL A   1      42.999  35.326  37.396  1.00  0.00    -0.200 F 
ATOM     95  C   UNL A   1      43.625  36.674  35.561  1.00  0.00     0.200 A 
ATOM     96  F   UNL A   1      44.230  37.987  33.695  1.00  0.00    -0.200 F 
ATOM     97  F   UNL A   1      44.013  37.651  36.392  1.00  0.00    -0.200 F 
ENDBRANCH  64  87
ENDBRANCH  38  39
ENDBRANCH  31  33
ENDBRANCH  30  31
ENDBRANCH  29  30
ENDBRANCH  28  29
ENDBRANCH  27  28
ENDBRANCH  26  27
ENDBRANCH   1  26
TORSDOF 21
ENDMDL
