MODEL 1
REMARK VINA RESULT:      -9.5      0.000      0.000
REMARK SMILES O=C(OCCOCCOCCOCCOC(=O)c1ccc(-c2c3nc(c(-c4c(F)c(F)c(F)c(F)c4F)c4ccc([nH]4)c(-c4c(F)c(F)c(F)c(F)c4F)c4nc(c(-c5c(F)c(F)c(F)c(F)c5F)c5ccc2[nH]5)C=C4)C=C3)cc1)c1ccc(NC(=O)[C@@H]2CC=CC[C@@H]2C(=O)Nc2ccc(Br)cc2)cc1
REMARK SMILES IDX 8 1 7 2 6 3 5 4 4 5 3 6 2 7 1 8 81 9 82 10 105 11 83 12
REMARK SMILES IDX 104 13 84 14 85 15 86 16 87 18 88 19 89 20 93 21 90 22 92 23
REMARK SMILES IDX 91 24 94 25 95 26 96 27 97 29 98 30 103 31 99 32 102 33
REMARK SMILES IDX 100 34 101 35 9 36 10 37 11 38 12 39 13 40 14 41 15 42 16 43
REMARK SMILES IDX 17 44 18 45 19 46 80 47 20 48 79 49 21 50 22 51 23 52 73 53
REMARK SMILES IDX 24 54 78 55 72 56 74 57 25 58 77 59 71 60 70 61 26 63 58 64
REMARK SMILES IDX 38 65 57 66 39 67 42 68 56 69 75 70 40 71 41 72 55 74 76 75
REMARK SMILES IDX 43 76 27 77 28 78 36 79 29 80 30 81 34 82 37 83 31 84 32 85
REMARK SMILES IDX 35 86 33 87 59 88 60 89 68 90 61 91 62 92 66 93 69 94 63 95
REMARK SMILES IDX 64 96 67 97 65 98 44 99 45 100 53 101 46 102 47 103 51 104
REMARK SMILES IDX 54 105 48 106 49 107 52 108 50 109
REMARK H PARENT 85 17 96 28 74 62 42 73
REMARK Flexibility Score: inf
ROOT
ATOM      1  C   UNL A   1      44.504  20.971  25.468  1.00  0.00     0.188 C 
ENDROOT
BRANCH   1   2
ATOM      2  C   UNL A   1      43.371  19.961  25.251  1.00  0.00     0.188 C 
BRANCH   2   3
ATOM      3  O   UNL A   1      42.563  19.714  26.401  1.00  0.00    -0.376 OA
BRANCH   3   4
ATOM      4  C   UNL A   1      41.172  19.964  26.245  1.00  0.00     0.202 C 
BRANCH   4   5
ATOM      5  C   UNL A   1      40.689  21.388  26.545  1.00  0.00     0.261 C 
BRANCH   5   6
ATOM      6  O   UNL A   1      39.319  21.667  26.199  1.00  0.00    -0.460 OA
BRANCH   6   7
ATOM      7  C   UNL A   1      38.582  22.799  26.237  1.00  0.00     0.338 C 
ATOM      8  O   UNL A   1      39.033  23.764  26.853  1.00  0.00    -0.246 OA
BRANCH   7   9
ATOM      9  C   UNL A   1      37.257  22.965  25.552  1.00  0.00     0.060 A 
ATOM     10  C   UNL A   1      36.184  23.682  26.050  1.00  0.00     0.018 A 
ATOM     11  C   UNL A   1      37.061  22.382  24.292  1.00  0.00     0.018 A 
ATOM     12  C   UNL A   1      35.024  23.928  25.301  1.00  0.00     0.027 A 
ATOM     13  C   UNL A   1      35.942  22.733  23.494  1.00  0.00     0.027 A 
ATOM     14  C   UNL A   1      35.003  23.680  23.946  1.00  0.00     0.041 A 
BRANCH  14  15
ATOM     15  N   UNL A   1      34.380  24.504  22.949  1.00  0.00    -0.326 N 
ATOM     16  C   UNL A   1      33.665  25.677  22.768  1.00  0.00     0.228 C 
ATOM     17  H   UNL A   1      34.510  24.080  22.070  1.00  0.00     0.169 HD
ATOM     18  O   UNL A   1      33.606  25.996  21.564  1.00  0.00    -0.274 OA
BRANCH  16  19
ATOM     19  C   UNL A   1      32.915  26.647  23.752  1.00  0.00     0.095 C 
ATOM     20  C   UNL A   1      32.962  26.384  25.312  1.00  0.00     0.041 C 
ATOM     21  C   UNL A   1      31.492  27.059  23.424  1.00  0.00     0.095 C 
ATOM     22  C   UNL A   1      32.018  27.283  26.128  1.00  0.00    -0.030 C 
ATOM     23  C   UNL A   1      31.234  28.421  24.099  1.00  0.00     0.041 C 
ATOM     24  C   UNL A   1      31.269  28.255  25.579  1.00  0.00    -0.030 C 
BRANCH  21  25
ATOM     25  C   UNL A   1      30.503  25.929  23.905  1.00  0.00     0.228 C 
ATOM     26  O   UNL A   1      29.519  26.160  24.596  1.00  0.00    -0.274 OA
ATOM     27  N   UNL A   1      30.807  24.704  23.341  1.00  0.00    -0.326 N 
ATOM     28  H   UNL A   1      30.768  24.726  22.358  1.00  0.00     0.169 HD
BRANCH  27  29
ATOM     29  C   UNL A   1      31.159  23.437  23.833  1.00  0.00     0.041 A 
ATOM     30  C   UNL A   1      31.623  22.541  22.848  1.00  0.00     0.027 A 
ATOM     31  C   UNL A   1      31.297  23.088  25.161  1.00  0.00     0.027 A 
ATOM     32  C   UNL A   1      32.289  21.364  23.161  1.00  0.00     0.018 A 
ATOM     33  C   UNL A   1      31.941  21.879  25.490  1.00  0.00     0.018 A 
ATOM     34  C   UNL A   1      32.450  21.038  24.494  1.00  0.00     0.018 A 
ATOM     35  Br  UNL A   1      33.391  19.462  24.938  1.00  0.00    -0.051 Br
ENDBRANCH  27  29
ENDBRANCH  21  25
ENDBRANCH  16  19
ENDBRANCH  14  15
ENDBRANCH   7   9
ENDBRANCH   6   7
ENDBRANCH   5   6
ENDBRANCH   4   5
ENDBRANCH   3   4
ENDBRANCH   2   3
ENDBRANCH   1   2
BRANCH   1  36
ATOM     36  O   UNL A   1      44.286  22.025  26.407  1.00  0.00    -0.377 OA
BRANCH  36  37
ATOM     37  C   UNL A   1      43.720  23.234  25.916  1.00  0.00     0.188 C 
BRANCH  37  38
ATOM     38  C   UNL A   1      43.688  24.471  26.832  1.00  0.00     0.188 C 
BRANCH  38  39
ATOM     39  O   UNL A   1      44.065  25.656  26.172  1.00  0.00    -0.376 OA
BRANCH  39  40
ATOM     40  C   UNL A   1      43.237  26.184  25.151  1.00  0.00     0.202 C 
BRANCH  40  41
ATOM     41  C   UNL A   1      41.773  26.597  25.382  1.00  0.00     0.261 C 
BRANCH  41  42
ATOM     42  O   UNL A   1      41.490  27.449  26.493  1.00  0.00    -0.460 OA
BRANCH  42  43
ATOM     43  C   UNL A   1      42.370  28.442  26.767  1.00  0.00     0.338 C 
ATOM     44  O   UNL A   1      42.598  29.427  26.108  1.00  0.00    -0.246 OA
BRANCH  43  45
ATOM     45  C   UNL A   1      42.847  28.219  28.157  1.00  0.00     0.060 A 
ATOM     46  C   UNL A   1      41.924  27.759  29.107  1.00  0.00     0.016 A 
ATOM     47  C   UNL A   1      44.198  28.356  28.494  1.00  0.00     0.016 A 
ATOM     48  C   UNL A   1      42.345  27.464  30.405  1.00  0.00     0.010 A 
ATOM     49  C   UNL A   1      44.613  28.088  29.802  1.00  0.00     0.010 A 
ATOM     50  C   UNL A   1      43.682  27.672  30.770  1.00  0.00    -0.014 A 
BRANCH  50  51
ATOM     51  C   UNL A   1      44.047  27.713  32.207  1.00  0.00     0.031 A 
ATOM     52  C   UNL A   1      43.734  28.974  32.964  1.00  0.00     0.074 A 
ATOM     53  C   UNL A   1      44.618  26.671  32.834  1.00  0.00     0.049 A 
ATOM     54  N   UNL A   1      43.994  29.292  34.205  1.00  0.00    -0.248 NA
ATOM     55  C   UNL A   1      43.031  30.024  32.208  1.00  0.00     0.031 C 
ATOM     56  C   UNL A   1      44.931  25.381  32.226  1.00  0.00     0.029 A 
ATOM     57  N   UNL A   1      45.050  26.545  34.133  1.00  0.00    -0.354 N 
ATOM     58  C   UNL A   1      43.495  30.577  34.373  1.00  0.00     0.074 A 
ATOM     59  C   UNL A   1      42.945  30.994  33.103  1.00  0.00     0.031 C 
ATOM     60  C   UNL A   1      45.523  24.598  33.146  1.00  0.00     0.029 A 
ATOM     61  C   UNL A   1      45.662  25.345  34.397  1.00  0.00     0.049 A 
ATOM     62  H   UNL A   1      44.932  27.250  34.810  1.00  0.00     0.167 HD
ATOM     63  C   UNL A   1      43.490  31.341  35.491  1.00  0.00     0.037 A 
ATOM     64  C   UNL A   1      46.286  24.917  35.513  1.00  0.00     0.037 A 
ATOM     65  C   UNL A   1      44.048  30.929  36.749  1.00  0.00     0.049 A 
ATOM     66  C   UNL A   1      46.343  25.819  36.723  1.00  0.00     0.074 A 
ATOM     67  C   UNL A   1      44.078  31.621  37.946  1.00  0.00     0.029 A 
ATOM     68  N   UNL A   1      44.687  29.717  36.969  1.00  0.00    -0.354 N 
ATOM     69  N   UNL A   1      45.841  27.019  36.889  1.00  0.00    -0.248 NA
ATOM     70  C   UNL A   1      47.052  25.304  37.904  1.00  0.00     0.031 C 
ATOM     71  C   UNL A   1      44.794  30.856  38.873  1.00  0.00     0.029 A 
ATOM     72  C   UNL A   1      45.146  29.657  38.274  1.00  0.00     0.049 A 
ATOM     73  H   UNL A   1      44.797  29.006  36.297  1.00  0.00     0.167 HD
ATOM     74  C   UNL A   1      46.145  27.387  38.195  1.00  0.00     0.074 A 
ATOM     75  C   UNL A   1      46.863  26.277  38.783  1.00  0.00     0.031 C 
ATOM     76  C   UNL A   1      45.852  28.539  38.849  1.00  0.00     0.037 A 
BRANCH  63  77
ATOM     77  C   UNL A   1      42.900  32.716  35.382  1.00  0.00     0.064 A 
ATOM     78  C   UNL A   1      43.681  33.836  35.056  1.00  0.00     0.173 A 
ATOM     79  C   UNL A   1      41.527  32.913  35.594  1.00  0.00     0.173 A 
ATOM     80  F   UNL A   1      45.002  33.705  34.864  1.00  0.00    -0.203 F 
ATOM     81  C   UNL A   1      43.116  35.106  34.979  1.00  0.00     0.198 A 
ATOM     82  C   UNL A   1      40.959  34.179  35.480  1.00  0.00     0.198 A 
ATOM     83  F   UNL A   1      40.734  31.878  35.907  1.00  0.00    -0.203 F 
ATOM     84  F   UNL A   1      43.891  36.168  34.724  1.00  0.00    -0.200 F 
ATOM     85  C   UNL A   1      41.754  35.275  35.182  1.00  0.00     0.200 A 
ATOM     86  F   UNL A   1      39.641  34.338  35.664  1.00  0.00    -0.200 F 
ATOM     87  F   UNL A   1      41.209  36.497  35.099  1.00  0.00    -0.200 F 
ENDBRANCH  63  77
BRANCH  64  88
ATOM     88  C   UNL A   1      46.933  23.577  35.540  1.00  0.00     0.064 A 
ATOM     89  C   UNL A   1      48.226  23.381  35.032  1.00  0.00     0.173 A 
ATOM     90  C   UNL A   1      46.258  22.454  36.046  1.00  0.00     0.173 A 
ATOM     91  F   UNL A   1      48.904  24.414  34.511  1.00  0.00    -0.203 F 
ATOM     92  C   UNL A   1      48.809  22.115  35.012  1.00  0.00     0.198 A 
ATOM     93  C   UNL A   1      46.855  21.195  36.053  1.00  0.00     0.198 A 
ATOM     94  F   UNL A   1      45.017  22.583  36.537  1.00  0.00    -0.203 F 
ATOM     95  F   UNL A   1      50.025  21.948  34.472  1.00  0.00    -0.200 F 
ATOM     96  C   UNL A   1      48.125  21.024  35.528  1.00  0.00     0.200 A 
ATOM     97  F   UNL A   1      46.195  20.147  36.564  1.00  0.00    -0.200 F 
ATOM     98  F   UNL A   1      48.689  19.808  35.510  1.00  0.00    -0.200 F 
ENDBRANCH  64  88
BRANCH  76  99
ATOM     99  C   UNL A   1      46.264  28.647  40.291  1.00  0.00     0.064 A 
ATOM    100  C   UNL A   1      45.531  28.038  41.320  1.00  0.00     0.173 A 
ATOM    101  C   UNL A   1      47.445  29.322  40.639  1.00  0.00     0.173 A 
ATOM    102  F   UNL A   1      44.389  27.390  41.043  1.00  0.00    -0.203 F 
ATOM    103  C   UNL A   1      45.950  28.125  42.645  1.00  0.00     0.198 A 
ATOM    104  C   UNL A   1      47.880  29.375  41.961  1.00  0.00     0.198 A 
ATOM    105  F   UNL A   1      48.192  29.913  39.694  1.00  0.00    -0.203 F 
ATOM    106  F   UNL A   1      45.207  27.577  43.617  1.00  0.00    -0.200 F 
ATOM    107  C   UNL A   1      47.128  28.784  42.963  1.00  0.00     0.200 A 
ATOM    108  F   UNL A   1      49.028  29.997  42.262  1.00  0.00    -0.200 F 
ATOM    109  F   UNL A   1      47.535  28.854  44.238  1.00  0.00    -0.200 F 
ENDBRANCH  76  99
ENDBRANCH  50  51
ENDBRANCH  43  45
ENDBRANCH  42  43
ENDBRANCH  41  42
ENDBRANCH  40  41
ENDBRANCH  39  40
ENDBRANCH  38  39
ENDBRANCH  37  38
ENDBRANCH  36  37
ENDBRANCH   1  36
TORSDOF 24
ENDMDL
MODEL 2
REMARK VINA RESULT:      -9.2      5.630     10.165
REMARK SMILES O=C(OCCOCCOCCOCCOC(=O)c1ccc(-c2c3nc(c(-c4c(F)c(F)c(F)c(F)c4F)c4ccc([nH]4)c(-c4c(F)c(F)c(F)c(F)c4F)c4nc(c(-c5c(F)c(F)c(F)c(F)c5F)c5ccc2[nH]5)C=C4)C=C3)cc1)c1ccc(NC(=O)[C@@H]2CC=CC[C@@H]2C(=O)Nc2ccc(Br)cc2)cc1
REMARK SMILES IDX 8 1 7 2 6 3 5 4 4 5 3 6 2 7 1 8 81 9 82 10 105 11 83 12
REMARK SMILES IDX 104 13 84 14 85 15 86 16 87 18 88 19 89 20 93 21 90 22 92 23
REMARK SMILES IDX 91 24 94 25 95 26 96 27 97 29 98 30 103 31 99 32 102 33
REMARK SMILES IDX 100 34 101 35 9 36 10 37 11 38 12 39 13 40 14 41 15 42 16 43
REMARK SMILES IDX 17 44 18 45 19 46 80 47 20 48 79 49 21 50 22 51 23 52 73 53
REMARK SMILES IDX 24 54 78 55 72 56 74 57 25 58 77 59 71 60 70 61 26 63 58 64
REMARK SMILES IDX 38 65 57 66 39 67 42 68 56 69 75 70 40 71 41 72 55 74 76 75
REMARK SMILES IDX 43 76 27 77 28 78 36 79 29 80 30 81 34 82 37 83 31 84 32 85
REMARK SMILES IDX 35 86 33 87 59 88 60 89 68 90 61 91 62 92 66 93 69 94 63 95
REMARK SMILES IDX 64 96 67 97 65 98 44 99 45 100 53 101 46 102 47 103 51 104
REMARK SMILES IDX 54 105 48 106 49 107 52 108 50 109
REMARK H PARENT 85 17 96 28 74 62 42 73
REMARK Flexibility Score: inf
ROOT
ATOM      1  C   UNL A   1      49.558  37.670  27.138  1.00  0.00     0.188 C 
ENDROOT
BRANCH   1   2
ATOM      2  C   UNL A   1      48.806  36.342  26.984  1.00  0.00     0.188 C 
BRANCH   2   3
ATOM      3  O   UNL A   1      47.900  36.292  25.884  1.00  0.00    -0.376 OA
BRANCH   3   4
ATOM      4  C   UNL A   1      46.888  35.296  25.961  1.00  0.00     0.202 C 
BRANCH   4   5
ATOM      5  C   UNL A   1      47.355  33.852  26.180  1.00  0.00     0.261 C 
BRANCH   5   6
ATOM      6  O   UNL A   1      46.344  32.839  26.016  1.00  0.00    -0.460 OA
BRANCH   6   7
ATOM      7  C   UNL A   1      46.262  31.558  26.438  1.00  0.00     0.338 C 
ATOM      8  O   UNL A   1      47.049  30.740  25.963  1.00  0.00    -0.246 OA
BRANCH   7   9
ATOM      9  C   UNL A   1      45.287  31.072  27.469  1.00  0.00     0.060 A 
ATOM     10  C   UNL A   1      43.991  31.532  27.624  1.00  0.00     0.018 A 
ATOM     11  C   UNL A   1      45.674  30.051  28.349  1.00  0.00     0.018 A 
ATOM     12  C   UNL A   1      43.076  30.937  28.506  1.00  0.00     0.027 A 
ATOM     13  C   UNL A   1      44.715  29.376  29.148  1.00  0.00     0.027 A 
ATOM     14  C   UNL A   1      43.350  29.712  29.073  1.00  0.00     0.041 A 
BRANCH  14  15
ATOM     15  N   UNL A   1      42.408  28.648  29.275  1.00  0.00    -0.326 N 
ATOM     16  C   UNL A   1      42.204  27.293  29.067  1.00  0.00     0.228 C 
ATOM     17  H   UNL A   1      41.615  29.016  29.728  1.00  0.00     0.169 HD
ATOM     18  O   UNL A   1      41.224  26.873  29.715  1.00  0.00    -0.274 OA
BRANCH  16  19
ATOM     19  C   UNL A   1      42.930  26.214  28.185  1.00  0.00     0.095 C 
ATOM     20  C   UNL A   1      43.569  26.628  26.797  1.00  0.00     0.041 C 
ATOM     21  C   UNL A   1      42.253  24.874  27.970  1.00  0.00     0.095 C 
ATOM     22  C   UNL A   1      44.057  25.438  25.952  1.00  0.00    -0.030 C 
ATOM     23  C   UNL A   1      43.356  23.837  27.677  1.00  0.00     0.041 C 
ATOM     24  C   UNL A   1      44.012  24.164  26.379  1.00  0.00    -0.030 C 
BRANCH  21  25
ATOM     25  C   UNL A   1      41.199  25.008  26.804  1.00  0.00     0.228 C 
ATOM     26  O   UNL A   1      40.932  26.079  26.274  1.00  0.00    -0.274 OA
ATOM     27  N   UNL A   1      40.740  23.776  26.380  1.00  0.00    -0.326 N 
ATOM     28  H   UNL A   1      41.467  23.200  26.051  1.00  0.00     0.169 HD
BRANCH  27  29
ATOM     29  C   UNL A   1      39.486  23.147  26.308  1.00  0.00     0.041 A 
ATOM     30  C   UNL A   1      38.390  24.034  26.329  1.00  0.00     0.027 A 
ATOM     31  C   UNL A   1      39.257  21.820  26.005  1.00  0.00     0.027 A 
ATOM     32  C   UNL A   1      37.107  23.644  25.974  1.00  0.00     0.018 A 
ATOM     33  C   UNL A   1      37.951  21.407  25.676  1.00  0.00     0.018 A 
ATOM     34  C   UNL A   1      36.892  22.321  25.642  1.00  0.00     0.018 A 
ATOM     35  Br  UNL A   1      35.160  21.784  25.114  1.00  0.00    -0.051 Br
ENDBRANCH  27  29
ENDBRANCH  21  25
ENDBRANCH  16  19
ENDBRANCH  14  15
ENDBRANCH   7   9
ENDBRANCH   6   7
ENDBRANCH   5   6
ENDBRANCH   4   5
ENDBRANCH   3   4
ENDBRANCH   2   3
ENDBRANCH   1   2
BRANCH   1  36
ATOM     36  O   UNL A   1      49.240  38.489  28.264  1.00  0.00    -0.377 OA
BRANCH  36  37
ATOM     37  C   UNL A   1      47.892  38.485  28.718  1.00  0.00     0.188 C 
BRANCH  37  38
ATOM     38  C   UNL A   1      46.907  39.523  28.149  1.00  0.00     0.188 C 
BRANCH  38  39
ATOM     39  O   UNL A   1      46.180  39.045  27.044  1.00  0.00    -0.376 OA
BRANCH  39  40
ATOM     40  C   UNL A   1      45.900  39.913  25.959  1.00  0.00     0.202 C 
BRANCH  40  41
ATOM     41  C   UNL A   1      44.536  40.596  25.758  1.00  0.00     0.261 C 
BRANCH  41  42
ATOM     42  O   UNL A   1      43.639  40.632  26.869  1.00  0.00    -0.460 OA
BRANCH  42  43
ATOM     43  C   UNL A   1      42.534  39.850  26.812  1.00  0.00     0.338 C 
ATOM     44  O   UNL A   1      41.540  40.027  26.150  1.00  0.00    -0.246 OA
BRANCH  43  45
ATOM     45  C   UNL A   1      42.859  38.598  27.543  1.00  0.00     0.060 A 
ATOM     46  C   UNL A   1      42.933  37.404  26.811  1.00  0.00     0.016 A 
ATOM     47  C   UNL A   1      43.190  38.613  28.903  1.00  0.00     0.016 A 
ATOM     48  C   UNL A   1      43.309  36.218  27.443  1.00  0.00     0.010 A 
ATOM     49  C   UNL A   1      43.539  37.419  29.541  1.00  0.00     0.010 A 
ATOM     50  C   UNL A   1      43.568  36.212  28.820  1.00  0.00    -0.014 A 
BRANCH  50  51
ATOM     51  C   UNL A   1      43.605  34.921  29.548  1.00  0.00     0.031 A 
ATOM     52  C   UNL A   1      42.288  34.283  29.891  1.00  0.00     0.074 A 
ATOM     53  C   UNL A   1      44.758  34.317  29.883  1.00  0.00     0.049 A 
ATOM     54  N   UNL A   1      42.036  33.191  30.566  1.00  0.00    -0.248 NA
ATOM     55  C   UNL A   1      41.086  34.980  29.405  1.00  0.00     0.031 C 
ATOM     56  C   UNL A   1      46.096  34.808  29.571  1.00  0.00     0.029 A 
ATOM     57  N   UNL A   1      44.979  33.153  30.579  1.00  0.00    -0.354 N 
ATOM     58  C   UNL A   1      40.652  33.078  30.590  1.00  0.00     0.074 A 
ATOM     59  C   UNL A   1      40.115  34.224  29.892  1.00  0.00     0.031 C 
ATOM     60  C   UNL A   1      47.003  33.961  30.090  1.00  0.00     0.029 A 
ATOM     61  C   UNL A   1      46.308  32.887  30.802  1.00  0.00     0.049 A 
ATOM     62  H   UNL A   1      44.254  32.565  30.891  1.00  0.00     0.167 HD
ATOM     63  C   UNL A   1      39.896  32.101  31.141  1.00  0.00     0.037 A 
ATOM     64  C   UNL A   1      46.888  31.906  31.521  1.00  0.00     0.037 A 
ATOM     65  C   UNL A   1      40.431  30.968  31.844  1.00  0.00     0.049 A 
ATOM     66  C   UNL A   1      46.020  30.871  32.199  1.00  0.00     0.074 A 
ATOM     67  C   UNL A   1      39.749  29.913  32.425  1.00  0.00     0.029 A 
ATOM     68  N   UNL A   1      41.782  30.750  32.074  1.00  0.00    -0.354 N 
ATOM     69  N   UNL A   1      44.715  30.749  32.192  1.00  0.00    -0.248 NA
ATOM     70  C   UNL A   1      46.710  29.836  32.984  1.00  0.00     0.031 C 
ATOM     71  C   UNL A   1      40.684  29.092  33.063  1.00  0.00     0.029 A 
ATOM     72  C   UNL A   1      41.952  29.595  32.819  1.00  0.00     0.049 A 
ATOM     73  H   UNL A   1      42.510  31.331  31.756  1.00  0.00     0.167 HD
ATOM     74  C   UNL A   1      44.430  29.612  32.940  1.00  0.00     0.074 A 
ATOM     75  C   UNL A   1      45.700  29.072  33.374  1.00  0.00     0.031 C 
ATOM     76  C   UNL A   1      43.226  29.063  33.237  1.00  0.00     0.037 A 
BRANCH  63  77
ATOM     77  C   UNL A   1      38.405  32.245  31.039  1.00  0.00     0.064 A 
ATOM     78  C   UNL A   1      37.683  31.739  29.947  1.00  0.00     0.173 A 
ATOM     79  C   UNL A   1      37.687  32.886  32.059  1.00  0.00     0.173 A 
ATOM     80  F   UNL A   1      38.324  31.135  28.935  1.00  0.00    -0.203 F 
ATOM     81  C   UNL A   1      36.302  31.900  29.864  1.00  0.00     0.198 A 
ATOM     82  C   UNL A   1      36.302  33.014  31.991  1.00  0.00     0.198 A 
ATOM     83  F   UNL A   1      38.327  33.388  33.126  1.00  0.00    -0.203 F 
ATOM     84  F   UNL A   1      35.642  31.460  28.785  1.00  0.00    -0.200 F 
ATOM     85  C   UNL A   1      35.613  32.529  30.890  1.00  0.00     0.200 A 
ATOM     86  F   UNL A   1      35.636  33.611  32.989  1.00  0.00    -0.200 F 
ATOM     87  F   UNL A   1      34.282  32.676  30.813  1.00  0.00    -0.200 F 
ENDBRANCH  63  77
BRANCH  64  88
ATOM     88  C   UNL A   1      48.369  31.858  31.664  1.00  0.00     0.064 A 
ATOM     89  C   UNL A   1      49.159  31.074  30.810  1.00  0.00     0.173 A 
ATOM     90  C   UNL A   1      49.024  32.573  32.679  1.00  0.00     0.173 A 
ATOM     91  F   UNL A   1      48.581  30.349  29.841  1.00  0.00    -0.203 F 
ATOM     92  C   UNL A   1      50.540  30.991  30.979  1.00  0.00     0.198 A 
ATOM     93  C   UNL A   1      50.409  32.513  32.827  1.00  0.00     0.198 A 
ATOM     94  F   UNL A   1      48.317  33.333  33.528  1.00  0.00    -0.203 F 
ATOM     95  F   UNL A   1      51.264  30.192  30.181  1.00  0.00    -0.200 F 
ATOM     96  C   UNL A   1      51.165  31.716  31.983  1.00  0.00     0.200 A 
ATOM     97  F   UNL A   1      51.008  33.225  33.791  1.00  0.00    -0.200 F 
ATOM     98  F   UNL A   1      52.493  31.638  32.142  1.00  0.00    -0.200 F 
ENDBRANCH  64  88
BRANCH  76  99
ATOM     99  C   UNL A   1      43.217  27.787  34.032  1.00  0.00     0.064 A 
ATOM    100  C   UNL A   1      43.500  26.546  33.445  1.00  0.00     0.173 A 
ATOM    101  C   UNL A   1      42.978  27.818  35.415  1.00  0.00     0.173 A 
ATOM    102  F   UNL A   1      43.724  26.458  32.124  1.00  0.00    -0.203 F 
ATOM    103  C   UNL A   1      43.518  25.380  34.207  1.00  0.00     0.198 A 
ATOM    104  C   UNL A   1      43.032  26.657  36.180  1.00  0.00     0.198 A 
ATOM    105  F   UNL A   1      42.712  28.981  36.030  1.00  0.00    -0.203 F 
ATOM    106  F   UNL A   1      43.743  24.199  33.616  1.00  0.00    -0.200 F 
ATOM    107  C   UNL A   1      43.294  25.438  35.575  1.00  0.00     0.200 A 
ATOM    108  F   UNL A   1      42.834  26.719  37.504  1.00  0.00    -0.200 F 
ATOM    109  F   UNL A   1      43.325  24.317  36.309  1.00  0.00    -0.200 F 
ENDBRANCH  76  99
ENDBRANCH  50  51
ENDBRANCH  43  45
ENDBRANCH  42  43
ENDBRANCH  41  42
ENDBRANCH  40  41
ENDBRANCH  39  40
ENDBRANCH  38  39
ENDBRANCH  37  38
ENDBRANCH  36  37
ENDBRANCH   1  36
TORSDOF 24
ENDMDL
MODEL 3
REMARK VINA RESULT:      -9.1      3.910      8.180
REMARK SMILES O=C(OCCOCCOCCOCCOC(=O)c1ccc(-c2c3nc(c(-c4c(F)c(F)c(F)c(F)c4F)c4ccc([nH]4)c(-c4c(F)c(F)c(F)c(F)c4F)c4nc(c(-c5c(F)c(F)c(F)c(F)c5F)c5ccc2[nH]5)C=C4)C=C3)cc1)c1ccc(NC(=O)[C@@H]2CC=CC[C@@H]2C(=O)Nc2ccc(Br)cc2)cc1
REMARK SMILES IDX 8 1 7 2 6 3 5 4 4 5 3 6 2 7 1 8 81 9 82 10 105 11 83 12
REMARK SMILES IDX 104 13 84 14 85 15 86 16 87 18 88 19 89 20 93 21 90 22 92 23
REMARK SMILES IDX 91 24 94 25 95 26 96 27 97 29 98 30 103 31 99 32 102 33
REMARK SMILES IDX 100 34 101 35 9 36 10 37 11 38 12 39 13 40 14 41 15 42 16 43
REMARK SMILES IDX 17 44 18 45 19 46 80 47 20 48 79 49 21 50 22 51 23 52 73 53
REMARK SMILES IDX 24 54 78 55 72 56 74 57 25 58 77 59 71 60 70 61 26 63 58 64
REMARK SMILES IDX 38 65 57 66 39 67 42 68 56 69 75 70 40 71 41 72 55 74 76 75
REMARK SMILES IDX 43 76 27 77 28 78 36 79 29 80 30 81 34 82 37 83 31 84 32 85
REMARK SMILES IDX 35 86 33 87 59 88 60 89 68 90 61 91 62 92 66 93 69 94 63 95
REMARK SMILES IDX 64 96 67 97 65 98 44 99 45 100 53 101 46 102 47 103 51 104
REMARK SMILES IDX 54 105 48 106 49 107 52 108 50 109
REMARK H PARENT 85 17 96 28 74 62 42 73
REMARK Flexibility Score: inf
ROOT
ATOM      1  C   UNL A   1      36.501  29.699  28.419  1.00  0.00     0.188 C 
ENDROOT
BRANCH   1   2
ATOM      2  C   UNL A   1      37.996  29.482  28.155  1.00  0.00     0.188 C 
BRANCH   2   3
ATOM      3  O   UNL A   1      38.636  28.578  29.054  1.00  0.00    -0.376 OA
BRANCH   3   4
ATOM      4  C   UNL A   1      40.057  28.563  29.009  1.00  0.00     0.202 C 
BRANCH   4   5
ATOM      5  C   UNL A   1      40.710  28.989  27.689  1.00  0.00     0.261 C 
BRANCH   5   6
ATOM      6  O   UNL A   1      41.141  27.915  26.831  1.00  0.00    -0.460 OA
BRANCH   6   7
ATOM      7  C   UNL A   1      41.559  26.656  27.087  1.00  0.00     0.338 C 
ATOM      8  O   UNL A   1      42.743  26.486  27.378  1.00  0.00    -0.246 OA
BRANCH   7   9
ATOM      9  C   UNL A   1      40.665  25.451  27.066  1.00  0.00     0.060 A 
ATOM     10  C   UNL A   1      39.283  25.479  27.132  1.00  0.00     0.018 A 
ATOM     11  C   UNL A   1      41.237  24.177  26.944  1.00  0.00     0.018 A 
ATOM     12  C   UNL A   1      38.492  24.334  26.957  1.00  0.00     0.027 A 
ATOM     13  C   UNL A   1      40.436  23.045  26.647  1.00  0.00     0.027 A 
ATOM     14  C   UNL A   1      39.046  23.174  26.462  1.00  0.00     0.041 A 
BRANCH  14  15
ATOM     15  N   UNL A   1      38.430  22.282  25.520  1.00  0.00    -0.326 N 
ATOM     16  C   UNL A   1      37.221  21.707  25.165  1.00  0.00     0.228 C 
ATOM     17  H   UNL A   1      39.122  21.964  24.896  1.00  0.00     0.169 HD
ATOM     18  O   UNL A   1      37.283  21.167  24.042  1.00  0.00    -0.274 OA
BRANCH  16  19
ATOM     19  C   UNL A   1      35.830  21.583  25.887  1.00  0.00     0.095 C 
ATOM     20  C   UNL A   1      34.647  20.793  25.193  1.00  0.00     0.041 C 
ATOM     21  C   UNL A   1      35.219  22.825  26.507  1.00  0.00     0.095 C 
ATOM     22  C   UNL A   1      33.294  20.933  25.912  1.00  0.00    -0.030 C 
ATOM     23  C   UNL A   1      34.283  22.367  27.643  1.00  0.00     0.041 C 
ATOM     24  C   UNL A   1      33.139  21.606  27.065  1.00  0.00    -0.030 C 
BRANCH  21  25
ATOM     25  C   UNL A   1      34.479  23.652  25.386  1.00  0.00     0.228 C 
ATOM     26  O   UNL A   1      34.868  23.690  24.226  1.00  0.00    -0.274 OA
ATOM     27  N   UNL A   1      33.294  24.194  25.844  1.00  0.00    -0.326 N 
ATOM     28  H   UNL A   1      32.666  23.504  26.159  1.00  0.00     0.169 HD
BRANCH  27  29
ATOM     29  C   UNL A   1      32.769  25.491  25.968  1.00  0.00     0.041 A 
ATOM     30  C   UNL A   1      33.744  26.501  26.105  1.00  0.00     0.027 A 
ATOM     31  C   UNL A   1      31.457  25.863  25.752  1.00  0.00     0.027 A 
ATOM     32  C   UNL A   1      33.452  27.848  25.944  1.00  0.00     0.018 A 
ATOM     33  C   UNL A   1      31.145  27.231  25.622  1.00  0.00     0.018 A 
ATOM     34  C   UNL A   1      32.142  28.209  25.696  1.00  0.00     0.018 A 
ATOM     35  Br  UNL A   1      31.735  30.035  25.433  1.00  0.00    -0.051 Br
ENDBRANCH  27  29
ENDBRANCH  21  25
ENDBRANCH  16  19
ENDBRANCH  14  15
ENDBRANCH   7   9
ENDBRANCH   6   7
ENDBRANCH   5   6
ENDBRANCH   4   5
ENDBRANCH   3   4
ENDBRANCH   2   3
ENDBRANCH   1   2
BRANCH   1  36
ATOM     36  O   UNL A   1      36.120  30.831  29.201  1.00  0.00    -0.377 OA
BRANCH  36  37
ATOM     37  C   UNL A   1      36.540  32.113  28.749  1.00  0.00     0.188 C 
BRANCH  37  38
ATOM     38  C   UNL A   1      35.790  33.363  29.243  1.00  0.00     0.188 C 
BRANCH  38  39
ATOM     39  O   UNL A   1      35.452  33.300  30.608  1.00  0.00    -0.376 OA
BRANCH  39  40
ATOM     40  C   UNL A   1      36.435  33.587  31.587  1.00  0.00     0.202 C 
BRANCH  40  41
ATOM     41  C   UNL A   1      37.033  32.518  32.519  1.00  0.00     0.261 C 
BRANCH  41  42
ATOM     42  O   UNL A   1      37.937  31.570  31.949  1.00  0.00    -0.460 OA
BRANCH  42  43
ATOM     43  C   UNL A   1      37.864  30.289  32.384  1.00  0.00     0.338 C 
ATOM     44  O   UNL A   1      36.877  29.603  32.491  1.00  0.00    -0.246 OA
BRANCH  43  45
ATOM     45  C   UNL A   1      39.261  29.794  32.490  1.00  0.00     0.060 A 
ATOM     46  C   UNL A   1      39.469  28.409  32.557  1.00  0.00     0.016 A 
ATOM     47  C   UNL A   1      40.351  30.669  32.417  1.00  0.00     0.016 A 
ATOM     48  C   UNL A   1      40.768  27.897  32.581  1.00  0.00     0.010 A 
ATOM     49  C   UNL A   1      41.651  30.157  32.470  1.00  0.00     0.010 A 
ATOM     50  C   UNL A   1      41.863  28.771  32.585  1.00  0.00    -0.014 A 
BRANCH  50  51
ATOM     51  C   UNL A   1      43.200  28.261  32.975  1.00  0.00     0.031 A 
ATOM     52  C   UNL A   1      44.108  27.793  31.872  1.00  0.00     0.074 A 
ATOM     53  C   UNL A   1      43.613  28.227  34.253  1.00  0.00     0.049 A 
ATOM     54  N   UNL A   1      45.298  27.256  31.938  1.00  0.00    -0.248 NA
ATOM     55  C   UNL A   1      43.596  27.952  30.501  1.00  0.00     0.031 C 
ATOM     56  C   UNL A   1      42.847  28.691  35.405  1.00  0.00     0.029 A 
ATOM     57  N   UNL A   1      44.788  27.762  34.793  1.00  0.00    -0.354 N 
ATOM     58  C   UNL A   1      45.670  27.007  30.624  1.00  0.00     0.074 A 
ATOM     59  C   UNL A   1      44.571  27.421  29.781  1.00  0.00     0.031 C 
ATOM     60  C   UNL A   1      43.565  28.471  36.522  1.00  0.00     0.029 A 
ATOM     61  C   UNL A   1      44.825  27.817  36.164  1.00  0.00     0.049 A 
ATOM     62  H   UNL A   1      45.533  27.420  34.247  1.00  0.00     0.167 HD
ATOM     63  C   UNL A   1      46.828  26.485  30.159  1.00  0.00     0.037 A 
ATOM     64  C   UNL A   1      45.758  27.365  37.026  1.00  0.00     0.037 A 
ATOM     65  C   UNL A   1      47.916  26.063  30.999  1.00  0.00     0.049 A 
ATOM     66  C   UNL A   1      47.008  26.709  36.488  1.00  0.00     0.074 A 
ATOM     67  C   UNL A   1      49.139  25.537  30.625  1.00  0.00     0.029 A 
ATOM     68  N   UNL A   1      47.902  26.108  32.385  1.00  0.00    -0.354 N 
ATOM     69  N   UNL A   1      47.369  26.506  35.244  1.00  0.00    -0.248 NA
ATOM     70  C   UNL A   1      47.980  26.220  37.477  1.00  0.00     0.031 C 
ATOM     71  C   UNL A   1      49.840  25.201  31.787  1.00  0.00     0.029 A 
ATOM     72  C   UNL A   1      49.084  25.585  32.884  1.00  0.00     0.049 A 
ATOM     73  H   UNL A   1      47.163  26.458  32.932  1.00  0.00     0.167 HD
ATOM     74  C   UNL A   1      48.619  25.898  35.301  1.00  0.00     0.074 A 
ATOM     75  C   UNL A   1      48.960  25.777  36.701  1.00  0.00     0.031 C 
ATOM     76  C   UNL A   1      49.414  25.481  34.284  1.00  0.00     0.037 A 
BRANCH  63  77
ATOM     77  C   UNL A   1      46.955  26.302  28.675  1.00  0.00     0.064 A 
ATOM     78  C   UNL A   1      47.449  27.317  27.841  1.00  0.00     0.173 A 
ATOM     79  C   UNL A   1      46.587  25.086  28.080  1.00  0.00     0.173 A 
ATOM     80  F   UNL A   1      47.796  28.506  28.357  1.00  0.00    -0.203 F 
ATOM     81  C   UNL A   1      47.541  27.132  26.464  1.00  0.00     0.198 A 
ATOM     82  C   UNL A   1      46.714  24.892  26.707  1.00  0.00     0.198 A 
ATOM     83  F   UNL A   1      46.108  24.082  28.829  1.00  0.00    -0.203 F 
ATOM     84  F   UNL A   1      47.962  28.135  25.681  1.00  0.00    -0.200 F 
ATOM     85  C   UNL A   1      47.182  25.917  25.899  1.00  0.00     0.200 A 
ATOM     86  F   UNL A   1      46.378  23.713  26.165  1.00  0.00    -0.200 F 
ATOM     87  F   UNL A   1      47.278  25.738  24.574  1.00  0.00    -0.200 F 
ENDBRANCH  63  77
BRANCH  64  88
ATOM     88  C   UNL A   1      45.544  27.492  38.494  1.00  0.00     0.064 A 
ATOM     89  C   UNL A   1      44.935  26.468  39.232  1.00  0.00     0.173 A 
ATOM     90  C   UNL A   1      45.917  28.657  39.184  1.00  0.00     0.173 A 
ATOM     91  F   UNL A   1      44.533  25.346  38.617  1.00  0.00    -0.203 F 
ATOM     92  C   UNL A   1      44.689  26.611  40.598  1.00  0.00     0.198 A 
ATOM     93  C   UNL A   1      45.699  28.785  40.554  1.00  0.00     0.198 A 
ATOM     94  F   UNL A   1      46.498  29.670  38.525  1.00  0.00    -0.203 F 
ATOM     95  F   UNL A   1      44.057  25.637  41.268  1.00  0.00    -0.200 F 
ATOM     96  C   UNL A   1      45.077  27.766  41.258  1.00  0.00     0.200 A 
ATOM     97  F   UNL A   1      46.087  29.898  41.190  1.00  0.00    -0.200 F 
ATOM     98  F   UNL A   1      44.843  27.901  42.571  1.00  0.00    -0.200 F 
ENDBRANCH  64  88
BRANCH  76  99
ATOM     99  C   UNL A   1      50.753  24.896  34.639  1.00  0.00     0.064 A 
ATOM    100  C   UNL A   1      50.922  23.527  34.889  1.00  0.00     0.173 A 
ATOM    101  C   UNL A   1      51.895  25.713  34.669  1.00  0.00     0.173 A 
ATOM    102  F   UNL A   1      49.861  22.703  34.884  1.00  0.00    -0.203 F 
ATOM    103  C   UNL A   1      52.178  23.002  35.184  1.00  0.00     0.198 A 
ATOM    104  C   UNL A   1      53.154  25.179  34.928  1.00  0.00     0.198 A 
ATOM    105  F   UNL A   1      51.793  27.028  34.425  1.00  0.00    -0.203 F 
ATOM    106  F   UNL A   1      52.307  21.699  35.469  1.00  0.00    -0.200 F 
ATOM    107  C   UNL A   1      53.293  23.826  35.193  1.00  0.00     0.200 A 
ATOM    108  F   UNL A   1      54.232  25.974  34.917  1.00  0.00    -0.200 F 
ATOM    109  F   UNL A   1      54.502  23.316  35.464  1.00  0.00    -0.200 F 
ENDBRANCH  76  99
ENDBRANCH  50  51
ENDBRANCH  43  45
ENDBRANCH  42  43
ENDBRANCH  41  42
ENDBRANCH  40  41
ENDBRANCH  39  40
ENDBRANCH  38  39
ENDBRANCH  37  38
ENDBRANCH  36  37
ENDBRANCH   1  36
TORSDOF 24
ENDMDL
