MODEL 1
REMARK VINA RESULT:     -12.0      0.000      0.000
REMARK SMILES O=C(OCCOCCOCCOCCOC(=O)c1ccc(-c2c3nc(c(-c4c(F)c(F)c(F)c(F)c4F)c4ccc([nH]4)c(-c4c(F)c(F)c(F)c(F)c4F)c4nc(c(-c5c(F)c(F)c(F)c(F)c5F)c5ccc2[nH]5)C=C4)C=C3)cc1)c1ccc(NC(=O)[C@@H]2CC=CC[C@H]2C(=O)Nc2cccc([N+](=O)[O-])c2)cc1
REMARK SMILES IDX 7 1 6 2 5 3 4 4 3 5 2 6 1 7 81 8 82 9 107 10 83 11 106 12
REMARK SMILES IDX 84 13 85 14 86 15 87 17 88 18 89 19 93 20 90 21 92 22 91 23
REMARK SMILES IDX 94 24 95 25 96 26 97 28 98 29 105 30 99 31 101 32 100 33
REMARK SMILES IDX 102 34 103 35 104 36 8 37 9 38 10 39 11 40 12 41 13 42 14 43
REMARK SMILES IDX 15 44 16 45 17 46 18 47 19 48 80 49 20 50 79 51 21 52 22 53
REMARK SMILES IDX 23 54 73 55 24 56 78 57 72 58 74 59 25 60 77 61 71 62 70 63
REMARK SMILES IDX 26 65 58 66 38 67 57 68 39 69 42 70 56 71 75 72 40 73 41 74
REMARK SMILES IDX 55 76 76 77 43 78 27 79 28 80 36 81 29 82 30 83 34 84 37 85
REMARK SMILES IDX 31 86 32 87 35 88 33 89 59 90 60 91 68 92 61 93 62 94 66 95
REMARK SMILES IDX 69 96 63 97 64 98 67 99 65 100 44 101 45 102 53 103 46 104
REMARK SMILES IDX 47 105 51 106 54 107 48 108 49 109 52 110 50 111
REMARK H PARENT 85 16 96 27 74 64 42 75
REMARK Flexibility Score: inf
ROOT
ATOM      1  C   UNL A   1      33.388  34.360  28.227  1.00  0.00     0.188 C 
ENDROOT
BRANCH   1   2
ATOM      2  O   UNL A   1      34.637  34.014  27.617  1.00  0.00    -0.376 OA
BRANCH   2   3
ATOM      3  C   UNL A   1      35.284  32.875  28.176  1.00  0.00     0.202 C 
BRANCH   3   4
ATOM      4  C   UNL A   1      34.276  31.798  28.573  1.00  0.00     0.261 C 
BRANCH   4   5
ATOM      5  O   UNL A   1      33.924  30.966  27.452  1.00  0.00    -0.460 OA
BRANCH   5   6
ATOM      6  C   UNL A   1      34.418  29.786  27.007  1.00  0.00     0.338 C 
ATOM      7  O   UNL A   1      35.643  29.709  26.888  1.00  0.00    -0.246 OA
BRANCH   6   8
ATOM      8  C   UNL A   1      33.621  28.572  26.613  1.00  0.00     0.060 A 
ATOM      9  C   UNL A   1      34.101  27.285  26.424  1.00  0.00     0.018 A 
ATOM     10  C   UNL A   1      32.230  28.731  26.477  1.00  0.00     0.018 A 
ATOM     11  C   UNL A   1      33.231  26.196  26.223  1.00  0.00     0.027 A 
ATOM     12  C   UNL A   1      31.364  27.625  26.345  1.00  0.00     0.027 A 
ATOM     13  C   UNL A   1      31.866  26.323  26.338  1.00  0.00     0.041 A 
BRANCH  13  14
ATOM     14  N   UNL A   1      30.963  25.259  26.517  1.00  0.00    -0.326 N 
ATOM     15  C   UNL A   1      30.976  23.895  26.410  1.00  0.00     0.228 C 
ATOM     16  H   UNL A   1      30.077  25.586  26.796  1.00  0.00     0.169 HD
ATOM     17  O   UNL A   1      29.917  23.350  26.756  1.00  0.00    -0.274 OA
BRANCH  15  18
ATOM     18  C   UNL A   1      32.139  23.026  25.879  1.00  0.00     0.095 C 
ATOM     19  C   UNL A   1      33.060  22.663  27.077  1.00  0.00     0.041 C 
ATOM     20  C   UNL A   1      32.955  23.629  24.708  1.00  0.00     0.095 C 
ATOM     21  C   UNL A   1      34.377  22.046  26.723  1.00  0.00    -0.030 C 
ATOM     22  C   UNL A   1      34.449  23.235  24.553  1.00  0.00     0.041 C 
ATOM     23  C   UNL A   1      35.010  22.317  25.581  1.00  0.00    -0.030 C 
BRANCH  20  24
ATOM     24  C   UNL A   1      32.323  23.513  23.328  1.00  0.00     0.228 C 
ATOM     25  O   UNL A   1      32.131  22.378  22.868  1.00  0.00    -0.274 OA
ATOM     26  N   UNL A   1      31.870  24.569  22.574  1.00  0.00    -0.326 N 
ATOM     27  H   UNL A   1      31.264  24.275  21.856  1.00  0.00     0.169 HD
BRANCH  26  28
ATOM     28  C   UNL A   1      32.055  25.969  22.568  1.00  0.00     0.048 A 
ATOM     29  C   UNL A   1      33.360  26.469  22.642  1.00  0.00     0.026 A 
ATOM     30  C   UNL A   1      31.021  26.894  22.636  1.00  0.00     0.111 A 
ATOM     31  C   UNL A   1      33.610  27.850  22.708  1.00  0.00     0.009 A 
ATOM     32  C   UNL A   1      31.255  28.273  22.728  1.00  0.00     0.271 A 
ATOM     33  C   UNL A   1      32.556  28.762  22.747  1.00  0.00     0.086 A 
BRANCH  32  34
ATOM     34  N   UNL A   1      30.105  29.182  22.861  1.00  0.00     0.062 N 
ATOM     35  O   UNL A   1      30.153  30.044  23.748  1.00  0.00    -0.258 OA
ATOM     36  O   UNL A   1      29.150  29.019  22.086  1.00  0.00    -0.258 OA
ENDBRANCH  32  34
ENDBRANCH  26  28
ENDBRANCH  20  24
ENDBRANCH  15  18
ENDBRANCH  13  14
ENDBRANCH   6   8
ENDBRANCH   5   6
ENDBRANCH   4   5
ENDBRANCH   3   4
ENDBRANCH   2   3
ENDBRANCH   1   2
BRANCH   1  37
ATOM     37  C   UNL A   1      33.292  35.768  28.848  1.00  0.00     0.188 C 
BRANCH  37  38
ATOM     38  O   UNL A   1      32.479  36.026  29.988  1.00  0.00    -0.377 OA
BRANCH  38  39
ATOM     39  C   UNL A   1      32.996  36.695  31.116  1.00  0.00     0.188 C 
BRANCH  39  40
ATOM     40  C   UNL A   1      33.267  35.777  32.322  1.00  0.00     0.188 C 
BRANCH  40  41
ATOM     41  O   UNL A   1      33.371  34.378  32.140  1.00  0.00    -0.376 OA
BRANCH  41  42
ATOM     42  C   UNL A   1      34.633  33.830  31.766  1.00  0.00     0.202 C 
BRANCH  42  43
ATOM     43  C   UNL A   1      35.598  33.341  32.867  1.00  0.00     0.261 C 
BRANCH  43  44
ATOM     44  O   UNL A   1      35.921  31.937  32.810  1.00  0.00    -0.460 OA
BRANCH  44  45
ATOM     45  C   UNL A   1      37.059  31.549  33.430  1.00  0.00     0.338 C 
ATOM     46  O   UNL A   1      37.278  31.526  34.632  1.00  0.00    -0.246 OA
BRANCH  45  47
ATOM     47  C   UNL A   1      37.956  30.897  32.450  1.00  0.00     0.060 A 
ATOM     48  C   UNL A   1      39.126  30.277  32.924  1.00  0.00     0.016 A 
ATOM     49  C   UNL A   1      37.681  30.924  31.084  1.00  0.00     0.016 A 
ATOM     50  C   UNL A   1      40.023  29.683  32.039  1.00  0.00     0.010 A 
ATOM     51  C   UNL A   1      38.610  30.381  30.189  1.00  0.00     0.010 A 
ATOM     52  C   UNL A   1      39.796  29.788  30.663  1.00  0.00    -0.014 A 
BRANCH  52  53
ATOM     53  C   UNL A   1      40.923  29.551  29.731  1.00  0.00     0.031 A 
ATOM     54  C   UNL A   1      41.013  28.194  29.087  1.00  0.00     0.074 A 
ATOM     55  C   UNL A   1      41.830  30.501  29.449  1.00  0.00     0.049 A 
ATOM     56  N   UNL A   1      41.941  27.697  28.312  1.00  0.00    -0.248 NA
ATOM     57  C   UNL A   1      39.897  27.273  29.362  1.00  0.00     0.031 C 
ATOM     58  C   UNL A   1      41.811  31.869  29.955  1.00  0.00     0.029 A 
ATOM     59  N   UNL A   1      42.959  30.443  28.670  1.00  0.00    -0.354 N 
ATOM     60  C   UNL A   1      41.527  26.403  28.020  1.00  0.00     0.074 A 
ATOM     61  C   UNL A   1      40.278  26.184  28.713  1.00  0.00     0.031 C 
ATOM     62  C   UNL A   1      42.896  32.517  29.495  1.00  0.00     0.029 A 
ATOM     63  C   UNL A   1      43.704  31.596  28.695  1.00  0.00     0.049 A 
ATOM     64  H   UNL A   1      43.212  29.649  28.144  1.00  0.00     0.167 HD
ATOM     65  C   UNL A   1      42.137  25.479  27.243  1.00  0.00     0.037 A 
ATOM     66  C   UNL A   1      44.913  31.857  28.160  1.00  0.00     0.037 A 
ATOM     67  C   UNL A   1      43.389  25.695  26.571  1.00  0.00     0.049 A 
ATOM     68  C   UNL A   1      45.621  30.778  27.374  1.00  0.00     0.074 A 
ATOM     69  C   UNL A   1      44.094  24.827  25.758  1.00  0.00     0.029 A 
ATOM     70  N   UNL A   1      44.130  26.866  26.647  1.00  0.00    -0.354 N 
ATOM     71  N   UNL A   1      45.222  29.561  27.088  1.00  0.00    -0.248 NA
ATOM     72  C   UNL A   1      46.948  31.111  26.837  1.00  0.00     0.031 C 
ATOM     73  C   UNL A   1      45.292  25.449  25.391  1.00  0.00     0.029 A 
ATOM     74  C   UNL A   1      45.300  26.732  25.918  1.00  0.00     0.049 A 
ATOM     75  H   UNL A   1      43.863  27.672  27.146  1.00  0.00     0.167 HD
ATOM     76  C   UNL A   1      46.230  28.998  26.312  1.00  0.00     0.074 A 
ATOM     77  C   UNL A   1      47.254  30.011  26.163  1.00  0.00     0.031 C 
ATOM     78  C   UNL A   1      46.301  27.758  25.770  1.00  0.00     0.037 A 
BRANCH  65  79
ATOM     79  C   UNL A   1      41.476  24.136  27.123  1.00  0.00     0.064 A 
ATOM     80  C   UNL A   1      40.233  23.976  26.493  1.00  0.00     0.173 A 
ATOM     81  C   UNL A   1      42.101  22.993  27.643  1.00  0.00     0.173 A 
ATOM     82  F   UNL A   1      39.583  25.041  25.999  1.00  0.00    -0.203 F 
ATOM     83  C   UNL A   1      39.626  22.725  26.415  1.00  0.00     0.198 A 
ATOM     84  C   UNL A   1      41.507  21.738  27.532  1.00  0.00     0.198 A 
ATOM     85  F   UNL A   1      43.289  23.091  28.257  1.00  0.00    -0.203 F 
ATOM     86  F   UNL A   1      38.412  22.604  25.860  1.00  0.00    -0.200 F 
ATOM     87  C   UNL A   1      40.267  21.607  26.928  1.00  0.00     0.200 A 
ATOM     88  F   UNL A   1      42.134  20.658  28.019  1.00  0.00    -0.200 F 
ATOM     89  F   UNL A   1      39.684  20.402  26.848  1.00  0.00    -0.200 F 
ENDBRANCH  65  79
BRANCH  66  90
ATOM     90  C   UNL A   1      45.552  33.185  28.364  1.00  0.00     0.064 A 
ATOM     91  C   UNL A   1      45.398  34.215  27.425  1.00  0.00     0.173 A 
ATOM     92  C   UNL A   1      46.354  33.444  29.486  1.00  0.00     0.173 A 
ATOM     93  F   UNL A   1      44.664  34.011  26.322  1.00  0.00    -0.203 F 
ATOM     94  C   UNL A   1      46.036  35.444  27.590  1.00  0.00     0.198 A 
ATOM     95  C   UNL A   1      46.966  34.682  29.666  1.00  0.00     0.198 A 
ATOM     96  F   UNL A   1      46.537  32.493  30.415  1.00  0.00    -0.203 F 
ATOM     97  F   UNL A   1      45.911  36.393  26.653  1.00  0.00    -0.200 F 
ATOM     98  C   UNL A   1      46.814  35.679  28.714  1.00  0.00     0.200 A 
ATOM     99  F   UNL A   1      47.705  34.909  30.761  1.00  0.00    -0.200 F 
ATOM    100  F   UNL A   1      47.422  36.861  28.876  1.00  0.00    -0.200 F 
ENDBRANCH  66  90
BRANCH  78 101
ATOM    101  C   UNL A   1      47.498  27.436  24.919  1.00  0.00     0.064 A 
ATOM    102  C   UNL A   1      47.541  27.746  23.551  1.00  0.00     0.173 A 
ATOM    103  C   UNL A   1      48.640  26.857  25.497  1.00  0.00     0.173 A 
ATOM    104  F   UNL A   1      46.473  28.289  22.949  1.00  0.00    -0.203 F 
ATOM    105  C   UNL A   1      48.672  27.464  22.789  1.00  0.00     0.198 A 
ATOM    106  C   UNL A   1      49.781  26.610  24.739  1.00  0.00     0.198 A 
ATOM    107  F   UNL A   1      48.655  26.550  26.802  1.00  0.00    -0.203 F 
ATOM    108  F   UNL A   1      48.673  27.723  21.475  1.00  0.00    -0.200 F 
ATOM    109  C   UNL A   1      49.793  26.905  23.385  1.00  0.00     0.200 A 
ATOM    110  F   UNL A   1      50.868  26.086  25.321  1.00  0.00    -0.200 F 
ATOM    111  F   UNL A   1      50.884  26.645  22.652  1.00  0.00    -0.200 F 
ENDBRANCH  78 101
ENDBRANCH  52  53
ENDBRANCH  45  47
ENDBRANCH  44  45
ENDBRANCH  43  44
ENDBRANCH  42  43
ENDBRANCH  41  42
ENDBRANCH  40  41
ENDBRANCH  39  40
ENDBRANCH  38  39
ENDBRANCH  37  38
ENDBRANCH   1  37
TORSDOF 25
ENDMDL
MODEL 2
REMARK VINA RESULT:     -10.7      2.905      5.015
REMARK SMILES O=C(OCCOCCOCCOCCOC(=O)c1ccc(-c2c3nc(c(-c4c(F)c(F)c(F)c(F)c4F)c4ccc([nH]4)c(-c4c(F)c(F)c(F)c(F)c4F)c4nc(c(-c5c(F)c(F)c(F)c(F)c5F)c5ccc2[nH]5)C=C4)C=C3)cc1)c1ccc(NC(=O)[C@@H]2CC=CC[C@H]2C(=O)Nc2cccc([N+](=O)[O-])c2)cc1
REMARK SMILES IDX 7 1 6 2 5 3 4 4 3 5 2 6 1 7 81 8 82 9 107 10 83 11 106 12
REMARK SMILES IDX 84 13 85 14 86 15 87 17 88 18 89 19 93 20 90 21 92 22 91 23
REMARK SMILES IDX 94 24 95 25 96 26 97 28 98 29 105 30 99 31 101 32 100 33
REMARK SMILES IDX 102 34 103 35 104 36 8 37 9 38 10 39 11 40 12 41 13 42 14 43
REMARK SMILES IDX 15 44 16 45 17 46 18 47 19 48 80 49 20 50 79 51 21 52 22 53
REMARK SMILES IDX 23 54 73 55 24 56 78 57 72 58 74 59 25 60 77 61 71 62 70 63
REMARK SMILES IDX 26 65 58 66 38 67 57 68 39 69 42 70 56 71 75 72 40 73 41 74
REMARK SMILES IDX 55 76 76 77 43 78 27 79 28 80 36 81 29 82 30 83 34 84 37 85
REMARK SMILES IDX 31 86 32 87 35 88 33 89 59 90 60 91 68 92 61 93 62 94 66 95
REMARK SMILES IDX 69 96 63 97 64 98 67 99 65 100 44 101 45 102 53 103 46 104
REMARK SMILES IDX 47 105 51 106 54 107 48 108 49 109 52 110 50 111
REMARK H PARENT 85 16 96 27 74 64 42 75
REMARK Flexibility Score: inf
ROOT
ATOM      1  C   UNL A   1      33.534  34.177  28.005  1.00  0.00     0.188 C 
ENDROOT
BRANCH   1   2
ATOM      2  O   UNL A   1      34.931  34.143  27.690  1.00  0.00    -0.376 OA
BRANCH   2   3
ATOM      3  C   UNL A   1      35.583  32.912  27.983  1.00  0.00     0.202 C 
BRANCH   3   4
ATOM      4  C   UNL A   1      34.587  31.840  28.420  1.00  0.00     0.261 C 
BRANCH   4   5
ATOM      5  O   UNL A   1      34.378  30.861  27.384  1.00  0.00    -0.460 OA
BRANCH   5   6
ATOM      6  C   UNL A   1      34.638  29.533  27.325  1.00  0.00     0.338 C 
ATOM      7  O   UNL A   1      35.768  29.175  27.664  1.00  0.00    -0.246 OA
BRANCH   6   8
ATOM      8  C   UNL A   1      33.697  28.456  26.857  1.00  0.00     0.060 A 
ATOM      9  C   UNL A   1      34.028  27.308  26.153  1.00  0.00     0.018 A 
ATOM     10  C   UNL A   1      32.343  28.582  27.216  1.00  0.00     0.018 A 
ATOM     11  C   UNL A   1      33.085  26.290  25.918  1.00  0.00     0.027 A 
ATOM     12  C   UNL A   1      31.424  27.527  27.037  1.00  0.00     0.027 A 
ATOM     13  C   UNL A   1      31.833  26.312  26.486  1.00  0.00     0.041 A 
BRANCH  13  14
ATOM     14  N   UNL A   1      30.977  25.201  26.612  1.00  0.00    -0.326 N 
ATOM     15  C   UNL A   1      31.061  23.842  26.479  1.00  0.00     0.228 C 
ATOM     16  H   UNL A   1      30.067  25.479  26.866  1.00  0.00     0.169 HD
ATOM     17  O   UNL A   1      30.019  23.240  26.776  1.00  0.00    -0.274 OA
BRANCH  15  18
ATOM     18  C   UNL A   1      32.282  23.043  25.971  1.00  0.00     0.095 C 
ATOM     19  C   UNL A   1      33.227  22.783  27.176  1.00  0.00     0.041 C 
ATOM     20  C   UNL A   1      33.053  23.666  24.780  1.00  0.00     0.095 C 
ATOM     21  C   UNL A   1      34.585  22.250  26.838  1.00  0.00    -0.030 C 
ATOM     22  C   UNL A   1      34.570  23.375  24.632  1.00  0.00     0.041 C 
ATOM     23  C   UNL A   1      35.196  22.531  25.686  1.00  0.00    -0.030 C 
BRANCH  20  24
ATOM     24  C   UNL A   1      32.429  23.463  23.405  1.00  0.00     0.228 C 
ATOM     25  O   UNL A   1      32.333  22.305  22.974  1.00  0.00    -0.274 OA
ATOM     26  N   UNL A   1      31.887  24.458  22.628  1.00  0.00    -0.326 N 
ATOM     27  H   UNL A   1      31.306  24.097  21.921  1.00  0.00     0.169 HD
BRANCH  26  28
ATOM     28  C   UNL A   1      31.952  25.869  22.588  1.00  0.00     0.048 A 
ATOM     29  C   UNL A   1      33.190  26.470  22.335  1.00  0.00     0.026 A 
ATOM     30  C   UNL A   1      30.898  26.710  22.921  1.00  0.00     0.111 A 
ATOM     31  C   UNL A   1      33.338  27.868  22.347  1.00  0.00     0.009 A 
ATOM     32  C   UNL A   1      31.038  28.103  22.962  1.00  0.00     0.271 A 
ATOM     33  C   UNL A   1      32.258  28.695  22.658  1.00  0.00     0.086 A 
BRANCH  32  34
ATOM     34  N   UNL A   1      29.890  28.920  23.387  1.00  0.00     0.062 N 
ATOM     35  O   UNL A   1      30.126  30.013  23.918  1.00  0.00    -0.258 OA
ATOM     36  O   UNL A   1      28.754  28.457  23.204  1.00  0.00    -0.258 OA
ENDBRANCH  32  34
ENDBRANCH  26  28
ENDBRANCH  20  24
ENDBRANCH  15  18
ENDBRANCH  13  14
ENDBRANCH   6   8
ENDBRANCH   5   6
ENDBRANCH   4   5
ENDBRANCH   3   4
ENDBRANCH   2   3
ENDBRANCH   1   2
BRANCH   1  37
ATOM     37  C   UNL A   1      33.052  35.361  28.867  1.00  0.00     0.188 C 
BRANCH  37  38
ATOM     38  O   UNL A   1      32.607  35.175  30.207  1.00  0.00    -0.377 OA
BRANCH  38  39
ATOM     39  C   UNL A   1      33.265  35.798  31.286  1.00  0.00     0.188 C 
BRANCH  39  40
ATOM     40  C   UNL A   1      33.423  34.902  32.529  1.00  0.00     0.188 C 
BRANCH  40  41
ATOM     41  O   UNL A   1      34.145  33.688  32.440  1.00  0.00    -0.376 OA
BRANCH  41  42
ATOM     42  C   UNL A   1      35.516  33.679  32.835  1.00  0.00     0.202 C 
BRANCH  42  43
ATOM     43  C   UNL A   1      36.194  32.334  33.172  1.00  0.00     0.261 C 
BRANCH  43  44
ATOM     44  O   UNL A   1      36.414  31.467  32.040  1.00  0.00    -0.460 OA
BRANCH  44  45
ATOM     45  C   UNL A   1      37.169  30.366  32.256  1.00  0.00     0.338 C 
ATOM     46  O   UNL A   1      36.805  29.297  32.723  1.00  0.00    -0.246 OA
BRANCH  45  47
ATOM     47  C   UNL A   1      38.486  30.536  31.603  1.00  0.00     0.060 A 
ATOM     48  C   UNL A   1      39.597  30.844  32.408  1.00  0.00     0.016 A 
ATOM     49  C   UNL A   1      38.629  30.434  30.221  1.00  0.00     0.016 A 
ATOM     50  C   UNL A   1      40.851  31.052  31.838  1.00  0.00     0.010 A 
ATOM     51  C   UNL A   1      39.874  30.702  29.641  1.00  0.00     0.010 A 
ATOM     52  C   UNL A   1      40.979  31.042  30.446  1.00  0.00    -0.014 A 
BRANCH  52  53
ATOM     53  C   UNL A   1      42.171  31.671  29.831  1.00  0.00     0.031 A 
ATOM     54  C   UNL A   1      43.268  30.756  29.360  1.00  0.00     0.074 A 
ATOM     55  C   UNL A   1      42.280  33.001  29.679  1.00  0.00     0.049 A 
ATOM     56  N   UNL A   1      44.448  31.046  28.876  1.00  0.00    -0.248 NA
ATOM     57  C   UNL A   1      42.992  29.312  29.453  1.00  0.00     0.031 C 
ATOM     58  C   UNL A   1      41.260  33.982  30.032  1.00  0.00     0.029 A 
ATOM     59  N   UNL A   1      43.322  33.754  29.196  1.00  0.00    -0.354 N 
ATOM     60  C   UNL A   1      45.056  29.822  28.621  1.00  0.00     0.074 A 
ATOM     61  C   UNL A   1      44.127  28.790  29.019  1.00  0.00     0.031 C 
ATOM     62  C   UNL A   1      41.736  35.214  29.780  1.00  0.00     0.029 A 
ATOM     63  C   UNL A   1      43.109  35.107  29.284  1.00  0.00     0.049 A 
ATOM     64  H   UNL A   1      44.144  33.361  28.823  1.00  0.00     0.167 HD
ATOM     65  C   UNL A   1      46.281  29.583  28.101  1.00  0.00     0.037 A 
ATOM     66  C   UNL A   1      43.943  36.134  29.024  1.00  0.00     0.037 A 
ATOM     67  C   UNL A   1      47.208  30.614  27.723  1.00  0.00     0.049 A 
ATOM     68  C   UNL A   1      45.342  35.841  28.533  1.00  0.00     0.074 A 
ATOM     69  C   UNL A   1      48.476  30.482  27.186  1.00  0.00     0.029 A 
ATOM     70  N   UNL A   1      46.969  31.975  27.858  1.00  0.00    -0.354 N 
ATOM     71  N   UNL A   1      45.910  34.686  28.281  1.00  0.00    -0.248 NA
ATOM     72  C   UNL A   1      46.216  36.999  28.293  1.00  0.00     0.031 C 
ATOM     73  C   UNL A   1      49.027  31.760  27.052  1.00  0.00     0.029 A 
ATOM     74  C   UNL A   1      48.077  32.692  27.440  1.00  0.00     0.049 A 
ATOM     75  H   UNL A   1      46.135  32.370  28.200  1.00  0.00     0.167 HD
ATOM     76  C   UNL A   1      47.189  34.978  27.821  1.00  0.00     0.074 A 
ATOM     77  C   UNL A   1      47.311  36.421  27.819  1.00  0.00     0.031 C 
ATOM     78  C   UNL A   1      48.174  34.130  27.433  1.00  0.00     0.037 A 
BRANCH  65  79
ATOM     79  C   UNL A   1      46.701  28.148  27.959  1.00  0.00     0.064 A 
ATOM     80  C   UNL A   1      46.424  27.406  26.800  1.00  0.00     0.173 A 
ATOM     81  C   UNL A   1      47.395  27.510  28.998  1.00  0.00     0.173 A 
ATOM     82  F   UNL A   1      45.743  27.964  25.787  1.00  0.00    -0.203 F 
ATOM     83  C   UNL A   1      46.800  26.069  26.700  1.00  0.00     0.198 A 
ATOM     84  C   UNL A   1      47.799  26.183  28.880  1.00  0.00     0.198 A 
ATOM     85  F   UNL A   1      47.682  28.173  30.127  1.00  0.00    -0.203 F 
ATOM     86  F   UNL A   1      46.474  25.364  25.608  1.00  0.00    -0.200 F 
ATOM     87  C   UNL A   1      47.493  25.461  27.736  1.00  0.00     0.200 A 
ATOM     88  F   UNL A   1      48.479  25.602  29.878  1.00  0.00    -0.200 F 
ATOM     89  F   UNL A   1      47.859  24.176  27.637  1.00  0.00    -0.200 F 
ENDBRANCH  65  79
BRANCH  66  90
ATOM     90  C   UNL A   1      43.497  37.536  29.244  1.00  0.00     0.064 A 
ATOM     91  C   UNL A   1      43.858  38.238  30.403  1.00  0.00     0.173 A 
ATOM     92  C   UNL A   1      42.677  38.194  28.314  1.00  0.00     0.173 A 
ATOM     93  F   UNL A   1      44.617  37.646  31.335  1.00  0.00    -0.203 F 
ATOM     94  C   UNL A   1      43.400  39.535  30.632  1.00  0.00     0.198 A 
ATOM     95  C   UNL A   1      42.246  39.501  28.530  1.00  0.00     0.198 A 
ATOM     96  F   UNL A   1      42.300  37.568  27.189  1.00  0.00    -0.203 F 
ATOM     97  F   UNL A   1      43.720  40.164  31.771  1.00  0.00    -0.200 F 
ATOM     98  C   UNL A   1      42.600  40.168  29.693  1.00  0.00     0.200 A 
ATOM     99  F   UNL A   1      41.485  40.113  27.612  1.00  0.00    -0.200 F 
ATOM    100  F   UNL A   1      42.165  41.416  29.911  1.00  0.00    -0.200 F 
ENDBRANCH  66  90
BRANCH  78 101
ATOM    101  C   UNL A   1      49.452  34.734  26.920  1.00  0.00     0.064 A 
ATOM    102  C   UNL A   1      49.588  35.170  25.594  1.00  0.00     0.173 A 
ATOM    103  C   UNL A   1      50.538  34.926  27.789  1.00  0.00     0.173 A 
ATOM    104  F   UNL A   1      48.583  34.998  24.722  1.00  0.00    -0.203 F 
ATOM    105  C   UNL A   1      50.772  35.752  25.150  1.00  0.00     0.198 A 
ATOM    106  C   UNL A   1      51.708  35.540  27.350  1.00  0.00     0.198 A 
ATOM    107  F   UNL A   1      50.458  34.536  29.070  1.00  0.00    -0.203 F 
ATOM    108  F   UNL A   1      50.898  36.116  23.867  1.00  0.00    -0.200 F 
ATOM    109  C   UNL A   1      51.827  35.944  26.030  1.00  0.00     0.200 A 
ATOM    110  F   UNL A   1      52.719  35.741  28.207  1.00  0.00    -0.200 F 
ATOM    111  F   UNL A   1      52.962  36.515  25.603  1.00  0.00    -0.200 F 
ENDBRANCH  78 101
ENDBRANCH  52  53
ENDBRANCH  45  47
ENDBRANCH  44  45
ENDBRANCH  43  44
ENDBRANCH  42  43
ENDBRANCH  41  42
ENDBRANCH  40  41
ENDBRANCH  39  40
ENDBRANCH  38  39
ENDBRANCH  37  38
ENDBRANCH   1  37
TORSDOF 25
ENDMDL
MODEL 3
REMARK VINA RESULT:     -10.5      3.598      8.309
REMARK SMILES O=C(OCCOCCOCCOCCOC(=O)c1ccc(-c2c3nc(c(-c4c(F)c(F)c(F)c(F)c4F)c4ccc([nH]4)c(-c4c(F)c(F)c(F)c(F)c4F)c4nc(c(-c5c(F)c(F)c(F)c(F)c5F)c5ccc2[nH]5)C=C4)C=C3)cc1)c1ccc(NC(=O)[C@@H]2CC=CC[C@H]2C(=O)Nc2cccc([N+](=O)[O-])c2)cc1
REMARK SMILES IDX 7 1 6 2 5 3 4 4 3 5 2 6 1 7 81 8 82 9 107 10 83 11 106 12
REMARK SMILES IDX 84 13 85 14 86 15 87 17 88 18 89 19 93 20 90 21 92 22 91 23
REMARK SMILES IDX 94 24 95 25 96 26 97 28 98 29 105 30 99 31 101 32 100 33
REMARK SMILES IDX 102 34 103 35 104 36 8 37 9 38 10 39 11 40 12 41 13 42 14 43
REMARK SMILES IDX 15 44 16 45 17 46 18 47 19 48 80 49 20 50 79 51 21 52 22 53
REMARK SMILES IDX 23 54 73 55 24 56 78 57 72 58 74 59 25 60 77 61 71 62 70 63
REMARK SMILES IDX 26 65 58 66 38 67 57 68 39 69 42 70 56 71 75 72 40 73 41 74
REMARK SMILES IDX 55 76 76 77 43 78 27 79 28 80 36 81 29 82 30 83 34 84 37 85
REMARK SMILES IDX 31 86 32 87 35 88 33 89 59 90 60 91 68 92 61 93 62 94 66 95
REMARK SMILES IDX 69 96 63 97 64 98 67 99 65 100 44 101 45 102 53 103 46 104
REMARK SMILES IDX 47 105 51 106 54 107 48 108 49 109 52 110 50 111
REMARK H PARENT 85 16 96 27 74 64 42 75
REMARK Flexibility Score: inf
ROOT
ATOM      1  C   UNL A   1      36.910  29.724  29.194  1.00  0.00     0.188 C 
ENDROOT
BRANCH   1   2
ATOM      2  O   UNL A   1      36.200  30.961  29.329  1.00  0.00    -0.376 OA
BRANCH   2   3
ATOM      3  C   UNL A   1      35.776  31.548  28.103  1.00  0.00     0.202 C 
BRANCH   3   4
ATOM      4  C   UNL A   1      34.271  31.393  27.898  1.00  0.00     0.261 C 
BRANCH   4   5
ATOM      5  O   UNL A   1      33.935  30.073  27.431  1.00  0.00    -0.460 OA
BRANCH   5   6
ATOM      6  C   UNL A   1      32.813  29.568  26.866  1.00  0.00     0.338 C 
ATOM      7  O   UNL A   1      31.853  30.335  26.761  1.00  0.00    -0.246 OA
BRANCH   6   8
ATOM      8  C   UNL A   1      32.609  28.157  26.382  1.00  0.00     0.060 A 
ATOM      9  C   UNL A   1      33.557  27.146  26.339  1.00  0.00     0.018 A 
ATOM     10  C   UNL A   1      31.310  27.793  25.985  1.00  0.00     0.018 A 
ATOM     11  C   UNL A   1      33.206  25.820  26.025  1.00  0.00     0.027 A 
ATOM     12  C   UNL A   1      30.956  26.451  25.741  1.00  0.00     0.027 A 
ATOM     13  C   UNL A   1      31.895  25.428  25.881  1.00  0.00     0.041 A 
BRANCH  13  14
ATOM     14  N   UNL A   1      31.432  24.100  25.933  1.00  0.00    -0.326 N 
ATOM     15  C   UNL A   1      31.882  22.859  25.571  1.00  0.00     0.228 C 
ATOM     16  H   UNL A   1      30.539  24.049  26.344  1.00  0.00     0.169 HD
ATOM     17  O   UNL A   1      31.127  21.932  25.898  1.00  0.00    -0.274 OA
BRANCH  15  18
ATOM     18  C   UNL A   1      33.177  22.544  24.788  1.00  0.00     0.095 C 
ATOM     19  C   UNL A   1      34.292  22.199  25.813  1.00  0.00     0.041 C 
ATOM     20  C   UNL A   1      33.649  23.634  23.793  1.00  0.00     0.095 C 
ATOM     21  C   UNL A   1      35.682  22.119  25.262  1.00  0.00    -0.030 C 
ATOM     22  C   UNL A   1      35.165  23.765  23.486  1.00  0.00     0.041 C 
ATOM     23  C   UNL A   1      36.078  22.841  24.213  1.00  0.00    -0.030 C 
BRANCH  20  24
ATOM     24  C   UNL A   1      32.924  23.671  22.454  1.00  0.00     0.228 C 
ATOM     25  O   UNL A   1      32.800  22.608  21.829  1.00  0.00    -0.274 OA
ATOM     26  N   UNL A   1      32.321  24.780  21.911  1.00  0.00    -0.326 N 
ATOM     27  H   UNL A   1      31.690  24.542  21.195  1.00  0.00     0.169 HD
BRANCH  26  28
ATOM     28  C   UNL A   1      32.377  26.176  22.122  1.00  0.00     0.048 A 
ATOM     29  C   UNL A   1      33.610  26.749  22.452  1.00  0.00     0.026 A 
ATOM     30  C   UNL A   1      31.264  27.006  22.163  1.00  0.00     0.111 A 
ATOM     31  C   UNL A   1      33.724  28.120  22.740  1.00  0.00     0.009 A 
ATOM     32  C   UNL A   1      31.359  28.369  22.473  1.00  0.00     0.271 A 
ATOM     33  C   UNL A   1      32.596  28.941  22.748  1.00  0.00     0.086 A 
BRANCH  32  34
ATOM     34  N   UNL A   1      30.125  29.166  22.558  1.00  0.00     0.062 N 
ATOM     35  O   UNL A   1      29.449  29.292  21.528  1.00  0.00    -0.258 OA
ATOM     36  O   UNL A   1      29.844  29.677  23.653  1.00  0.00    -0.258 OA
ENDBRANCH  32  34
ENDBRANCH  26  28
ENDBRANCH  20  24
ENDBRANCH  15  18
ENDBRANCH  13  14
ENDBRANCH   6   8
ENDBRANCH   5   6
ENDBRANCH   4   5
ENDBRANCH   3   4
ENDBRANCH   2   3
ENDBRANCH   1   2
BRANCH   1  37
ATOM     37  C   UNL A   1      38.378  29.820  28.735  1.00  0.00     0.188 C 
BRANCH  37  38
ATOM     38  O   UNL A   1      39.251  28.697  28.790  1.00  0.00    -0.377 OA
BRANCH  38  39
ATOM     39  C   UNL A   1      39.976  28.282  27.655  1.00  0.00     0.188 C 
BRANCH  39  40
ATOM     40  C   UNL A   1      40.274  26.771  27.617  1.00  0.00     0.188 C 
BRANCH  40  41
ATOM     41  O   UNL A   1      39.399  25.859  28.253  1.00  0.00    -0.376 OA
BRANCH  41  42
ATOM     42  C   UNL A   1      39.316  24.528  27.749  1.00  0.00     0.202 C 
BRANCH  42  43
ATOM     43  C   UNL A   1      40.180  24.127  26.534  1.00  0.00     0.261 C 
BRANCH  43  44
ATOM     44  O   UNL A   1      41.312  23.290  26.845  1.00  0.00    -0.460 OA
BRANCH  44  45
ATOM     45  C   UNL A   1      42.375  23.371  26.013  1.00  0.00     0.338 C 
ATOM     46  O   UNL A   1      42.620  22.658  25.051  1.00  0.00    -0.246 OA
BRANCH  45  47
ATOM     47  C   UNL A   1      43.105  24.633  26.268  1.00  0.00     0.060 A 
ATOM     48  C   UNL A   1      43.379  25.479  25.178  1.00  0.00     0.016 A 
ATOM     49  C   UNL A   1      43.551  24.968  27.545  1.00  0.00     0.016 A 
ATOM     50  C   UNL A   1      44.097  26.659  25.359  1.00  0.00     0.010 A 
ATOM     51  C   UNL A   1      44.324  26.121  27.718  1.00  0.00     0.010 A 
ATOM     52  C   UNL A   1      44.624  26.952  26.621  1.00  0.00    -0.014 A 
BRANCH  52  53
ATOM     53  C   UNL A   1      45.719  27.944  26.727  1.00  0.00     0.031 A 
ATOM     54  C   UNL A   1      45.332  29.372  27.001  1.00  0.00     0.074 A 
ATOM     55  C   UNL A   1      47.012  27.600  26.600  1.00  0.00     0.049 A 
ATOM     56  N   UNL A   1      46.078  30.445  27.049  1.00  0.00    -0.248 NA
ATOM     57  C   UNL A   1      43.903  29.618  27.253  1.00  0.00     0.031 C 
ATOM     58  C   UNL A   1      47.513  26.244  26.402  1.00  0.00     0.029 A 
ATOM     59  N   UNL A   1      48.141  28.382  26.607  1.00  0.00    -0.354 N 
ATOM     60  C   UNL A   1      45.206  31.491  27.322  1.00  0.00     0.074 A 
ATOM     61  C   UNL A   1      43.877  30.932  27.411  1.00  0.00     0.031 C 
ATOM     62  C   UNL A   1      48.852  26.291  26.278  1.00  0.00     0.029 A 
ATOM     63  C   UNL A   1      49.294  27.684  26.349  1.00  0.00     0.049 A 
ATOM     64  H   UNL A   1      48.124  29.351  26.779  1.00  0.00     0.167 HD
ATOM     65  C   UNL A   1      45.489  32.804  27.484  1.00  0.00     0.037 A 
ATOM     66  C   UNL A   1      50.552  28.129  26.159  1.00  0.00     0.037 A 
ATOM     67  C   UNL A   1      46.811  33.359  27.376  1.00  0.00     0.049 A 
ATOM     68  C   UNL A   1      50.830  29.612  26.251  1.00  0.00     0.074 A 
ATOM     69  C   UNL A   1      47.210  34.675  27.522  1.00  0.00     0.029 A 
ATOM     70  N   UNL A   1      47.951  32.624  27.081  1.00  0.00    -0.354 N 
ATOM     71  N   UNL A   1      50.007  30.597  26.522  1.00  0.00    -0.248 NA
ATOM     72  C   UNL A   1      52.215  30.043  26.008  1.00  0.00     0.031 C 
ATOM     73  C   UNL A   1      48.581  34.746  27.256  1.00  0.00     0.029 A 
ATOM     74  C   UNL A   1      49.049  33.464  27.012  1.00  0.00     0.049 A 
ATOM     75  H   UNL A   1      47.974  31.650  26.940  1.00  0.00     0.167 HD
ATOM     76  C   UNL A   1      50.778  31.755  26.517  1.00  0.00     0.074 A 
ATOM     77  C   UNL A   1      52.137  31.348  26.226  1.00  0.00     0.031 C 
ATOM     78  C   UNL A   1      50.398  33.038  26.735  1.00  0.00     0.037 A 
BRANCH  65  79
ATOM     79  C   UNL A   1      44.337  33.731  27.745  1.00  0.00     0.064 A 
ATOM     80  C   UNL A   1      43.782  34.527  26.731  1.00  0.00     0.173 A 
ATOM     81  C   UNL A   1      43.779  33.817  29.029  1.00  0.00     0.173 A 
ATOM     82  F   UNL A   1      44.294  34.497  25.492  1.00  0.00    -0.203 F 
ATOM     83  C   UNL A   1      42.729  35.398  27.002  1.00  0.00     0.198 A 
ATOM     84  C   UNL A   1      42.704  34.665  29.287  1.00  0.00     0.198 A 
ATOM     85  F   UNL A   1      44.274  33.080  30.034  1.00  0.00    -0.203 F 
ATOM     86  F   UNL A   1      42.253  36.191  26.032  1.00  0.00    -0.200 F 
ATOM     87  C   UNL A   1      42.187  35.461  28.277  1.00  0.00     0.200 A 
ATOM     88  F   UNL A   1      42.175  34.714  30.518  1.00  0.00    -0.200 F 
ATOM     89  F   UNL A   1      41.171  36.296  28.535  1.00  0.00    -0.200 F 
ENDBRANCH  65  79
BRANCH  66  90
ATOM     90  C   UNL A   1      51.646  27.173  25.839  1.00  0.00     0.064 A 
ATOM     91  C   UNL A   1      52.421  26.594  26.853  1.00  0.00     0.173 A 
ATOM     92  C   UNL A   1      51.959  26.842  24.512  1.00  0.00     0.173 A 
ATOM     93  F   UNL A   1      52.180  26.898  28.136  1.00  0.00    -0.203 F 
ATOM     94  C   UNL A   1      53.478  25.736  26.552  1.00  0.00     0.198 A 
ATOM     95  C   UNL A   1      52.995  25.960  24.213  1.00  0.00     0.198 A 
ATOM     96  F   UNL A   1      51.251  27.370  23.502  1.00  0.00    -0.203 F 
ATOM     97  F   UNL A   1      54.233  25.235  27.539  1.00  0.00    -0.200 F 
ATOM     98  C   UNL A   1      53.760  25.415  25.233  1.00  0.00     0.200 A 
ATOM     99  F   UNL A   1      53.255  25.641  22.938  1.00  0.00    -0.200 F 
ATOM    100  F   UNL A   1      54.772  24.586  24.944  1.00  0.00    -0.200 F 
ENDBRANCH  66  90
BRANCH  78 101
ATOM    101  C   UNL A   1      51.467  34.094  26.724  1.00  0.00     0.064 A 
ATOM    102  C   UNL A   1      51.825  34.776  25.551  1.00  0.00     0.173 A 
ATOM    103  C   UNL A   1      52.105  34.464  27.919  1.00  0.00     0.173 A 
ATOM    104  F   UNL A   1      51.255  34.451  24.382  1.00  0.00    -0.203 F 
ATOM    105  C   UNL A   1      52.800  35.770  25.571  1.00  0.00     0.198 A 
ATOM    106  C   UNL A   1      53.053  35.483  27.941  1.00  0.00     0.198 A 
ATOM    107  F   UNL A   1      51.793  33.851  29.071  1.00  0.00    -0.203 F 
ATOM    108  F   UNL A   1      53.161  36.374  24.431  1.00  0.00    -0.200 F 
ATOM    109  C   UNL A   1      53.406  36.129  26.766  1.00  0.00     0.200 A 
ATOM    110  F   UNL A   1      53.624  35.840  29.100  1.00  0.00    -0.200 F 
ATOM    111  F   UNL A   1      54.335  37.094  26.785  1.00  0.00    -0.200 F 
ENDBRANCH  78 101
ENDBRANCH  52  53
ENDBRANCH  45  47
ENDBRANCH  44  45
ENDBRANCH  43  44
ENDBRANCH  42  43
ENDBRANCH  41  42
ENDBRANCH  40  41
ENDBRANCH  39  40
ENDBRANCH  38  39
ENDBRANCH  37  38
ENDBRANCH   1  37
TORSDOF 25
ENDMDL
