MODEL 1
REMARK VINA RESULT:      -9.0      0.000      0.000
REMARK SMILES Cn1cc(/C=C/C(=O)N(CC(=O)OCCOCCOCCOCCOC(=O)c2ccc(-c3c4nc(c(-c5c(F)c(F)c(F)c(F)c5F)c5ccc([nH]5)c(-c5c(F)c(F)c(F)c(F)c5F)c5nc(c(-c6c(F)c(F)c(F)c(F)c6F)c6ccc3[nH]6)C=C5)C=C4)cc2)C(C)(C)C)cn1
REMARK SMILES IDX 18 1 17 2 16 3 15 4 14 5 13 6 11 7 12 8 10 9 9 10 7 11 8 12
REMARK SMILES IDX 6 13 5 14 4 15 1 16 2 17 3 18 96 19 95 20 91 21 92 22 93 23
REMARK SMILES IDX 94 24 19 25 20 26 21 27 22 28 23 29 24 30 25 31 26 32 27 33
REMARK SMILES IDX 28 34 29 35 90 36 30 37 89 38 31 39 32 40 33 41 83 42 34 43
REMARK SMILES IDX 88 44 82 45 84 46 35 47 87 48 81 49 80 50 36 52 68 53 48 54
REMARK SMILES IDX 67 55 49 56 52 57 66 58 85 59 50 60 51 61 65 63 86 64 53 65
REMARK SMILES IDX 37 66 38 67 46 68 39 69 40 70 44 71 47 72 41 73 42 74 45 75
REMARK SMILES IDX 43 76 69 77 70 78 78 79 71 80 72 81 76 82 79 83 73 84 74 85
REMARK SMILES IDX 77 86 75 87 54 88 55 89 63 90 56 91 57 92 61 93 64 94 58 95
REMARK SMILES IDX 59 96 62 97 60 98
REMARK H PARENT 84 51 52 62
REMARK Flexibility Score: inf
ROOT
ATOM      1  C   UNL A   1      33.778  34.385  28.955  1.00  0.00     0.188 C 
ENDROOT
BRANCH   1   2
ATOM      2  C   UNL A   1      33.683  33.229  27.940  1.00  0.00     0.188 C 
BRANCH   2   3
ATOM      3  O   UNL A   1      34.849  32.507  27.559  1.00  0.00    -0.376 OA
BRANCH   3   4
ATOM      4  C   UNL A   1      34.979  31.151  27.946  1.00  0.00     0.202 C 
BRANCH   4   5
ATOM      5  C   UNL A   1      34.239  30.097  27.098  1.00  0.00     0.261 C 
BRANCH   5   6
ATOM      6  O   UNL A   1      32.794  30.039  27.226  1.00  0.00    -0.462 OA
BRANCH   6   7
ATOM      7  C   UNL A   1      32.054  30.298  26.114  1.00  0.00     0.325 C 
ATOM      8  O   UNL A   1      31.324  31.281  26.004  1.00  0.00    -0.250 OA
BRANCH   7   9
ATOM      9  C   UNL A   1      32.189  29.261  24.948  1.00  0.00     0.243 C 
BRANCH   9  10
ATOM     10  N   UNL A   1      31.555  27.905  24.895  1.00  0.00    -0.323 N 
BRANCH  10  11
ATOM     11  C   UNL A   1      31.649  26.992  25.958  1.00  0.00     0.247 C 
ATOM     12  O   UNL A   1      31.062  27.141  27.031  1.00  0.00    -0.270 OA
BRANCH  11  13
ATOM     13  C   UNL A   1      32.628  25.875  25.938  1.00  0.00     0.072 C 
ATOM     14  C   UNL A   1      32.376  24.581  25.719  1.00  0.00     0.017 C 
BRANCH  14  15
ATOM     15  C   UNL A   1      33.344  23.544  25.710  1.00  0.00     0.013 A 
ATOM     16  C   UNL A   1      34.549  20.250  24.946  1.00  0.00     0.173 C 
ATOM     17  N   UNL A   1      34.292  21.612  25.343  1.00  0.00    -0.275 N 
ATOM     18  C   UNL A   1      33.172  22.340  25.070  1.00  0.00     0.116 A 
ATOM     19  N   UNL A   1      35.194  22.274  26.092  1.00  0.00    -0.181 NA
ATOM     20  C   UNL A   1      34.613  23.457  26.314  1.00  0.00     0.143 A 
ENDBRANCH  14  15
ENDBRANCH  11  13
ENDBRANCH  10  11
BRANCH  10  21
ATOM     21  C   UNL A   1      30.527  27.565  23.812  1.00  0.00     0.035 C 
ATOM     22  C   UNL A   1      29.778  28.837  23.328  1.00  0.00     0.034 C 
ATOM     23  C   UNL A   1      31.222  26.937  22.572  1.00  0.00     0.034 C 
ATOM     24  C   UNL A   1      29.478  26.497  24.217  1.00  0.00     0.034 C 
ENDBRANCH  10  21
ENDBRANCH   9  10
ENDBRANCH   7   9
ENDBRANCH   6   7
ENDBRANCH   5   6
ENDBRANCH   4   5
ENDBRANCH   3   4
ENDBRANCH   2   3
ENDBRANCH   1   2
BRANCH   1  25
ATOM     25  O   UNL A   1      32.731  35.327  28.852  1.00  0.00    -0.377 OA
BRANCH  25  26
ATOM     26  C   UNL A   1      32.876  36.471  29.669  1.00  0.00     0.188 C 
BRANCH  26  27
ATOM     27  C   UNL A   1      32.619  36.221  31.164  1.00  0.00     0.188 C 
BRANCH  27  28
ATOM     28  O   UNL A   1      33.023  37.323  31.965  1.00  0.00    -0.376 OA
BRANCH  28  29
ATOM     29  C   UNL A   1      33.996  37.173  32.979  1.00  0.00     0.202 C 
BRANCH  29  30
ATOM     30  C   UNL A   1      34.456  35.787  33.464  1.00  0.00     0.261 C 
BRANCH  30  31
ATOM     31  O   UNL A   1      35.846  35.474  33.358  1.00  0.00    -0.460 OA
BRANCH  31  32
ATOM     32  C   UNL A   1      36.181  34.451  32.545  1.00  0.00     0.338 C 
ATOM     33  O   UNL A   1      35.798  34.268  31.401  1.00  0.00    -0.246 OA
BRANCH  32  34
ATOM     34  C   UNL A   1      37.258  33.677  33.197  1.00  0.00     0.060 A 
ATOM     35  C   UNL A   1      36.913  32.801  34.234  1.00  0.00     0.016 A 
ATOM     36  C   UNL A   1      38.588  33.800  32.788  1.00  0.00     0.016 A 
ATOM     37  C   UNL A   1      37.896  32.053  34.878  1.00  0.00     0.010 A 
ATOM     38  C   UNL A   1      39.581  33.084  33.466  1.00  0.00     0.010 A 
ATOM     39  C   UNL A   1      39.240  32.232  34.531  1.00  0.00    -0.014 A 
BRANCH  39  40
ATOM     40  C   UNL A   1      40.293  31.722  35.439  1.00  0.00     0.031 A 
ATOM     41  C   UNL A   1      40.677  32.577  36.614  1.00  0.00     0.074 A 
ATOM     42  C   UNL A   1      40.874  30.526  35.247  1.00  0.00     0.049 A 
ATOM     43  N   UNL A   1      41.612  32.395  37.510  1.00  0.00    -0.248 NA
ATOM     44  C   UNL A   1      39.896  33.811  36.801  1.00  0.00     0.031 C 
ATOM     45  C   UNL A   1      40.538  29.583  34.185  1.00  0.00     0.029 A 
ATOM     46  N   UNL A   1      41.885  29.908  35.942  1.00  0.00    -0.354 N 
ATOM     47  C   UNL A   1      41.535  33.491  38.358  1.00  0.00     0.074 A 
ATOM     48  C   UNL A   1      40.483  34.347  37.860  1.00  0.00     0.031 C 
ATOM     49  C   UNL A   1      41.345  28.511  34.283  1.00  0.00     0.029 A 
ATOM     50  C   UNL A   1      42.278  28.713  35.391  1.00  0.00     0.049 A 
ATOM     51  H   UNL A   1      42.288  30.286  36.757  1.00  0.00     0.167 HD
ATOM     52  C   UNL A   1      42.277  33.758  39.458  1.00  0.00     0.037 A 
ATOM     53  C   UNL A   1      43.299  27.900  35.728  1.00  0.00     0.037 A 
ATOM     54  C   UNL A   1      43.333  32.908  39.939  1.00  0.00     0.049 A 
ATOM     55  C   UNL A   1      44.177  28.269  36.899  1.00  0.00     0.074 A 
ATOM     56  C   UNL A   1      44.147  33.085  41.042  1.00  0.00     0.029 A 
ATOM     57  N   UNL A   1      43.727  31.723  39.334  1.00  0.00    -0.354 N 
ATOM     58  N   UNL A   1      44.095  29.298  37.708  1.00  0.00    -0.248 NA
ATOM     59  C   UNL A   1      45.292  27.360  37.205  1.00  0.00     0.031 C 
ATOM     60  C   UNL A   1      45.076  32.041  41.069  1.00  0.00     0.029 A 
ATOM     61  C   UNL A   1      44.792  31.172  40.026  1.00  0.00     0.049 A 
ATOM     62  H   UNL A   1      43.311  31.333  38.532  1.00  0.00     0.167 HD
ATOM     63  C   UNL A   1      45.115  29.140  38.639  1.00  0.00     0.074 A 
ATOM     64  C   UNL A   1      45.803  27.913  38.297  1.00  0.00     0.031 C 
ATOM     65  C   UNL A   1      45.449  29.935  39.685  1.00  0.00     0.037 A 
BRANCH  52  66
ATOM     66  C   UNL A   1      42.001  35.040  40.187  1.00  0.00     0.064 A 
ATOM     67  C   UNL A   1      42.642  36.240  39.844  1.00  0.00     0.173 A 
ATOM     68  C   UNL A   1      41.065  35.072  41.232  1.00  0.00     0.173 A 
ATOM     69  F   UNL A   1      43.560  36.261  38.867  1.00  0.00    -0.203 F 
ATOM     70  C   UNL A   1      42.374  37.419  40.537  1.00  0.00     0.198 A 
ATOM     71  C   UNL A   1      40.775  36.258  41.900  1.00  0.00     0.198 A 
ATOM     72  F   UNL A   1      40.425  33.952  41.600  1.00  0.00    -0.203 F 
ATOM     73  F   UNL A   1      43.036  38.542  40.227  1.00  0.00    -0.200 F 
ATOM     74  C   UNL A   1      41.435  37.429  41.558  1.00  0.00     0.200 A 
ATOM     75  F   UNL A   1      39.858  36.267  42.877  1.00  0.00    -0.200 F 
ATOM     76  F   UNL A   1      41.172  38.564  42.218  1.00  0.00    -0.200 F 
ENDBRANCH  52  66
BRANCH  53  77
ATOM     77  C   UNL A   1      43.565  26.668  34.940  1.00  0.00     0.064 A 
ATOM     78  C   UNL A   1      42.986  25.440  35.293  1.00  0.00     0.173 A 
ATOM     79  C   UNL A   1      44.427  26.684  33.832  1.00  0.00     0.173 A 
ATOM     80  F   UNL A   1      42.176  25.365  36.359  1.00  0.00    -0.203 F 
ATOM     81  C   UNL A   1      43.277  24.275  34.585  1.00  0.00     0.198 A 
ATOM     82  C   UNL A   1      44.692  25.525  33.106  1.00  0.00     0.198 A 
ATOM     83  F   UNL A   1      45.012  27.830  33.454  1.00  0.00    -0.203 F 
ATOM     84  F   UNL A   1      42.752  23.107  34.979  1.00  0.00    -0.200 F 
ATOM     85  C   UNL A   1      44.124  24.319  33.489  1.00  0.00     0.200 A 
ATOM     86  F   UNL A   1      45.504  25.575  32.041  1.00  0.00    -0.200 F 
ATOM     87  F   UNL A   1      44.403  23.199  32.809  1.00  0.00    -0.200 F 
ENDBRANCH  53  77
BRANCH  65  88
ATOM     88  C   UNL A   1      46.563  29.480  40.583  1.00  0.00     0.064 A 
ATOM     89  C   UNL A   1      47.894  29.867  40.375  1.00  0.00     0.173 A 
ATOM     90  C   UNL A   1      46.276  28.700  41.717  1.00  0.00     0.173 A 
ATOM     91  F   UNL A   1      48.222  30.602  39.301  1.00  0.00    -0.203 F 
ATOM     92  C   UNL A   1      48.900  29.476  41.255  1.00  0.00     0.198 A 
ATOM     93  C   UNL A   1      47.278  28.340  42.612  1.00  0.00     0.198 A 
ATOM     94  F   UNL A   1      45.018  28.311  41.969  1.00  0.00    -0.203 F 
ATOM     95  F   UNL A   1      50.171  29.823  41.013  1.00  0.00    -0.200 F 
ATOM     96  C   UNL A   1      48.589  28.722  42.377  1.00  0.00     0.200 A 
ATOM     97  F   UNL A   1      46.972  27.629  43.707  1.00  0.00    -0.200 F 
ATOM     98  F   UNL A   1      49.557  28.362  43.233  1.00  0.00    -0.200 F 
ENDBRANCH  65  88
ENDBRANCH  39  40
ENDBRANCH  32  34
ENDBRANCH  31  32
ENDBRANCH  30  31
ENDBRANCH  29  30
ENDBRANCH  28  29
ENDBRANCH  27  28
ENDBRANCH  26  27
ENDBRANCH  25  26
ENDBRANCH   1  25
TORSDOF 25
ENDMDL
MODEL 2
REMARK VINA RESULT:      -8.3      5.956     10.463
REMARK SMILES Cn1cc(/C=C/C(=O)N(CC(=O)OCCOCCOCCOCCOC(=O)c2ccc(-c3c4nc(c(-c5c(F)c(F)c(F)c(F)c5F)c5ccc([nH]5)c(-c5c(F)c(F)c(F)c(F)c5F)c5nc(c(-c6c(F)c(F)c(F)c(F)c6F)c6ccc3[nH]6)C=C5)C=C4)cc2)C(C)(C)C)cn1
REMARK SMILES IDX 18 1 17 2 16 3 15 4 14 5 13 6 11 7 12 8 10 9 9 10 7 11 8 12
REMARK SMILES IDX 6 13 5 14 4 15 1 16 2 17 3 18 96 19 95 20 91 21 92 22 93 23
REMARK SMILES IDX 94 24 19 25 20 26 21 27 22 28 23 29 24 30 25 31 26 32 27 33
REMARK SMILES IDX 28 34 29 35 90 36 30 37 89 38 31 39 32 40 33 41 83 42 34 43
REMARK SMILES IDX 88 44 82 45 84 46 35 47 87 48 81 49 80 50 36 52 68 53 48 54
REMARK SMILES IDX 67 55 49 56 52 57 66 58 85 59 50 60 51 61 65 63 86 64 53 65
REMARK SMILES IDX 37 66 38 67 46 68 39 69 40 70 44 71 47 72 41 73 42 74 45 75
REMARK SMILES IDX 43 76 69 77 70 78 78 79 71 80 72 81 76 82 79 83 73 84 74 85
REMARK SMILES IDX 77 86 75 87 54 88 55 89 63 90 56 91 57 92 61 93 64 94 58 95
REMARK SMILES IDX 59 96 62 97 60 98
REMARK H PARENT 84 51 52 62
REMARK Flexibility Score: inf
ROOT
ATOM      1  C   UNL A   1      35.369  32.106  27.995  1.00  0.00     0.188 C 
ENDROOT
BRANCH   1   2
ATOM      2  C   UNL A   1      36.792  31.833  28.521  1.00  0.00     0.188 C 
BRANCH   2   3
ATOM      3  O   UNL A   1      37.069  30.655  29.273  1.00  0.00    -0.376 OA
BRANCH   3   4
ATOM      4  C   UNL A   1      38.076  29.769  28.820  1.00  0.00     0.202 C 
BRANCH   4   5
ATOM      5  C   UNL A   1      38.747  28.862  29.871  1.00  0.00     0.261 C 
BRANCH   5   6
ATOM      6  O   UNL A   1      38.880  27.453  29.543  1.00  0.00    -0.462 OA
BRANCH   6   7
ATOM      7  C   UNL A   1      39.868  27.100  28.677  1.00  0.00     0.325 C 
ATOM      8  O   UNL A   1      39.685  26.368  27.707  1.00  0.00    -0.250 OA
BRANCH   7   9
ATOM      9  C   UNL A   1      41.284  27.696  28.980  1.00  0.00     0.243 C 
BRANCH   9  10
ATOM     10  N   UNL A   1      42.570  27.295  28.325  1.00  0.00    -0.323 N 
BRANCH  10  11
ATOM     11  C   UNL A   1      43.209  26.078  28.612  1.00  0.00     0.247 C 
ATOM     12  O   UNL A   1      44.025  25.942  29.525  1.00  0.00    -0.270 OA
BRANCH  11  13
ATOM     13  C   UNL A   1      43.096  24.908  27.703  1.00  0.00     0.072 C 
ATOM     14  C   UNL A   1      42.864  23.637  28.044  1.00  0.00     0.017 C 
BRANCH  14  15
ATOM     15  C   UNL A   1      42.765  22.548  27.141  1.00  0.00     0.013 A 
ATOM     16  C   UNL A   1      41.632  19.306  26.095  1.00  0.00     0.173 C 
ATOM     17  N   UNL A   1      42.192  20.620  26.291  1.00  0.00    -0.275 N 
ATOM     18  C   UNL A   1      41.964  21.450  27.349  1.00  0.00     0.116 A 
ATOM     19  N   UNL A   1      43.064  21.119  25.394  1.00  0.00    -0.181 NA
ATOM     20  C   UNL A   1      43.412  22.300  25.916  1.00  0.00     0.143 A 
ENDBRANCH  14  15
ENDBRANCH  11  13
ENDBRANCH  10  11
BRANCH  10  21
ATOM     21  C   UNL A   1      43.090  28.048  27.096  1.00  0.00     0.035 C 
ATOM     22  C   UNL A   1      42.412  27.538  25.796  1.00  0.00     0.034 C 
ATOM     23  C   UNL A   1      42.784  29.567  27.214  1.00  0.00     0.034 C 
ATOM     24  C   UNL A   1      44.628  28.004  26.904  1.00  0.00     0.034 C 
ENDBRANCH  10  21
ENDBRANCH   9  10
ENDBRANCH   7   9
ENDBRANCH   6   7
ENDBRANCH   5   6
ENDBRANCH   4   5
ENDBRANCH   3   4
ENDBRANCH   2   3
ENDBRANCH   1   2
BRANCH   1  25
ATOM     25  O   UNL A   1      34.893  33.405  28.278  1.00  0.00    -0.377 OA
BRANCH  25  26
ATOM     26  C   UNL A   1      35.441  34.000  29.437  1.00  0.00     0.188 C 
BRANCH  26  27
ATOM     27  C   UNL A   1      34.617  33.782  30.716  1.00  0.00     0.188 C 
BRANCH  27  28
ATOM     28  O   UNL A   1      35.262  34.316  31.863  1.00  0.00    -0.376 OA
BRANCH  28  29
ATOM     29  C   UNL A   1      34.882  33.923  33.166  1.00  0.00     0.202 C 
BRANCH  29  30
ATOM     30  C   UNL A   1      35.916  33.736  34.291  1.00  0.00     0.261 C 
BRANCH  30  31
ATOM     31  O   UNL A   1      36.473  32.433  34.469  1.00  0.00    -0.460 OA
BRANCH  31  32
ATOM     32  C   UNL A   1      37.434  32.303  35.407  1.00  0.00     0.338 C 
ATOM     33  O   UNL A   1      37.327  32.526  36.603  1.00  0.00    -0.246 OA
BRANCH  32  34
ATOM     34  C   UNL A   1      38.603  31.649  34.784  1.00  0.00     0.060 A 
ATOM     35  C   UNL A   1      39.883  32.032  35.205  1.00  0.00     0.016 A 
ATOM     36  C   UNL A   1      38.446  30.663  33.806  1.00  0.00     0.016 A 
ATOM     37  C   UNL A   1      41.013  31.444  34.643  1.00  0.00     0.010 A 
ATOM     38  C   UNL A   1      39.581  30.106  33.208  1.00  0.00     0.010 A 
ATOM     39  C   UNL A   1      40.867  30.517  33.605  1.00  0.00    -0.014 A 
BRANCH  39  40
ATOM     40  C   UNL A   1      42.045  30.169  32.777  1.00  0.00     0.031 A 
ATOM     41  C   UNL A   1      42.760  28.884  33.083  1.00  0.00     0.074 A 
ATOM     42  C   UNL A   1      42.454  30.953  31.765  1.00  0.00     0.049 A 
ATOM     43  N   UNL A   1      43.850  28.388  32.558  1.00  0.00    -0.248 NA
ATOM     44  C   UNL A   1      42.159  28.041  34.130  1.00  0.00     0.031 C 
ATOM     45  C   UNL A   1      41.801  32.186  31.332  1.00  0.00     0.029 A 
ATOM     46  N   UNL A   1      43.532  30.827  30.924  1.00  0.00    -0.354 N 
ATOM     47  C   UNL A   1      44.068  27.185  33.215  1.00  0.00     0.074 A 
ATOM     48  C   UNL A   1      43.015  27.033  34.194  1.00  0.00     0.031 C 
ATOM     49  C   UNL A   1      42.506  32.718  30.318  1.00  0.00     0.029 A 
ATOM     50  C   UNL A   1      43.678  31.882  30.058  1.00  0.00     0.049 A 
ATOM     51  H   UNL A   1      44.141  30.053  30.940  1.00  0.00     0.167 HD
ATOM     52  C   UNL A   1      45.059  26.285  33.017  1.00  0.00     0.037 A 
ATOM     53  C   UNL A   1      44.668  32.152  29.184  1.00  0.00     0.037 A 
ATOM     54  C   UNL A   1      46.112  26.451  32.051  1.00  0.00     0.049 A 
ATOM     55  C   UNL A   1      45.817  31.182  29.051  1.00  0.00     0.074 A 
ATOM     56  C   UNL A   1      47.165  25.601  31.770  1.00  0.00     0.029 A 
ATOM     57  N   UNL A   1      46.248  27.551  31.216  1.00  0.00    -0.354 N 
ATOM     58  N   UNL A   1      46.014  30.039  29.662  1.00  0.00    -0.248 NA
ATOM     59  C   UNL A   1      46.882  31.540  28.102  1.00  0.00     0.031 C 
ATOM     60  C   UNL A   1      47.975  26.216  30.810  1.00  0.00     0.029 A 
ATOM     61  C   UNL A   1      47.385  27.414  30.438  1.00  0.00     0.049 A 
ATOM     62  H   UNL A   1      45.629  28.315  31.183  1.00  0.00     0.167 HD
ATOM     63  C   UNL A   1      47.198  29.524  29.146  1.00  0.00     0.074 A 
ATOM     64  C   UNL A   1      47.674  30.478  28.167  1.00  0.00     0.031 C 
ATOM     65  C   UNL A   1      47.830  28.364  29.450  1.00  0.00     0.037 A 
BRANCH  52  66
ATOM     66  C   UNL A   1      45.074  25.066  33.891  1.00  0.00     0.064 A 
ATOM     67  C   UNL A   1      44.492  23.855  33.484  1.00  0.00     0.173 A 
ATOM     68  C   UNL A   1      45.700  25.103  35.146  1.00  0.00     0.173 A 
ATOM     69  F   UNL A   1      43.863  23.771  32.302  1.00  0.00    -0.203 F 
ATOM     70  C   UNL A   1      44.514  22.736  34.313  1.00  0.00     0.198 A 
ATOM     71  C   UNL A   1      45.750  23.973  35.957  1.00  0.00     0.198 A 
ATOM     72  F   UNL A   1      46.272  26.235  35.583  1.00  0.00    -0.203 F 
ATOM     73  F   UNL A   1      43.906  21.606  33.926  1.00  0.00    -0.200 F 
ATOM     74  C   UNL A   1      45.149  22.793  35.544  1.00  0.00     0.200 A 
ATOM     75  F   UNL A   1      46.376  24.027  37.141  1.00  0.00    -0.200 F 
ATOM     76  F   UNL A   1      45.177  21.713  36.336  1.00  0.00    -0.200 F 
ENDBRANCH  52  66
BRANCH  53  77
ATOM     77  C   UNL A   1      44.635  33.403  28.379  1.00  0.00     0.064 A 
ATOM     78  C   UNL A   1      44.190  33.399  27.049  1.00  0.00     0.173 A 
ATOM     79  C   UNL A   1      45.074  34.624  28.913  1.00  0.00     0.173 A 
ATOM     80  F   UNL A   1      43.785  32.253  26.482  1.00  0.00    -0.203 F 
ATOM     81  C   UNL A   1      44.208  34.560  26.279  1.00  0.00     0.198 A 
ATOM     82  C   UNL A   1      45.062  35.791  28.153  1.00  0.00     0.198 A 
ATOM     83  F   UNL A   1      45.515  34.683  30.179  1.00  0.00    -0.203 F 
ATOM     84  F   UNL A   1      43.830  34.516  24.995  1.00  0.00    -0.200 F 
ATOM     85  C   UNL A   1      44.638  35.757  26.833  1.00  0.00     0.200 A 
ATOM     86  F   UNL A   1      45.469  36.947  28.695  1.00  0.00    -0.200 F 
ATOM     87  F   UNL A   1      44.655  36.873  26.092  1.00  0.00    -0.200 F 
ENDBRANCH  53  77
BRANCH  65  88
ATOM     88  C   UNL A   1      49.069  28.018  28.675  1.00  0.00     0.064 A 
ATOM     89  C   UNL A   1      50.341  28.460  29.068  1.00  0.00     0.173 A 
ATOM     90  C   UNL A   1      48.986  27.166  27.561  1.00  0.00     0.173 A 
ATOM     91  F   UNL A   1      50.474  29.285  30.118  1.00  0.00    -0.203 F 
ATOM     92  C   UNL A   1      51.480  28.079  28.363  1.00  0.00     0.198 A 
ATOM     93  C   UNL A   1      50.129  26.760  26.880  1.00  0.00     0.198 A 
ATOM     94  F   UNL A   1      47.795  26.706  27.149  1.00  0.00    -0.203 F 
ATOM     95  F   UNL A   1      52.681  28.547  28.731  1.00  0.00    -0.200 F 
ATOM     96  C   UNL A   1      51.374  27.222  27.277  1.00  0.00     0.200 A 
ATOM     97  F   UNL A   1      50.026  25.915  25.844  1.00  0.00    -0.200 F 
ATOM     98  F   UNL A   1      52.474  26.842  26.611  1.00  0.00    -0.200 F 
ENDBRANCH  65  88
ENDBRANCH  39  40
ENDBRANCH  32  34
ENDBRANCH  31  32
ENDBRANCH  30  31
ENDBRANCH  29  30
ENDBRANCH  28  29
ENDBRANCH  27  28
ENDBRANCH  26  27
ENDBRANCH  25  26
ENDBRANCH   1  25
TORSDOF 25
ENDMDL
MODEL 3
REMARK VINA RESULT:      -8.3      7.391     11.000
REMARK SMILES Cn1cc(/C=C/C(=O)N(CC(=O)OCCOCCOCCOCCOC(=O)c2ccc(-c3c4nc(c(-c5c(F)c(F)c(F)c(F)c5F)c5ccc([nH]5)c(-c5c(F)c(F)c(F)c(F)c5F)c5nc(c(-c6c(F)c(F)c(F)c(F)c6F)c6ccc3[nH]6)C=C5)C=C4)cc2)C(C)(C)C)cn1
REMARK SMILES IDX 18 1 17 2 16 3 15 4 14 5 13 6 11 7 12 8 10 9 9 10 7 11 8 12
REMARK SMILES IDX 6 13 5 14 4 15 1 16 2 17 3 18 96 19 95 20 91 21 92 22 93 23
REMARK SMILES IDX 94 24 19 25 20 26 21 27 22 28 23 29 24 30 25 31 26 32 27 33
REMARK SMILES IDX 28 34 29 35 90 36 30 37 89 38 31 39 32 40 33 41 83 42 34 43
REMARK SMILES IDX 88 44 82 45 84 46 35 47 87 48 81 49 80 50 36 52 68 53 48 54
REMARK SMILES IDX 67 55 49 56 52 57 66 58 85 59 50 60 51 61 65 63 86 64 53 65
REMARK SMILES IDX 37 66 38 67 46 68 39 69 40 70 44 71 47 72 41 73 42 74 45 75
REMARK SMILES IDX 43 76 69 77 70 78 78 79 71 80 72 81 76 82 79 83 73 84 74 85
REMARK SMILES IDX 77 86 75 87 54 88 55 89 63 90 56 91 57 92 61 93 64 94 58 95
REMARK SMILES IDX 59 96 62 97 60 98
REMARK H PARENT 84 51 52 62
REMARK Flexibility Score: inf
ROOT
ATOM      1  C   UNL A   1      33.533  21.595  25.482  1.00  0.00     0.188 C 
ENDROOT
BRANCH   1   2
ATOM      2  C   UNL A   1      32.541  21.051  24.437  1.00  0.00     0.188 C 
BRANCH   2   3
ATOM      3  O   UNL A   1      32.463  21.640  23.142  1.00  0.00    -0.376 OA
BRANCH   3   4
ATOM      4  C   UNL A   1      33.012  22.928  22.935  1.00  0.00     0.202 C 
BRANCH   4   5
ATOM      5  C   UNL A   1      32.061  24.134  23.066  1.00  0.00     0.261 C 
BRANCH   5   6
ATOM      6  O   UNL A   1      32.215  25.209  22.101  1.00  0.00    -0.462 OA
BRANCH   6   7
ATOM      7  C   UNL A   1      33.039  26.239  22.435  1.00  0.00     0.325 C 
ATOM      8  O   UNL A   1      33.661  26.899  21.606  1.00  0.00    -0.250 OA
BRANCH   7   9
ATOM      9  C   UNL A   1      33.148  26.555  23.965  1.00  0.00     0.243 C 
BRANCH   9  10
ATOM     10  N   UNL A   1      32.185  27.374  24.768  1.00  0.00    -0.323 N 
BRANCH  10  11
ATOM     11  C   UNL A   1      30.796  27.190  24.688  1.00  0.00     0.247 C 
ATOM     12  O   UNL A   1      30.240  26.120  24.944  1.00  0.00    -0.270 OA
BRANCH  11  13
ATOM     13  C   UNL A   1      29.908  28.221  24.090  1.00  0.00     0.072 C 
ATOM     14  C   UNL A   1      30.276  29.331  23.444  1.00  0.00     0.017 C 
BRANCH  14  15
ATOM     15  C   UNL A   1      29.393  30.291  22.889  1.00  0.00     0.013 A 
ATOM     16  C   UNL A   1      27.937  32.176  20.202  1.00  0.00     0.173 C 
ATOM     17  N   UNL A   1      28.358  31.537  21.425  1.00  0.00    -0.275 N 
ATOM     18  C   UNL A   1      29.251  30.512  21.539  1.00  0.00     0.116 A 
ATOM     19  N   UNL A   1      27.888  31.976  22.607  1.00  0.00    -0.181 NA
ATOM     20  C   UNL A   1      28.522  31.211  23.502  1.00  0.00     0.143 A 
ENDBRANCH  14  15
ENDBRANCH  11  13
ENDBRANCH  10  11
BRANCH  10  21
ATOM     21  C   UNL A   1      32.678  28.240  25.932  1.00  0.00     0.035 C 
ATOM     22  C   UNL A   1      34.032  27.722  26.486  1.00  0.00     0.034 C 
ATOM     23  C   UNL A   1      32.897  29.708  25.470  1.00  0.00     0.034 C 
ATOM     24  C   UNL A   1      31.681  28.379  27.112  1.00  0.00     0.034 C 
ENDBRANCH  10  21
ENDBRANCH   9  10
ENDBRANCH   7   9
ENDBRANCH   6   7
ENDBRANCH   5   6
ENDBRANCH   4   5
ENDBRANCH   3   4
ENDBRANCH   2   3
ENDBRANCH   1   2
BRANCH   1  25
ATOM     25  O   UNL A   1      34.711  20.826  25.610  1.00  0.00    -0.377 OA
BRANCH  25  26
ATOM     26  C   UNL A   1      35.714  21.111  24.657  1.00  0.00     0.188 C 
BRANCH  26  27
ATOM     27  C   UNL A   1      37.098  20.532  24.996  1.00  0.00     0.188 C 
BRANCH  27  28
ATOM     28  O   UNL A   1      37.836  21.388  25.855  1.00  0.00    -0.376 OA
BRANCH  28  29
ATOM     29  C   UNL A   1      37.599  22.781  25.882  1.00  0.00     0.202 C 
BRANCH  29  30
ATOM     30  C   UNL A   1      38.560  23.755  26.588  1.00  0.00     0.261 C 
BRANCH  30  31
ATOM     31  O   UNL A   1      39.846  23.959  26.002  1.00  0.00    -0.460 OA
BRANCH  31  32
ATOM     32  C   UNL A   1      40.919  23.677  26.770  1.00  0.00     0.338 C 
ATOM     33  O   UNL A   1      41.398  22.575  26.984  1.00  0.00    -0.246 OA
BRANCH  32  34
ATOM     34  C   UNL A   1      41.555  24.953  27.160  1.00  0.00     0.060 A 
ATOM     35  C   UNL A   1      42.080  25.065  28.454  1.00  0.00     0.016 A 
ATOM     36  C   UNL A   1      41.648  26.021  26.263  1.00  0.00     0.016 A 
ATOM     37  C   UNL A   1      42.686  26.250  28.865  1.00  0.00     0.010 A 
ATOM     38  C   UNL A   1      42.215  27.226  26.692  1.00  0.00     0.010 A 
ATOM     39  C   UNL A   1      42.709  27.352  28.003  1.00  0.00    -0.014 A 
BRANCH  39  40
ATOM     40  C   UNL A   1      43.019  28.692  28.552  1.00  0.00     0.031 A 
ATOM     41  C   UNL A   1      41.883  29.494  29.121  1.00  0.00     0.074 A 
ATOM     42  C   UNL A   1      44.273  29.175  28.573  1.00  0.00     0.049 A 
ATOM     43  N   UNL A   1      41.876  30.713  29.595  1.00  0.00    -0.248 NA
ATOM     44  C   UNL A   1      40.572  28.826  29.160  1.00  0.00     0.031 C 
ATOM     45  C   UNL A   1      45.462  28.463  28.112  1.00  0.00     0.029 A 
ATOM     46  N   UNL A   1      44.748  30.392  28.993  1.00  0.00    -0.354 N 
ATOM     47  C   UNL A   1      40.564  30.957  29.977  1.00  0.00     0.074 A 
ATOM     48  C   UNL A   1      39.797  29.774  29.661  1.00  0.00     0.031 C 
ATOM     49  C   UNL A   1      46.531  29.266  28.253  1.00  0.00     0.029 A 
ATOM     50  C   UNL A   1      46.094  30.560  28.777  1.00  0.00     0.049 A 
ATOM     51  H   UNL A   1      44.179  31.079  29.409  1.00  0.00     0.167 HD
ATOM     52  C   UNL A   1      40.047  32.071  30.546  1.00  0.00     0.037 A 
ATOM     53  C   UNL A   1      46.869  31.648  28.953  1.00  0.00     0.037 A 
ATOM     54  C   UNL A   1      40.814  33.250  30.845  1.00  0.00     0.049 A 
ATOM     55  C   UNL A   1      46.249  32.913  29.495  1.00  0.00     0.074 A 
ATOM     56  C   UNL A   1      40.388  34.433  31.419  1.00  0.00     0.029 A 
ATOM     57  N   UNL A   1      42.168  33.396  30.578  1.00  0.00    -0.354 N 
ATOM     58  N   UNL A   1      45.012  33.138  29.870  1.00  0.00    -0.248 NA
ATOM     59  C   UNL A   1      47.135  34.078  29.641  1.00  0.00     0.031 C 
ATOM     60  C   UNL A   1      41.470  35.319  31.442  1.00  0.00     0.029 A 
ATOM     61  C   UNL A   1      42.588  34.661  30.952  1.00  0.00     0.049 A 
ATOM     62  H   UNL A   1      42.744  32.703  30.182  1.00  0.00     0.167 HD
ATOM     63  C   UNL A   1      44.981  34.449  30.331  1.00  0.00     0.074 A 
ATOM     64  C   UNL A   1      46.324  34.970  30.194  1.00  0.00     0.031 C 
ATOM     65  C   UNL A   1      43.937  35.155  30.830  1.00  0.00     0.037 A 
BRANCH  52  66
ATOM     66  C   UNL A   1      38.575  32.081  30.840  1.00  0.00     0.064 A 
ATOM     67  C   UNL A   1      38.074  31.812  32.123  1.00  0.00     0.173 A 
ATOM     68  C   UNL A   1      37.654  32.384  29.827  1.00  0.00     0.173 A 
ATOM     69  F   UNL A   1      38.911  31.497  33.123  1.00  0.00    -0.203 F 
ATOM     70  C   UNL A   1      36.703  31.823  32.374  1.00  0.00     0.198 A 
ATOM     71  C   UNL A   1      36.287  32.427  30.088  1.00  0.00     0.198 A 
ATOM     72  F   UNL A   1      38.079  32.648  28.582  1.00  0.00    -0.203 F 
ATOM     73  F   UNL A   1      36.245  31.513  33.594  1.00  0.00    -0.200 F 
ATOM     74  C   UNL A   1      35.812  32.138  31.359  1.00  0.00     0.200 A 
ATOM     75  F   UNL A   1      35.429  32.744  29.109  1.00  0.00    -0.200 F 
ATOM     76  F   UNL A   1      34.496  32.156  31.603  1.00  0.00    -0.200 F 
ENDBRANCH  52  66
BRANCH  53  77
ATOM     77  C   UNL A   1      48.312  31.605  28.595  1.00  0.00     0.064 A 
ATOM     78  C   UNL A   1      48.763  32.043  27.342  1.00  0.00     0.173 A 
ATOM     79  C   UNL A   1      49.269  31.095  29.488  1.00  0.00     0.173 A 
ATOM     80  F   UNL A   1      47.886  32.514  26.442  1.00  0.00    -0.203 F 
ATOM     81  C   UNL A   1      50.108  31.953  26.987  1.00  0.00     0.198 A 
ATOM     82  C   UNL A   1      50.618  31.036  29.144  1.00  0.00     0.198 A 
ATOM     83  F   UNL A   1      48.891  30.657  30.698  1.00  0.00    -0.203 F 
ATOM     84  F   UNL A   1      50.502  32.329  25.763  1.00  0.00    -0.200 F 
ATOM     85  C   UNL A   1      51.035  31.455  27.890  1.00  0.00     0.200 A 
ATOM     86  F   UNL A   1      51.510  30.563  30.024  1.00  0.00    -0.200 F 
ATOM     87  F   UNL A   1      52.328  31.370  27.548  1.00  0.00    -0.200 F 
ENDBRANCH  53  77
BRANCH  65  88
ATOM     88  C   UNL A   1      44.206  36.545  31.330  1.00  0.00     0.064 A 
ATOM     89  C   UNL A   1      44.679  36.791  32.627  1.00  0.00     0.173 A 
ATOM     90  C   UNL A   1      44.055  37.644  30.467  1.00  0.00     0.173 A 
ATOM     91  F   UNL A   1      44.828  35.778  33.494  1.00  0.00    -0.203 F 
ATOM     92  C   UNL A   1      44.973  38.086  33.048  1.00  0.00     0.198 A 
ATOM     93  C   UNL A   1      44.383  38.931  30.879  1.00  0.00     0.198 A 
ATOM     94  F   UNL A   1      43.616  37.462  29.212  1.00  0.00    -0.203 F 
ATOM     95  F   UNL A   1      45.384  38.303  34.304  1.00  0.00    -0.200 F 
ATOM     96  C   UNL A   1      44.834  39.153  32.171  1.00  0.00     0.200 A 
ATOM     97  F   UNL A   1      44.268  39.957  30.023  1.00  0.00    -0.200 F 
ATOM     98  F   UNL A   1      45.135  40.396  32.572  1.00  0.00    -0.200 F 
ENDBRANCH  65  88
ENDBRANCH  39  40
ENDBRANCH  32  34
ENDBRANCH  31  32
ENDBRANCH  30  31
ENDBRANCH  29  30
ENDBRANCH  28  29
ENDBRANCH  27  28
ENDBRANCH  26  27
ENDBRANCH  25  26
ENDBRANCH   1  25
TORSDOF 25
ENDMDL
