MODEL 1
REMARK VINA RESULT:     -10.4      0.000      0.000
REMARK SMILES O=C(CCc1ccc(S(=O)(=O)Nc2cccc(I)c2)cc1)OCCOCCOCCOCCOC(=O)c1ccc(-c2c3nc(c(-c4c(F)c(F)c(F)c(F)c4F)c4ccc([nH]4)c(-c4c(F)c(F)c(F)c(F)c4F)c4nc(c(-c5c(F)c(F)c(F)c(F)c5F)c5ccc2[nH]5)C=C4)C=C3)cc1
REMARK SMILES IDX 26 1 25 2 24 3 23 4 22 5 2 6 1 7 3 8 4 9 5 10 6 11 21 12
REMARK SMILES IDX 7 13 20 14 8 15 9 16 10 17 11 18 12 19 13 21 14 22 19 23
REMARK SMILES IDX 15 24 17 25 16 26 18 27 27 28 28 29 29 30 30 31 31 32 32 33
REMARK SMILES IDX 33 34 34 35 35 36 36 37 37 38 38 39 99 40 39 41 98 42 40 43
REMARK SMILES IDX 41 44 42 45 92 46 43 47 97 48 91 49 93 50 44 51 96 52 90 53
REMARK SMILES IDX 89 54 45 56 77 57 57 58 76 59 58 60 61 61 75 62 94 63 59 64
REMARK SMILES IDX 60 65 74 67 95 68 62 69 46 70 47 71 55 72 48 73 49 74 53 75
REMARK SMILES IDX 56 76 50 77 51 78 54 79 52 80 78 81 79 82 87 83 80 84 81 85
REMARK SMILES IDX 85 86 88 87 82 88 83 89 86 90 84 91 63 92 64 93 72 94 65 95
REMARK SMILES IDX 66 96 70 97 73 98 67 99 68 100 71 101 69 102
REMARK H PARENT 12 20 93 55 61 66
REMARK Flexibility Score: inf
ROOT
ATOM      1  C   UNL A   1      33.999  29.943  26.866  1.00  0.00     0.188 C 
ENDROOT
BRANCH   1   2
ATOM      2  O   UNL A   1      33.108  28.877  27.162  1.00  0.00    -0.376 OA
BRANCH   2   3
ATOM      3  C   UNL A   1      31.819  28.886  26.565  1.00  0.00     0.202 C 
BRANCH   3   4
ATOM      4  C   UNL A   1      31.544  29.825  25.395  1.00  0.00     0.261 C 
BRANCH   4   5
ATOM      5  O   UNL A   1      30.840  29.297  24.258  1.00  0.00    -0.463 OA
BRANCH   5   6
ATOM      6  C   UNL A   1      31.336  28.876  23.083  1.00  0.00     0.306 C 
ATOM      7  O   UNL A   1      30.565  28.628  22.157  1.00  0.00    -0.252 OA
BRANCH   6   8
ATOM      8  C   UNL A   1      32.810  28.633  22.920  1.00  0.00     0.127 C 
BRANCH   8   9
ATOM      9  C   UNL A   1      33.136  27.253  22.355  1.00  0.00     0.047 C 
BRANCH   9  10
ATOM     10  C   UNL A   1      32.819  26.121  23.302  1.00  0.00    -0.047 A 
ATOM     11  C   UNL A   1      33.308  26.119  24.610  1.00  0.00     0.005 A 
ATOM     12  C   UNL A   1      31.946  25.101  22.912  1.00  0.00     0.005 A 
ATOM     13  C   UNL A   1      32.878  25.147  25.521  1.00  0.00     0.022 A 
ATOM     14  C   UNL A   1      31.463  24.172  23.843  1.00  0.00     0.022 A 
ATOM     15  C   UNL A   1      31.934  24.174  25.149  1.00  0.00     0.087 A 
BRANCH  15  16
ATOM     16  S   UNL A   1      31.489  23.006  26.416  1.00  0.00     0.261 S 
ATOM     17  O   UNL A   1      32.212  23.403  27.607  1.00  0.00    -0.201 OA
ATOM     18  O   UNL A   1      30.037  22.970  26.428  1.00  0.00    -0.201 OA
BRANCH  16  19
ATOM     19  N   UNL A   1      31.932  21.405  26.130  1.00  0.00    -0.280 N 
ATOM     20  H   UNL A   1      31.246  20.718  26.292  1.00  0.00     0.180 HD
BRANCH  19  21
ATOM     21  C   UNL A   1      33.201  20.951  25.676  1.00  0.00     0.050 A 
ATOM     22  C   UNL A   1      33.204  19.668  25.116  1.00  0.00     0.027 A 
ATOM     23  C   UNL A   1      34.406  21.611  25.896  1.00  0.00     0.041 A 
ATOM     24  C   UNL A   1      34.382  19.110  24.626  1.00  0.00     0.003 A 
ATOM     25  C   UNL A   1      35.575  21.080  25.339  1.00  0.00     0.015 A 
ATOM     26  C   UNL A   1      35.566  19.837  24.699  1.00  0.00     0.015 A 
ATOM     27  I   UNL A   1      37.330  22.196  25.370  1.00  0.00    -0.044 I 
ENDBRANCH  19  21
ENDBRANCH  16  19
ENDBRANCH  15  16
ENDBRANCH   9  10
ENDBRANCH   8   9
ENDBRANCH   6   8
ENDBRANCH   5   6
ENDBRANCH   4   5
ENDBRANCH   3   4
ENDBRANCH   2   3
ENDBRANCH   1   2
BRANCH   1  28
ATOM     28  C   UNL A   1      34.907  30.452  27.992  1.00  0.00     0.188 C 
BRANCH  28  29
ATOM     29  O   UNL A   1      34.378  31.581  28.677  1.00  0.00    -0.377 OA
BRANCH  29  30
ATOM     30  C   UNL A   1      34.569  32.820  27.998  1.00  0.00     0.188 C 
BRANCH  30  31
ATOM     31  C   UNL A   1      33.376  33.798  28.004  1.00  0.00     0.188 C 
BRANCH  31  32
ATOM     32  O   UNL A   1      33.367  34.605  29.180  1.00  0.00    -0.376 OA
BRANCH  32  33
ATOM     33  C   UNL A   1      33.479  36.007  28.963  1.00  0.00     0.202 C 
BRANCH  33  34
ATOM     34  C   UNL A   1      32.895  36.855  30.101  1.00  0.00     0.261 C 
BRANCH  34  35
ATOM     35  O   UNL A   1      32.209  36.118  31.131  1.00  0.00    -0.460 OA
BRANCH  35  36
ATOM     36  C   UNL A   1      32.636  36.249  32.407  1.00  0.00     0.338 C 
ATOM     37  O   UNL A   1      32.066  36.837  33.308  1.00  0.00    -0.246 OA
BRANCH  36  38
ATOM     38  C   UNL A   1      33.796  35.336  32.594  1.00  0.00     0.060 A 
ATOM     39  C   UNL A   1      33.553  33.995  32.928  1.00  0.00     0.016 A 
ATOM     40  C   UNL A   1      35.106  35.765  32.357  1.00  0.00     0.016 A 
ATOM     41  C   UNL A   1      34.615  33.089  33.034  1.00  0.00     0.010 A 
ATOM     42  C   UNL A   1      36.169  34.864  32.484  1.00  0.00     0.010 A 
ATOM     43  C   UNL A   1      35.933  33.525  32.842  1.00  0.00    -0.014 A 
BRANCH  43  44
ATOM     44  C   UNL A   1      37.084  32.655  33.199  1.00  0.00     0.031 A 
ATOM     45  C   UNL A   1      37.813  32.943  34.483  1.00  0.00     0.074 A 
ATOM     46  C   UNL A   1      37.506  31.661  32.396  1.00  0.00     0.049 A 
ATOM     47  N   UNL A   1      38.915  32.418  34.952  1.00  0.00    -0.248 NA
ATOM     48  C   UNL A   1      37.216  33.969  35.355  1.00  0.00     0.031 C 
ATOM     49  C   UNL A   1      36.869  31.245  31.150  1.00  0.00     0.029 A 
ATOM     50  N   UNL A   1      38.601  30.834  32.507  1.00  0.00    -0.354 N 
ATOM     51  C   UNL A   1      39.149  33.054  36.163  1.00  0.00     0.074 A 
ATOM     52  C   UNL A   1      38.083  34.011  36.356  1.00  0.00     0.031 C 
ATOM     53  C   UNL A   1      37.602  30.264  30.592  1.00  0.00     0.029 A 
ATOM     54  C   UNL A   1      38.781  30.011  31.421  1.00  0.00     0.049 A 
ATOM     55  H   UNL A   1      39.197  30.831  33.291  1.00  0.00     0.167 HD
ATOM     56  C   UNL A   1      40.164  32.861  37.036  1.00  0.00     0.037 A 
ATOM     57  C   UNL A   1      39.801  29.184  31.114  1.00  0.00     0.037 A 
ATOM     58  C   UNL A   1      41.226  31.911  36.852  1.00  0.00     0.049 A 
ATOM     59  C   UNL A   1      40.971  29.056  32.064  1.00  0.00     0.074 A 
ATOM     60  C   UNL A   1      42.268  31.607  37.710  1.00  0.00     0.029 A 
ATOM     61  N   UNL A   1      41.390  31.122  35.725  1.00  0.00    -0.354 N 
ATOM     62  N   UNL A   1      41.159  29.623  33.230  1.00  0.00    -0.248 NA
ATOM     63  C   UNL A   1      42.077  28.178  31.646  1.00  0.00     0.031 C 
ATOM     64  C   UNL A   1      43.097  30.677  37.077  1.00  0.00     0.029 A 
ATOM     65  C   UNL A   1      42.543  30.365  35.846  1.00  0.00     0.049 A 
ATOM     66  H   UNL A   1      40.779  31.103  34.953  1.00  0.00     0.167 HD
ATOM     67  C   UNL A   1      42.385  29.157  33.691  1.00  0.00     0.074 A 
ATOM     68  C   UNL A   1      42.891  28.246  32.689  1.00  0.00     0.031 C 
ATOM     69  C   UNL A   1      43.034  29.458  34.843  1.00  0.00     0.037 A 
BRANCH  56  70
ATOM     70  C   UNL A   1      40.199  33.715  38.265  1.00  0.00     0.064 A 
ATOM     71  C   UNL A   1      40.997  34.865  38.340  1.00  0.00     0.173 A 
ATOM     72  C   UNL A   1      39.372  33.411  39.356  1.00  0.00     0.173 A 
ATOM     73  F   UNL A   1      41.817  35.185  37.328  1.00  0.00    -0.203 F 
ATOM     74  C   UNL A   1      40.970  35.678  39.469  1.00  0.00     0.198 A 
ATOM     75  C   UNL A   1      39.331  34.239  40.474  1.00  0.00     0.198 A 
ATOM     76  F   UNL A   1      38.592  32.320  39.331  1.00  0.00    -0.203 F 
ATOM     77  F   UNL A   1      41.760  36.760  39.533  1.00  0.00    -0.200 F 
ATOM     78  C   UNL A   1      40.131  35.371  40.530  1.00  0.00     0.200 A 
ATOM     79  F   UNL A   1      38.513  33.945  41.494  1.00  0.00    -0.200 F 
ATOM     80  F   UNL A   1      40.095  36.164  41.609  1.00  0.00    -0.200 F 
ENDBRANCH  56  70
BRANCH  57  81
ATOM     81  C   UNL A   1      39.817  28.451  29.818  1.00  0.00     0.064 A 
ATOM     82  C   UNL A   1      39.271  27.164  29.701  1.00  0.00     0.173 A 
ATOM     83  C   UNL A   1      40.450  28.993  28.689  1.00  0.00     0.173 A 
ATOM     84  F   UNL A   1      38.695  26.584  30.765  1.00  0.00    -0.203 F 
ATOM     85  C   UNL A   1      39.382  26.438  28.516  1.00  0.00     0.198 A 
ATOM     86  C   UNL A   1      40.534  28.277  27.496  1.00  0.00     0.198 A 
ATOM     87  F   UNL A   1      41.007  30.211  28.751  1.00  0.00    -0.203 F 
ATOM     88  F   UNL A   1      38.916  25.183  28.456  1.00  0.00    -0.200 F 
ATOM     89  C   UNL A   1      40.010  26.997  27.413  1.00  0.00     0.200 A 
ATOM     90  F   UNL A   1      41.144  28.820  26.433  1.00  0.00    -0.200 F 
ATOM     91  F   UNL A   1      40.131  26.292  26.281  1.00  0.00    -0.200 F 
ENDBRANCH  57  81
BRANCH  69  92
ATOM     92  C   UNL A   1      44.354  28.788  35.097  1.00  0.00     0.064 A 
ATOM     93  C   UNL A   1      44.426  27.492  35.627  1.00  0.00     0.173 A 
ATOM     94  C   UNL A   1      45.554  29.421  34.741  1.00  0.00     0.173 A 
ATOM     95  F   UNL A   1      43.307  26.849  35.993  1.00  0.00    -0.203 F 
ATOM     96  C   UNL A   1      45.655  26.860  35.806  1.00  0.00     0.198 A 
ATOM     97  C   UNL A   1      46.778  28.776  34.896  1.00  0.00     0.198 A 
ATOM     98  F   UNL A   1      45.538  30.658  34.220  1.00  0.00    -0.203 F 
ATOM     99  F   UNL A   1      45.703  25.635  36.346  1.00  0.00    -0.200 F 
ATOM    100  C   UNL A   1      46.828  27.498  35.432  1.00  0.00     0.200 A 
ATOM    101  F   UNL A   1      47.909  29.388  34.519  1.00  0.00    -0.200 F 
ATOM    102  F   UNL A   1      48.007  26.883  35.591  1.00  0.00    -0.200 F 
ENDBRANCH  69  92
ENDBRANCH  43  44
ENDBRANCH  36  38
ENDBRANCH  35  36
ENDBRANCH  34  35
ENDBRANCH  33  34
ENDBRANCH  32  33
ENDBRANCH  31  32
ENDBRANCH  30  31
ENDBRANCH  29  30
ENDBRANCH  28  29
ENDBRANCH   1  28
TORSDOF 25
ENDMDL
MODEL 2
REMARK VINA RESULT:      -9.9      4.885      7.446
REMARK SMILES O=C(CCc1ccc(S(=O)(=O)Nc2cccc(I)c2)cc1)OCCOCCOCCOCCOC(=O)c1ccc(-c2c3nc(c(-c4c(F)c(F)c(F)c(F)c4F)c4ccc([nH]4)c(-c4c(F)c(F)c(F)c(F)c4F)c4nc(c(-c5c(F)c(F)c(F)c(F)c5F)c5ccc2[nH]5)C=C4)C=C3)cc1
REMARK SMILES IDX 26 1 25 2 24 3 23 4 22 5 2 6 1 7 3 8 4 9 5 10 6 11 21 12
REMARK SMILES IDX 7 13 20 14 8 15 9 16 10 17 11 18 12 19 13 21 14 22 19 23
REMARK SMILES IDX 15 24 17 25 16 26 18 27 27 28 28 29 29 30 30 31 31 32 32 33
REMARK SMILES IDX 33 34 34 35 35 36 36 37 37 38 38 39 99 40 39 41 98 42 40 43
REMARK SMILES IDX 41 44 42 45 92 46 43 47 97 48 91 49 93 50 44 51 96 52 90 53
REMARK SMILES IDX 89 54 45 56 77 57 57 58 76 59 58 60 61 61 75 62 94 63 59 64
REMARK SMILES IDX 60 65 74 67 95 68 62 69 46 70 47 71 55 72 48 73 49 74 53 75
REMARK SMILES IDX 56 76 50 77 51 78 54 79 52 80 78 81 79 82 87 83 80 84 81 85
REMARK SMILES IDX 85 86 88 87 82 88 83 89 86 90 84 91 63 92 64 93 72 94 65 95
REMARK SMILES IDX 66 96 70 97 73 98 67 99 68 100 71 101 69 102
REMARK H PARENT 12 20 93 55 61 66
REMARK Flexibility Score: inf
ROOT
ATOM      1  C   UNL A   1      33.298  31.103  27.008  1.00  0.00     0.188 C 
ENDROOT
BRANCH   1   2
ATOM      2  O   UNL A   1      32.154  30.309  27.290  1.00  0.00    -0.376 OA
BRANCH   2   3
ATOM      3  C   UNL A   1      32.011  29.065  26.618  1.00  0.00     0.202 C 
BRANCH   3   4
ATOM      4  C   UNL A   1      32.421  28.956  25.153  1.00  0.00     0.261 C 
BRANCH   4   5
ATOM      5  O   UNL A   1      31.420  28.557  24.201  1.00  0.00    -0.463 OA
BRANCH   5   6
ATOM      6  C   UNL A   1      31.578  28.183  22.921  1.00  0.00     0.306 C 
ATOM      7  O   UNL A   1      30.585  28.005  22.217  1.00  0.00    -0.252 OA
BRANCH   6   8
ATOM      8  C   UNL A   1      32.949  27.907  22.371  1.00  0.00     0.127 C 
BRANCH   8   9
ATOM      9  C   UNL A   1      33.147  26.453  21.947  1.00  0.00     0.047 C 
BRANCH   9  10
ATOM     10  C   UNL A   1      33.042  25.471  23.088  1.00  0.00    -0.047 A 
ATOM     11  C   UNL A   1      32.025  24.515  23.123  1.00  0.00     0.005 A 
ATOM     12  C   UNL A   1      34.024  25.440  24.082  1.00  0.00     0.005 A 
ATOM     13  C   UNL A   1      32.033  23.513  24.102  1.00  0.00     0.022 A 
ATOM     14  C   UNL A   1      34.070  24.397  25.016  1.00  0.00     0.022 A 
ATOM     15  C   UNL A   1      33.069  23.434  25.048  1.00  0.00     0.087 A 
BRANCH  15  16
ATOM     16  S   UNL A   1      32.939  22.108  26.227  1.00  0.00     0.261 S 
ATOM     17  O   UNL A   1      34.281  21.600  26.417  1.00  0.00    -0.201 OA
ATOM     18  O   UNL A   1      32.202  22.652  27.354  1.00  0.00    -0.201 OA
BRANCH  16  19
ATOM     19  N   UNL A   1      32.017  20.781  25.743  1.00  0.00    -0.280 N 
ATOM     20  H   UNL A   1      31.092  20.736  26.079  1.00  0.00     0.180 HD
BRANCH  19  21
ATOM     21  C   UNL A   1      32.445  19.722  24.896  1.00  0.00     0.050 A 
ATOM     22  C   UNL A   1      32.151  19.896  23.539  1.00  0.00     0.027 A 
ATOM     23  C   UNL A   1      32.965  18.511  25.340  1.00  0.00     0.041 A 
ATOM     24  C   UNL A   1      32.524  18.935  22.603  1.00  0.00     0.003 A 
ATOM     25  C   UNL A   1      33.404  17.580  24.393  1.00  0.00     0.015 A 
ATOM     26  C   UNL A   1      33.192  17.789  23.026  1.00  0.00     0.015 A 
ATOM     27  I   UNL A   1      34.475  15.907  25.010  1.00  0.00    -0.044 I 
ENDBRANCH  19  21
ENDBRANCH  16  19
ENDBRANCH  15  16
ENDBRANCH   9  10
ENDBRANCH   8   9
ENDBRANCH   6   8
ENDBRANCH   5   6
ENDBRANCH   4   5
ENDBRANCH   3   4
ENDBRANCH   2   3
ENDBRANCH   1   2
BRANCH   1  28
ATOM     28  C   UNL A   1      34.236  31.447  28.172  1.00  0.00     0.188 C 
BRANCH  28  29
ATOM     29  O   UNL A   1      35.353  32.236  27.781  1.00  0.00    -0.377 OA
BRANCH  29  30
ATOM     30  C   UNL A   1      35.352  33.558  28.314  1.00  0.00     0.188 C 
BRANCH  30  31
ATOM     31  C   UNL A   1      34.172  33.926  29.236  1.00  0.00     0.188 C 
BRANCH  31  32
ATOM     32  O   UNL A   1      34.614  34.610  30.406  1.00  0.00    -0.376 OA
BRANCH  32  33
ATOM     33  C   UNL A   1      34.155  34.073  31.642  1.00  0.00     0.202 C 
BRANCH  33  34
ATOM     34  C   UNL A   1      34.758  32.704  31.980  1.00  0.00     0.261 C 
BRANCH  34  35
ATOM     35  O   UNL A   1      35.787  32.714  32.988  1.00  0.00    -0.460 OA
BRANCH  35  36
ATOM     36  C   UNL A   1      36.849  33.532  32.812  1.00  0.00     0.338 C 
ATOM     37  O   UNL A   1      37.019  34.624  33.324  1.00  0.00    -0.246 OA
BRANCH  36  38
ATOM     38  C   UNL A   1      37.899  32.765  32.088  1.00  0.00     0.060 A 
ATOM     39  C   UNL A   1      38.624  31.789  32.787  1.00  0.00     0.016 A 
ATOM     40  C   UNL A   1      38.111  32.938  30.716  1.00  0.00     0.016 A 
ATOM     41  C   UNL A   1      39.564  30.993  32.120  1.00  0.00     0.010 A 
ATOM     42  C   UNL A   1      39.065  32.157  30.054  1.00  0.00     0.010 A 
ATOM     43  C   UNL A   1      39.811  31.193  30.755  1.00  0.00    -0.014 A 
BRANCH  43  44
ATOM     44  C   UNL A   1      40.974  30.549  30.088  1.00  0.00     0.031 A 
ATOM     45  C   UNL A   1      42.164  31.409  29.763  1.00  0.00     0.074 A 
ATOM     46  C   UNL A   1      40.969  29.250  29.739  1.00  0.00     0.049 A 
ATOM     47  N   UNL A   1      43.239  31.120  29.075  1.00  0.00    -0.248 NA
ATOM     48  C   UNL A   1      42.135  32.787  30.282  1.00  0.00     0.031 C 
ATOM     49  C   UNL A   1      39.904  28.294  30.031  1.00  0.00     0.029 A 
ATOM     50  N   UNL A   1      41.894  28.517  29.031  1.00  0.00    -0.354 N 
ATOM     51  C   UNL A   1      44.005  32.277  29.071  1.00  0.00     0.074 A 
ATOM     52  C   UNL A   1      43.272  33.278  29.813  1.00  0.00     0.031 C 
ATOM     53  C   UNL A   1      40.218  27.109  29.478  1.00  0.00     0.029 A 
ATOM     54  C   UNL A   1      41.487  27.233  28.758  1.00  0.00     0.049 A 
ATOM     55  H   UNL A   1      42.766  28.878  28.748  1.00  0.00     0.167 HD
ATOM     56  C   UNL A   1      45.211  32.489  28.495  1.00  0.00     0.037 A 
ATOM     57  C   UNL A   1      42.052  26.286  27.982  1.00  0.00     0.037 A 
ATOM     58  C   UNL A   1      45.945  31.499  27.757  1.00  0.00     0.049 A 
ATOM     59  C   UNL A   1      43.355  26.580  27.274  1.00  0.00     0.074 A 
ATOM     60  C   UNL A   1      47.200  31.608  27.185  1.00  0.00     0.029 A 
ATOM     61  N   UNL A   1      45.484  30.223  27.476  1.00  0.00    -0.354 N 
ATOM     62  N   UNL A   1      44.098  27.660  27.315  1.00  0.00    -0.248 NA
ATOM     63  C   UNL A   1      43.892  25.524  26.400  1.00  0.00     0.031 C 
ATOM     64  C   UNL A   1      47.474  30.417  26.506  1.00  0.00     0.029 A 
ATOM     65  C   UNL A   1      46.411  29.550  26.698  1.00  0.00     0.049 A 
ATOM     66  H   UNL A   1      44.625  29.852  27.782  1.00  0.00     0.167 HD
ATOM     67  C   UNL A   1      45.192  27.405  26.497  1.00  0.00     0.074 A 
ATOM     68  C   UNL A   1      45.029  26.064  25.983  1.00  0.00     0.031 C 
ATOM     69  C   UNL A   1      46.239  28.212  26.197  1.00  0.00     0.037 A 
BRANCH  56  70
ATOM     70  C   UNL A   1      45.808  33.857  28.611  1.00  0.00     0.064 A 
ATOM     71  C   UNL A   1      46.851  34.131  29.508  1.00  0.00     0.173 A 
ATOM     72  C   UNL A   1      45.373  34.889  27.767  1.00  0.00     0.173 A 
ATOM     73  F   UNL A   1      47.287  33.179  30.347  1.00  0.00    -0.203 F 
ATOM     74  C   UNL A   1      47.433  35.393  29.559  1.00  0.00     0.198 A 
ATOM     75  C   UNL A   1      45.973  36.143  27.805  1.00  0.00     0.198 A 
ATOM     76  F   UNL A   1      44.378  34.674  26.895  1.00  0.00    -0.203 F 
ATOM     77  F   UNL A   1      48.411  35.644  30.441  1.00  0.00    -0.200 F 
ATOM     78  C   UNL A   1      47.001  36.395  28.701  1.00  0.00     0.200 A 
ATOM     79  F   UNL A   1      45.560  37.108  26.971  1.00  0.00    -0.200 F 
ATOM     80  F   UNL A   1      47.573  37.606  28.741  1.00  0.00    -0.200 F 
ENDBRANCH  56  70
BRANCH  57  81
ATOM     81  C   UNL A   1      41.370  24.980  27.764  1.00  0.00     0.064 A 
ATOM     82  C   UNL A   1      41.870  23.794  28.319  1.00  0.00     0.173 A 
ATOM     83  C   UNL A   1      40.245  24.884  26.929  1.00  0.00     0.173 A 
ATOM     84  F   UNL A   1      42.970  23.827  29.087  1.00  0.00    -0.203 F 
ATOM     85  C   UNL A   1      41.291  22.560  28.025  1.00  0.00     0.198 A 
ATOM     86  C   UNL A   1      39.650  23.653  26.660  1.00  0.00     0.198 A 
ATOM     87  F   UNL A   1      39.738  25.984  26.356  1.00  0.00    -0.203 F 
ATOM     88  F   UNL A   1      41.835  21.435  28.510  1.00  0.00    -0.200 F 
ATOM     89  C   UNL A   1      40.179  22.491  27.200  1.00  0.00     0.200 A 
ATOM     90  F   UNL A   1      38.577  23.591  25.860  1.00  0.00    -0.200 F 
ATOM     91  F   UNL A   1      39.634  21.304  26.904  1.00  0.00    -0.200 F 
ENDBRANCH  57  81
BRANCH  69  92
ATOM     92  C   UNL A   1      47.302  27.669  25.287  1.00  0.00     0.064 A 
ATOM     93  C   UNL A   1      47.270  27.902  23.904  1.00  0.00     0.173 A 
ATOM     94  C   UNL A   1      48.400  26.970  25.810  1.00  0.00     0.173 A 
ATOM     95  F   UNL A   1      46.236  28.556  23.353  1.00  0.00    -0.203 F 
ATOM     96  C   UNL A   1      48.291  27.440  23.076  1.00  0.00     0.198 A 
ATOM     97  C   UNL A   1      49.432  26.534  24.984  1.00  0.00     0.198 A 
ATOM     98  F   UNL A   1      48.483  26.731  27.128  1.00  0.00    -0.203 F 
ATOM     99  F   UNL A   1      48.224  27.645  21.754  1.00  0.00    -0.200 F 
ATOM    100  C   UNL A   1      49.375  26.766  23.618  1.00  0.00     0.200 A 
ATOM    101  F   UNL A   1      50.487  25.897  25.511  1.00  0.00    -0.200 F 
ATOM    102  F   UNL A   1      50.364  26.336  22.823  1.00  0.00    -0.200 F 
ENDBRANCH  69  92
ENDBRANCH  43  44
ENDBRANCH  36  38
ENDBRANCH  35  36
ENDBRANCH  34  35
ENDBRANCH  33  34
ENDBRANCH  32  33
ENDBRANCH  31  32
ENDBRANCH  30  31
ENDBRANCH  29  30
ENDBRANCH  28  29
ENDBRANCH   1  28
TORSDOF 25
ENDMDL
MODEL 3
REMARK VINA RESULT:      -8.7      3.224      4.864
REMARK SMILES O=C(CCc1ccc(S(=O)(=O)Nc2cccc(I)c2)cc1)OCCOCCOCCOCCOC(=O)c1ccc(-c2c3nc(c(-c4c(F)c(F)c(F)c(F)c4F)c4ccc([nH]4)c(-c4c(F)c(F)c(F)c(F)c4F)c4nc(c(-c5c(F)c(F)c(F)c(F)c5F)c5ccc2[nH]5)C=C4)C=C3)cc1
REMARK SMILES IDX 26 1 25 2 24 3 23 4 22 5 2 6 1 7 3 8 4 9 5 10 6 11 21 12
REMARK SMILES IDX 7 13 20 14 8 15 9 16 10 17 11 18 12 19 13 21 14 22 19 23
REMARK SMILES IDX 15 24 17 25 16 26 18 27 27 28 28 29 29 30 30 31 31 32 32 33
REMARK SMILES IDX 33 34 34 35 35 36 36 37 37 38 38 39 99 40 39 41 98 42 40 43
REMARK SMILES IDX 41 44 42 45 92 46 43 47 97 48 91 49 93 50 44 51 96 52 90 53
REMARK SMILES IDX 89 54 45 56 77 57 57 58 76 59 58 60 61 61 75 62 94 63 59 64
REMARK SMILES IDX 60 65 74 67 95 68 62 69 46 70 47 71 55 72 48 73 49 74 53 75
REMARK SMILES IDX 56 76 50 77 51 78 54 79 52 80 78 81 79 82 87 83 80 84 81 85
REMARK SMILES IDX 85 86 88 87 82 88 83 89 86 90 84 91 63 92 64 93 72 94 65 95
REMARK SMILES IDX 66 96 70 97 73 98 67 99 68 100 71 101 69 102
REMARK H PARENT 12 20 93 55 61 66
REMARK Flexibility Score: inf
ROOT
ATOM      1  C   UNL A   1      33.570  31.025  27.214  1.00  0.00     0.188 C 
ENDROOT
BRANCH   1   2
ATOM      2  O   UNL A   1      33.200  29.706  27.591  1.00  0.00    -0.376 OA
BRANCH   2   3
ATOM      3  C   UNL A   1      33.806  28.612  26.915  1.00  0.00     0.202 C 
BRANCH   3   4
ATOM      4  C   UNL A   1      33.628  28.478  25.406  1.00  0.00     0.261 C 
BRANCH   4   5
ATOM      5  O   UNL A   1      32.294  28.557  24.875  1.00  0.00    -0.463 OA
BRANCH   5   6
ATOM      6  C   UNL A   1      31.890  28.449  23.599  1.00  0.00     0.306 C 
ATOM      7  O   UNL A   1      30.968  29.158  23.197  1.00  0.00    -0.252 OA
BRANCH   6   8
ATOM      8  C   UNL A   1      32.500  27.421  22.689  1.00  0.00     0.127 C 
BRANCH   8   9
ATOM      9  C   UNL A   1      31.698  26.124  22.621  1.00  0.00     0.047 C 
BRANCH   9  10
ATOM     10  C   UNL A   1      32.384  24.953  23.281  1.00  0.00    -0.047 A 
ATOM     11  C   UNL A   1      32.963  23.934  22.520  1.00  0.00     0.005 A 
ATOM     12  C   UNL A   1      32.537  24.919  24.670  1.00  0.00     0.005 A 
ATOM     13  C   UNL A   1      33.730  22.940  23.139  1.00  0.00     0.022 A 
ATOM     14  C   UNL A   1      33.362  23.965  25.280  1.00  0.00     0.022 A 
ATOM     15  C   UNL A   1      33.953  22.959  24.527  1.00  0.00     0.087 A 
BRANCH  15  16
ATOM     16  S   UNL A   1      34.947  21.628  25.167  1.00  0.00     0.261 S 
ATOM     17  O   UNL A   1      34.944  21.775  26.607  1.00  0.00    -0.201 OA
ATOM     18  O   UNL A   1      34.423  20.417  24.560  1.00  0.00    -0.201 OA
BRANCH  16  19
ATOM     19  N   UNL A   1      36.571  21.639  24.713  1.00  0.00    -0.280 N 
ATOM     20  H   UNL A   1      36.793  21.231  23.845  1.00  0.00     0.180 HD
BRANCH  19  21
ATOM     21  C   UNL A   1      37.651  22.181  25.463  1.00  0.00     0.050 A 
ATOM     22  C   UNL A   1      37.555  23.551  25.730  1.00  0.00     0.027 A 
ATOM     23  C   UNL A   1      38.817  21.495  25.786  1.00  0.00     0.041 A 
ATOM     24  C   UNL A   1      38.544  24.202  26.463  1.00  0.00     0.003 A 
ATOM     25  C   UNL A   1      39.774  22.132  26.582  1.00  0.00     0.015 A 
ATOM     26  C   UNL A   1      39.639  23.481  26.928  1.00  0.00     0.015 A 
ATOM     27  I   UNL A   1      41.370  21.041  27.350  1.00  0.00    -0.044 I 
ENDBRANCH  19  21
ENDBRANCH  16  19
ENDBRANCH  15  16
ENDBRANCH   9  10
ENDBRANCH   8   9
ENDBRANCH   6   8
ENDBRANCH   5   6
ENDBRANCH   4   5
ENDBRANCH   3   4
ENDBRANCH   2   3
ENDBRANCH   1   2
BRANCH   1  28
ATOM     28  C   UNL A   1      34.288  31.893  28.255  1.00  0.00     0.188 C 
BRANCH  28  29
ATOM     29  O   UNL A   1      35.129  32.885  27.678  1.00  0.00    -0.377 OA
BRANCH  29  30
ATOM     30  C   UNL A   1      34.574  34.198  27.684  1.00  0.00     0.188 C 
BRANCH  30  31
ATOM     31  C   UNL A   1      33.253  34.383  28.459  1.00  0.00     0.188 C 
BRANCH  31  32
ATOM     32  O   UNL A   1      33.305  35.518  29.319  1.00  0.00    -0.376 OA
BRANCH  32  33
ATOM     33  C   UNL A   1      33.242  35.236  30.713  1.00  0.00     0.202 C 
BRANCH  33  34
ATOM     34  C   UNL A   1      34.324  34.259  31.193  1.00  0.00     0.261 C 
BRANCH  34  35
ATOM     35  O   UNL A   1      34.484  34.168  32.621  1.00  0.00    -0.460 OA
BRANCH  35  36
ATOM     36  C   UNL A   1      35.125  35.171  33.260  1.00  0.00     0.338 C 
ATOM     37  O   UNL A   1      34.724  36.312  33.410  1.00  0.00    -0.246 OA
BRANCH  36  38
ATOM     38  C   UNL A   1      36.291  34.584  33.976  1.00  0.00     0.060 A 
ATOM     39  C   UNL A   1      36.073  33.931  35.198  1.00  0.00     0.016 A 
ATOM     40  C   UNL A   1      37.571  34.594  33.413  1.00  0.00     0.016 A 
ATOM     41  C   UNL A   1      37.131  33.298  35.860  1.00  0.00     0.010 A 
ATOM     42  C   UNL A   1      38.633  33.980  34.085  1.00  0.00     0.010 A 
ATOM     43  C   UNL A   1      38.425  33.344  35.321  1.00  0.00    -0.014 A 
BRANCH  43  44
ATOM     44  C   UNL A   1      39.600  32.910  36.122  1.00  0.00     0.031 A 
ATOM     45  C   UNL A   1      40.204  33.900  37.079  1.00  0.00     0.074 A 
ATOM     46  C   UNL A   1      40.151  31.690  35.982  1.00  0.00     0.049 A 
ATOM     47  N   UNL A   1      41.299  33.812  37.791  1.00  0.00    -0.248 NA
ATOM     48  C   UNL A   1      39.473  35.166  37.256  1.00  0.00     0.031 C 
ATOM     49  C   UNL A   1      39.644  30.621  35.127  1.00  0.00     0.029 A 
ATOM     50  N   UNL A   1      41.286  31.158  36.549  1.00  0.00    -0.354 N 
ATOM     51  C   UNL A   1      41.393  35.009  38.486  1.00  0.00     0.074 A 
ATOM     52  C   UNL A   1      40.252  35.814  38.109  1.00  0.00     0.031 C 
ATOM     53  C   UNL A   1      40.483  29.572  35.197  1.00  0.00     0.029 A 
ATOM     54  C   UNL A   1      41.607  29.910  36.070  1.00  0.00     0.049 A 
ATOM     55  H   UNL A   1      41.818  31.626  37.233  1.00  0.00     0.167 HD
ATOM     56  C   UNL A   1      42.347  35.405  39.360  1.00  0.00     0.037 A 
ATOM     57  C   UNL A   1      42.702  29.151  36.281  1.00  0.00     0.037 A 
ATOM     58  C   UNL A   1      43.481  34.610  39.741  1.00  0.00     0.049 A 
ATOM     59  C   UNL A   1      43.798  29.657  37.191  1.00  0.00     0.074 A 
ATOM     60  C   UNL A   1      44.470  34.908  40.662  1.00  0.00     0.029 A 
ATOM     61  N   UNL A   1      43.787  33.368  39.210  1.00  0.00    -0.354 N 
ATOM     62  N   UNL A   1      43.855  30.768  37.884  1.00  0.00    -0.248 NA
ATOM     63  C   UNL A   1      44.990  28.806  37.337  1.00  0.00     0.031 C 
ATOM     64  C   UNL A   1      45.408  33.871  40.645  1.00  0.00     0.029 A 
ATOM     65  C   UNL A   1      44.975  32.906  39.751  1.00  0.00     0.049 A 
ATOM     66  H   UNL A   1      43.241  32.886  38.547  1.00  0.00     0.167 HD
ATOM     67  C   UNL A   1      45.069  30.737  38.561  1.00  0.00     0.074 A 
ATOM     68  C   UNL A   1      45.714  29.492  38.210  1.00  0.00     0.031 C 
ATOM     69  C   UNL A   1      45.603  31.661  39.397  1.00  0.00     0.037 A 
BRANCH  56  70
ATOM     70  C   UNL A   1      42.226  36.776  39.950  1.00  0.00     0.064 A 
ATOM     71  C   UNL A   1      42.746  37.904  39.301  1.00  0.00     0.173 A 
ATOM     72  C   UNL A   1      41.523  36.967  41.149  1.00  0.00     0.173 A 
ATOM     73  F   UNL A   1      43.441  37.768  38.161  1.00  0.00    -0.203 F 
ATOM     74  C   UNL A   1      42.572  39.177  39.836  1.00  0.00     0.198 A 
ATOM     75  C   UNL A   1      41.332  38.243  41.668  1.00  0.00     0.198 A 
ATOM     76  F   UNL A   1      41.010  35.917  41.805  1.00  0.00    -0.203 F 
ATOM     77  F   UNL A   1      43.099  40.242  39.215  1.00  0.00    -0.200 F 
ATOM     78  C   UNL A   1      41.857  39.347  41.013  1.00  0.00     0.200 A 
ATOM     79  F   UNL A   1      40.634  38.406  42.801  1.00  0.00    -0.200 F 
ATOM     80  F   UNL A   1      41.677  40.575  41.518  1.00  0.00    -0.200 F 
ENDBRANCH  56  70
BRANCH  57  81
ATOM     81  C   UNL A   1      42.869  27.852  35.573  1.00  0.00     0.064 A 
ATOM     82  C   UNL A   1      42.383  26.655  36.119  1.00  0.00     0.173 A 
ATOM     83  C   UNL A   1      43.589  27.772  34.371  1.00  0.00     0.173 A 
ATOM     84  F   UNL A   1      41.727  26.673  37.290  1.00  0.00    -0.203 F 
ATOM     85  C   UNL A   1      42.634  25.428  35.506  1.00  0.00     0.198 A 
ATOM     86  C   UNL A   1      43.814  26.548  33.744  1.00  0.00     0.198 A 
ATOM     87  F   UNL A   1      44.093  28.883  33.815  1.00  0.00    -0.203 F 
ATOM     88  F   UNL A   1      42.222  24.294  36.089  1.00  0.00    -0.200 F 
ATOM     89  C   UNL A   1      43.346  25.376  34.317  1.00  0.00     0.200 A 
ATOM     90  F   UNL A   1      44.505  26.502  32.596  1.00  0.00    -0.200 F 
ATOM     91  F   UNL A   1      43.602  24.195  33.739  1.00  0.00    -0.200 F 
ENDBRANCH  57  81
BRANCH  69  92
ATOM     92  C   UNL A   1      46.941  31.359  40.009  1.00  0.00     0.064 A 
ATOM     93  C   UNL A   1      47.049  30.702  41.242  1.00  0.00     0.173 A 
ATOM     94  C   UNL A   1      48.125  31.668  39.322  1.00  0.00     0.173 A 
ATOM     95  F   UNL A   1      45.947  30.395  41.943  1.00  0.00    -0.203 F 
ATOM     96  C   UNL A   1      48.296  30.377  41.773  1.00  0.00     0.198 A 
ATOM     97  C   UNL A   1      49.367  31.319  39.842  1.00  0.00     0.198 A 
ATOM     98  F   UNL A   1      48.074  32.288  38.133  1.00  0.00    -0.203 F 
ATOM     99  F   UNL A   1      48.378  29.779  42.969  1.00  0.00    -0.200 F 
ATOM    100  C   UNL A   1      49.453  30.678  41.069  1.00  0.00     0.200 A 
ATOM    101  F   UNL A   1      50.483  31.594  39.153  1.00  0.00    -0.200 F 
ATOM    102  F   UNL A   1      50.650  30.352  41.574  1.00  0.00    -0.200 F 
ENDBRANCH  69  92
ENDBRANCH  43  44
ENDBRANCH  36  38
ENDBRANCH  35  36
ENDBRANCH  34  35
ENDBRANCH  33  34
ENDBRANCH  32  33
ENDBRANCH  31  32
ENDBRANCH  30  31
ENDBRANCH  29  30
ENDBRANCH  28  29
ENDBRANCH   1  28
TORSDOF 25
ENDMDL
