MODEL 1
REMARK VINA RESULT:     -10.2      0.000      0.000
REMARK SMILES CC(C)CSc1cc2c(cc1Cl)C=C(C(=O)OCCOCCOCCOCCOC(=O)c1ccc(-c3c4nc(c(-c5c(F)c(F)c(F)c(F)c5F)c5ccc([nH]5)c(-c5c(F)c(F)c(F)c(F)c5F)c5nc(c(-c6c(F)c(F)c(F)c(F)c6F)c6ccc3[nH]6)C=C5)C=C4)cc1)[C@H](C(F)(F)F)O2
REMARK SMILES IDX 22 1 21 2 20 3 19 4 18 5 17 6 15 7 16 8 14 9 6 10 7 11 11 12
REMARK SMILES IDX 8 13 10 14 12 15 9 16 100 17 13 18 95 19 5 20 4 21 2 22 1 23
REMARK SMILES IDX 3 24 96 25 97 26 98 27 99 28 23 29 24 30 25 31 26 32 27 33
REMARK SMILES IDX 28 34 29 35 30 36 31 37 32 38 33 39 94 40 34 41 93 42 35 43
REMARK SMILES IDX 36 44 37 45 87 46 38 47 92 48 86 49 88 50 39 51 91 52 85 53
REMARK SMILES IDX 84 54 40 56 72 57 52 58 71 59 53 60 56 61 70 62 89 63 54 64
REMARK SMILES IDX 55 65 69 67 90 68 57 69 41 70 42 71 50 72 43 73 44 74 48 75
REMARK SMILES IDX 51 76 45 77 46 78 49 79 47 80 73 81 74 82 82 83 75 84 76 85
REMARK SMILES IDX 80 86 83 87 77 88 78 89 81 90 79 91 58 92 59 93 67 94 60 95
REMARK SMILES IDX 61 96 65 97 68 98 62 99 63 100 66 101 64 102
REMARK H PARENT 88 55 56 66
REMARK Flexibility Score: inf
ROOT
ATOM      1  C   UNL A   1      41.719  20.213  26.213  1.00  0.00     0.188 C 
ENDROOT
BRANCH   1   2
ATOM      2  C   UNL A   1      41.071  20.567  27.566  1.00  0.00     0.188 C 
BRANCH   2   3
ATOM      3  O   UNL A   1      40.230  21.717  27.524  1.00  0.00    -0.376 OA
BRANCH   3   4
ATOM      4  C   UNL A   1      39.737  22.126  26.257  1.00  0.00     0.202 C 
BRANCH   4   5
ATOM      5  C   UNL A   1      38.207  22.125  26.163  1.00  0.00     0.261 C 
BRANCH   5   6
ATOM      6  O   UNL A   1      37.698  21.759  24.871  1.00  0.00    -0.460 OA
BRANCH   6   7
ATOM      7  C   UNL A   1      36.772  20.784  24.842  1.00  0.00     0.338 C 
ATOM      8  O   UNL A   1      36.968  19.599  25.046  1.00  0.00    -0.246 OA
BRANCH   7   9
ATOM      9  C   UNL A   1      35.435  21.388  24.689  1.00  0.00     0.087 C 
ATOM     10  C   UNL A   1      31.736  24.688  23.879  1.00  0.00     0.030 A 
ATOM     11  C   UNL A   1      31.954  23.654  24.811  1.00  0.00     0.063 A 
ATOM     12  C   UNL A   1      32.648  24.830  22.820  1.00  0.00     0.055 A 
ATOM     13  C   UNL A   1      33.106  22.870  24.756  1.00  0.00     0.129 A 
ATOM     14  C   UNL A   1      33.828  24.076  22.797  1.00  0.00     0.033 A 
ATOM     15  Cl  UNL A   1      32.403  25.896  21.482  1.00  0.00    -0.083 Cl
ATOM     16  C   UNL A   1      34.074  23.124  23.786  1.00  0.00     0.019 A 
ATOM     17  O   UNL A   1      33.272  21.922  25.735  1.00  0.00    -0.475 OA
ATOM     18  C   UNL A   1      35.360  22.453  23.880  1.00  0.00     0.027 C 
ATOM     19  C   UNL A   1      34.244  20.865  25.453  1.00  0.00     0.316 C 
BRANCH  10  20
ATOM     20  S   UNL A   1      30.299  25.707  24.203  1.00  0.00    -0.124 SA
BRANCH  20  21
ATOM     21  C   UNL A   1      30.973  27.268  24.904  1.00  0.00     0.078 C 
BRANCH  21  22
ATOM     22  C   UNL A   1      32.244  27.213  25.776  1.00  0.00    -0.007 C 
ATOM     23  C   UNL A   1      33.471  27.900  25.176  1.00  0.00     0.008 C 
ATOM     24  C   UNL A   1      31.934  27.880  27.126  1.00  0.00     0.008 C 
ENDBRANCH  21  22
ENDBRANCH  20  21
ENDBRANCH  10  20
BRANCH  19  25
ATOM     25  C   UNL A   1      33.515  19.658  24.820  1.00  0.00     0.430 C 
ATOM     26  F   UNL A   1      32.361  19.363  25.461  1.00  0.00    -0.167 F 
ATOM     27  F   UNL A   1      33.224  19.858  23.516  1.00  0.00    -0.167 F 
ATOM     28  F   UNL A   1      34.294  18.548  24.866  1.00  0.00    -0.167 F 
ENDBRANCH  19  25
ENDBRANCH   7   9
ENDBRANCH   6   7
ENDBRANCH   5   6
ENDBRANCH   4   5
ENDBRANCH   3   4
ENDBRANCH   2   3
ENDBRANCH   1   2
BRANCH   1  29
ATOM     29  O   UNL A   1      42.799  19.296  26.110  1.00  0.00    -0.377 OA
BRANCH  29  30
ATOM     30  C   UNL A   1      43.689  19.454  25.017  1.00  0.00     0.188 C 
BRANCH  30  31
ATOM     31  C   UNL A   1      45.089  18.902  25.336  1.00  0.00     0.188 C 
BRANCH  31  32
ATOM     32  O   UNL A   1      46.067  19.935  25.457  1.00  0.00    -0.376 OA
BRANCH  32  33
ATOM     33  C   UNL A   1      46.135  20.867  24.380  1.00  0.00     0.202 C 
BRANCH  33  34
ATOM     34  C   UNL A   1      46.099  22.365  24.727  1.00  0.00     0.261 C 
BRANCH  34  35
ATOM     35  O   UNL A   1      45.066  22.785  25.640  1.00  0.00    -0.460 OA
BRANCH  35  36
ATOM     36  C   UNL A   1      43.929  23.312  25.143  1.00  0.00     0.338 C 
ATOM     37  O   UNL A   1      43.255  22.893  24.219  1.00  0.00    -0.246 OA
BRANCH  36  38
ATOM     38  C   UNL A   1      43.512  24.394  26.063  1.00  0.00     0.060 A 
ATOM     39  C   UNL A   1      42.778  24.101  27.215  1.00  0.00     0.016 A 
ATOM     40  C   UNL A   1      43.818  25.723  25.738  1.00  0.00     0.016 A 
ATOM     41  C   UNL A   1      42.378  25.137  28.061  1.00  0.00     0.010 A 
ATOM     42  C   UNL A   1      43.404  26.760  26.579  1.00  0.00     0.010 A 
ATOM     43  C   UNL A   1      42.703  26.472  27.759  1.00  0.00    -0.014 A 
BRANCH  43  44
ATOM     44  C   UNL A   1      42.484  27.528  28.777  1.00  0.00     0.031 A 
ATOM     45  C   UNL A   1      41.250  28.374  28.807  1.00  0.00     0.074 A 
ATOM     46  C   UNL A   1      43.451  27.712  29.696  1.00  0.00     0.049 A 
ATOM     47  N   UNL A   1      40.895  29.276  29.689  1.00  0.00    -0.248 NA
ATOM     48  C   UNL A   1      40.291  28.195  27.708  1.00  0.00     0.031 C 
ATOM     49  C   UNL A   1      44.708  26.965  29.745  1.00  0.00     0.029 A 
ATOM     50  N   UNL A   1      43.527  28.569  30.763  1.00  0.00    -0.354 N 
ATOM     51  C   UNL A   1      39.664  29.756  29.270  1.00  0.00     0.074 A 
ATOM     52  C   UNL A   1      39.352  29.080  28.026  1.00  0.00     0.031 C 
ATOM     53  C   UNL A   1      45.421  27.379  30.802  1.00  0.00     0.029 A 
ATOM     54  C   UNL A   1      44.683  28.432  31.492  1.00  0.00     0.049 A 
ATOM     55  H   UNL A   1      42.823  29.220  30.986  1.00  0.00     0.167 HD
ATOM     56  C   UNL A   1      38.863  30.663  29.883  1.00  0.00     0.037 A 
ATOM     57  C   UNL A   1      45.100  29.076  32.596  1.00  0.00     0.037 A 
ATOM     58  C   UNL A   1      39.189  31.344  31.113  1.00  0.00     0.049 A 
ATOM     59  C   UNL A   1      44.212  30.110  33.228  1.00  0.00     0.074 A 
ATOM     60  C   UNL A   1      38.419  32.246  31.830  1.00  0.00     0.029 A 
ATOM     61  N   UNL A   1      40.386  31.212  31.802  1.00  0.00    -0.354 N 
ATOM     62  N   UNL A   1      43.014  30.497  32.868  1.00  0.00    -0.248 NA
ATOM     63  C   UNL A   1      44.732  30.791  34.420  1.00  0.00     0.031 C 
ATOM     64  C   UNL A   1      39.169  32.698  32.921  1.00  0.00     0.029 A 
ATOM     65  C   UNL A   1      40.387  32.040  32.916  1.00  0.00     0.049 A 
ATOM     66  H   UNL A   1      41.126  30.618  31.540  1.00  0.00     0.167 HD
ATOM     67  C   UNL A   1      42.626  31.450  33.799  1.00  0.00     0.074 A 
ATOM     68  C   UNL A   1      43.712  31.571  34.750  1.00  0.00     0.031 C 
ATOM     69  C   UNL A   1      41.474  32.161  33.855  1.00  0.00     0.037 A 
BRANCH  56  70
ATOM     70  C   UNL A   1      37.537  30.975  29.252  1.00  0.00     0.064 A 
ATOM     71  C   UNL A   1      37.295  32.219  28.649  1.00  0.00     0.173 A 
ATOM     72  C   UNL A   1      36.539  29.993  29.153  1.00  0.00     0.173 A 
ATOM     73  F   UNL A   1      38.215  33.192  28.715  1.00  0.00    -0.203 F 
ATOM     74  C   UNL A   1      36.099  32.471  27.980  1.00  0.00     0.198 A 
ATOM     75  C   UNL A   1      35.356  30.241  28.461  1.00  0.00     0.198 A 
ATOM     76  F   UNL A   1      36.724  28.783  29.701  1.00  0.00    -0.203 F 
ATOM     77  F   UNL A   1      35.880  33.674  27.432  1.00  0.00    -0.200 F 
ATOM     78  C   UNL A   1      35.135  31.480  27.879  1.00  0.00     0.200 A 
ATOM     79  F   UNL A   1      34.431  29.277  28.350  1.00  0.00    -0.200 F 
ATOM     80  F   UNL A   1      33.994  31.718  27.219  1.00  0.00    -0.200 F 
ENDBRANCH  56  70
BRANCH  57  81
ATOM     81  C   UNL A   1      46.410  28.717  33.195  1.00  0.00     0.064 A 
ATOM     82  C   UNL A   1      47.582  29.369  32.793  1.00  0.00     0.173 A 
ATOM     83  C   UNL A   1      46.510  27.748  34.203  1.00  0.00     0.173 A 
ATOM     84  F   UNL A   1      47.536  30.292  31.820  1.00  0.00    -0.203 F 
ATOM     85  C   UNL A   1      48.810  29.060  33.374  1.00  0.00     0.198 A 
ATOM     86  C   UNL A   1      47.733  27.459  34.802  1.00  0.00     0.198 A 
ATOM     87  F   UNL A   1      45.414  27.102  34.625  1.00  0.00    -0.203 F 
ATOM     88  F   UNL A   1      49.922  29.678  32.952  1.00  0.00    -0.200 F 
ATOM     89  C   UNL A   1      48.883  28.113  34.384  1.00  0.00     0.200 A 
ATOM     90  F   UNL A   1      47.798  26.554  35.788  1.00  0.00    -0.200 F 
ATOM     91  F   UNL A   1      50.063  27.826  34.952  1.00  0.00    -0.200 F 
ENDBRANCH  57  81
BRANCH  69  92
ATOM     92  C   UNL A   1      41.317  33.135  34.987  1.00  0.00     0.064 A 
ATOM     93  C   UNL A   1      41.638  34.493  34.833  1.00  0.00     0.173 A 
ATOM     94  C   UNL A   1      40.787  32.722  36.219  1.00  0.00     0.173 A 
ATOM     95  F   UNL A   1      42.162  34.936  33.680  1.00  0.00    -0.203 F 
ATOM     96  C   UNL A   1      41.447  35.396  35.876  1.00  0.00     0.198 A 
ATOM     97  C   UNL A   1      40.572  33.633  37.249  1.00  0.00     0.198 A 
ATOM     98  F   UNL A   1      40.460  31.436  36.416  1.00  0.00    -0.203 F 
ATOM     99  F   UNL A   1      41.795  36.681  35.718  1.00  0.00    -0.200 F 
ATOM    100  C   UNL A   1      40.905  34.967  37.078  1.00  0.00     0.200 A 
ATOM    101  F   UNL A   1      40.036  33.220  38.406  1.00  0.00    -0.200 F 
ATOM    102  F   UNL A   1      40.709  35.842  38.076  1.00  0.00    -0.200 F 
ENDBRANCH  69  92
ENDBRANCH  43  44
ENDBRANCH  36  38
ENDBRANCH  35  36
ENDBRANCH  34  35
ENDBRANCH  33  34
ENDBRANCH  32  33
ENDBRANCH  31  32
ENDBRANCH  30  31
ENDBRANCH  29  30
ENDBRANCH   1  29
TORSDOF 24
ENDMDL
MODEL 2
REMARK VINA RESULT:      -9.7      6.640      8.864
REMARK SMILES CC(C)CSc1cc2c(cc1Cl)C=C(C(=O)OCCOCCOCCOCCOC(=O)c1ccc(-c3c4nc(c(-c5c(F)c(F)c(F)c(F)c5F)c5ccc([nH]5)c(-c5c(F)c(F)c(F)c(F)c5F)c5nc(c(-c6c(F)c(F)c(F)c(F)c6F)c6ccc3[nH]6)C=C5)C=C4)cc1)[C@H](C(F)(F)F)O2
REMARK SMILES IDX 22 1 21 2 20 3 19 4 18 5 17 6 15 7 16 8 14 9 6 10 7 11 11 12
REMARK SMILES IDX 8 13 10 14 12 15 9 16 100 17 13 18 95 19 5 20 4 21 2 22 1 23
REMARK SMILES IDX 3 24 96 25 97 26 98 27 99 28 23 29 24 30 25 31 26 32 27 33
REMARK SMILES IDX 28 34 29 35 30 36 31 37 32 38 33 39 94 40 34 41 93 42 35 43
REMARK SMILES IDX 36 44 37 45 87 46 38 47 92 48 86 49 88 50 39 51 91 52 85 53
REMARK SMILES IDX 84 54 40 56 72 57 52 58 71 59 53 60 56 61 70 62 89 63 54 64
REMARK SMILES IDX 55 65 69 67 90 68 57 69 41 70 42 71 50 72 43 73 44 74 48 75
REMARK SMILES IDX 51 76 45 77 46 78 49 79 47 80 73 81 74 82 82 83 75 84 76 85
REMARK SMILES IDX 80 86 83 87 77 88 78 89 81 90 79 91 58 92 59 93 67 94 60 95
REMARK SMILES IDX 61 96 65 97 68 98 62 99 63 100 66 101 64 102
REMARK H PARENT 88 55 56 66
REMARK Flexibility Score: inf
ROOT
ATOM      1  C   UNL A   1      42.207  19.939  25.995  1.00  0.00     0.188 C 
ENDROOT
BRANCH   1   2
ATOM      2  C   UNL A   1      41.058  20.127  27.005  1.00  0.00     0.188 C 
BRANCH   2   3
ATOM      3  O   UNL A   1      40.673  21.486  27.200  1.00  0.00    -0.376 OA
BRANCH   3   4
ATOM      4  C   UNL A   1      39.852  22.086  26.210  1.00  0.00     0.202 C 
BRANCH   4   5
ATOM      5  C   UNL A   1      38.670  21.211  25.777  1.00  0.00     0.261 C 
BRANCH   5   6
ATOM      6  O   UNL A   1      37.791  21.838  24.831  1.00  0.00    -0.460 OA
BRANCH   6   7
ATOM      7  C   UNL A   1      36.526  21.381  24.788  1.00  0.00     0.338 C 
ATOM      8  O   UNL A   1      36.178  20.218  24.895  1.00  0.00    -0.246 OA
BRANCH   7   9
ATOM      9  C   UNL A   1      35.596  22.525  24.760  1.00  0.00     0.087 C 
ATOM     10  C   UNL A   1      33.059  26.596  23.272  1.00  0.00     0.030 A 
ATOM     11  C   UNL A   1      33.660  26.191  24.480  1.00  0.00     0.063 A 
ATOM     12  C   UNL A   1      32.996  25.670  22.218  1.00  0.00     0.055 A 
ATOM     13  C   UNL A   1      34.284  24.948  24.589  1.00  0.00     0.129 A 
ATOM     14  C   UNL A   1      33.668  24.445  22.313  1.00  0.00     0.033 A 
ATOM     15  Cl  UNL A   1      32.102  25.934  20.762  1.00  0.00    -0.083 Cl
ATOM     16  C   UNL A   1      34.343  24.101  23.484  1.00  0.00     0.019 A 
ATOM     17  O   UNL A   1      34.898  24.652  25.781  1.00  0.00    -0.475 OA
ATOM     18  C   UNL A   1      35.185  22.918  23.547  1.00  0.00     0.027 C 
ATOM     19  C   UNL A   1      35.188  23.239  26.025  1.00  0.00     0.316 C 
BRANCH  10  20
ATOM     20  S   UNL A   1      32.463  28.285  23.254  1.00  0.00    -0.124 SA
BRANCH  20  21
ATOM     21  C   UNL A   1      30.802  28.210  24.042  1.00  0.00     0.078 C 
BRANCH  21  22
ATOM     22  C   UNL A   1      29.628  27.584  23.262  1.00  0.00    -0.007 C 
ATOM     23  C   UNL A   1      28.914  26.437  23.976  1.00  0.00     0.008 C 
ATOM     24  C   UNL A   1      28.595  28.687  22.976  1.00  0.00     0.008 C 
ENDBRANCH  21  22
ENDBRANCH  20  21
ENDBRANCH  10  20
BRANCH  19  25
ATOM     25  C   UNL A   1      34.017  22.605  26.808  1.00  0.00     0.430 C 
ATOM     26  F   UNL A   1      33.263  23.533  27.440  1.00  0.00    -0.167 F 
ATOM     27  F   UNL A   1      33.200  21.878  26.015  1.00  0.00    -0.167 F 
ATOM     28  F   UNL A   1      34.480  21.751  27.756  1.00  0.00    -0.167 F 
ENDBRANCH  19  25
ENDBRANCH   7   9
ENDBRANCH   6   7
ENDBRANCH   5   6
ENDBRANCH   4   5
ENDBRANCH   3   4
ENDBRANCH   2   3
ENDBRANCH   1   2
BRANCH   1  29
ATOM     29  O   UNL A   1      43.149  18.882  26.113  1.00  0.00    -0.377 OA
BRANCH  29  30
ATOM     30  C   UNL A   1      44.184  18.819  25.145  1.00  0.00     0.188 C 
BRANCH  30  31
ATOM     31  C   UNL A   1      45.524  18.394  25.769  1.00  0.00     0.188 C 
BRANCH  31  32
ATOM     32  O   UNL A   1      46.610  19.213  25.335  1.00  0.00    -0.376 OA
BRANCH  32  33
ATOM     33  C   UNL A   1      46.342  20.087  24.241  1.00  0.00     0.202 C 
BRANCH  33  34
ATOM     34  C   UNL A   1      46.128  21.578  24.552  1.00  0.00     0.261 C 
BRANCH  34  35
ATOM     35  O   UNL A   1      46.246  21.965  25.934  1.00  0.00    -0.460 OA
BRANCH  35  36
ATOM     36  C   UNL A   1      45.315  22.785  26.466  1.00  0.00     0.338 C 
ATOM     37  O   UNL A   1      44.286  22.471  27.036  1.00  0.00    -0.246 OA
BRANCH  36  38
ATOM     38  C   UNL A   1      45.868  24.157  26.423  1.00  0.00     0.060 A 
ATOM     39  C   UNL A   1      46.437  24.726  27.565  1.00  0.00     0.016 A 
ATOM     40  C   UNL A   1      45.766  24.898  25.238  1.00  0.00     0.016 A 
ATOM     41  C   UNL A   1      46.937  26.030  27.511  1.00  0.00     0.010 A 
ATOM     42  C   UNL A   1      46.253  26.208  25.190  1.00  0.00     0.010 A 
ATOM     43  C   UNL A   1      46.865  26.773  26.318  1.00  0.00    -0.014 A 
BRANCH  43  44
ATOM     44  C   UNL A   1      47.607  28.053  26.207  1.00  0.00     0.031 A 
ATOM     45  C   UNL A   1      46.954  29.382  26.418  1.00  0.00     0.074 A 
ATOM     46  C   UNL A   1      48.916  27.984  25.901  1.00  0.00     0.049 A 
ATOM     47  N   UNL A   1      47.503  30.573  26.430  1.00  0.00    -0.248 NA
ATOM     48  C   UNL A   1      45.501  29.387  26.636  1.00  0.00     0.031 C 
ATOM     49  C   UNL A   1      49.650  26.744  25.645  1.00  0.00     0.029 A 
ATOM     50  N   UNL A   1      49.861  28.968  25.761  1.00  0.00    -0.354 N 
ATOM     51  C   UNL A   1      46.473  31.466  26.682  1.00  0.00     0.074 A 
ATOM     52  C   UNL A   1      45.254  30.685  26.769  1.00  0.00     0.031 C 
ATOM     53  C   UNL A   1      50.934  27.038  25.403  1.00  0.00     0.029 A 
ATOM     54  C   UNL A   1      51.112  28.485  25.466  1.00  0.00     0.049 A 
ATOM     55  H   UNL A   1      49.662  29.927  25.861  1.00  0.00     0.167 HD
ATOM     56  C   UNL A   1      46.548  32.810  26.845  1.00  0.00     0.037 A 
ATOM     57  C   UNL A   1      52.275  29.133  25.275  1.00  0.00     0.037 A 
ATOM     58  C   UNL A   1      47.764  33.581  26.741  1.00  0.00     0.049 A 
ATOM     59  C   UNL A   1      52.319  30.628  25.416  1.00  0.00     0.074 A 
ATOM     60  C   UNL A   1      47.941  34.942  26.934  1.00  0.00     0.029 A 
ATOM     61  N   UNL A   1      49.006  33.065  26.400  1.00  0.00    -0.354 N 
ATOM     62  N   UNL A   1      51.354  31.454  25.735  1.00  0.00    -0.248 NA
ATOM     63  C   UNL A   1      53.613  31.279  25.176  1.00  0.00     0.031 C 
ATOM     64  C   UNL A   1      49.276  35.256  26.660  1.00  0.00     0.029 A 
ATOM     65  C   UNL A   1      49.945  34.086  26.346  1.00  0.00     0.049 A 
ATOM     66  H   UNL A   1      49.193  32.116  26.222  1.00  0.00     0.167 HD
ATOM     67  C   UNL A   1      51.925  32.718  25.755  1.00  0.00     0.074 A 
ATOM     68  C   UNL A   1      53.327  32.548  25.432  1.00  0.00     0.031 C 
ATOM     69  C   UNL A   1      51.338  33.910  26.016  1.00  0.00     0.037 A 
BRANCH  56  70
ATOM     70  C   UNL A   1      45.284  33.553  27.172  1.00  0.00     0.064 A 
ATOM     71  C   UNL A   1      44.928  33.830  28.500  1.00  0.00     0.173 A 
ATOM     72  C   UNL A   1      44.479  34.085  26.152  1.00  0.00     0.173 A 
ATOM     73  F   UNL A   1      45.663  33.346  29.511  1.00  0.00    -0.203 F 
ATOM     74  C   UNL A   1      43.807  34.603  28.796  1.00  0.00     0.198 A 
ATOM     75  C   UNL A   1      43.374  34.878  26.451  1.00  0.00     0.198 A 
ATOM     76  F   UNL A   1      44.782  33.861  24.865  1.00  0.00    -0.203 F 
ATOM     77  F   UNL A   1      43.472  34.835  30.073  1.00  0.00    -0.200 F 
ATOM     78  C   UNL A   1      43.037  35.133  27.772  1.00  0.00     0.200 A 
ATOM     79  F   UNL A   1      42.640  35.403  25.461  1.00  0.00    -0.200 F 
ATOM     80  F   UNL A   1      41.970  35.892  28.058  1.00  0.00    -0.200 F 
ENDBRANCH  56  70
BRANCH  57  81
ATOM     81  C   UNL A   1      53.501  28.352  24.975  1.00  0.00     0.064 A 
ATOM     82  C   UNL A   1      54.279  27.818  26.009  1.00  0.00     0.173 A 
ATOM     83  C   UNL A   1      53.894  28.092  23.655  1.00  0.00     0.173 A 
ATOM     84  F   UNL A   1      53.949  28.056  27.288  1.00  0.00    -0.203 F 
ATOM     85  C   UNL A   1      55.412  27.056  25.734  1.00  0.00     0.198 A 
ATOM     86  C   UNL A   1      55.012  27.308  23.381  1.00  0.00     0.198 A 
ATOM     87  F   UNL A   1      53.176  28.576  22.632  1.00  0.00    -0.203 F 
ATOM     88  F   UNL A   1      56.157  26.581  26.742  1.00  0.00    -0.200 F 
ATOM     89  C   UNL A   1      55.772  26.794  24.421  1.00  0.00     0.200 A 
ATOM     90  F   UNL A   1      55.348  27.044  22.111  1.00  0.00    -0.200 F 
ATOM     91  F   UNL A   1      56.855  26.050  24.157  1.00  0.00    -0.200 F 
ENDBRANCH  57  81
BRANCH  69  92
ATOM     92  C   UNL A   1      52.206  35.134  25.971  1.00  0.00     0.064 A 
ATOM     93  C   UNL A   1      52.351  35.885  24.794  1.00  0.00     0.173 A 
ATOM     94  C   UNL A   1      52.854  35.596  27.126  1.00  0.00     0.173 A 
ATOM     95  F   UNL A   1      51.764  35.479  23.658  1.00  0.00    -0.203 F 
ATOM     96  C   UNL A   1      53.123  37.043  24.774  1.00  0.00     0.198 A 
ATOM     97  C   UNL A   1      53.603  36.768  27.109  1.00  0.00     0.198 A 
ATOM     98  F   UNL A   1      52.745  34.917  28.279  1.00  0.00    -0.203 F 
ATOM     99  F   UNL A   1      53.277  37.724  23.629  1.00  0.00    -0.200 F 
ATOM    100  C   UNL A   1      53.740  37.489  25.933  1.00  0.00     0.200 A 
ATOM    101  F   UNL A   1      54.188  37.206  28.233  1.00  0.00    -0.200 F 
ATOM    102  F   UNL A   1      54.473  38.612  25.915  1.00  0.00    -0.200 F 
ENDBRANCH  69  92
ENDBRANCH  43  44
ENDBRANCH  36  38
ENDBRANCH  35  36
ENDBRANCH  34  35
ENDBRANCH  33  34
ENDBRANCH  32  33
ENDBRANCH  31  32
ENDBRANCH  30  31
ENDBRANCH  29  30
ENDBRANCH   1  29
TORSDOF 24
ENDMDL
MODEL 3
REMARK VINA RESULT:      -9.4      5.955      9.113
REMARK SMILES CC(C)CSc1cc2c(cc1Cl)C=C(C(=O)OCCOCCOCCOCCOC(=O)c1ccc(-c3c4nc(c(-c5c(F)c(F)c(F)c(F)c5F)c5ccc([nH]5)c(-c5c(F)c(F)c(F)c(F)c5F)c5nc(c(-c6c(F)c(F)c(F)c(F)c6F)c6ccc3[nH]6)C=C5)C=C4)cc1)[C@H](C(F)(F)F)O2
REMARK SMILES IDX 22 1 21 2 20 3 19 4 18 5 17 6 15 7 16 8 14 9 6 10 7 11 11 12
REMARK SMILES IDX 8 13 10 14 12 15 9 16 100 17 13 18 95 19 5 20 4 21 2 22 1 23
REMARK SMILES IDX 3 24 96 25 97 26 98 27 99 28 23 29 24 30 25 31 26 32 27 33
REMARK SMILES IDX 28 34 29 35 30 36 31 37 32 38 33 39 94 40 34 41 93 42 35 43
REMARK SMILES IDX 36 44 37 45 87 46 38 47 92 48 86 49 88 50 39 51 91 52 85 53
REMARK SMILES IDX 84 54 40 56 72 57 52 58 71 59 53 60 56 61 70 62 89 63 54 64
REMARK SMILES IDX 55 65 69 67 90 68 57 69 41 70 42 71 50 72 43 73 44 74 48 75
REMARK SMILES IDX 51 76 45 77 46 78 49 79 47 80 73 81 74 82 82 83 75 84 76 85
REMARK SMILES IDX 80 86 83 87 77 88 78 89 81 90 79 91 58 92 59 93 67 94 60 95
REMARK SMILES IDX 61 96 65 97 68 98 62 99 63 100 66 101 64 102
REMARK H PARENT 88 55 56 66
REMARK Flexibility Score: inf
ROOT
ATOM      1  C   UNL A   1      34.001  23.953  23.641  1.00  0.00     0.188 C 
ENDROOT
BRANCH   1   2
ATOM      2  C   UNL A   1      33.103  23.685  22.417  1.00  0.00     0.188 C 
BRANCH   2   3
ATOM      3  O   UNL A   1      33.281  24.616  21.352  1.00  0.00    -0.376 OA
BRANCH   3   4
ATOM      4  C   UNL A   1      32.956  25.974  21.604  1.00  0.00     0.202 C 
BRANCH   4   5
ATOM      5  C   UNL A   1      31.460  26.283  21.479  1.00  0.00     0.261 C 
BRANCH   5   6
ATOM      6  O   UNL A   1      30.775  26.391  22.737  1.00  0.00    -0.460 OA
BRANCH   6   7
ATOM      7  C   UNL A   1      30.527  27.636  23.183  1.00  0.00     0.338 C 
ATOM      8  O   UNL A   1      29.641  28.376  22.794  1.00  0.00    -0.246 OA
BRANCH   7   9
ATOM      9  C   UNL A   1      31.390  27.917  24.345  1.00  0.00     0.087 C 
ATOM     10  C   UNL A   1      34.488  30.213  27.564  1.00  0.00     0.030 A 
ATOM     11  C   UNL A   1      34.395  28.908  27.038  1.00  0.00     0.063 A 
ATOM     12  C   UNL A   1      33.455  31.120  27.276  1.00  0.00     0.055 A 
ATOM     13  C   UNL A   1      33.371  28.561  26.158  1.00  0.00     0.129 A 
ATOM     14  C   UNL A   1      32.458  30.784  26.352  1.00  0.00     0.033 A 
ATOM     15  Cl  UNL A   1      33.309  32.672  28.020  1.00  0.00    -0.083 Cl
ATOM     16  C   UNL A   1      32.437  29.519  25.765  1.00  0.00     0.019 A 
ATOM     17  O   UNL A   1      33.384  27.288  25.644  1.00  0.00    -0.475 OA
ATOM     18  C   UNL A   1      31.519  29.206  24.684  1.00  0.00     0.027 C 
ATOM     19  C   UNL A   1      32.128  26.813  25.062  1.00  0.00     0.316 C 
BRANCH  10  20
ATOM     20  S   UNL A   1      35.960  30.533  28.533  1.00  0.00    -0.124 SA
BRANCH  20  21
ATOM     21  C   UNL A   1      37.310  29.648  27.651  1.00  0.00     0.078 C 
BRANCH  21  22
ATOM     22  C   UNL A   1      38.606  29.303  28.413  1.00  0.00    -0.007 C 
ATOM     23  C   UNL A   1      39.794  28.918  27.531  1.00  0.00     0.008 C 
ATOM     24  C   UNL A   1      39.011  30.523  29.256  1.00  0.00     0.008 C 
ENDBRANCH  21  22
ENDBRANCH  20  21
ENDBRANCH  10  20
BRANCH  19  25
ATOM     25  C   UNL A   1      31.322  26.054  26.139  1.00  0.00     0.430 C 
ATOM     26  F   UNL A   1      30.567  25.064  25.611  1.00  0.00    -0.167 F 
ATOM     27  F   UNL A   1      32.115  25.508  27.088  1.00  0.00    -0.167 F 
ATOM     28  F   UNL A   1      30.481  26.895  26.792  1.00  0.00    -0.167 F 
ENDBRANCH  19  25
ENDBRANCH   7   9
ENDBRANCH   6   7
ENDBRANCH   5   6
ENDBRANCH   4   5
ENDBRANCH   3   4
ENDBRANCH   2   3
ENDBRANCH   1   2
BRANCH   1  29
ATOM     29  O   UNL A   1      35.129  23.144  23.940  1.00  0.00    -0.377 OA
BRANCH  29  30
ATOM     30  C   UNL A   1      36.002  23.592  24.965  1.00  0.00     0.188 C 
BRANCH  30  31
ATOM     31  C   UNL A   1      36.966  22.484  25.420  1.00  0.00     0.188 C 
BRANCH  31  32
ATOM     32  O   UNL A   1      38.256  22.991  25.760  1.00  0.00    -0.376 OA
BRANCH  32  33
ATOM     33  C   UNL A   1      38.280  24.151  26.588  1.00  0.00     0.202 C 
BRANCH  33  34
ATOM     34  C   UNL A   1      39.607  24.921  26.703  1.00  0.00     0.261 C 
BRANCH  34  35
ATOM     35  O   UNL A   1      40.669  24.260  27.418  1.00  0.00    -0.460 OA
BRANCH  35  36
ATOM     36  C   UNL A   1      41.687  23.715  26.720  1.00  0.00     0.338 C 
ATOM     37  O   UNL A   1      41.686  22.671  26.094  1.00  0.00    -0.246 OA
BRANCH  36  38
ATOM     38  C   UNL A   1      42.769  24.724  26.669  1.00  0.00     0.060 A 
ATOM     39  C   UNL A   1      43.203  25.235  25.443  1.00  0.00     0.016 A 
ATOM     40  C   UNL A   1      43.389  25.123  27.861  1.00  0.00     0.016 A 
ATOM     41  C   UNL A   1      44.237  26.173  25.413  1.00  0.00     0.010 A 
ATOM     42  C   UNL A   1      44.434  26.051  27.828  1.00  0.00     0.010 A 
ATOM     43  C   UNL A   1      44.848  26.601  26.605  1.00  0.00    -0.014 A 
BRANCH  43  44
ATOM     44  C   UNL A   1      45.770  27.762  26.580  1.00  0.00     0.031 A 
ATOM     45  C   UNL A   1      45.303  29.166  26.806  1.00  0.00     0.074 A 
ATOM     46  C   UNL A   1      47.071  27.515  26.340  1.00  0.00     0.049 A 
ATOM     47  N   UNL A   1      46.014  30.263  26.891  1.00  0.00    -0.248 NA
ATOM     48  C   UNL A   1      43.856  29.374  26.949  1.00  0.00     0.031 C 
ATOM     49  C   UNL A   1      47.634  26.189  26.078  1.00  0.00     0.029 A 
ATOM     50  N   UNL A   1      48.153  28.355  26.286  1.00  0.00    -0.354 N 
ATOM     51  C   UNL A   1      45.110  31.289  27.122  1.00  0.00     0.074 A 
ATOM     52  C   UNL A   1      43.789  30.690  27.116  1.00  0.00     0.031 C 
ATOM     53  C   UNL A   1      48.959  26.301  25.914  1.00  0.00     0.029 A 
ATOM     54  C   UNL A   1      49.337  27.706  26.039  1.00  0.00     0.049 A 
ATOM     55  H   UNL A   1      48.088  29.329  26.412  1.00  0.00     0.167 HD
ATOM     56  C   UNL A   1      45.367  32.602  27.339  1.00  0.00     0.037 A 
ATOM     57  C   UNL A   1      50.590  28.184  25.933  1.00  0.00     0.037 A 
ATOM     58  C   UNL A   1      46.684  33.193  27.327  1.00  0.00     0.049 A 
ATOM     59  C   UNL A   1      50.839  29.652  26.131  1.00  0.00     0.074 A 
ATOM     60  C   UNL A   1      47.043  34.507  27.580  1.00  0.00     0.029 A 
ATOM     61  N   UNL A   1      47.857  32.512  27.032  1.00  0.00    -0.354 N 
ATOM     62  N   UNL A   1      49.985  30.599  26.430  1.00  0.00    -0.248 NA
ATOM     63  C   UNL A   1      52.224  30.115  25.984  1.00  0.00     0.031 C 
ATOM     64  C   UNL A   1      48.422  34.633  27.387  1.00  0.00     0.029 A 
ATOM     65  C   UNL A   1      48.934  33.388  27.065  1.00  0.00     0.049 A 
ATOM     66  H   UNL A   1      47.917  31.551  26.829  1.00  0.00     0.167 HD
ATOM     67  C   UNL A   1      50.729  31.766  26.527  1.00  0.00     0.074 A 
ATOM     68  C   UNL A   1      52.108  31.404  26.271  1.00  0.00     0.031 C 
ATOM     69  C   UNL A   1      50.304  33.022  26.802  1.00  0.00     0.037 A 
BRANCH  56  70
ATOM     70  C   UNL A   1      44.206  33.511  27.627  1.00  0.00     0.064 A 
ATOM     71  C   UNL A   1      43.621  33.560  28.901  1.00  0.00     0.173 A 
ATOM     72  C   UNL A   1      43.742  34.413  26.658  1.00  0.00     0.173 A 
ATOM     73  F   UNL A   1      44.027  32.718  29.863  1.00  0.00    -0.203 F 
ATOM     74  C   UNL A   1      42.609  34.471  29.192  1.00  0.00     0.198 A 
ATOM     75  C   UNL A   1      42.748  35.341  26.959  1.00  0.00     0.198 A 
ATOM     76  F   UNL A   1      44.275  34.417  25.426  1.00  0.00    -0.203 F 
ATOM     77  F   UNL A   1      42.049  34.485  30.409  1.00  0.00    -0.200 F 
ATOM     78  C   UNL A   1      42.180  35.367  28.223  1.00  0.00     0.200 A 
ATOM     79  F   UNL A   1      42.345  36.217  26.027  1.00  0.00    -0.200 F 
ATOM     80  F   UNL A   1      41.219  36.256  28.510  1.00  0.00    -0.200 F 
ENDBRANCH  56  70
BRANCH  57  81
ATOM     81  C   UNL A   1      51.707  27.243  25.668  1.00  0.00     0.064 A 
ATOM     82  C   UNL A   1      52.122  26.977  24.357  1.00  0.00     0.173 A 
ATOM     83  C   UNL A   1      52.403  26.624  26.716  1.00  0.00     0.173 A 
ATOM     84  F   UNL A   1      51.474  27.534  23.323  1.00  0.00    -0.203 F 
ATOM     85  C   UNL A   1      53.190  26.120  24.103  1.00  0.00     0.198 A 
ATOM     86  C   UNL A   1      53.488  25.789  26.462  1.00  0.00     0.198 A 
ATOM     87  F   UNL A   1      52.046  26.854  27.987  1.00  0.00    -0.203 F 
ATOM     88  F   UNL A   1      53.549  25.859  22.839  1.00  0.00    -0.200 F 
ATOM     89  C   UNL A   1      53.878  25.534  25.155  1.00  0.00     0.200 A 
ATOM     90  F   UNL A   1      54.160  25.237  27.481  1.00  0.00    -0.200 F 
ATOM     91  F   UNL A   1      54.914  24.721  24.910  1.00  0.00    -0.200 F 
ENDBRANCH  57  81
BRANCH  69  92
ATOM     92  C   UNL A   1      51.339  34.108  26.847  1.00  0.00     0.064 A 
ATOM     93  C   UNL A   1      51.663  34.858  25.705  1.00  0.00     0.173 A 
ATOM     94  C   UNL A   1      51.972  34.444  28.053  1.00  0.00     0.173 A 
ATOM     95  F   UNL A   1      51.097  34.567  24.524  1.00  0.00    -0.203 F 
ATOM     96  C   UNL A   1      52.593  35.893  25.768  1.00  0.00     0.198 A 
ATOM     97  C   UNL A   1      52.881  35.497  28.118  1.00  0.00     0.198 A 
ATOM     98  F   UNL A   1      51.695  33.762  29.175  1.00  0.00    -0.203 F 
ATOM     99  F   UNL A   1      52.914  36.571  24.657  1.00  0.00    -0.200 F 
ATOM    100  C   UNL A   1      53.193  36.217  26.976  1.00  0.00     0.200 A 
ATOM    101  F   UNL A   1      53.450  35.819  29.288  1.00  0.00    -0.200 F 
ATOM    102  F   UNL A   1      54.078  37.223  27.037  1.00  0.00    -0.200 F 
ENDBRANCH  69  92
ENDBRANCH  43  44
ENDBRANCH  36  38
ENDBRANCH  35  36
ENDBRANCH  34  35
ENDBRANCH  33  34
ENDBRANCH  32  33
ENDBRANCH  31  32
ENDBRANCH  30  31
ENDBRANCH  29  30
ENDBRANCH   1  29
TORSDOF 24
ENDMDL
