MODEL 1
REMARK VINA RESULT:     -10.6      0.000      0.000
REMARK SMILES COc1cc([C@@H]2Oc3c(OC)cc(/C=C/C(=O)OCCOCCOCCOCCOC(=O)c4ccc(-c5c6nc(c(-c7c(F)c(F)c(F)c(F)c7F)c7ccc([nH]7)c(-c7c(F)c(F)c(F)c(F)c7F)c7nc(c(-c8c(F)c(F)c(F)c(F)c8F)c8ccc5[nH]8)C=C7)C=C6)cc4)cc3[C@@H]2CO)ccc1O
REMARK SMILES IDX 23 1 22 2 21 3 20 4 19 5 18 6 16 7 17 8 15 9 14 10 13 11
REMARK SMILES IDX 6 12 7 13 98 14 8 15 97 16 9 17 96 18 12 19 5 20 3 21 4 22
REMARK SMILES IDX 103 23 102 24 101 25 2 26 1 27 104 28 99 30 100 31 10 33
REMARK SMILES IDX 11 34 24 35 25 36 26 37 27 38 28 39 29 40 30 41 31 42 32 43
REMARK SMILES IDX 33 44 34 45 95 46 35 47 94 48 36 49 37 50 38 51 88 52 39 53
REMARK SMILES IDX 93 54 87 55 89 56 40 57 92 58 86 59 85 60 41 62 73 63 53 64
REMARK SMILES IDX 72 65 54 66 57 67 71 68 90 69 55 70 56 71 70 73 91 74 58 75
REMARK SMILES IDX 42 76 43 77 51 78 44 79 45 80 49 81 52 82 46 83 47 84 50 85
REMARK SMILES IDX 48 86 74 87 75 88 83 89 76 90 77 91 81 92 84 93 78 94 79 95
REMARK SMILES IDX 82 96 80 97 59 98 60 99 68 100 61 101 62 102 66 103 69 104
REMARK SMILES IDX 63 105 64 106 67 107 65 108
REMARK H PARENT 104 29 100 32 89 61 57 72
REMARK Flexibility Score: inf
ROOT
ATOM      1  C   UNL A   1      38.349  23.334  26.068  1.00  0.00     0.188 C 
ENDROOT
BRANCH   1   2
ATOM      2  C   UNL A   1      36.814  23.351  26.203  1.00  0.00     0.188 C 
BRANCH   2   3
ATOM      3  O   UNL A   1      36.219  22.066  26.148  1.00  0.00    -0.376 OA
BRANCH   3   4
ATOM      4  C   UNL A   1      34.935  21.876  26.710  1.00  0.00     0.202 C 
BRANCH   4   5
ATOM      5  C   UNL A   1      33.973  23.070  26.761  1.00  0.00     0.261 C 
BRANCH   5   6
ATOM      6  O   UNL A   1      32.657  22.838  26.236  1.00  0.00    -0.460 OA
BRANCH   6   7
ATOM      7  C   UNL A   1      31.668  23.661  26.655  1.00  0.00     0.330 C 
ATOM      8  O   UNL A   1      30.718  23.345  27.351  1.00  0.00    -0.247 OA
BRANCH   7   9
ATOM      9  C   UNL A   1      31.967  25.066  26.291  1.00  0.00     0.094 C 
ATOM     10  C   UNL A   1      31.224  26.089  26.731  1.00  0.00     0.016 C 
BRANCH  10  11
ATOM     11  C   UNL A   1      31.388  27.493  26.337  1.00  0.00    -0.021 A 
ATOM     12  C   UNL A   1      32.803  28.753  22.814  1.00  0.00     0.214 C 
ATOM     13  O   UNL A   1      33.561  29.187  24.046  1.00  0.00    -0.481 OA
ATOM     14  C   UNL A   1      31.462  29.475  23.050  1.00  0.00     0.094 C 
ATOM     15  C   UNL A   1      32.549  29.521  25.019  1.00  0.00     0.165 A 
ATOM     16  C   UNL A   1      31.357  29.073  24.492  1.00  0.00     0.008 A 
ATOM     17  C   UNL A   1      32.796  29.422  26.373  1.00  0.00     0.161 A 
ATOM     18  C   UNL A   1      30.828  27.941  25.114  1.00  0.00     0.016 A 
ATOM     19  C   UNL A   1      32.280  28.319  27.035  1.00  0.00     0.058 A 
BRANCH  12  20
ATOM     20  C   UNL A   1      32.663  27.223  22.640  1.00  0.00    -0.003 A 
ATOM     21  C   UNL A   1      33.804  25.045  22.891  1.00  0.00     0.160 A 
ATOM     22  C   UNL A   1      33.572  26.368  23.297  1.00  0.00     0.058 A 
ATOM     23  C   UNL A   1      32.969  24.508  21.921  1.00  0.00     0.157 A 
ATOM     24  C   UNL A   1      31.905  25.266  21.421  1.00  0.00     0.050 A 
ATOM     25  C   UNL A   1      31.761  26.623  21.760  1.00  0.00     0.011 A 
BRANCH  21  26
ATOM     26  O   UNL A   1      34.834  24.451  23.565  1.00  0.00    -0.493 OA
ATOM     27  C   UNL A   1      35.304  23.181  23.145  1.00  0.00     0.278 C 
ENDBRANCH  21  26
BRANCH  23  28
ATOM     28  O   UNL A   1      33.109  23.255  21.401  1.00  0.00    -0.504 OA
ATOM     29  H   UNL A   1      32.451  22.607  21.556  1.00  0.00     0.293 HD
ENDBRANCH  23  28
ENDBRANCH  12  20
BRANCH  14  30
ATOM     30  C   UNL A   1      30.274  29.526  22.104  1.00  0.00     0.168 C 
BRANCH  30  31
ATOM     31  O   UNL A   1      29.784  30.801  21.743  1.00  0.00    -0.396 OA
ATOM     32  H   UNL A   1      30.358  31.486  22.120  1.00  0.00     0.210 HD
ENDBRANCH  30  31
ENDBRANCH  14  30
BRANCH  17  33
ATOM     33  O   UNL A   1      33.161  30.508  27.133  1.00  0.00    -0.493 OA
ATOM     34  C   UNL A   1      34.489  30.340  27.672  1.00  0.00     0.278 C 
ENDBRANCH  17  33
ENDBRANCH  10  11
ENDBRANCH   7   9
ENDBRANCH   6   7
ENDBRANCH   5   6
ENDBRANCH   4   5
ENDBRANCH   3   4
ENDBRANCH   2   3
ENDBRANCH   1   2
BRANCH   1  35
ATOM     35  O   UNL A   1      39.026  22.094  26.222  1.00  0.00    -0.377 OA
BRANCH  35  36
ATOM     36  C   UNL A   1      40.384  22.061  26.659  1.00  0.00     0.188 C 
BRANCH  36  37
ATOM     37  C   UNL A   1      41.116  20.750  27.033  1.00  0.00     0.188 C 
BRANCH  37  38
ATOM     38  O   UNL A   1      41.952  20.233  26.014  1.00  0.00    -0.376 OA
BRANCH  38  39
ATOM     39  C   UNL A   1      42.297  18.863  26.077  1.00  0.00     0.202 C 
BRANCH  39  40
ATOM     40  C   UNL A   1      43.646  18.474  25.459  1.00  0.00     0.261 C 
BRANCH  40  41
ATOM     41  O   UNL A   1      44.005  19.160  24.248  1.00  0.00    -0.460 OA
BRANCH  41  42
ATOM     42  C   UNL A   1      45.219  19.746  24.203  1.00  0.00     0.338 C 
ATOM     43  O   UNL A   1      46.234  19.308  23.681  1.00  0.00    -0.246 OA
BRANCH  42  44
ATOM     44  C   UNL A   1      45.077  21.111  24.746  1.00  0.00     0.060 A 
ATOM     45  C   UNL A   1      44.691  22.152  23.891  1.00  0.00     0.016 A 
ATOM     46  C   UNL A   1      45.311  21.357  26.101  1.00  0.00     0.016 A 
ATOM     47  C   UNL A   1      44.569  23.452  24.386  1.00  0.00     0.010 A 
ATOM     48  C   UNL A   1      45.208  22.660  26.591  1.00  0.00     0.010 A 
ATOM     49  C   UNL A   1      44.868  23.719  25.729  1.00  0.00    -0.014 A 
BRANCH  49  50
ATOM     50  C   UNL A   1      45.008  25.122  26.190  1.00  0.00     0.031 A 
ATOM     51  C   UNL A   1      46.369  25.761  26.132  1.00  0.00     0.074 A 
ATOM     52  C   UNL A   1      43.953  25.821  26.640  1.00  0.00     0.049 A 
ATOM     53  N   UNL A   1      46.750  26.950  26.522  1.00  0.00    -0.248 NA
ATOM     54  C   UNL A   1      47.447  24.938  25.562  1.00  0.00     0.031 C 
ATOM     55  C   UNL A   1      42.582  25.325  26.713  1.00  0.00     0.029 A 
ATOM     56  N   UNL A   1      43.879  27.100  27.134  1.00  0.00    -0.354 N 
ATOM     57  C   UNL A   1      48.111  27.014  26.253  1.00  0.00     0.074 A 
ATOM     58  C   UNL A   1      48.496  25.733  25.701  1.00  0.00     0.031 C 
ATOM     59  C   UNL A   1      41.801  26.286  27.237  1.00  0.00     0.029 A 
ATOM     60  C   UNL A   1      42.624  27.449  27.567  1.00  0.00     0.049 A 
ATOM     61  H   UNL A   1      44.652  27.708  27.174  1.00  0.00     0.167 HD
ATOM     62  C   UNL A   1      48.962  28.051  26.443  1.00  0.00     0.037 A 
ATOM     63  C   UNL A   1      42.198  28.570  28.182  1.00  0.00     0.037 A 
ATOM     64  C   UNL A   1      48.575  29.320  27.002  1.00  0.00     0.049 A 
ATOM     65  C   UNL A   1      43.178  29.684  28.452  1.00  0.00     0.074 A 
ATOM     66  C   UNL A   1      49.354  30.444  27.211  1.00  0.00     0.029 A 
ATOM     67  N   UNL A   1      47.300  29.627  27.456  1.00  0.00    -0.354 N 
ATOM     68  N   UNL A   1      44.454  29.756  28.162  1.00  0.00    -0.248 NA
ATOM     69  C   UNL A   1      42.653  30.877  29.132  1.00  0.00     0.031 C 
ATOM     70  C   UNL A   1      48.569  31.406  27.855  1.00  0.00     0.029 A 
ATOM     71  C   UNL A   1      47.280  30.911  27.979  1.00  0.00     0.049 A 
ATOM     72  H   UNL A   1      46.524  29.023  27.413  1.00  0.00     0.167 HD
ATOM     73  C   UNL A   1      44.879  31.006  28.597  1.00  0.00     0.074 A 
ATOM     74  C   UNL A   1      43.717  31.666  29.156  1.00  0.00     0.031 C 
ATOM     75  C   UNL A   1      46.117  31.559  28.535  1.00  0.00     0.037 A 
BRANCH  62  76
ATOM     76  C   UNL A   1      50.404  27.835  26.082  1.00  0.00     0.064 A 
ATOM     77  C   UNL A   1      51.371  27.505  27.044  1.00  0.00     0.173 A 
ATOM     78  C   UNL A   1      50.824  27.952  24.748  1.00  0.00     0.173 A 
ATOM     79  F   UNL A   1      51.028  27.393  28.337  1.00  0.00    -0.203 F 
ATOM     80  C   UNL A   1      52.709  27.341  26.691  1.00  0.00     0.198 A 
ATOM     81  C   UNL A   1      52.155  27.751  24.393  1.00  0.00     0.198 A 
ATOM     82  F   UNL A   1      49.943  28.261  23.785  1.00  0.00    -0.203 F 
ATOM     83  F   UNL A   1      53.623  27.090  27.638  1.00  0.00    -0.200 F 
ATOM     84  C   UNL A   1      53.098  27.457  25.366  1.00  0.00     0.200 A 
ATOM     85  F   UNL A   1      52.527  27.848  23.109  1.00  0.00    -0.200 F 
ATOM     86  F   UNL A   1      54.384  27.296  25.027  1.00  0.00    -0.200 F 
ENDBRANCH  62  76
BRANCH  63  87
ATOM     87  C   UNL A   1      40.774  28.690  28.594  1.00  0.00     0.064 A 
ATOM     88  C   UNL A   1      40.361  28.343  29.886  1.00  0.00     0.173 A 
ATOM     89  C   UNL A   1      39.796  29.151  27.699  1.00  0.00     0.173 A 
ATOM     90  F   UNL A   1      41.251  27.869  30.769  1.00  0.00    -0.203 F 
ATOM     91  C   UNL A   1      39.023  28.440  30.265  1.00  0.00     0.198 A 
ATOM     92  C   UNL A   1      38.465  29.278  28.089  1.00  0.00     0.198 A 
ATOM     93  F   UNL A   1      40.138  29.489  26.446  1.00  0.00    -0.203 F 
ATOM     94  F   UNL A   1      38.648  28.059  31.494  1.00  0.00    -0.200 F 
ATOM     95  C   UNL A   1      38.078  28.917  29.370  1.00  0.00     0.200 A 
ATOM     96  F   UNL A   1      37.556  29.748  27.223  1.00  0.00    -0.200 F 
ATOM     97  F   UNL A   1      36.793  29.019  29.738  1.00  0.00    -0.200 F 
ENDBRANCH  63  87
BRANCH  75  98
ATOM     98  C   UNL A   1      46.278  32.962  29.051  1.00  0.00     0.064 A 
ATOM     99  C   UNL A   1      46.076  34.081  28.230  1.00  0.00     0.173 A 
ATOM    100  C   UNL A   1      46.596  33.190  30.399  1.00  0.00     0.173 A 
ATOM    101  F   UNL A   1      45.781  33.923  26.931  1.00  0.00    -0.203 F 
ATOM    102  C   UNL A   1      46.219  35.374  28.731  1.00  0.00     0.198 A 
ATOM    103  C   UNL A   1      46.701  34.483  30.906  1.00  0.00     0.198 A 
ATOM    104  F   UNL A   1      46.790  32.156  31.233  1.00  0.00    -0.203 F 
ATOM    105  F   UNL A   1      46.076  36.427  27.915  1.00  0.00    -0.200 F 
ATOM    106  C   UNL A   1      46.522  35.573  30.070  1.00  0.00     0.200 A 
ATOM    107  F   UNL A   1      46.976  34.672  32.204  1.00  0.00    -0.200 F 
ATOM    108  F   UNL A   1      46.650  36.817  30.552  1.00  0.00    -0.200 F 
ENDBRANCH  75  98
ENDBRANCH  49  50
ENDBRANCH  42  44
ENDBRANCH  41  42
ENDBRANCH  40  41
ENDBRANCH  39  40
ENDBRANCH  38  39
ENDBRANCH  37  38
ENDBRANCH  36  37
ENDBRANCH  35  36
ENDBRANCH   1  35
TORSDOF 27
ENDMDL
MODEL 2
REMARK VINA RESULT:      -9.1      3.745      8.769
REMARK SMILES COc1cc([C@@H]2Oc3c(OC)cc(/C=C/C(=O)OCCOCCOCCOCCOC(=O)c4ccc(-c5c6nc(c(-c7c(F)c(F)c(F)c(F)c7F)c7ccc([nH]7)c(-c7c(F)c(F)c(F)c(F)c7F)c7nc(c(-c8c(F)c(F)c(F)c(F)c8F)c8ccc5[nH]8)C=C7)C=C6)cc4)cc3[C@@H]2CO)ccc1O
REMARK SMILES IDX 23 1 22 2 21 3 20 4 19 5 18 6 16 7 17 8 15 9 14 10 13 11
REMARK SMILES IDX 6 12 7 13 98 14 8 15 97 16 9 17 96 18 12 19 5 20 3 21 4 22
REMARK SMILES IDX 103 23 102 24 101 25 2 26 1 27 104 28 99 30 100 31 10 33
REMARK SMILES IDX 11 34 24 35 25 36 26 37 27 38 28 39 29 40 30 41 31 42 32 43
REMARK SMILES IDX 33 44 34 45 95 46 35 47 94 48 36 49 37 50 38 51 88 52 39 53
REMARK SMILES IDX 93 54 87 55 89 56 40 57 92 58 86 59 85 60 41 62 73 63 53 64
REMARK SMILES IDX 72 65 54 66 57 67 71 68 90 69 55 70 56 71 70 73 91 74 58 75
REMARK SMILES IDX 42 76 43 77 51 78 44 79 45 80 49 81 52 82 46 83 47 84 50 85
REMARK SMILES IDX 48 86 74 87 75 88 83 89 76 90 77 91 81 92 84 93 78 94 79 95
REMARK SMILES IDX 82 96 80 97 59 98 60 99 68 100 61 101 62 102 66 103 69 104
REMARK SMILES IDX 63 105 64 106 67 107 65 108
REMARK H PARENT 104 29 100 32 89 61 57 72
REMARK Flexibility Score: inf
ROOT
ATOM      1  C   UNL A   1      33.439  31.565  27.283  1.00  0.00     0.188 C 
ENDROOT
BRANCH   1   2
ATOM      2  C   UNL A   1      33.514  30.027  27.211  1.00  0.00     0.188 C 
BRANCH   2   3
ATOM      3  O   UNL A   1      32.261  29.404  26.987  1.00  0.00    -0.376 OA
BRANCH   3   4
ATOM      4  C   UNL A   1      32.134  28.472  25.929  1.00  0.00     0.202 C 
BRANCH   4   5
ATOM      5  C   UNL A   1      32.581  28.895  24.523  1.00  0.00     0.261 C 
BRANCH   5   6
ATOM      6  O   UNL A   1      33.553  28.047  23.894  1.00  0.00    -0.460 OA
BRANCH   6   7
ATOM      7  C   UNL A   1      33.102  26.909  23.318  1.00  0.00     0.330 C 
ATOM      8  O   UNL A   1      32.225  26.829  22.473  1.00  0.00    -0.247 OA
BRANCH   7   9
ATOM      9  C   UNL A   1      33.930  25.751  23.729  1.00  0.00     0.094 C 
ATOM     10  C   UNL A   1      33.861  24.568  23.105  1.00  0.00     0.016 C 
BRANCH  10  11
ATOM     11  C   UNL A   1      34.566  23.347  23.511  1.00  0.00    -0.021 A 
ATOM     12  C   UNL A   1      33.999  21.388  26.953  1.00  0.00     0.214 C 
ATOM     13  O   UNL A   1      35.393  21.902  26.684  1.00  0.00    -0.481 OA
ATOM     14  C   UNL A   1      33.864  20.358  25.815  1.00  0.00     0.094 C 
ATOM     15  C   UNL A   1      35.633  21.640  25.286  1.00  0.00     0.165 A 
ATOM     16  C   UNL A   1      34.416  21.267  24.757  1.00  0.00     0.008 A 
ATOM     17  C   UNL A   1      36.506  22.418  24.551  1.00  0.00     0.161 A 
ATOM     18  C   UNL A   1      33.817  22.219  23.931  1.00  0.00     0.016 A 
ATOM     19  C   UNL A   1      35.953  23.370  23.708  1.00  0.00     0.058 A 
BRANCH  12  20
ATOM     20  C   UNL A   1      32.893  22.470  26.946  1.00  0.00    -0.003 A 
ATOM     21  C   UNL A   1      30.494  22.909  26.543  1.00  0.00     0.160 A 
ATOM     22  C   UNL A   1      31.540  22.073  26.965  1.00  0.00     0.058 A 
ATOM     23  C   UNL A   1      30.794  24.237  26.274  1.00  0.00     0.157 A 
ATOM     24  C   UNL A   1      32.094  24.713  26.478  1.00  0.00     0.050 A 
ATOM     25  C   UNL A   1      33.145  23.834  26.791  1.00  0.00     0.011 A 
BRANCH  21  26
ATOM     26  O   UNL A   1      29.286  22.272  26.496  1.00  0.00    -0.493 OA
ATOM     27  C   UNL A   1      28.448  22.279  27.640  1.00  0.00     0.278 C 
ENDBRANCH  21  26
BRANCH  23  28
ATOM     28  O   UNL A   1      29.887  25.147  25.814  1.00  0.00    -0.504 OA
ATOM     29  H   UNL A   1      30.101  26.058  25.806  1.00  0.00     0.293 HD
ENDBRANCH  23  28
ENDBRANCH  12  20
BRANCH  14  30
ATOM     30  C   UNL A   1      32.703  19.405  25.580  1.00  0.00     0.168 C 
BRANCH  30  31
ATOM     31  O   UNL A   1      32.645  18.241  26.379  1.00  0.00    -0.396 OA
ATOM     32  H   UNL A   1      32.249  17.518  25.869  1.00  0.00     0.210 HD
ENDBRANCH  30  31
ENDBRANCH  14  30
BRANCH  17  33
ATOM     33  O   UNL A   1      37.807  22.041  24.321  1.00  0.00    -0.493 OA
ATOM     34  C   UNL A   1      38.442  21.604  25.542  1.00  0.00     0.278 C 
ENDBRANCH  17  33
ENDBRANCH  10  11
ENDBRANCH   7   9
ENDBRANCH   6   7
ENDBRANCH   5   6
ENDBRANCH   4   5
ENDBRANCH   3   4
ENDBRANCH   2   3
ENDBRANCH   1   2
BRANCH   1  35
ATOM     35  O   UNL A   1      34.632  32.287  27.559  1.00  0.00    -0.377 OA
BRANCH  35  36
ATOM     36  C   UNL A   1      34.570  33.608  28.094  1.00  0.00     0.188 C 
BRANCH  36  37
ATOM     37  C   UNL A   1      35.171  33.988  29.469  1.00  0.00     0.188 C 
BRANCH  37  38
ATOM     38  O   UNL A   1      35.153  32.944  30.425  1.00  0.00    -0.376 OA
BRANCH  38  39
ATOM     39  C   UNL A   1      35.797  33.174  31.663  1.00  0.00     0.202 C 
BRANCH  39  40
ATOM     40  C   UNL A   1      35.649  32.073  32.720  1.00  0.00     0.261 C 
BRANCH  40  41
ATOM     41  O   UNL A   1      36.867  31.434  33.139  1.00  0.00    -0.460 OA
BRANCH  41  42
ATOM     42  C   UNL A   1      37.250  30.330  32.467  1.00  0.00     0.338 C 
ATOM     43  O   UNL A   1      36.608  29.304  32.299  1.00  0.00    -0.246 OA
BRANCH  42  44
ATOM     44  C   UNL A   1      38.533  30.634  31.802  1.00  0.00     0.060 A 
ATOM     45  C   UNL A   1      39.716  30.610  32.553  1.00  0.00     0.016 A 
ATOM     46  C   UNL A   1      38.566  30.928  30.438  1.00  0.00     0.016 A 
ATOM     47  C   UNL A   1      40.935  30.912  31.942  1.00  0.00     0.010 A 
ATOM     48  C   UNL A   1      39.782  31.249  29.832  1.00  0.00     0.010 A 
ATOM     49  C   UNL A   1      40.968  31.275  30.589  1.00  0.00    -0.014 A 
BRANCH  49  50
ATOM     50  C   UNL A   1      42.202  31.859  30.010  1.00  0.00     0.031 A 
ATOM     51  C   UNL A   1      43.282  30.924  29.537  1.00  0.00     0.074 A 
ATOM     52  C   UNL A   1      42.362  33.187  29.894  1.00  0.00     0.049 A 
ATOM     53  N   UNL A   1      44.463  31.194  29.043  1.00  0.00    -0.248 NA
ATOM     54  C   UNL A   1      42.986  29.487  29.643  1.00  0.00     0.031 C 
ATOM     55  C   UNL A   1      41.378  34.193  30.284  1.00  0.00     0.029 A 
ATOM     56  N   UNL A   1      43.426  33.917  29.422  1.00  0.00    -0.354 N 
ATOM     57  C   UNL A   1      45.054  29.962  28.790  1.00  0.00     0.074 A 
ATOM     58  C   UNL A   1      44.116  28.946  29.216  1.00  0.00     0.031 C 
ATOM     59  C   UNL A   1      41.889  35.414  30.050  1.00  0.00     0.029 A 
ATOM     60  C   UNL A   1      43.247  35.275  29.526  1.00  0.00     0.049 A 
ATOM     61  H   UNL A   1      44.237  33.507  29.047  1.00  0.00     0.167 HD
ATOM     62  C   UNL A   1      46.266  29.703  28.243  1.00  0.00     0.037 A 
ATOM     63  C   UNL A   1      44.097  36.285  29.252  1.00  0.00     0.037 A 
ATOM     64  C   UNL A   1      47.198  30.719  27.829  1.00  0.00     0.049 A 
ATOM     65  C   UNL A   1      45.470  35.972  28.714  1.00  0.00     0.074 A 
ATOM     66  C   UNL A   1      48.440  30.562  27.241  1.00  0.00     0.029 A 
ATOM     67  N   UNL A   1      46.995  32.085  27.977  1.00  0.00    -0.354 N 
ATOM     68  N   UNL A   1      46.011  34.810  28.441  1.00  0.00    -0.248 NA
ATOM     69  C   UNL A   1      46.352  37.117  28.442  1.00  0.00     0.031 C 
ATOM     70  C   UNL A   1      49.018  31.828  27.096  1.00  0.00     0.029 A 
ATOM     71  C   UNL A   1      48.106  32.779  27.524  1.00  0.00     0.049 A 
ATOM     72  H   UNL A   1      46.182  32.498  28.348  1.00  0.00     0.167 HD
ATOM     73  C   UNL A   1      47.279  35.081  27.941  1.00  0.00     0.074 A 
ATOM     74  C   UNL A   1      47.421  36.523  27.934  1.00  0.00     0.031 C 
ATOM     75  C   UNL A   1      48.237  34.216  27.522  1.00  0.00     0.037 A 
BRANCH  62  76
ATOM     76  C   UNL A   1      46.666  28.262  28.105  1.00  0.00     0.064 A 
ATOM     77  C   UNL A   1      47.379  27.588  29.109  1.00  0.00     0.173 A 
ATOM     78  C   UNL A   1      46.323  27.540  26.952  1.00  0.00     0.173 A 
ATOM     79  F   UNL A   1      47.745  28.233  30.228  1.00  0.00    -0.203 F 
ATOM     80  C   UNL A   1      47.768  26.260  28.945  1.00  0.00     0.198 A 
ATOM     81  C   UNL A   1      46.680  26.202  26.807  1.00  0.00     0.198 A 
ATOM     82  F   UNL A   1      45.638  28.132  25.961  1.00  0.00    -0.203 F 
ATOM     83  F   UNL A   1      48.503  25.658  29.890  1.00  0.00    -0.200 F 
ATOM     84  C   UNL A   1      47.412  25.567  27.799  1.00  0.00     0.200 A 
ATOM     85  F   UNL A   1      46.322  25.530  25.705  1.00  0.00    -0.200 F 
ATOM     86  F   UNL A   1      47.784  24.289  27.643  1.00  0.00    -0.200 F 
ENDBRANCH  62  76
BRANCH  63  87
ATOM     87  C   UNL A   1      43.673  37.691  29.491  1.00  0.00     0.064 A 
ATOM     88  C   UNL A   1      44.010  38.358  30.675  1.00  0.00     0.173 A 
ATOM     89  C   UNL A   1      42.916  38.393  28.540  1.00  0.00     0.173 A 
ATOM     90  F   UNL A   1      44.706  37.722  31.628  1.00  0.00    -0.203 F 
ATOM     91  C   UNL A   1      43.598  39.670  30.905  1.00  0.00     0.198 A 
ATOM     92  C   UNL A   1      42.532  39.714  28.758  1.00  0.00     0.198 A 
ATOM     93  F   UNL A   1      42.559  37.796  27.393  1.00  0.00    -0.203 F 
ATOM     94  F   UNL A   1      43.897  40.270  32.066  1.00  0.00    -0.200 F 
ATOM     95  C   UNL A   1      42.868  40.349  29.943  1.00  0.00     0.200 A 
ATOM     96  F   UNL A   1      41.834  40.370  27.820  1.00  0.00    -0.200 F 
ATOM     97  F   UNL A   1      42.480  41.614  30.161  1.00  0.00    -0.200 F 
ENDBRANCH  63  87
BRANCH  75  98
ATOM     98  C   UNL A   1      49.513  34.801  26.984  1.00  0.00     0.064 A 
ATOM     99  C   UNL A   1      50.632  35.019  27.801  1.00  0.00     0.173 A 
ATOM    100  C   UNL A   1      49.631  35.108  25.619  1.00  0.00     0.173 A 
ATOM    101  F   UNL A   1      50.572  34.755  29.114  1.00  0.00    -0.203 F 
ATOM    102  C   UNL A   1      51.809  35.552  27.278  1.00  0.00     0.198 A 
ATOM    103  C   UNL A   1      50.821  35.606  25.092  1.00  0.00     0.198 A 
ATOM    104  F   UNL A   1      48.596  34.910  24.787  1.00  0.00    -0.203 F 
ATOM    105  F   UNL A   1      52.847  35.804  28.088  1.00  0.00    -0.200 F 
ATOM    106  C   UNL A   1      51.905  35.836  25.924  1.00  0.00     0.200 A 
ATOM    107  F   UNL A   1      50.917  35.862  23.780  1.00  0.00    -0.200 F 
ATOM    108  F   UNL A   1      53.041  36.340  25.422  1.00  0.00    -0.200 F 
ENDBRANCH  75  98
ENDBRANCH  49  50
ENDBRANCH  42  44
ENDBRANCH  41  42
ENDBRANCH  40  41
ENDBRANCH  39  40
ENDBRANCH  38  39
ENDBRANCH  37  38
ENDBRANCH  36  37
ENDBRANCH  35  36
ENDBRANCH   1  35
TORSDOF 27
ENDMDL
MODEL 3
REMARK VINA RESULT:      -9.0      3.147      5.425
REMARK SMILES COc1cc([C@@H]2Oc3c(OC)cc(/C=C/C(=O)OCCOCCOCCOCCOC(=O)c4ccc(-c5c6nc(c(-c7c(F)c(F)c(F)c(F)c7F)c7ccc([nH]7)c(-c7c(F)c(F)c(F)c(F)c7F)c7nc(c(-c8c(F)c(F)c(F)c(F)c8F)c8ccc5[nH]8)C=C7)C=C6)cc4)cc3[C@@H]2CO)ccc1O
REMARK SMILES IDX 23 1 22 2 21 3 20 4 19 5 18 6 16 7 17 8 15 9 14 10 13 11
REMARK SMILES IDX 6 12 7 13 98 14 8 15 97 16 9 17 96 18 12 19 5 20 3 21 4 22
REMARK SMILES IDX 103 23 102 24 101 25 2 26 1 27 104 28 99 30 100 31 10 33
REMARK SMILES IDX 11 34 24 35 25 36 26 37 27 38 28 39 29 40 30 41 31 42 32 43
REMARK SMILES IDX 33 44 34 45 95 46 35 47 94 48 36 49 37 50 38 51 88 52 39 53
REMARK SMILES IDX 93 54 87 55 89 56 40 57 92 58 86 59 85 60 41 62 73 63 53 64
REMARK SMILES IDX 72 65 54 66 57 67 71 68 90 69 55 70 56 71 70 73 91 74 58 75
REMARK SMILES IDX 42 76 43 77 51 78 44 79 45 80 49 81 52 82 46 83 47 84 50 85
REMARK SMILES IDX 48 86 74 87 75 88 83 89 76 90 77 91 81 92 84 93 78 94 79 95
REMARK SMILES IDX 82 96 80 97 59 98 60 99 68 100 61 101 62 102 66 103 69 104
REMARK SMILES IDX 63 105 64 106 67 107 65 108
REMARK H PARENT 104 29 100 32 89 61 57 72
REMARK Flexibility Score: inf
ROOT
ATOM      1  C   UNL A   1      41.232  25.231  26.883  1.00  0.00     0.188 C 
ENDROOT
BRANCH   1   2
ATOM      2  C   UNL A   1      39.706  25.438  26.965  1.00  0.00     0.188 C 
BRANCH   2   3
ATOM      3  O   UNL A   1      38.974  24.663  26.031  1.00  0.00    -0.376 OA
BRANCH   3   4
ATOM      4  C   UNL A   1      37.890  23.876  26.488  1.00  0.00     0.202 C 
BRANCH   4   5
ATOM      5  C   UNL A   1      37.133  23.010  25.472  1.00  0.00     0.261 C 
BRANCH   5   6
ATOM      6  O   UNL A   1      36.053  22.226  25.999  1.00  0.00    -0.460 OA
BRANCH   6   7
ATOM      7  C   UNL A   1      34.945  22.103  25.232  1.00  0.00     0.330 C 
ATOM      8  O   UNL A   1      34.149  21.180  25.263  1.00  0.00    -0.247 OA
BRANCH   7   9
ATOM      9  C   UNL A   1      34.719  23.335  24.439  1.00  0.00     0.094 C 
ATOM     10  C   UNL A   1      33.914  23.355  23.369  1.00  0.00     0.016 C 
BRANCH  10  11
ATOM     11  C   UNL A   1      33.717  24.499  22.472  1.00  0.00    -0.021 A 
ATOM     12  C   UNL A   1      30.820  27.236  22.820  1.00  0.00     0.214 C 
ATOM     13  O   UNL A   1      30.861  26.449  21.532  1.00  0.00    -0.481 OA
ATOM     14  C   UNL A   1      32.156  27.998  22.718  1.00  0.00     0.094 C 
ATOM     15  C   UNL A   1      32.260  26.352  21.189  1.00  0.00     0.165 A 
ATOM     16  C   UNL A   1      32.952  26.797  22.295  1.00  0.00     0.008 A 
ATOM     17  C   UNL A   1      32.743  25.296  20.442  1.00  0.00     0.161 A 
ATOM     18  C   UNL A   1      33.605  25.801  23.022  1.00  0.00     0.016 A 
ATOM     19  C   UNL A   1      33.409  24.288  21.122  1.00  0.00     0.058 A 
BRANCH  12  20
ATOM     20  C   UNL A   1      30.689  26.381  24.102  1.00  0.00    -0.003 A 
ATOM     21  C   UNL A   1      31.315  26.198  26.486  1.00  0.00     0.160 A 
ATOM     22  C   UNL A   1      30.993  26.959  25.351  1.00  0.00     0.058 A 
ATOM     23  C   UNL A   1      31.145  24.823  26.415  1.00  0.00     0.157 A 
ATOM     24  C   UNL A   1      30.616  24.246  25.255  1.00  0.00     0.050 A 
ATOM     25  C   UNL A   1      30.408  25.013  24.096  1.00  0.00     0.011 A 
BRANCH  21  26
ATOM     26  O   UNL A   1      31.728  26.962  27.542  1.00  0.00    -0.493 OA
ATOM     27  C   UNL A   1      31.509  28.362  27.520  1.00  0.00     0.278 C 
ENDBRANCH  21  26
BRANCH  23  28
ATOM     28  O   UNL A   1      31.461  23.961  27.423  1.00  0.00    -0.504 OA
ATOM     29  H   UNL A   1      32.358  23.769  27.612  1.00  0.00     0.293 HD
ENDBRANCH  23  28
ENDBRANCH  12  20
BRANCH  14  30
ATOM     30  C   UNL A   1      32.679  29.056  23.675  1.00  0.00     0.168 C 
BRANCH  30  31
ATOM     31  O   UNL A   1      33.913  29.667  23.358  1.00  0.00    -0.396 OA
ATOM     32  H   UNL A   1      33.976  29.788  22.398  1.00  0.00     0.210 HD
ENDBRANCH  30  31
ENDBRANCH  14  30
BRANCH  17  33
ATOM     33  O   UNL A   1      32.940  25.389  19.085  1.00  0.00    -0.493 OA
ATOM     34  C   UNL A   1      31.686  25.325  18.374  1.00  0.00     0.278 C 
ENDBRANCH  17  33
ENDBRANCH  10  11
ENDBRANCH   7   9
ENDBRANCH   6   7
ENDBRANCH   5   6
ENDBRANCH   4   5
ENDBRANCH   3   4
ENDBRANCH   2   3
ENDBRANCH   1   2
BRANCH   1  35
ATOM     35  O   UNL A   1      41.749  23.926  27.105  1.00  0.00    -0.377 OA
BRANCH  35  36
ATOM     36  C   UNL A   1      41.208  23.099  28.133  1.00  0.00     0.188 C 
BRANCH  36  37
ATOM     37  C   UNL A   1      41.174  21.555  28.039  1.00  0.00     0.188 C 
BRANCH  37  38
ATOM     38  O   UNL A   1      42.339  20.975  27.481  1.00  0.00    -0.376 OA
BRANCH  38  39
ATOM     39  C   UNL A   1      42.382  20.805  26.078  1.00  0.00     0.202 C 
BRANCH  39  40
ATOM     40  C   UNL A   1      43.645  21.316  25.371  1.00  0.00     0.261 C 
BRANCH  40  41
ATOM     41  O   UNL A   1      44.305  22.432  25.991  1.00  0.00    -0.460 OA
BRANCH  41  42
ATOM     42  C   UNL A   1      45.652  22.464  25.936  1.00  0.00     0.338 C 
ATOM     43  O   UNL A   1      46.407  21.531  25.707  1.00  0.00    -0.246 OA
BRANCH  42  44
ATOM     44  C   UNL A   1      46.068  23.877  26.025  1.00  0.00     0.060 A 
ATOM     45  C   UNL A   1      45.887  24.717  24.917  1.00  0.00     0.016 A 
ATOM     46  C   UNL A   1      46.623  24.374  27.206  1.00  0.00     0.016 A 
ATOM     47  C   UNL A   1      46.292  26.051  24.980  1.00  0.00     0.010 A 
ATOM     48  C   UNL A   1      47.045  25.704  27.262  1.00  0.00     0.010 A 
ATOM     49  C   UNL A   1      46.911  26.540  26.138  1.00  0.00    -0.014 A 
BRANCH  49  50
ATOM     50  C   UNL A   1      47.586  27.861  26.115  1.00  0.00     0.031 A 
ATOM     51  C   UNL A   1      49.063  27.904  25.831  1.00  0.00     0.074 A 
ATOM     52  C   UNL A   1      46.906  28.999  26.328  1.00  0.00     0.049 A 
ATOM     53  N   UNL A   1      49.878  28.927  25.806  1.00  0.00    -0.248 NA
ATOM     54  C   UNL A   1      49.706  26.613  25.544  1.00  0.00     0.031 C 
ATOM     55  C   UNL A   1      45.471  29.090  26.579  1.00  0.00     0.029 A 
ATOM     56  N   UNL A   1      47.344  30.300  26.379  1.00  0.00    -0.354 N 
ATOM     57  C   UNL A   1      51.130  28.402  25.511  1.00  0.00     0.074 A 
ATOM     58  C   UNL A   1      50.973  26.967  25.400  1.00  0.00     0.031 C 
ATOM     59  C   UNL A   1      45.145  30.380  26.773  1.00  0.00     0.029 A 
ATOM     60  C   UNL A   1      46.354  31.199  26.694  1.00  0.00     0.049 A 
ATOM     61  H   UNL A   1      48.276  30.563  26.208  1.00  0.00     0.167 HD
ATOM     62  C   UNL A   1      52.302  29.058  25.339  1.00  0.00     0.037 A 
ATOM     63  C   UNL A   1      46.427  32.526  26.917  1.00  0.00     0.037 A 
ATOM     64  C   UNL A   1      52.454  30.484  25.460  1.00  0.00     0.049 A 
ATOM     65  C   UNL A   1      47.757  33.226  26.794  1.00  0.00     0.074 A 
ATOM     66  C   UNL A   1      53.592  31.249  25.279  1.00  0.00     0.029 A 
ATOM     67  N   UNL A   1      51.435  31.360  25.808  1.00  0.00    -0.354 N 
ATOM     68  N   UNL A   1      48.929  32.733  26.477  1.00  0.00    -0.248 NA
ATOM     69  C   UNL A   1      47.771  34.673  27.056  1.00  0.00     0.031 C 
ATOM     70  C   UNL A   1      53.280  32.577  25.587  1.00  0.00     0.029 A 
ATOM     71  C   UNL A   1      51.929  32.653  25.885  1.00  0.00     0.049 A 
ATOM     72  H   UNL A   1      50.500  31.101  25.976  1.00  0.00     0.167 HD
ATOM     73  C   UNL A   1      49.813  33.806  26.474  1.00  0.00     0.074 A 
ATOM     74  C   UNL A   1      49.035  34.983  26.806  1.00  0.00     0.031 C 
ATOM     75  C   UNL A   1      51.145  33.818  26.217  1.00  0.00     0.037 A 
BRANCH  62  76
ATOM     76  C   UNL A   1      53.520  28.228  25.046  1.00  0.00     0.064 A 
ATOM     77  C   UNL A   1      53.977  28.014  23.736  1.00  0.00     0.173 A 
ATOM     78  C   UNL A   1      54.247  27.644  26.094  1.00  0.00     0.173 A 
ATOM     79  F   UNL A   1      53.313  28.537  22.694  1.00  0.00    -0.203 F 
ATOM     80  C   UNL A   1      55.090  27.213  23.486  1.00  0.00     0.198 A 
ATOM     81  C   UNL A   1      55.380  26.875  25.844  1.00  0.00     0.198 A 
ATOM     82  F   UNL A   1      53.859  27.818  27.367  1.00  0.00    -0.203 F 
ATOM     83  F   UNL A   1      55.468  26.971  22.223  1.00  0.00    -0.200 F 
ATOM     84  C   UNL A   1      55.794  26.651  24.539  1.00  0.00     0.200 A 
ATOM     85  F   UNL A   1      56.069  26.345  26.864  1.00  0.00    -0.200 F 
ATOM     86  F   UNL A   1      56.865  25.884  24.298  1.00  0.00    -0.200 F 
ENDBRANCH  62  76
BRANCH  63  87
ATOM     87  C   UNL A   1      45.200  33.280  27.288  1.00  0.00     0.064 A 
ATOM     88  C   UNL A   1      44.759  33.339  28.616  1.00  0.00     0.173 A 
ATOM     89  C   UNL A   1      44.440  33.953  26.319  1.00  0.00     0.173 A 
ATOM     90  F   UNL A   1      45.432  32.688  29.575  1.00  0.00    -0.203 F 
ATOM     91  C   UNL A   1      43.599  34.031  28.960  1.00  0.00     0.198 A 
ATOM     92  C   UNL A   1      43.299  34.672  26.669  1.00  0.00     0.198 A 
ATOM     93  F   UNL A   1      44.814  33.921  25.031  1.00  0.00    -0.203 F 
ATOM     94  F   UNL A   1      43.175  34.034  30.232  1.00  0.00    -0.200 F 
ATOM     95  C   UNL A   1      42.876  34.705  27.988  1.00  0.00     0.200 A 
ATOM     96  F   UNL A   1      42.608  35.329  25.727  1.00  0.00    -0.200 F 
ATOM     97  F   UNL A   1      41.766  35.379  28.322  1.00  0.00    -0.200 F 
ENDBRANCH  63  87
BRANCH  75  98
ATOM     98  C   UNL A   1      51.846  35.148  26.245  1.00  0.00     0.064 A 
ATOM     99  C   UNL A   1      52.416  35.662  27.418  1.00  0.00     0.173 A 
ATOM    100  C   UNL A   1      51.985  35.900  25.067  1.00  0.00     0.173 A 
ATOM    101  F   UNL A   1      52.303  34.992  28.574  1.00  0.00    -0.203 F 
ATOM    102  C   UNL A   1      53.071  36.892  27.418  1.00  0.00     0.198 A 
ATOM    103  C   UNL A   1      52.673  37.111  25.063  1.00  0.00     0.198 A 
ATOM    104  F   UNL A   1      51.468  35.452  23.912  1.00  0.00    -0.203 F 
ATOM    105  F   UNL A   1      53.560  37.389  28.564  1.00  0.00    -0.200 F 
ATOM    106  C   UNL A   1      53.207  37.610  26.240  1.00  0.00     0.200 A 
ATOM    107  F   UNL A   1      52.818  37.794  23.919  1.00  0.00    -0.200 F 
ATOM    108  F   UNL A   1      53.845  38.788  26.241  1.00  0.00    -0.200 F 
ENDBRANCH  75  98
ENDBRANCH  49  50
ENDBRANCH  42  44
ENDBRANCH  41  42
ENDBRANCH  40  41
ENDBRANCH  39  40
ENDBRANCH  38  39
ENDBRANCH  37  38
ENDBRANCH  36  37
ENDBRANCH  35  36
ENDBRANCH   1  35
TORSDOF 27
ENDMDL
