MODEL 1
REMARK VINA RESULT:      -9.9      0.000      0.000
REMARK SMILES CC[C@@H]([NH3+])C(=O)N1CC[C@H](C(=O)OCCOCCOCCOCCOC(=O)c2ccc(-c3c4nc(c(-c5c(F)c(F)c(F)c(F)c5F)c5ccc([nH]5)c(-c5c(F)c(F)c(F)c(F)c5F)c5nc(c(-c6c(F)c(F)c(F)c(F)c6F)c6ccc3[nH]6)C=C5)C=C4)cc2)[C@@H]1C
REMARK SMILES IDX 18 1 17 2 16 3 15 4 14 5 13 6 11 7 12 8 10 9 7 10 8 11 91 12
REMARK SMILES IDX 9 13 92 14 5 15 6 16 3 17 2 18 1 19 4 20 19 24 20 25 21 26
REMARK SMILES IDX 22 27 23 28 24 29 25 30 26 31 27 32 28 33 29 34 90 35 30 36
REMARK SMILES IDX 89 37 31 38 32 39 33 40 83 41 34 42 88 43 82 44 84 45 35 46
REMARK SMILES IDX 87 47 81 48 80 49 36 51 68 52 48 53 67 54 49 55 52 56 66 57
REMARK SMILES IDX 85 58 50 59 51 60 65 62 86 63 53 64 37 65 38 66 46 67 39 68
REMARK SMILES IDX 40 69 44 70 47 71 41 72 42 73 45 74 43 75 69 76 70 77 78 78
REMARK SMILES IDX 71 79 72 80 76 81 79 82 73 83 74 84 77 85 75 86 54 87 55 88
REMARK SMILES IDX 63 89 56 90 57 91 61 92 64 93 58 94 59 95 62 96 60 97
REMARK H PARENT 4 21 4 22 4 23 84 50 52 61
REMARK Flexibility Score: inf
ROOT
ATOM      1  C   UNL A   1      41.339  20.594  27.224  1.00  0.00     0.188 C 
ENDROOT
BRANCH   1   2
ATOM      2  C   UNL A   1      40.414  21.528  26.412  1.00  0.00     0.188 C 
BRANCH   2   3
ATOM      3  O   UNL A   1      39.393  20.839  25.697  1.00  0.00    -0.376 OA
BRANCH   3   4
ATOM      4  C   UNL A   1      38.039  21.196  25.942  1.00  0.00     0.202 C 
BRANCH   4   5
ATOM      5  C   UNL A   1      36.977  20.668  24.963  1.00  0.00     0.261 C 
BRANCH   5   6
ATOM      6  O   UNL A   1      36.619  21.596  23.932  1.00  0.00    -0.463 OA
BRANCH   6   7
ATOM      7  C   UNL A   1      35.987  22.729  24.335  1.00  0.00     0.311 C 
ATOM      8  O   UNL A   1      36.352  23.846  24.008  1.00  0.00    -0.252 OA
BRANCH   7   9
ATOM      9  C   UNL A   1      34.678  22.346  25.024  1.00  0.00     0.123 C 
ATOM     10  N   UNL A   1      32.801  23.789  24.984  1.00  0.00    -0.334 N 
ATOM     11  C   UNL A   1      33.718  24.264  26.011  1.00  0.00     0.121 C 
ATOM     12  C   UNL A   1      33.344  22.612  24.317  1.00  0.00     0.096 C 
ATOM     13  C   UNL A   1      34.518  23.027  26.379  1.00  0.00     0.039 C 
ATOM     14  C   UNL A   1      33.465  22.730  22.803  1.00  0.00     0.032 C 
BRANCH  10  15
ATOM     15  C   UNL A   1      31.528  24.312  24.948  1.00  0.00     0.280 C 
ATOM     16  O   UNL A   1      30.940  24.414  23.861  1.00  0.00    -0.268 OA
BRANCH  15  17
ATOM     17  C   UNL A   1      30.916  25.044  26.186  1.00  0.00     0.270 C 
BRANCH  17  18
ATOM     18  C   UNL A   1      30.582  26.532  26.094  1.00  0.00     0.072 C 
ATOM     19  C   UNL A   1      31.788  27.439  25.882  1.00  0.00     0.011 C 
ENDBRANCH  17  18
BRANCH  17  20
ATOM     20  N   UNL A   1      29.741  24.257  26.629  1.00  0.00    -0.347 N 
ATOM     21  H   UNL A   1      30.027  23.295  26.815  1.00  0.00     0.345 HD
ATOM     22  H   UNL A   1      29.031  24.264  25.897  1.00  0.00     0.345 HD
ATOM     23  H   UNL A   1      29.358  24.668  27.480  1.00  0.00     0.345 HD
ENDBRANCH  17  20
ENDBRANCH  15  17
ENDBRANCH  10  15
ENDBRANCH   7   9
ENDBRANCH   6   7
ENDBRANCH   5   6
ENDBRANCH   4   5
ENDBRANCH   3   4
ENDBRANCH   2   3
ENDBRANCH   1   2
BRANCH   1  24
ATOM     24  O   UNL A   1      42.677  20.526  26.775  1.00  0.00    -0.377 OA
BRANCH  24  25
ATOM     25  C   UNL A   1      42.987  19.647  25.697  1.00  0.00     0.188 C 
BRANCH  25  26
ATOM     26  C   UNL A   1      44.434  19.401  25.194  1.00  0.00     0.188 C 
BRANCH  26  27
ATOM     27  O   UNL A   1      44.979  20.418  24.370  1.00  0.00    -0.376 OA
BRANCH  27  28
ATOM     28  C   UNL A   1      45.912  21.322  24.938  1.00  0.00     0.202 C 
BRANCH  28  29
ATOM     29  C   UNL A   1      45.373  22.310  25.981  1.00  0.00     0.261 C 
BRANCH  29  30
ATOM     30  O   UNL A   1      44.930  23.578  25.477  1.00  0.00    -0.460 OA
BRANCH  30  31
ATOM     31  C   UNL A   1      43.644  23.675  25.080  1.00  0.00     0.338 C 
ATOM     32  O   UNL A   1      43.054  22.954  24.293  1.00  0.00    -0.246 OA
BRANCH  31  33
ATOM     33  C   UNL A   1      43.001  24.706  25.920  1.00  0.00     0.060 A 
ATOM     34  C   UNL A   1      43.412  26.042  25.806  1.00  0.00     0.016 A 
ATOM     35  C   UNL A   1      41.968  24.351  26.789  1.00  0.00     0.016 A 
ATOM     36  C   UNL A   1      42.811  27.026  26.593  1.00  0.00     0.010 A 
ATOM     37  C   UNL A   1      41.391  25.329  27.599  1.00  0.00     0.010 A 
ATOM     38  C   UNL A   1      41.838  26.661  27.532  1.00  0.00    -0.014 A 
BRANCH  38  39
ATOM     39  C   UNL A   1      41.485  27.587  28.633  1.00  0.00     0.031 A 
ATOM     40  C   UNL A   1      42.284  27.480  29.902  1.00  0.00     0.074 A 
ATOM     41  C   UNL A   1      40.487  28.481  28.525  1.00  0.00     0.049 A 
ATOM     42  N   UNL A   1      42.090  28.051  31.062  1.00  0.00    -0.248 NA
ATOM     43  C   UNL A   1      43.461  26.595  29.858  1.00  0.00     0.031 C 
ATOM     44  C   UNL A   1      39.681  28.716  27.330  1.00  0.00     0.029 A 
ATOM     45  N   UNL A   1      39.967  29.343  29.459  1.00  0.00    -0.354 N 
ATOM     46  C   UNL A   1      43.112  27.589  31.881  1.00  0.00     0.074 A 
ATOM     47  C   UNL A   1      43.905  26.667  31.102  1.00  0.00     0.031 C 
ATOM     48  C   UNL A   1      38.745  29.640  27.613  1.00  0.00     0.029 A 
ATOM     49  C   UNL A   1      38.861  30.027  29.019  1.00  0.00     0.049 A 
ATOM     50  H   UNL A   1      40.351  29.459  30.360  1.00  0.00     0.167 HD
ATOM     51  C   UNL A   1      43.371  27.914  33.168  1.00  0.00     0.037 A 
ATOM     52  C   UNL A   1      38.020  30.837  29.693  1.00  0.00     0.037 A 
ATOM     53  C   UNL A   1      42.573  28.825  33.942  1.00  0.00     0.049 A 
ATOM     54  C   UNL A   1      38.275  31.111  31.158  1.00  0.00     0.074 A 
ATOM     55  C   UNL A   1      42.736  29.208  35.260  1.00  0.00     0.029 A 
ATOM     56  N   UNL A   1      41.459  29.495  33.461  1.00  0.00    -0.354 N 
ATOM     57  N   UNL A   1      39.243  30.673  31.929  1.00  0.00    -0.248 NA
ATOM     58  C   UNL A   1      37.322  31.992  31.848  1.00  0.00     0.031 C 
ATOM     59  C   UNL A   1      41.691  30.073  35.593  1.00  0.00     0.029 A 
ATOM     60  C   UNL A   1      40.917  30.281  34.462  1.00  0.00     0.049 A 
ATOM     61  H   UNL A   1      41.105  29.422  32.546  1.00  0.00     0.167 HD
ATOM     62  C   UNL A   1      39.041  31.263  33.173  1.00  0.00     0.074 A 
ATOM     63  C   UNL A   1      37.862  32.093  33.054  1.00  0.00     0.031 C 
ATOM     64  C   UNL A   1      39.767  31.134  34.310  1.00  0.00     0.037 A 
BRANCH  51  65
ATOM     65  C   UNL A   1      44.555  27.268  33.824  1.00  0.00     0.064 A 
ATOM     66  C   UNL A   1      44.435  26.061  34.528  1.00  0.00     0.173 A 
ATOM     67  C   UNL A   1      45.831  27.837  33.707  1.00  0.00     0.173 A 
ATOM     68  F   UNL A   1      43.232  25.486  34.685  1.00  0.00    -0.203 F 
ATOM     69  C   UNL A   1      45.549  25.453  35.102  1.00  0.00     0.198 A 
ATOM     70  C   UNL A   1      46.947  27.212  34.256  1.00  0.00     0.198 A 
ATOM     71  F   UNL A   1      45.999  28.993  33.047  1.00  0.00    -0.203 F 
ATOM     72  F   UNL A   1      45.405  24.320  35.803  1.00  0.00    -0.200 F 
ATOM     73  C   UNL A   1      46.804  26.024  34.956  1.00  0.00     0.200 A 
ATOM     74  F   UNL A   1      48.161  27.757  34.103  1.00  0.00    -0.200 F 
ATOM     75  F   UNL A   1      47.878  25.428  35.495  1.00  0.00    -0.200 F 
ENDBRANCH  51  65
BRANCH  52  76
ATOM     76  C   UNL A   1      36.830  31.426  29.018  1.00  0.00     0.064 A 
ATOM     77  C   UNL A   1      36.771  32.793  28.713  1.00  0.00     0.173 A 
ATOM     78  C   UNL A   1      35.699  30.648  28.728  1.00  0.00     0.173 A 
ATOM     79  F   UNL A   1      37.814  33.588  28.994  1.00  0.00    -0.203 F 
ATOM     80  C   UNL A   1      35.615  33.366  28.184  1.00  0.00     0.198 A 
ATOM     81  C   UNL A   1      34.557  31.215  28.164  1.00  0.00     0.198 A 
ATOM     82  F   UNL A   1      35.698  29.334  29.001  1.00  0.00    -0.203 F 
ATOM     83  F   UNL A   1      35.561  34.689  27.974  1.00  0.00    -0.200 F 
ATOM     84  C   UNL A   1      34.510  32.575  27.907  1.00  0.00     0.200 A 
ATOM     85  F   UNL A   1      33.496  30.444  27.889  1.00  0.00    -0.200 F 
ATOM     86  F   UNL A   1      33.395  33.128  27.410  1.00  0.00    -0.200 F 
ENDBRANCH  52  76
BRANCH  64  87
ATOM     87  C   UNL A   1      39.369  31.965  35.496  1.00  0.00     0.064 A 
ATOM     88  C   UNL A   1      39.791  33.292  35.651  1.00  0.00     0.173 A 
ATOM     89  C   UNL A   1      38.487  31.438  36.455  1.00  0.00     0.173 A 
ATOM     90  F   UNL A   1      40.640  33.839  34.768  1.00  0.00    -0.203 F 
ATOM     91  C   UNL A   1      39.361  34.056  36.733  1.00  0.00     0.198 A 
ATOM     92  C   UNL A   1      38.034  32.216  37.516  1.00  0.00     0.198 A 
ATOM     93  F   UNL A   1      38.045  30.177  36.346  1.00  0.00    -0.203 F 
ATOM     94  F   UNL A   1      39.809  35.310  36.886  1.00  0.00    -0.200 F 
ATOM     95  C   UNL A   1      38.476  33.521  37.658  1.00  0.00     0.200 A 
ATOM     96  F   UNL A   1      37.163  31.702  38.396  1.00  0.00    -0.200 F 
ATOM     97  F   UNL A   1      38.050  34.264  38.689  1.00  0.00    -0.200 F 
ENDBRANCH  64  87
ENDBRANCH  38  39
ENDBRANCH  31  33
ENDBRANCH  30  31
ENDBRANCH  29  30
ENDBRANCH  28  29
ENDBRANCH  27  28
ENDBRANCH  26  27
ENDBRANCH  25  26
ENDBRANCH  24  25
ENDBRANCH   1  24
TORSDOF 24
ENDMDL
MODEL 2
REMARK VINA RESULT:      -9.4      4.145      7.885
REMARK SMILES CC[C@@H]([NH3+])C(=O)N1CC[C@H](C(=O)OCCOCCOCCOCCOC(=O)c2ccc(-c3c4nc(c(-c5c(F)c(F)c(F)c(F)c5F)c5ccc([nH]5)c(-c5c(F)c(F)c(F)c(F)c5F)c5nc(c(-c6c(F)c(F)c(F)c(F)c6F)c6ccc3[nH]6)C=C5)C=C4)cc2)[C@@H]1C
REMARK SMILES IDX 18 1 17 2 16 3 15 4 14 5 13 6 11 7 12 8 10 9 7 10 8 11 91 12
REMARK SMILES IDX 9 13 92 14 5 15 6 16 3 17 2 18 1 19 4 20 19 24 20 25 21 26
REMARK SMILES IDX 22 27 23 28 24 29 25 30 26 31 27 32 28 33 29 34 90 35 30 36
REMARK SMILES IDX 89 37 31 38 32 39 33 40 83 41 34 42 88 43 82 44 84 45 35 46
REMARK SMILES IDX 87 47 81 48 80 49 36 51 68 52 48 53 67 54 49 55 52 56 66 57
REMARK SMILES IDX 85 58 50 59 51 60 65 62 86 63 53 64 37 65 38 66 46 67 39 68
REMARK SMILES IDX 40 69 44 70 47 71 41 72 42 73 45 74 43 75 69 76 70 77 78 78
REMARK SMILES IDX 71 79 72 80 76 81 79 82 73 83 74 84 77 85 75 86 54 87 55 88
REMARK SMILES IDX 63 89 56 90 57 91 61 92 64 93 58 94 59 95 62 96 60 97
REMARK H PARENT 4 21 4 22 4 23 84 50 52 61
REMARK Flexibility Score: inf
ROOT
ATOM      1  C   UNL A   1      45.695  18.501  25.322  1.00  0.00     0.188 C 
ENDROOT
BRANCH   1   2
ATOM      2  C   UNL A   1      46.121  19.885  24.782  1.00  0.00     0.188 C 
BRANCH   2   3
ATOM      3  O   UNL A   1      46.035  20.926  25.751  1.00  0.00    -0.376 OA
BRANCH   3   4
ATOM      4  C   UNL A   1      45.828  22.255  25.295  1.00  0.00     0.202 C 
BRANCH   4   5
ATOM      5  C   UNL A   1      45.765  23.368  26.356  1.00  0.00     0.261 C 
BRANCH   5   6
ATOM      6  O   UNL A   1      46.804  24.347  26.237  1.00  0.00    -0.463 OA
BRANCH   6   7
ATOM      7  C   UNL A   1      46.451  25.536  25.682  1.00  0.00     0.311 C 
ATOM      8  O   UNL A   1      45.365  25.731  25.162  1.00  0.00    -0.252 OA
BRANCH   7   9
ATOM      9  C   UNL A   1      47.513  26.578  26.031  1.00  0.00     0.123 C 
ATOM     10  N   UNL A   1      49.223  27.150  24.496  1.00  0.00    -0.334 N 
ATOM     11  C   UNL A   1      49.597  25.903  25.148  1.00  0.00     0.121 C 
ATOM     12  C   UNL A   1      47.930  27.616  24.982  1.00  0.00     0.096 C 
ATOM     13  C   UNL A   1      48.830  25.939  26.458  1.00  0.00     0.039 C 
ATOM     14  C   UNL A   1      46.883  27.848  23.900  1.00  0.00     0.032 C 
BRANCH  10  15
ATOM     15  C   UNL A   1      50.174  27.814  23.753  1.00  0.00     0.280 C 
ATOM     16  O   UNL A   1      50.743  28.805  24.232  1.00  0.00    -0.268 OA
BRANCH  15  17
ATOM     17  C   UNL A   1      50.349  27.533  22.224  1.00  0.00     0.270 C 
BRANCH  17  18
ATOM     18  C   UNL A   1      49.135  27.135  21.387  1.00  0.00     0.072 C 
ATOM     19  C   UNL A   1      49.404  26.039  20.364  1.00  0.00     0.011 C 
ENDBRANCH  17  18
BRANCH  17  20
ATOM     20  N   UNL A   1      51.046  28.702  21.638  1.00  0.00    -0.347 N 
ATOM     21  H   UNL A   1      50.640  28.919  20.727  1.00  0.00     0.345 HD
ATOM     22  H   UNL A   1      52.037  28.486  21.524  1.00  0.00     0.345 HD
ATOM     23  H   UNL A   1      50.942  29.506  22.257  1.00  0.00     0.345 HD
ENDBRANCH  17  20
ENDBRANCH  15  17
ENDBRANCH  10  15
ENDBRANCH   7   9
ENDBRANCH   6   7
ENDBRANCH   5   6
ENDBRANCH   4   5
ENDBRANCH   3   4
ENDBRANCH   2   3
ENDBRANCH   1   2
BRANCH   1  24
ATOM     24  O   UNL A   1      44.340  18.158  25.108  1.00  0.00    -0.377 OA
BRANCH  24  25
ATOM     25  C   UNL A   1      43.422  18.316  26.186  1.00  0.00     0.188 C 
BRANCH  25  26
ATOM     26  C   UNL A   1      42.386  19.469  26.254  1.00  0.00     0.188 C 
BRANCH  26  27
ATOM     27  O   UNL A   1      42.680  20.607  25.461  1.00  0.00    -0.376 OA
BRANCH  27  28
ATOM     28  C   UNL A   1      42.389  21.891  25.984  1.00  0.00     0.202 C 
BRANCH  28  29
ATOM     29  C   UNL A   1      41.846  21.949  27.418  1.00  0.00     0.261 C 
BRANCH  29  30
ATOM     30  O   UNL A   1      40.417  21.951  27.551  1.00  0.00    -0.460 OA
BRANCH  30  31
ATOM     31  C   UNL A   1      39.710  22.670  26.654  1.00  0.00     0.338 C 
ATOM     32  O   UNL A   1      39.014  22.246  25.747  1.00  0.00    -0.246 OA
BRANCH  31  33
ATOM     33  C   UNL A   1      39.768  24.083  27.080  1.00  0.00     0.060 A 
ATOM     34  C   UNL A   1      40.320  25.042  26.218  1.00  0.00     0.016 A 
ATOM     35  C   UNL A   1      39.240  24.459  28.316  1.00  0.00     0.016 A 
ATOM     36  C   UNL A   1      40.379  26.380  26.608  1.00  0.00     0.010 A 
ATOM     37  C   UNL A   1      39.330  25.791  28.720  1.00  0.00     0.010 A 
ATOM     38  C   UNL A   1      39.935  26.747  27.885  1.00  0.00    -0.014 A 
BRANCH  38  39
ATOM     39  C   UNL A   1      40.346  28.045  28.468  1.00  0.00     0.031 A 
ATOM     40  C   UNL A   1      41.794  28.201  28.844  1.00  0.00     0.074 A 
ATOM     41  C   UNL A   1      39.474  29.047  28.675  1.00  0.00     0.049 A 
ATOM     42  N   UNL A   1      42.387  29.159  29.506  1.00  0.00    -0.248 NA
ATOM     43  C   UNL A   1      42.696  27.116  28.419  1.00  0.00     0.031 C 
ATOM     44  C   UNL A   1      38.062  29.035  28.302  1.00  0.00     0.029 A 
ATOM     45  N   UNL A   1      39.654  30.266  29.279  1.00  0.00    -0.354 N 
ATOM     46  C   UNL A   1      43.722  28.788  29.583  1.00  0.00     0.074 A 
ATOM     47  C   UNL A   1      43.852  27.505  28.932  1.00  0.00     0.031 C 
ATOM     48  C   UNL A   1      37.494  30.183  28.715  1.00  0.00     0.029 A 
ATOM     49  C   UNL A   1      38.494  30.988  29.418  1.00  0.00     0.049 A 
ATOM     50  H   UNL A   1      40.533  30.593  29.585  1.00  0.00     0.167 HD
ATOM     51  C   UNL A   1      44.753  29.463  30.141  1.00  0.00     0.037 A 
ATOM     52  C   UNL A   1      38.267  32.143  30.075  1.00  0.00     0.037 A 
ATOM     53  C   UNL A   1      44.617  30.735  30.796  1.00  0.00     0.049 A 
ATOM     54  C   UNL A   1      39.417  32.833  30.773  1.00  0.00     0.074 A 
ATOM     55  C   UNL A   1      45.594  31.496  31.412  1.00  0.00     0.029 A 
ATOM     56  N   UNL A   1      43.425  31.431  30.919  1.00  0.00    -0.354 N 
ATOM     57  N   UNL A   1      40.679  32.480  30.844  1.00  0.00    -0.248 NA
ATOM     58  C   UNL A   1      39.112  34.083  31.484  1.00  0.00     0.031 C 
ATOM     59  C   UNL A   1      44.983  32.631  31.951  1.00  0.00     0.029 A 
ATOM     60  C   UNL A   1      43.640  32.609  31.612  1.00  0.00     0.049 A 
ATOM     61  H   UNL A   1      42.556  31.132  30.567  1.00  0.00     0.167 HD
ATOM     62  C   UNL A   1      41.321  33.485  31.559  1.00  0.00     0.074 A 
ATOM     63  C   UNL A   1      40.312  34.464  31.899  1.00  0.00     0.031 C 
ATOM     64  C   UNL A   1      42.628  33.591  31.902  1.00  0.00     0.037 A 
BRANCH  51  65
ATOM     65  C   UNL A   1      46.113  28.834  30.080  1.00  0.00     0.064 A 
ATOM     66  C   UNL A   1      47.008  29.122  29.040  1.00  0.00     0.173 A 
ATOM     67  C   UNL A   1      46.543  27.971  31.099  1.00  0.00     0.173 A 
ATOM     68  F   UNL A   1      46.637  29.925  28.031  1.00  0.00    -0.203 F 
ATOM     69  C   UNL A   1      48.282  28.558  29.015  1.00  0.00     0.198 A 
ATOM     70  C   UNL A   1      47.827  27.435  31.088  1.00  0.00     0.198 A 
ATOM     71  F   UNL A   1      45.724  27.662  32.115  1.00  0.00    -0.203 F 
ATOM     72  F   UNL A   1      49.107  28.816  27.992  1.00  0.00    -0.200 F 
ATOM     73  C   UNL A   1      48.693  27.724  30.044  1.00  0.00     0.200 A 
ATOM     74  F   UNL A   1      48.228  26.639  32.089  1.00  0.00    -0.200 F 
ATOM     75  F   UNL A   1      49.925  27.197  30.028  1.00  0.00    -0.200 F 
ENDBRANCH  51  65
BRANCH  52  76
ATOM     76  C   UNL A   1      36.894  32.715  30.150  1.00  0.00     0.064 A 
ATOM     77  C   UNL A   1      36.382  33.511  29.115  1.00  0.00     0.173 A 
ATOM     78  C   UNL A   1      36.092  32.538  31.287  1.00  0.00     0.173 A 
ATOM     79  F   UNL A   1      37.118  33.735  28.016  1.00  0.00    -0.203 F 
ATOM     80  C   UNL A   1      35.143  34.139  29.232  1.00  0.00     0.198 A 
ATOM     81  C   UNL A   1      34.837  33.136  31.388  1.00  0.00     0.198 A 
ATOM     82  F   UNL A   1      36.531  31.789  32.310  1.00  0.00    -0.203 F 
ATOM     83  F   UNL A   1      34.713  34.955  28.259  1.00  0.00    -0.200 F 
ATOM     84  C   UNL A   1      34.370  33.948  30.367  1.00  0.00     0.200 A 
ATOM     85  F   UNL A   1      34.090  32.939  32.482  1.00  0.00    -0.200 F 
ATOM     86  F   UNL A   1      33.184  34.562  30.484  1.00  0.00    -0.200 F 
ENDBRANCH  52  76
BRANCH  64  87
ATOM     87  C   UNL A   1      43.069  34.841  32.608  1.00  0.00     0.064 A 
ATOM     88  C   UNL A   1      43.442  35.999  31.912  1.00  0.00     0.173 A 
ATOM     89  C   UNL A   1      43.045  34.898  34.012  1.00  0.00     0.173 A 
ATOM     90  F   UNL A   1      43.491  35.994  30.571  1.00  0.00    -0.203 F 
ATOM     91  C   UNL A   1      43.795  37.160  32.594  1.00  0.00     0.198 A 
ATOM     92  C   UNL A   1      43.365  36.070  34.689  1.00  0.00     0.198 A 
ATOM     93  F   UNL A   1      42.684  33.820  34.725  1.00  0.00    -0.203 F 
ATOM     94  F   UNL A   1      44.189  38.244  31.910  1.00  0.00    -0.200 F 
ATOM     95  C   UNL A   1      43.746  37.199  33.980  1.00  0.00     0.200 A 
ATOM     96  F   UNL A   1      43.297  36.109  36.027  1.00  0.00    -0.200 F 
ATOM     97  F   UNL A   1      44.069  38.323  34.634  1.00  0.00    -0.200 F 
ENDBRANCH  64  87
ENDBRANCH  38  39
ENDBRANCH  31  33
ENDBRANCH  30  31
ENDBRANCH  29  30
ENDBRANCH  28  29
ENDBRANCH  27  28
ENDBRANCH  26  27
ENDBRANCH  25  26
ENDBRANCH  24  25
ENDBRANCH   1  24
TORSDOF 24
ENDMDL
MODEL 3
REMARK VINA RESULT:      -9.3      3.782      6.614
REMARK SMILES CC[C@@H]([NH3+])C(=O)N1CC[C@H](C(=O)OCCOCCOCCOCCOC(=O)c2ccc(-c3c4nc(c(-c5c(F)c(F)c(F)c(F)c5F)c5ccc([nH]5)c(-c5c(F)c(F)c(F)c(F)c5F)c5nc(c(-c6c(F)c(F)c(F)c(F)c6F)c6ccc3[nH]6)C=C5)C=C4)cc2)[C@@H]1C
REMARK SMILES IDX 18 1 17 2 16 3 15 4 14 5 13 6 11 7 12 8 10 9 7 10 8 11 91 12
REMARK SMILES IDX 9 13 92 14 5 15 6 16 3 17 2 18 1 19 4 20 19 24 20 25 21 26
REMARK SMILES IDX 22 27 23 28 24 29 25 30 26 31 27 32 28 33 29 34 90 35 30 36
REMARK SMILES IDX 89 37 31 38 32 39 33 40 83 41 34 42 88 43 82 44 84 45 35 46
REMARK SMILES IDX 87 47 81 48 80 49 36 51 68 52 48 53 67 54 49 55 52 56 66 57
REMARK SMILES IDX 85 58 50 59 51 60 65 62 86 63 53 64 37 65 38 66 46 67 39 68
REMARK SMILES IDX 40 69 44 70 47 71 41 72 42 73 45 74 43 75 69 76 70 77 78 78
REMARK SMILES IDX 71 79 72 80 76 81 79 82 73 83 74 84 77 85 75 86 54 87 55 88
REMARK SMILES IDX 63 89 56 90 57 91 61 92 64 93 58 94 59 95 62 96 60 97
REMARK H PARENT 4 21 4 22 4 23 84 50 52 61
REMARK Flexibility Score: inf
ROOT
ATOM      1  C   UNL A   1      45.613  18.719  25.462  1.00  0.00     0.188 C 
ENDROOT
BRANCH   1   2
ATOM      2  C   UNL A   1      46.310  19.825  24.638  1.00  0.00     0.188 C 
BRANCH   2   3
ATOM      3  O   UNL A   1      46.373  21.081  25.307  1.00  0.00    -0.376 OA
BRANCH   3   4
ATOM      4  C   UNL A   1      46.035  22.251  24.576  1.00  0.00     0.202 C 
BRANCH   4   5
ATOM      5  C   UNL A   1      46.438  23.607  25.181  1.00  0.00     0.261 C 
BRANCH   5   6
ATOM      6  O   UNL A   1      45.356  24.319  25.792  1.00  0.00    -0.463 OA
BRANCH   6   7
ATOM      7  C   UNL A   1      45.265  24.232  27.145  1.00  0.00     0.311 C 
ATOM      8  O   UNL A   1      45.325  23.174  27.749  1.00  0.00    -0.252 OA
BRANCH   7   9
ATOM      9  C   UNL A   1      45.319  25.641  27.735  1.00  0.00     0.123 C 
ATOM     10  N   UNL A   1      46.030  27.489  26.435  1.00  0.00    -0.334 N 
ATOM     11  C   UNL A   1      47.213  26.773  26.893  1.00  0.00     0.121 C 
ATOM     12  C   UNL A   1      44.818  26.829  26.905  1.00  0.00     0.096 C 
ATOM     13  C   UNL A   1      46.734  26.045  28.136  1.00  0.00     0.039 C 
ATOM     14  C   UNL A   1      43.833  26.439  25.810  1.00  0.00     0.032 C 
BRANCH  10  15
ATOM     15  C   UNL A   1      46.192  28.738  25.879  1.00  0.00     0.280 C 
ATOM     16  O   UNL A   1      46.652  28.842  24.733  1.00  0.00    -0.268 OA
BRANCH  15  17
ATOM     17  C   UNL A   1      46.086  30.033  26.749  1.00  0.00     0.270 C 
BRANCH  17  18
ATOM     18  C   UNL A   1      47.354  30.808  27.105  1.00  0.00     0.072 C 
ATOM     19  C   UNL A   1      47.383  32.243  26.593  1.00  0.00     0.011 C 
ENDBRANCH  17  18
BRANCH  17  20
ATOM     20  N   UNL A   1      45.080  30.914  26.111  1.00  0.00    -0.347 N 
ATOM     21  H   UNL A   1      44.894  31.714  26.717  1.00  0.00     0.345 HD
ATOM     22  H   UNL A   1      44.215  30.392  25.965  1.00  0.00     0.345 HD
ATOM     23  H   UNL A   1      45.435  31.242  25.214  1.00  0.00     0.345 HD
ENDBRANCH  17  20
ENDBRANCH  15  17
ENDBRANCH  10  15
ENDBRANCH   7   9
ENDBRANCH   6   7
ENDBRANCH   5   6
ENDBRANCH   4   5
ENDBRANCH   3   4
ENDBRANCH   2   3
ENDBRANCH   1   2
BRANCH   1  24
ATOM     24  O   UNL A   1      44.366  18.282  24.958  1.00  0.00    -0.377 OA
BRANCH  24  25
ATOM     25  C   UNL A   1      43.223  18.371  25.804  1.00  0.00     0.188 C 
BRANCH  25  26
ATOM     26  C   UNL A   1      42.349  19.648  25.916  1.00  0.00     0.188 C 
BRANCH  26  27
ATOM     27  O   UNL A   1      42.983  20.860  25.541  1.00  0.00    -0.376 OA
BRANCH  27  28
ATOM     28  C   UNL A   1      42.274  22.075  25.711  1.00  0.00     0.202 C 
BRANCH  28  29
ATOM     29  C   UNL A   1      41.868  22.448  27.143  1.00  0.00     0.261 C 
BRANCH  29  30
ATOM     30  O   UNL A   1      40.470  22.348  27.447  1.00  0.00    -0.460 OA
BRANCH  30  31
ATOM     31  C   UNL A   1      39.621  23.113  26.728  1.00  0.00     0.338 C 
ATOM     32  O   UNL A   1      38.838  22.745  25.868  1.00  0.00    -0.246 OA
BRANCH  31  33
ATOM     33  C   UNL A   1      39.661  24.473  27.303  1.00  0.00     0.060 A 
ATOM     34  C   UNL A   1      40.238  25.517  26.565  1.00  0.00     0.016 A 
ATOM     35  C   UNL A   1      39.093  24.717  28.554  1.00  0.00     0.016 A 
ATOM     36  C   UNL A   1      40.281  26.807  27.096  1.00  0.00     0.010 A 
ATOM     37  C   UNL A   1      39.166  25.999  29.099  1.00  0.00     0.010 A 
ATOM     38  C   UNL A   1      39.795  27.037  28.389  1.00  0.00    -0.014 A 
BRANCH  38  39
ATOM     39  C   UNL A   1      40.183  28.266  29.119  1.00  0.00     0.031 A 
ATOM     40  C   UNL A   1      41.543  28.281  29.762  1.00  0.00     0.074 A 
ATOM     41  C   UNL A   1      39.364  29.326  29.226  1.00  0.00     0.049 A 
ATOM     42  N   UNL A   1      42.071  29.153  30.581  1.00  0.00    -0.248 NA
ATOM     43  C   UNL A   1      42.427  27.146  29.441  1.00  0.00     0.031 C 
ATOM     44  C   UNL A   1      38.050  29.452  28.601  1.00  0.00     0.029 A 
ATOM     45  N   UNL A   1      39.517  30.495  29.930  1.00  0.00    -0.354 N 
ATOM     46  C   UNL A   1      43.337  28.668  30.877  1.00  0.00     0.074 A 
ATOM     47  C   UNL A   1      43.492  27.412  30.180  1.00  0.00     0.031 C 
ATOM     48  C   UNL A   1      37.501  30.621  28.976  1.00  0.00     0.029 A 
ATOM     49  C   UNL A   1      38.408  31.304  29.900  1.00  0.00     0.049 A 
ATOM     50  H   UNL A   1      40.345  30.731  30.411  1.00  0.00     0.167 HD
ATOM     51  C   UNL A   1      44.292  29.226  31.655  1.00  0.00     0.037 A 
ATOM     52  C   UNL A   1      38.147  32.440  30.576  1.00  0.00     0.037 A 
ATOM     53  C   UNL A   1      44.129  30.471  32.355  1.00  0.00     0.049 A 
ATOM     54  C   UNL A   1      39.194  32.996  31.515  1.00  0.00     0.074 A 
ATOM     55  C   UNL A   1      45.027  31.116  33.186  1.00  0.00     0.029 A 
ATOM     56  N   UNL A   1      42.990  31.258  32.301  1.00  0.00    -0.354 N 
ATOM     57  N   UNL A   1      40.391  32.536  31.792  1.00  0.00    -0.248 NA
ATOM     58  C   UNL A   1      38.854  34.232  32.236  1.00  0.00     0.031 C 
ATOM     59  C   UNL A   1      44.411  32.271  33.675  1.00  0.00     0.029 A 
ATOM     60  C   UNL A   1      43.157  32.378  33.095  1.00  0.00     0.049 A 
ATOM     61  H   UNL A   1      42.182  31.051  31.778  1.00  0.00     0.167 HD
ATOM     62  C   UNL A   1      40.959  33.448  32.675  1.00  0.00     0.074 A 
ATOM     63  C   UNL A   1      39.979  34.490  32.887  1.00  0.00     0.031 C 
ATOM     64  C   UNL A   1      42.183  33.427  33.257  1.00  0.00     0.037 A 
BRANCH  51  65
ATOM     65  C   UNL A   1      45.589  28.488  31.804  1.00  0.00     0.064 A 
ATOM     66  C   UNL A   1      45.733  27.438  32.724  1.00  0.00     0.173 A 
ATOM     67  C   UNL A   1      46.684  28.801  30.986  1.00  0.00     0.173 A 
ATOM     68  F   UNL A   1      44.722  27.114  33.543  1.00  0.00    -0.203 F 
ATOM     69  C   UNL A   1      46.933  26.738  32.827  1.00  0.00     0.198 A 
ATOM     70  C   UNL A   1      47.870  28.078  31.070  1.00  0.00     0.198 A 
ATOM     71  F   UNL A   1      46.598  29.798  30.092  1.00  0.00    -0.203 F 
ATOM     72  F   UNL A   1      47.061  25.764  33.739  1.00  0.00    -0.200 F 
ATOM     73  C   UNL A   1      47.995  27.052  31.993  1.00  0.00     0.200 A 
ATOM     74  F   UNL A   1      48.892  28.374  30.254  1.00  0.00    -0.200 F 
ATOM     75  F   UNL A   1      49.142  26.364  32.081  1.00  0.00    -0.200 F 
ENDBRANCH  51  65
BRANCH  52  76
ATOM     76  C   UNL A   1      36.830  33.122  30.435  1.00  0.00     0.064 A 
ATOM     77  C   UNL A   1      35.854  33.028  31.437  1.00  0.00     0.173 A 
ATOM     78  C   UNL A   1      36.494  33.821  29.266  1.00  0.00     0.173 A 
ATOM     79  F   UNL A   1      36.113  32.349  32.564  1.00  0.00    -0.203 F 
ATOM     80  C   UNL A   1      34.582  33.570  31.259  1.00  0.00     0.198 A 
ATOM     81  C   UNL A   1      35.234  34.395  29.104  1.00  0.00     0.198 A 
ATOM     82  F   UNL A   1      37.388  33.940  28.273  1.00  0.00    -0.203 F 
ATOM     83  F   UNL A   1      33.644  33.399  32.202  1.00  0.00    -0.200 F 
ATOM     84  C   UNL A   1      34.274  34.256  30.094  1.00  0.00     0.200 A 
ATOM     85  F   UNL A   1      34.946  35.066  27.981  1.00  0.00    -0.200 F 
ATOM     86  F   UNL A   1      33.048  34.767  29.918  1.00  0.00    -0.200 F 
ENDBRANCH  52  76
BRANCH  64  87
ATOM     87  C   UNL A   1      42.575  34.599  34.110  1.00  0.00     0.064 A 
ATOM     88  C   UNL A   1      43.100  35.778  33.562  1.00  0.00     0.173 A 
ATOM     89  C   UNL A   1      42.350  34.562  35.497  1.00  0.00     0.173 A 
ATOM     90  F   UNL A   1      43.342  35.861  32.246  1.00  0.00    -0.203 F 
ATOM     91  C   UNL A   1      43.403  36.869  34.373  1.00  0.00     0.198 A 
ATOM     92  C   UNL A   1      42.623  35.667  36.298  1.00  0.00     0.198 A 
ATOM     93  F   UNL A   1      41.839  33.462  36.070  1.00  0.00    -0.203 F 
ATOM     94  F   UNL A   1      43.943  37.972  33.834  1.00  0.00    -0.200 F 
ATOM     95  C   UNL A   1      43.154  36.817  35.736  1.00  0.00     0.200 A 
ATOM     96  F   UNL A   1      42.363  35.619  37.612  1.00  0.00    -0.200 F 
ATOM     97  F   UNL A   1      43.432  37.874  36.511  1.00  0.00    -0.200 F 
ENDBRANCH  64  87
ENDBRANCH  38  39
ENDBRANCH  31  33
ENDBRANCH  30  31
ENDBRANCH  29  30
ENDBRANCH  28  29
ENDBRANCH  27  28
ENDBRANCH  26  27
ENDBRANCH  25  26
ENDBRANCH  24  25
ENDBRANCH   1  24
TORSDOF 24
ENDMDL
