MODEL 1
REMARK VINA RESULT:      -6.7      0.000      0.000
REMARK SMILES C[C@@H](CCO)Sc1cc(C(=O)OCCOCCOCCOCCOC(=O)c2ccc(-c3c4nc(c(-c5c(F)c(F)c(F)c(F)c5F)c5ccc([nH]5)c(-c5c(F)c(F)c(F)c(F)c5F)c5nc(c(-c6c(F)c(F)c(F)c(F)c6F)c6ccc3[nH]6)C=C5)C=C4)cc2)c2ccccc2n1
REMARK SMILES IDX 16 1 15 2 14 3 13 4 12 5 10 6 11 7 9 8 7 9 8 10 96 11 95 12
REMARK SMILES IDX 90 13 94 14 91 15 93 16 92 17 6 18 2 19 1 20 3 21 4 22 5 23
REMARK SMILES IDX 17 25 18 26 19 27 20 28 21 29 22 30 23 31 24 32 25 33 26 34
REMARK SMILES IDX 27 35 28 36 89 37 29 38 88 39 30 40 31 41 32 42 82 43 33 44
REMARK SMILES IDX 87 45 81 46 83 47 34 48 86 49 80 50 79 51 35 53 67 54 47 55
REMARK SMILES IDX 66 56 48 57 51 58 65 59 84 60 49 61 50 62 64 64 85 65 52 66
REMARK SMILES IDX 36 67 37 68 45 69 38 70 39 71 43 72 46 73 40 74 41 75 44 76
REMARK SMILES IDX 42 77 68 78 69 79 77 80 70 81 71 82 75 83 78 84 72 85 73 86
REMARK SMILES IDX 76 87 74 88 53 89 54 90 62 91 55 92 56 93 60 94 63 95 57 96
REMARK SMILES IDX 58 97 61 98 59 99
REMARK H PARENT 5 24 83 52 51 63
REMARK Flexibility Score: inf
ROOT
ATOM      1  C   UNL A   1      47.316  33.960  25.849  1.00  0.00     0.188 C 
ENDROOT
BRANCH   1   2
ATOM      2  O   UNL A   1      45.983  33.458  25.746  1.00  0.00    -0.376 OA
BRANCH   2   3
ATOM      3  C   UNL A   1      45.707  32.218  26.378  1.00  0.00     0.202 C 
BRANCH   3   4
ATOM      4  C   UNL A   1      44.217  31.858  26.424  1.00  0.00     0.261 C 
BRANCH   4   5
ATOM      5  O   UNL A   1      43.964  30.482  26.750  1.00  0.00    -0.460 OA
BRANCH   5   6
ATOM      6  C   UNL A   1      43.576  30.237  28.016  1.00  0.00     0.338 C 
ATOM      7  O   UNL A   1      43.290  31.070  28.861  1.00  0.00    -0.246 OA
BRANCH   6   8
ATOM      8  C   UNL A   1      43.314  28.795  28.205  1.00  0.00     0.072 A 
ATOM      9  C   UNL A   1      44.374  26.655  28.202  1.00  0.00     0.098 A 
ATOM     10  C   UNL A   1      44.464  28.020  28.219  1.00  0.00     0.052 A 
ATOM     11  N   UNL A   1      43.181  26.031  28.215  1.00  0.00    -0.241 NA
ATOM     12  C   UNL A   1      42.054  26.773  28.291  1.00  0.00     0.072 A 
ATOM     13  C   UNL A   1      42.058  28.187  28.321  1.00  0.00     0.015 A 
ATOM     14  C   UNL A   1      40.827  26.123  28.348  1.00  0.00     0.029 A 
ATOM     15  C   UNL A   1      40.842  28.890  28.477  1.00  0.00     0.011 A 
ATOM     16  C   UNL A   1      39.624  26.820  28.494  1.00  0.00     0.002 A 
ATOM     17  C   UNL A   1      39.633  28.206  28.581  1.00  0.00     0.001 A 
BRANCH   9  18
ATOM     18  S   UNL A   1      45.856  25.666  28.259  1.00  0.00    -0.103 SA
BRANCH  18  19
ATOM     19  C   UNL A   1      45.892  24.779  26.633  1.00  0.00     0.052 C 
ATOM     20  C   UNL A   1      45.428  23.326  26.682  1.00  0.00     0.020 C 
BRANCH  19  21
ATOM     21  C   UNL A   1      45.346  25.570  25.419  1.00  0.00     0.043 C 
BRANCH  21  22
ATOM     22  C   UNL A   1      46.075  26.837  24.983  1.00  0.00     0.157 C 
BRANCH  22  23
ATOM     23  O   UNL A   1      45.179  27.828  24.485  1.00  0.00    -0.396 OA
ATOM     24  H   UNL A   1      45.252  27.873  23.520  1.00  0.00     0.210 HD
ENDBRANCH  22  23
ENDBRANCH  21  22
ENDBRANCH  19  21
ENDBRANCH  18  19
ENDBRANCH   9  18
ENDBRANCH   6   8
ENDBRANCH   5   6
ENDBRANCH   4   5
ENDBRANCH   3   4
ENDBRANCH   2   3
ENDBRANCH   1   2
BRANCH   1  25
ATOM     25  C   UNL A   1      47.383  35.497  25.753  1.00  0.00     0.188 C 
BRANCH  25  26
ATOM     26  O   UNL A   1      48.674  36.091  25.798  1.00  0.00    -0.377 OA
BRANCH  26  27
ATOM     27  C   UNL A   1      48.669  37.512  25.871  1.00  0.00     0.188 C 
BRANCH  27  28
ATOM     28  C   UNL A   1      47.284  38.101  25.555  1.00  0.00     0.188 C 
BRANCH  28  29
ATOM     29  O   UNL A   1      47.002  39.405  26.022  1.00  0.00    -0.376 OA
BRANCH  29  30
ATOM     30  C   UNL A   1      46.271  40.343  25.251  1.00  0.00     0.202 C 
BRANCH  30  31
ATOM     31  C   UNL A   1      44.910  40.981  25.611  1.00  0.00     0.261 C 
BRANCH  31  32
ATOM     32  O   UNL A   1      44.362  40.777  26.912  1.00  0.00    -0.460 OA
BRANCH  32  33
ATOM     33  C   UNL A   1      43.074  40.395  27.014  1.00  0.00     0.338 C 
ATOM     34  O   UNL A   1      42.089  40.964  26.580  1.00  0.00    -0.246 OA
BRANCH  33  35
ATOM     35  C   UNL A   1      43.098  39.029  27.588  1.00  0.00     0.060 A 
ATOM     36  C   UNL A   1      43.382  38.868  28.951  1.00  0.00     0.016 A 
ATOM     37  C   UNL A   1      42.750  37.924  26.804  1.00  0.00     0.016 A 
ATOM     38  C   UNL A   1      43.313  37.604  29.536  1.00  0.00     0.010 A 
ATOM     39  C   UNL A   1      42.720  36.654  27.382  1.00  0.00     0.010 A 
ATOM     40  C   UNL A   1      43.015  36.486  28.745  1.00  0.00    -0.014 A 
BRANCH  40  41
ATOM     41  C   UNL A   1      43.203  35.122  29.288  1.00  0.00     0.031 A 
ATOM     42  C   UNL A   1      41.982  34.364  29.721  1.00  0.00     0.074 A 
ATOM     43  C   UNL A   1      44.423  34.573  29.408  1.00  0.00     0.049 A 
ATOM     44  N   UNL A   1      41.888  33.199  30.307  1.00  0.00    -0.248 NA
ATOM     45  C   UNL A   1      40.688  35.013  29.454  1.00  0.00     0.031 C 
ATOM     46  C   UNL A   1      45.674  35.186  28.971  1.00  0.00     0.029 A 
ATOM     47  N   UNL A   1      44.805  33.372  29.951  1.00  0.00    -0.354 N 
ATOM     48  C   UNL A   1      40.530  32.976  30.478  1.00  0.00     0.074 A 
ATOM     49  C   UNL A   1      39.837  34.136  29.960  1.00  0.00     0.031 C 
ATOM     50  C   UNL A   1      46.692  34.361  29.277  1.00  0.00     0.029 A 
ATOM     51  C   UNL A   1      46.165  33.185  29.970  1.00  0.00     0.049 A 
ATOM     52  H   UNL A   1      44.165  32.706  30.294  1.00  0.00     0.167 HD
ATOM     53  C   UNL A   1      39.914  31.897  31.015  1.00  0.00     0.037 A 
ATOM     54  C   UNL A   1      46.895  32.193  30.516  1.00  0.00     0.037 A 
ATOM     55  C   UNL A   1      40.607  30.758  31.551  1.00  0.00     0.049 A 
ATOM     56  C   UNL A   1      46.194  31.064  31.230  1.00  0.00     0.074 A 
ATOM     57  C   UNL A   1      40.078  29.606  32.104  1.00  0.00     0.029 A 
ATOM     58  N   UNL A   1      41.987  30.638  31.619  1.00  0.00    -0.354 N 
ATOM     59  N   UNL A   1      44.908  30.841  31.366  1.00  0.00    -0.248 NA
ATOM     60  C   UNL A   1      47.046  30.057  31.879  1.00  0.00     0.031 C 
ATOM     61  C   UNL A   1      41.138  28.816  32.562  1.00  0.00     0.029 A 
ATOM     62  C   UNL A   1      42.329  29.452  32.246  1.00  0.00     0.049 A 
ATOM     63  H   UNL A   1      42.630  31.300  31.273  1.00  0.00     0.167 HD
ATOM     64  C   UNL A   1      44.798  29.665  32.096  1.00  0.00     0.074 A 
ATOM     65  C   UNL A   1      46.146  29.211  32.363  1.00  0.00     0.031 C 
ATOM     66  C   UNL A   1      43.678  29.018  32.509  1.00  0.00     0.037 A 
BRANCH  53  67
ATOM     67  C   UNL A   1      38.416  31.927  31.082  1.00  0.00     0.064 A 
ATOM     68  C   UNL A   1      37.621  31.569  29.981  1.00  0.00     0.173 A 
ATOM     69  C   UNL A   1      37.767  32.322  32.261  1.00  0.00     0.173 A 
ATOM     70  F   UNL A   1      38.195  31.203  28.825  1.00  0.00    -0.203 F 
ATOM     71  C   UNL A   1      36.233  31.638  30.050  1.00  0.00     0.198 A 
ATOM     72  C   UNL A   1      36.378  32.360  32.334  1.00  0.00     0.198 A 
ATOM     73  F   UNL A   1      38.482  32.674  33.340  1.00  0.00    -0.203 F 
ATOM     74  F   UNL A   1      35.495  31.347  28.970  1.00  0.00    -0.200 F 
ATOM     75  C   UNL A   1      35.612  32.029  31.227  1.00  0.00     0.200 A 
ATOM     76  F   UNL A   1      35.780  32.729  33.475  1.00  0.00    -0.200 F 
ATOM     77  F   UNL A   1      34.276  32.095  31.291  1.00  0.00    -0.200 F 
ENDBRANCH  53  67
BRANCH  54  78
ATOM     78  C   UNL A   1      48.379  32.231  30.436  1.00  0.00     0.064 A 
ATOM     79  C   UNL A   1      49.138  32.886  31.417  1.00  0.00     0.173 A 
ATOM     80  C   UNL A   1      49.070  31.628  29.373  1.00  0.00     0.173 A 
ATOM     81  F   UNL A   1      48.523  33.503  32.437  1.00  0.00    -0.203 F 
ATOM     82  C   UNL A   1      50.528  32.942  31.334  1.00  0.00     0.198 A 
ATOM     83  C   UNL A   1      50.461  31.663  29.306  1.00  0.00     0.198 A 
ATOM     84  F   UNL A   1      48.393  30.996  28.404  1.00  0.00    -0.203 F 
ATOM     85  F   UNL A   1      51.226  33.607  32.265  1.00  0.00    -0.200 F 
ATOM     86  C   UNL A   1      51.189  32.324  30.283  1.00  0.00     0.200 A 
ATOM     87  F   UNL A   1      51.095  31.055  28.294  1.00  0.00    -0.200 F 
ATOM     88  F   UNL A   1      52.525  32.372  30.208  1.00  0.00    -0.200 F 
ENDBRANCH  54  78
BRANCH  66  89
ATOM     89  C   UNL A   1      43.858  27.745  33.285  1.00  0.00     0.064 A 
ATOM     90  C   UNL A   1      43.872  27.739  34.687  1.00  0.00     0.173 A 
ATOM     91  C   UNL A   1      43.946  26.512  32.621  1.00  0.00     0.173 A 
ATOM     92  F   UNL A   1      43.808  28.893  35.368  1.00  0.00    -0.203 F 
ATOM     93  C   UNL A   1      43.982  26.546  35.396  1.00  0.00     0.198 A 
ATOM     94  C   UNL A   1      44.027  25.319  33.333  1.00  0.00     0.198 A 
ATOM     95  F   UNL A   1      43.931  26.463  31.281  1.00  0.00    -0.203 F 
ATOM     96  F   UNL A   1      44.028  26.566  36.736  1.00  0.00    -0.200 F 
ATOM     97  C   UNL A   1      44.048  25.336  34.720  1.00  0.00     0.200 A 
ATOM     98  F   UNL A   1      44.076  24.151  32.678  1.00  0.00    -0.200 F 
ATOM     99  F   UNL A   1      44.136  24.188  35.404  1.00  0.00    -0.200 F 
ENDBRANCH  66  89
ENDBRANCH  40  41
ENDBRANCH  33  35
ENDBRANCH  32  33
ENDBRANCH  31  32
ENDBRANCH  30  31
ENDBRANCH  29  30
ENDBRANCH  28  29
ENDBRANCH  27  28
ENDBRANCH  26  27
ENDBRANCH  25  26
ENDBRANCH   1  25
TORSDOF 25
ENDMDL
MODEL 2
REMARK VINA RESULT:      -6.3      4.736      9.287
REMARK SMILES C[C@@H](CCO)Sc1cc(C(=O)OCCOCCOCCOCCOC(=O)c2ccc(-c3c4nc(c(-c5c(F)c(F)c(F)c(F)c5F)c5ccc([nH]5)c(-c5c(F)c(F)c(F)c(F)c5F)c5nc(c(-c6c(F)c(F)c(F)c(F)c6F)c6ccc3[nH]6)C=C5)C=C4)cc2)c2ccccc2n1
REMARK SMILES IDX 16 1 15 2 14 3 13 4 12 5 10 6 11 7 9 8 7 9 8 10 96 11 95 12
REMARK SMILES IDX 90 13 94 14 91 15 93 16 92 17 6 18 2 19 1 20 3 21 4 22 5 23
REMARK SMILES IDX 17 25 18 26 19 27 20 28 21 29 22 30 23 31 24 32 25 33 26 34
REMARK SMILES IDX 27 35 28 36 89 37 29 38 88 39 30 40 31 41 32 42 82 43 33 44
REMARK SMILES IDX 87 45 81 46 83 47 34 48 86 49 80 50 79 51 35 53 67 54 47 55
REMARK SMILES IDX 66 56 48 57 51 58 65 59 84 60 49 61 50 62 64 64 85 65 52 66
REMARK SMILES IDX 36 67 37 68 45 69 38 70 39 71 43 72 46 73 40 74 41 75 44 76
REMARK SMILES IDX 42 77 68 78 69 79 77 80 70 81 71 82 75 83 78 84 72 85 73 86
REMARK SMILES IDX 76 87 74 88 53 89 54 90 62 91 55 92 56 93 60 94 63 95 57 96
REMARK SMILES IDX 58 97 61 98 59 99
REMARK H PARENT 5 24 83 52 51 63
REMARK Flexibility Score: inf
ROOT
ATOM      1  C   UNL A   1      35.817  34.118  34.835  1.00  0.00     0.188 C 
ENDROOT
BRANCH   1   2
ATOM      2  O   UNL A   1      35.391  33.178  33.848  1.00  0.00    -0.376 OA
BRANCH   2   3
ATOM      3  C   UNL A   1      34.162  33.442  33.190  1.00  0.00     0.202 C 
BRANCH   3   4
ATOM      4  C   UNL A   1      34.253  33.407  31.659  1.00  0.00     0.261 C 
BRANCH   4   5
ATOM      5  O   UNL A   1      35.433  34.037  31.136  1.00  0.00    -0.460 OA
BRANCH   5   6
ATOM      6  C   UNL A   1      35.641  33.893  29.812  1.00  0.00     0.338 C 
ATOM      7  O   UNL A   1      35.408  34.721  28.947  1.00  0.00    -0.246 OA
BRANCH   6   8
ATOM      8  C   UNL A   1      36.415  32.663  29.544  1.00  0.00     0.072 A 
ATOM      9  C   UNL A   1      38.580  31.687  29.799  1.00  0.00     0.098 A 
ATOM     10  C   UNL A   1      37.682  32.671  30.109  1.00  0.00     0.052 A 
ATOM     11  N   UNL A   1      38.252  30.672  28.979  1.00  0.00    -0.241 NA
ATOM     12  C   UNL A   1      36.993  30.603  28.491  1.00  0.00     0.072 A 
ATOM     13  C   UNL A   1      36.002  31.573  28.770  1.00  0.00     0.015 A 
ATOM     14  C   UNL A   1      36.646  29.529  27.681  1.00  0.00     0.029 A 
ATOM     15  C   UNL A   1      34.686  31.392  28.283  1.00  0.00     0.011 A 
ATOM     16  C   UNL A   1      35.347  29.356  27.194  1.00  0.00     0.002 A 
ATOM     17  C   UNL A   1      34.359  30.278  27.514  1.00  0.00     0.001 A 
BRANCH   9  18
ATOM     18  S   UNL A   1      40.192  31.684  30.559  1.00  0.00    -0.103 SA
BRANCH  18  19
ATOM     19  C   UNL A   1      40.160  30.243  31.724  1.00  0.00     0.052 C 
ATOM     20  C   UNL A   1      39.100  30.325  32.819  1.00  0.00     0.020 C 
BRANCH  19  21
ATOM     21  C   UNL A   1      40.280  28.844  31.072  1.00  0.00     0.043 C 
BRANCH  21  22
ATOM     22  C   UNL A   1      39.087  27.897  31.145  1.00  0.00     0.157 C 
BRANCH  22  23
ATOM     23  O   UNL A   1      38.575  27.578  29.854  1.00  0.00    -0.396 OA
ATOM     24  H   UNL A   1      37.708  27.997  29.739  1.00  0.00     0.210 HD
ENDBRANCH  22  23
ENDBRANCH  21  22
ENDBRANCH  19  21
ENDBRANCH  18  19
ENDBRANCH   9  18
ENDBRANCH   6   8
ENDBRANCH   5   6
ENDBRANCH   4   5
ENDBRANCH   3   4
ENDBRANCH   2   3
ENDBRANCH   1   2
BRANCH   1  25
ATOM     25  C   UNL A   1      37.215  33.798  35.400  1.00  0.00     0.188 C 
BRANCH  25  26
ATOM     26  O   UNL A   1      37.296  32.768  36.377  1.00  0.00    -0.377 OA
BRANCH  26  27
ATOM     27  C   UNL A   1      37.380  33.232  37.719  1.00  0.00     0.188 C 
BRANCH  27  28
ATOM     28  C   UNL A   1      38.506  32.537  38.501  1.00  0.00     0.188 C 
BRANCH  28  29
ATOM     29  O   UNL A   1      38.546  32.722  39.902  1.00  0.00    -0.376 OA
BRANCH  29  30
ATOM     30  C   UNL A   1      39.764  32.870  40.611  1.00  0.00     0.202 C 
BRANCH  30  31
ATOM     31  C   UNL A   1      40.710  34.093  40.585  1.00  0.00     0.261 C 
BRANCH  31  32
ATOM     32  O   UNL A   1      40.362  35.233  39.800  1.00  0.00    -0.460 OA
BRANCH  32  33
ATOM     33  C   UNL A   1      41.353  35.979  39.277  1.00  0.00     0.338 C 
ATOM     34  O   UNL A   1      41.976  36.877  39.814  1.00  0.00    -0.246 OA
BRANCH  33  35
ATOM     35  C   UNL A   1      41.685  35.360  37.972  1.00  0.00     0.060 A 
ATOM     36  C   UNL A   1      40.656  35.120  37.051  1.00  0.00     0.016 A 
ATOM     37  C   UNL A   1      43.015  35.104  37.626  1.00  0.00     0.016 A 
ATOM     38  C   UNL A   1      40.954  34.630  35.779  1.00  0.00     0.010 A 
ATOM     39  C   UNL A   1      43.310  34.577  36.367  1.00  0.00     0.010 A 
ATOM     40  C   UNL A   1      42.280  34.324  35.445  1.00  0.00    -0.014 A 
BRANCH  40  41
ATOM     41  C   UNL A   1      42.576  33.559  34.213  1.00  0.00     0.031 A 
ATOM     42  C   UNL A   1      42.709  32.068  34.326  1.00  0.00     0.074 A 
ATOM     43  C   UNL A   1      42.737  34.169  33.027  1.00  0.00     0.049 A 
ATOM     44  N   UNL A   1      43.052  31.191  33.419  1.00  0.00    -0.248 NA
ATOM     45  C   UNL A   1      42.415  31.490  35.648  1.00  0.00     0.031 C 
ATOM     46  C   UNL A   1      42.575  35.599  32.781  1.00  0.00     0.029 A 
ATOM     47  N   UNL A   1      43.087  33.652  31.804  1.00  0.00    -0.354 N 
ATOM     48  C   UNL A   1      43.013  29.960  34.059  1.00  0.00     0.074 A 
ATOM     49  C   UNL A   1      42.642  30.204  35.436  1.00  0.00     0.031 C 
ATOM     50  C   UNL A   1      42.842  35.849  31.486  1.00  0.00     0.029 A 
ATOM     51  C   UNL A   1      43.234  34.604  30.826  1.00  0.00     0.049 A 
ATOM     52  H   UNL A   1      43.220  32.689  31.643  1.00  0.00     0.167 HD
ATOM     53  C   UNL A   1      43.260  28.734  33.542  1.00  0.00     0.037 A 
ATOM     54  C   UNL A   1      43.668  34.481  29.557  1.00  0.00     0.037 A 
ATOM     55  C   UNL A   1      43.653  28.499  32.179  1.00  0.00     0.049 A 
ATOM     56  C   UNL A   1      44.068  33.122  29.040  1.00  0.00     0.074 A 
ATOM     57  C   UNL A   1      43.913  27.294  31.551  1.00  0.00     0.029 A 
ATOM     58  N   UNL A   1      43.863  29.496  31.238  1.00  0.00    -0.354 N 
ATOM     59  N   UNL A   1      44.005  31.956  29.637  1.00  0.00    -0.248 NA
ATOM     60  C   UNL A   1      44.615  33.064  27.676  1.00  0.00     0.031 C 
ATOM     61  C   UNL A   1      44.339  27.567  30.247  1.00  0.00     0.029 A 
ATOM     62  C   UNL A   1      44.293  28.938  30.046  1.00  0.00     0.049 A 
ATOM     63  H   UNL A   1      43.727  30.458  31.395  1.00  0.00     0.167 HD
ATOM     64  C   UNL A   1      44.484  31.028  28.720  1.00  0.00     0.074 A 
ATOM     65  C   UNL A   1      44.821  31.763  27.520  1.00  0.00     0.031 C 
ATOM     66  C   UNL A   1      44.630  29.687  28.861  1.00  0.00     0.037 A 
BRANCH  53  67
ATOM     67  C   UNL A   1      43.151  27.565  34.474  1.00  0.00     0.064 A 
ATOM     68  C   UNL A   1      44.261  27.084  35.186  1.00  0.00     0.173 A 
ATOM     69  C   UNL A   1      41.922  26.915  34.655  1.00  0.00     0.173 A 
ATOM     70  F   UNL A   1      45.463  27.659  35.033  1.00  0.00    -0.203 F 
ATOM     71  C   UNL A   1      44.150  25.974  36.020  1.00  0.00     0.198 A 
ATOM     72  C   UNL A   1      41.809  25.824  35.513  1.00  0.00     0.198 A 
ATOM     73  F   UNL A   1      40.831  27.336  33.998  1.00  0.00    -0.203 F 
ATOM     74  F   UNL A   1      45.234  25.497  36.645  1.00  0.00    -0.200 F 
ATOM     75  C   UNL A   1      42.923  25.348  36.186  1.00  0.00     0.200 A 
ATOM     76  F   UNL A   1      40.620  25.227  35.679  1.00  0.00    -0.200 F 
ATOM     77  F   UNL A   1      42.818  24.281  36.987  1.00  0.00    -0.200 F 
ENDBRANCH  53  67
BRANCH  54  78
ATOM     78  C   UNL A   1      43.776  35.683  28.688  1.00  0.00     0.064 A 
ATOM     79  C   UNL A   1      44.999  36.349  28.527  1.00  0.00     0.173 A 
ATOM     80  C   UNL A   1      42.659  36.199  28.013  1.00  0.00     0.173 A 
ATOM     81  F   UNL A   1      46.089  35.913  29.174  1.00  0.00    -0.203 F 
ATOM     82  C   UNL A   1      45.099  37.489  27.731  1.00  0.00     0.198 A 
ATOM     83  C   UNL A   1      42.766  37.323  27.196  1.00  0.00     0.198 A 
ATOM     84  F   UNL A   1      41.463  35.605  28.139  1.00  0.00    -0.203 F 
ATOM     85  F   UNL A   1      46.272  38.128  27.624  1.00  0.00    -0.200 F 
ATOM     86  C   UNL A   1      43.984  37.970  27.060  1.00  0.00     0.200 A 
ATOM     87  F   UNL A   1      41.689  37.778  26.542  1.00  0.00    -0.200 F 
ATOM     88  F   UNL A   1      44.083  39.061  26.289  1.00  0.00    -0.200 F 
ENDBRANCH  54  78
BRANCH  66  89
ATOM     89  C   UNL A   1      45.170  28.921  27.688  1.00  0.00     0.064 A 
ATOM     90  C   UNL A   1      44.318  28.340  26.738  1.00  0.00     0.173 A 
ATOM     91  C   UNL A   1      46.554  28.828  27.474  1.00  0.00     0.173 A 
ATOM     92  F   UNL A   1      42.988  28.387  26.906  1.00  0.00    -0.203 F 
ATOM     93  C   UNL A   1      44.831  27.681  25.624  1.00  0.00     0.198 A 
ATOM     94  C   UNL A   1      47.063  28.194  26.344  1.00  0.00     0.198 A 
ATOM     95  F   UNL A   1      47.412  29.372  28.349  1.00  0.00    -0.203 F 
ATOM     96  F   UNL A   1      43.999  27.103  24.747  1.00  0.00    -0.200 F 
ATOM     97  C   UNL A   1      46.203  27.618  25.422  1.00  0.00     0.200 A 
ATOM     98  F   UNL A   1      48.388  28.147  26.143  1.00  0.00    -0.200 F 
ATOM     99  F   UNL A   1      46.694  26.999  24.340  1.00  0.00    -0.200 F 
ENDBRANCH  66  89
ENDBRANCH  40  41
ENDBRANCH  33  35
ENDBRANCH  32  33
ENDBRANCH  31  32
ENDBRANCH  30  31
ENDBRANCH  29  30
ENDBRANCH  28  29
ENDBRANCH  27  28
ENDBRANCH  26  27
ENDBRANCH  25  26
ENDBRANCH   1  25
TORSDOF 25
ENDMDL
MODEL 3
REMARK VINA RESULT:      -6.2      5.235     12.843
REMARK SMILES C[C@@H](CCO)Sc1cc(C(=O)OCCOCCOCCOCCOC(=O)c2ccc(-c3c4nc(c(-c5c(F)c(F)c(F)c(F)c5F)c5ccc([nH]5)c(-c5c(F)c(F)c(F)c(F)c5F)c5nc(c(-c6c(F)c(F)c(F)c(F)c6F)c6ccc3[nH]6)C=C5)C=C4)cc2)c2ccccc2n1
REMARK SMILES IDX 16 1 15 2 14 3 13 4 12 5 10 6 11 7 9 8 7 9 8 10 96 11 95 12
REMARK SMILES IDX 90 13 94 14 91 15 93 16 92 17 6 18 2 19 1 20 3 21 4 22 5 23
REMARK SMILES IDX 17 25 18 26 19 27 20 28 21 29 22 30 23 31 24 32 25 33 26 34
REMARK SMILES IDX 27 35 28 36 89 37 29 38 88 39 30 40 31 41 32 42 82 43 33 44
REMARK SMILES IDX 87 45 81 46 83 47 34 48 86 49 80 50 79 51 35 53 67 54 47 55
REMARK SMILES IDX 66 56 48 57 51 58 65 59 84 60 49 61 50 62 64 64 85 65 52 66
REMARK SMILES IDX 36 67 37 68 45 69 38 70 39 71 43 72 46 73 40 74 41 75 44 76
REMARK SMILES IDX 42 77 68 78 69 79 77 80 70 81 71 82 75 83 78 84 72 85 73 86
REMARK SMILES IDX 76 87 74 88 53 89 54 90 62 91 55 92 56 93 60 94 63 95 57 96
REMARK SMILES IDX 58 97 61 98 59 99
REMARK H PARENT 5 24 83 52 51 63
REMARK Flexibility Score: inf
ROOT
ATOM      1  C   UNL A   1      41.944  28.816  35.978  1.00  0.00     0.188 C 
ENDROOT
BRANCH   1   2
ATOM      2  O   UNL A   1      40.546  29.101  35.924  1.00  0.00    -0.376 OA
BRANCH   2   3
ATOM      3  C   UNL A   1      40.090  29.909  34.850  1.00  0.00     0.202 C 
BRANCH   3   4
ATOM      4  C   UNL A   1      40.442  29.360  33.462  1.00  0.00     0.261 C 
BRANCH   4   5
ATOM      5  O   UNL A   1      39.616  28.260  33.048  1.00  0.00    -0.460 OA
BRANCH   5   6
ATOM      6  C   UNL A   1      38.392  28.583  32.588  1.00  0.00     0.338 C 
ATOM      7  O   UNL A   1      37.337  28.463  33.188  1.00  0.00    -0.246 OA
BRANCH   6   8
ATOM      8  C   UNL A   1      38.500  29.329  31.317  1.00  0.00     0.072 A 
ATOM      9  C   UNL A   1      37.896  31.387  30.265  1.00  0.00     0.098 A 
ATOM     10  C   UNL A   1      38.030  30.632  31.398  1.00  0.00     0.052 A 
ATOM     11  N   UNL A   1      38.252  30.908  29.058  1.00  0.00    -0.241 NA
ATOM     12  C   UNL A   1      38.795  29.673  28.977  1.00  0.00     0.072 A 
ATOM     13  C   UNL A   1      38.976  28.832  30.099  1.00  0.00     0.015 A 
ATOM     14  C   UNL A   1      39.202  29.201  27.734  1.00  0.00     0.029 A 
ATOM     15  C   UNL A   1      39.620  27.583  29.943  1.00  0.00     0.011 A 
ATOM     16  C   UNL A   1      39.830  27.962  27.581  1.00  0.00     0.002 A 
ATOM     17  C   UNL A   1      40.060  27.161  28.691  1.00  0.00     0.001 A 
BRANCH   9  18
ATOM     18  S   UNL A   1      37.327  33.072  30.382  1.00  0.00    -0.103 SA
BRANCH  18  19
ATOM     19  C   UNL A   1      35.479  32.951  30.304  1.00  0.00     0.052 C 
ATOM     20  C   UNL A   1      34.818  32.401  31.565  1.00  0.00     0.020 C 
BRANCH  19  21
ATOM     21  C   UNL A   1      34.747  34.170  29.693  1.00  0.00     0.043 C 
BRANCH  21  22
ATOM     22  C   UNL A   1      34.347  34.123  28.222  1.00  0.00     0.157 C 
BRANCH  22  23
ATOM     23  O   UNL A   1      35.479  34.160  27.357  1.00  0.00    -0.396 OA
ATOM     24  H   UNL A   1      36.060  33.410  27.553  1.00  0.00     0.210 HD
ENDBRANCH  22  23
ENDBRANCH  21  22
ENDBRANCH  19  21
ENDBRANCH  18  19
ENDBRANCH   9  18
ENDBRANCH   6   8
ENDBRANCH   5   6
ENDBRANCH   4   5
ENDBRANCH   3   4
ENDBRANCH   2   3
ENDBRANCH   1   2
BRANCH   1  25
ATOM     25  C   UNL A   1      42.241  27.367  36.413  1.00  0.00     0.188 C 
BRANCH  25  26
ATOM     26  O   UNL A   1      41.412  26.815  37.429  1.00  0.00    -0.377 OA
BRANCH  26  27
ATOM     27  C   UNL A   1      40.935  25.504  37.156  1.00  0.00     0.188 C 
BRANCH  27  28
ATOM     28  C   UNL A   1      41.312  25.036  35.740  1.00  0.00     0.188 C 
BRANCH  28  29
ATOM     29  O   UNL A   1      41.918  23.766  35.606  1.00  0.00    -0.376 OA
BRANCH  29  30
ATOM     30  C   UNL A   1      43.083  23.563  34.824  1.00  0.00     0.202 C 
BRANCH  30  31
ATOM     31  C   UNL A   1      43.868  24.635  34.033  1.00  0.00     0.261 C 
BRANCH  31  32
ATOM     32  O   UNL A   1      44.891  24.229  33.126  1.00  0.00    -0.460 OA
BRANCH  32  33
ATOM     33  C   UNL A   1      44.560  24.011  31.839  1.00  0.00     0.338 C 
ATOM     34  O   UNL A   1      43.771  23.194  31.399  1.00  0.00    -0.246 OA
BRANCH  33  35
ATOM     35  C   UNL A   1      45.194  25.103  31.064  1.00  0.00     0.060 A 
ATOM     36  C   UNL A   1      45.061  25.112  29.669  1.00  0.00     0.016 A 
ATOM     37  C   UNL A   1      45.834  26.159  31.719  1.00  0.00     0.016 A 
ATOM     38  C   UNL A   1      45.563  26.180  28.925  1.00  0.00     0.010 A 
ATOM     39  C   UNL A   1      46.370  27.209  30.971  1.00  0.00     0.010 A 
ATOM     40  C   UNL A   1      46.250  27.216  29.571  1.00  0.00    -0.014 A 
BRANCH  40  41
ATOM     41  C   UNL A   1      47.015  28.206  28.779  1.00  0.00     0.031 A 
ATOM     42  C   UNL A   1      48.427  27.865  28.402  1.00  0.00     0.074 A 
ATOM     43  C   UNL A   1      46.479  29.382  28.415  1.00  0.00     0.049 A 
ATOM     44  N   UNL A   1      49.327  28.593  27.795  1.00  0.00    -0.248 NA
ATOM     45  C   UNL A   1      48.885  26.512  28.761  1.00  0.00     0.031 C 
ATOM     46  C   UNL A   1      45.104  29.801  28.671  1.00  0.00     0.029 A 
ATOM     47  N   UNL A   1      47.041  30.448  27.757  1.00  0.00    -0.354 N 
ATOM     48  C   UNL A   1      50.454  27.790  27.699  1.00  0.00     0.074 A 
ATOM     49  C   UNL A   1      50.137  26.529  28.334  1.00  0.00     0.031 C 
ATOM     50  C   UNL A   1      44.932  31.045  28.188  1.00  0.00     0.029 A 
ATOM     51  C   UNL A   1      46.198  31.523  27.630  1.00  0.00     0.049 A 
ATOM     52  H   UNL A   1      47.962  30.442  27.409  1.00  0.00     0.167 HD
ATOM     53  C   UNL A   1      51.647  28.077  27.128  1.00  0.00     0.037 A 
ATOM     54  C   UNL A   1      46.435  32.758  27.147  1.00  0.00     0.037 A 
ATOM     55  C   UNL A   1      51.966  29.340  26.520  1.00  0.00     0.049 A 
ATOM     56  C   UNL A   1      47.813  33.100  26.638  1.00  0.00     0.074 A 
ATOM     57  C   UNL A   1      53.140  29.728  25.900  1.00  0.00     0.029 A 
ATOM     58  N   UNL A   1      51.110  30.430  26.476  1.00  0.00    -0.354 N 
ATOM     59  N   UNL A   1      48.870  32.332  26.523  1.00  0.00    -0.248 NA
ATOM     60  C   UNL A   1      48.036  34.488  26.205  1.00  0.00     0.031 C 
ATOM     61  C   UNL A   1      53.015  31.073  25.535  1.00  0.00     0.029 A 
ATOM     62  C   UNL A   1      51.744  31.506  25.879  1.00  0.00     0.049 A 
ATOM     63  H   UNL A   1      50.187  30.438  26.819  1.00  0.00     0.167 HD
ATOM     64  C   UNL A   1      49.872  33.132  25.990  1.00  0.00     0.074 A 
ATOM     65  C   UNL A   1      49.295  34.445  25.790  1.00  0.00     0.031 C 
ATOM     66  C   UNL A   1      51.155  32.809  25.693  1.00  0.00     0.037 A 
BRANCH  53  67
ATOM     67  C   UNL A   1      52.702  27.012  27.176  1.00  0.00     0.064 A 
ATOM     68  C   UNL A   1      53.692  27.001  28.172  1.00  0.00     0.173 A 
ATOM     69  C   UNL A   1      52.725  25.992  26.214  1.00  0.00     0.173 A 
ATOM     70  F   UNL A   1      53.724  27.965  29.103  1.00  0.00    -0.203 F 
ATOM     71  C   UNL A   1      54.685  26.025  28.180  1.00  0.00     0.198 A 
ATOM     72  C   UNL A   1      53.702  25.001  26.245  1.00  0.00     0.198 A 
ATOM     73  F   UNL A   1      51.800  25.959  25.242  1.00  0.00    -0.203 F 
ATOM     74  F   UNL A   1      55.654  26.066  29.105  1.00  0.00    -0.200 F 
ATOM     75  C   UNL A   1      54.687  25.024  27.220  1.00  0.00     0.200 A 
ATOM     76  F   UNL A   1      53.696  24.030  25.321  1.00  0.00    -0.200 F 
ATOM     77  F   UNL A   1      55.644  24.087  27.230  1.00  0.00    -0.200 F 
ENDBRANCH  53  67
BRANCH  54  78
ATOM     78  C   UNL A   1      45.354  33.778  27.147  1.00  0.00     0.064 A 
ATOM     79  C   UNL A   1      44.465  33.886  26.068  1.00  0.00     0.173 A 
ATOM     80  C   UNL A   1      45.195  34.675  28.215  1.00  0.00     0.173 A 
ATOM     81  F   UNL A   1      44.593  33.072  25.011  1.00  0.00    -0.203 F 
ATOM     82  C   UNL A   1      43.463  34.856  26.055  1.00  0.00     0.198 A 
ATOM     83  C   UNL A   1      44.176  35.626  28.212  1.00  0.00     0.198 A 
ATOM     84  F   UNL A   1      46.024  34.621  29.267  1.00  0.00    -0.203 F 
ATOM     85  F   UNL A   1      42.650  34.961  24.995  1.00  0.00    -0.200 F 
ATOM     86  C   UNL A   1      43.315  35.719  27.130  1.00  0.00     0.200 A 
ATOM     87  F   UNL A   1      44.032  36.452  29.257  1.00  0.00    -0.200 F 
ATOM     88  F   UNL A   1      42.348  36.646  27.120  1.00  0.00    -0.200 F 
ENDBRANCH  54  78
BRANCH  66  89
ATOM     89  C   UNL A   1      52.026  33.885  25.111  1.00  0.00     0.064 A 
ATOM     90  C   UNL A   1      52.582  34.891  25.915  1.00  0.00     0.173 A 
ATOM     91  C   UNL A   1      52.364  33.870  23.749  1.00  0.00     0.173 A 
ATOM     92  F   UNL A   1      52.277  34.958  27.219  1.00  0.00    -0.203 F 
ATOM     93  C   UNL A   1      53.434  35.850  25.374  1.00  0.00     0.198 A 
ATOM     94  C   UNL A   1      53.239  34.813  23.217  1.00  0.00     0.198 A 
ATOM     95  F   UNL A   1      51.864  32.926  22.939  1.00  0.00    -0.203 F 
ATOM     96  F   UNL A   1      53.927  36.822  26.154  1.00  0.00    -0.200 F 
ATOM     97  C   UNL A   1      53.771  35.804  24.029  1.00  0.00     0.200 A 
ATOM     98  F   UNL A   1      53.574  34.758  21.921  1.00  0.00    -0.200 F 
ATOM     99  F   UNL A   1      54.604  36.718  23.514  1.00  0.00    -0.200 F 
ENDBRANCH  66  89
ENDBRANCH  40  41
ENDBRANCH  33  35
ENDBRANCH  32  33
ENDBRANCH  31  32
ENDBRANCH  30  31
ENDBRANCH  29  30
ENDBRANCH  28  29
ENDBRANCH  27  28
ENDBRANCH  26  27
ENDBRANCH  25  26
ENDBRANCH   1  25
TORSDOF 25
ENDMDL
