MODEL 1
REMARK VINA RESULT:     -11.0      0.000      0.000
REMARK SMILES C[C@]1(C(=O)N2CCC(CC(=O)OCCOCCOCCOCCOC(=O)c3ccc(-c4c5nc(c(-c6c(F)c(F)c(F)c(F)c6F)c6ccc([nH]6)c(-c6c(F)c(F)c(F)c(F)c6F)c6nc(c(-c7c(F)c(F)c(F)c(F)c7F)c7ccc4[nH]7)C=C6)C=C5)cc3)CC2)CCC[NH2+]C1
REMARK SMILES IDX 18 1 17 2 16 3 15 4 14 5 13 6 12 7 10 8 11 9 9 10 8 11 3 12
REMARK SMILES IDX 4 13 5 14 6 15 91 16 7 17 90 18 2 19 1 20 92 21 96 22 93 23
REMARK SMILES IDX 95 24 94 25 19 28 20 29 21 30 22 31 23 32 24 33 25 34 26 35
REMARK SMILES IDX 27 36 28 37 89 38 29 39 88 40 30 41 31 42 32 43 82 44 33 45
REMARK SMILES IDX 87 46 81 47 83 48 34 49 86 50 80 51 79 52 35 54 67 55 47 56
REMARK SMILES IDX 66 57 48 58 51 59 65 60 84 61 49 62 50 63 64 65 85 66 52 67
REMARK SMILES IDX 36 68 37 69 45 70 38 71 39 72 43 73 46 74 40 75 41 76 44 77
REMARK SMILES IDX 42 78 68 79 69 80 77 81 70 82 71 83 75 84 78 85 72 86 73 87
REMARK SMILES IDX 76 88 74 89 53 90 54 91 62 92 55 93 56 94 60 95 63 96 57 97
REMARK SMILES IDX 58 98 61 99 59 100
REMARK H PARENT 95 26 95 27 83 53 51 64
REMARK Flexibility Score: inf
ROOT
ATOM      1  O   UNL A   1      42.004  19.314  25.433  1.00  0.00    -0.377 OA
ENDROOT
BRANCH   1   2
ATOM      2  C   UNL A   1      41.369  20.102  26.427  1.00  0.00     0.188 C 
BRANCH   2   3
ATOM      3  C   UNL A   1      40.053  20.797  26.069  1.00  0.00     0.188 C 
BRANCH   3   4
ATOM      4  O   UNL A   1      39.693  21.939  26.813  1.00  0.00    -0.376 OA
BRANCH   4   5
ATOM      5  C   UNL A   1      38.630  22.779  26.389  1.00  0.00     0.202 C 
BRANCH   5   6
ATOM      6  C   UNL A   1      37.614  22.434  25.283  1.00  0.00     0.261 C 
BRANCH   6   7
ATOM      7  O   UNL A   1      36.306  23.009  25.401  1.00  0.00    -0.463 OA
BRANCH   7   8
ATOM      8  C   UNL A   1      35.264  22.177  25.172  1.00  0.00     0.306 C 
ATOM      9  O   UNL A   1      35.381  20.986  24.898  1.00  0.00    -0.252 OA
BRANCH   8  10
ATOM     10  C   UNL A   1      33.892  22.805  25.321  1.00  0.00     0.126 C 
BRANCH  10  11
ATOM     11  C   UNL A   1      33.006  23.149  24.111  1.00  0.00     0.003 C 
ATOM     12  C   UNL A   1      30.984  26.484  22.718  1.00  0.00     0.234 C 
ATOM     13  O   UNL A   1      31.141  27.092  21.652  1.00  0.00    -0.274 OA
ATOM     14  N   UNL A   1      31.480  25.209  22.848  1.00  0.00    -0.342 N 
ATOM     15  C   UNL A   1      32.766  24.899  22.253  1.00  0.00     0.120 C 
ATOM     16  C   UNL A   1      30.754  24.071  23.372  1.00  0.00     0.120 C 
ATOM     17  C   UNL A   1      33.674  24.308  23.326  1.00  0.00     0.026 C 
ATOM     18  C   UNL A   1      31.540  23.407  24.495  1.00  0.00     0.026 C 
BRANCH  12  19
ATOM     19  C   UNL A   1      30.247  27.158  23.908  1.00  0.00     0.095 C 
ATOM     20  C   UNL A   1      28.782  26.679  23.880  1.00  0.00     0.028 C 
ATOM     21  C   UNL A   1      30.811  26.973  25.335  1.00  0.00     0.028 C 
ATOM     22  C   UNL A   1      30.333  28.687  23.628  1.00  0.00     0.277 C 
ATOM     23  C   UNL A   1      32.211  27.556  25.504  1.00  0.00     0.063 C 
ATOM     24  N   UNL A   1      31.712  29.196  23.729  1.00  0.00    -0.345 N 
ATOM     25  C   UNL A   1      32.283  29.009  25.058  1.00  0.00     0.260 C 
ATOM     26  H   UNL A   1      32.292  28.702  23.052  1.00  0.00     0.346 HD
ATOM     27  H   UNL A   1      31.685  30.198  23.544  1.00  0.00     0.346 HD
ENDBRANCH  12  19
ENDBRANCH  10  11
ENDBRANCH   8  10
ENDBRANCH   7   8
ENDBRANCH   6   7
ENDBRANCH   5   6
ENDBRANCH   4   5
ENDBRANCH   3   4
ENDBRANCH   2   3
ENDBRANCH   1   2
BRANCH   1  28
ATOM     28  C   UNL A   1      43.383  18.987  25.551  1.00  0.00     0.188 C 
BRANCH  28  29
ATOM     29  C   UNL A   1      44.434  19.649  24.641  1.00  0.00     0.188 C 
BRANCH  29  30
ATOM     30  O   UNL A   1      45.617  20.067  25.296  1.00  0.00    -0.376 OA
BRANCH  30  31
ATOM     31  C   UNL A   1      46.079  21.396  25.100  1.00  0.00     0.202 C 
BRANCH  31  32
ATOM     32  C   UNL A   1      45.552  22.487  26.045  1.00  0.00     0.261 C 
BRANCH  32  33
ATOM     33  O   UNL A   1      45.133  23.714  25.423  1.00  0.00    -0.460 OA
BRANCH  33  34
ATOM     34  C   UNL A   1      43.869  23.792  24.971  1.00  0.00     0.338 C 
ATOM     35  O   UNL A   1      43.342  23.110  24.104  1.00  0.00    -0.246 OA
BRANCH  34  36
ATOM     36  C   UNL A   1      43.133  24.737  25.829  1.00  0.00     0.060 A 
ATOM     37  C   UNL A   1      43.550  26.073  25.871  1.00  0.00     0.016 A 
ATOM     38  C   UNL A   1      42.071  24.297  26.622  1.00  0.00     0.016 A 
ATOM     39  C   UNL A   1      42.939  26.965  26.750  1.00  0.00     0.010 A 
ATOM     40  C   UNL A   1      41.471  25.188  27.517  1.00  0.00     0.010 A 
ATOM     41  C   UNL A   1      41.935  26.512  27.616  1.00  0.00    -0.014 A 
BRANCH  41  42
ATOM     42  C   UNL A   1      41.538  27.364  28.764  1.00  0.00     0.031 A 
ATOM     43  C   UNL A   1      42.370  27.306  30.017  1.00  0.00     0.074 A 
ATOM     44  C   UNL A   1      40.498  28.211  28.681  1.00  0.00     0.049 A 
ATOM     45  N   UNL A   1      42.220  27.947  31.147  1.00  0.00    -0.248 NA
ATOM     46  C   UNL A   1      43.529  26.400  29.988  1.00  0.00     0.031 C 
ATOM     47  C   UNL A   1      39.649  28.393  27.507  1.00  0.00     0.029 A 
ATOM     48  N   UNL A   1      39.983  29.079  29.610  1.00  0.00    -0.354 N 
ATOM     49  C   UNL A   1      43.262  27.519  31.963  1.00  0.00     0.074 A 
ATOM     50  C   UNL A   1      44.013  26.537  31.213  1.00  0.00     0.031 C 
ATOM     51  C   UNL A   1      38.709  29.313  27.789  1.00  0.00     0.029 A 
ATOM     52  C   UNL A   1      38.874  29.758  29.172  1.00  0.00     0.049 A 
ATOM     53  H   UNL A   1      40.370  29.202  30.507  1.00  0.00     0.167 HD
ATOM     54  C   UNL A   1      43.569  27.917  33.220  1.00  0.00     0.037 A 
ATOM     55  C   UNL A   1      38.074  30.625  29.824  1.00  0.00     0.037 A 
ATOM     56  C   UNL A   1      42.817  28.892  33.965  1.00  0.00     0.049 A 
ATOM     57  C   UNL A   1      38.394  30.995  31.251  1.00  0.00     0.074 A 
ATOM     58  C   UNL A   1      43.052  29.371  35.242  1.00  0.00     0.029 A 
ATOM     59  N   UNL A   1      41.676  29.530  33.503  1.00  0.00    -0.354 N 
ATOM     60  N   UNL A   1      39.391  30.604  32.008  1.00  0.00    -0.248 NA
ATOM     61  C   UNL A   1      37.477  31.936  31.912  1.00  0.00     0.031 C 
ATOM     62  C   UNL A   1      42.018  30.252  35.575  1.00  0.00     0.029 A 
ATOM     63  C   UNL A   1      41.179  30.378  34.480  1.00  0.00     0.049 A 
ATOM     64  H   UNL A   1      41.278  29.400  32.612  1.00  0.00     0.167 HD
ATOM     65  C   UNL A   1      39.243  31.277  33.216  1.00  0.00     0.074 A 
ATOM     66  C   UNL A   1      38.068  32.112  33.084  1.00  0.00     0.031 C 
ATOM     67  C   UNL A   1      40.011  31.211  34.332  1.00  0.00     0.037 A 
BRANCH  54  68
ATOM     68  C   UNL A   1      44.753  27.270  33.881  1.00  0.00     0.064 A 
ATOM     69  C   UNL A   1      46.019  27.876  33.894  1.00  0.00     0.173 A 
ATOM     70  C   UNL A   1      44.611  26.036  34.534  1.00  0.00     0.173 A 
ATOM     71  F   UNL A   1      46.214  29.047  33.270  1.00  0.00    -0.203 F 
ATOM     72  C   UNL A   1      47.104  27.256  34.509  1.00  0.00     0.198 A 
ATOM     73  C   UNL A   1      45.690  25.435  35.177  1.00  0.00     0.198 A 
ATOM     74  F   UNL A   1      43.423  25.414  34.554  1.00  0.00    -0.203 F 
ATOM     75  F   UNL A   1      48.315  27.827  34.462  1.00  0.00    -0.200 F 
ATOM     76  C   UNL A   1      46.938  26.040  35.157  1.00  0.00     0.200 A 
ATOM     77  F   UNL A   1      45.522  24.269  35.815  1.00  0.00    -0.200 F 
ATOM     78  F   UNL A   1      47.980  25.450  35.756  1.00  0.00    -0.200 F 
ENDBRANCH  54  68
BRANCH  55  79
ATOM     79  C   UNL A   1      36.884  31.201  29.142  1.00  0.00     0.064 A 
ATOM     80  C   UNL A   1      35.753  30.419  28.868  1.00  0.00     0.173 A 
ATOM     81  C   UNL A   1      36.865  32.540  28.722  1.00  0.00     0.173 A 
ATOM     82  F   UNL A   1      35.730  29.127  29.228  1.00  0.00    -0.203 F 
ATOM     83  C   UNL A   1      34.661  30.946  28.181  1.00  0.00     0.198 A 
ATOM     84  C   UNL A   1      35.760  33.074  28.063  1.00  0.00     0.198 A 
ATOM     85  F   UNL A   1      37.921  33.333  28.955  1.00  0.00    -0.203 F 
ATOM     86  F   UNL A   1      33.617  30.160  27.884  1.00  0.00    -0.200 F 
ATOM     87  C   UNL A   1      34.662  32.274  27.784  1.00  0.00     0.200 A 
ATOM     88  F   UNL A   1      35.761  34.362  27.694  1.00  0.00    -0.200 F 
ATOM     89  F   UNL A   1      33.612  32.781  27.124  1.00  0.00    -0.200 F 
ENDBRANCH  55  79
BRANCH  67  90
ATOM     90  C   UNL A   1      39.638  32.104  35.484  1.00  0.00     0.064 A 
ATOM     91  C   UNL A   1      40.181  33.389  35.634  1.00  0.00     0.173 A 
ATOM     92  C   UNL A   1      38.702  31.673  36.439  1.00  0.00     0.173 A 
ATOM     93  F   UNL A   1      41.087  33.847  34.758  1.00  0.00    -0.203 F 
ATOM     94  C   UNL A   1      39.830  34.192  36.717  1.00  0.00     0.198 A 
ATOM     95  C   UNL A   1      38.326  32.495  37.498  1.00  0.00     0.198 A 
ATOM     96  F   UNL A   1      38.143  30.458  36.338  1.00  0.00    -0.203 F 
ATOM     97  F   UNL A   1      40.411  35.391  36.874  1.00  0.00    -0.200 F 
ATOM     98  C   UNL A   1      38.899  33.748  37.643  1.00  0.00     0.200 A 
ATOM     99  F   UNL A   1      37.412  32.070  38.381  1.00  0.00    -0.200 F 
ATOM    100  F   UNL A   1      38.562  34.524  38.682  1.00  0.00    -0.200 F 
ENDBRANCH  67  90
ENDBRANCH  41  42
ENDBRANCH  34  36
ENDBRANCH  33  34
ENDBRANCH  32  33
ENDBRANCH  31  32
ENDBRANCH  30  31
ENDBRANCH  29  30
ENDBRANCH  28  29
ENDBRANCH   1  28
TORSDOF 22
ENDMDL
MODEL 2
REMARK VINA RESULT:     -10.6      1.260      2.083
REMARK SMILES C[C@]1(C(=O)N2CCC(CC(=O)OCCOCCOCCOCCOC(=O)c3ccc(-c4c5nc(c(-c6c(F)c(F)c(F)c(F)c6F)c6ccc([nH]6)c(-c6c(F)c(F)c(F)c(F)c6F)c6nc(c(-c7c(F)c(F)c(F)c(F)c7F)c7ccc4[nH]7)C=C6)C=C5)cc3)CC2)CCC[NH2+]C1
REMARK SMILES IDX 18 1 17 2 16 3 15 4 14 5 13 6 12 7 10 8 11 9 9 10 8 11 3 12
REMARK SMILES IDX 4 13 5 14 6 15 91 16 7 17 90 18 2 19 1 20 92 21 96 22 93 23
REMARK SMILES IDX 95 24 94 25 19 28 20 29 21 30 22 31 23 32 24 33 25 34 26 35
REMARK SMILES IDX 27 36 28 37 89 38 29 39 88 40 30 41 31 42 32 43 82 44 33 45
REMARK SMILES IDX 87 46 81 47 83 48 34 49 86 50 80 51 79 52 35 54 67 55 47 56
REMARK SMILES IDX 66 57 48 58 51 59 65 60 84 61 49 62 50 63 64 65 85 66 52 67
REMARK SMILES IDX 36 68 37 69 45 70 38 71 39 72 43 73 46 74 40 75 41 76 44 77
REMARK SMILES IDX 42 78 68 79 69 80 77 81 70 82 71 83 75 84 78 85 72 86 73 87
REMARK SMILES IDX 76 88 74 89 53 90 54 91 62 92 55 93 56 94 60 95 63 96 57 97
REMARK SMILES IDX 58 98 61 99 59 100
REMARK H PARENT 95 26 95 27 83 53 51 64
REMARK Flexibility Score: inf
ROOT
ATOM      1  O   UNL A   1      44.538  18.326  25.913  1.00  0.00    -0.377 OA
ENDROOT
BRANCH   1   2
ATOM      2  C   UNL A   1      43.224  18.700  25.537  1.00  0.00     0.188 C 
BRANCH   2   3
ATOM      3  C   UNL A   1      42.311  19.312  26.603  1.00  0.00     0.188 C 
BRANCH   3   4
ATOM      4  O   UNL A   1      41.796  20.601  26.362  1.00  0.00    -0.376 OA
BRANCH   4   5
ATOM      5  C   UNL A   1      40.402  20.808  26.188  1.00  0.00     0.202 C 
BRANCH   5   6
ATOM      6  C   UNL A   1      39.643  22.096  26.561  1.00  0.00     0.261 C 
BRANCH   6   7
ATOM      7  O   UNL A   1      38.284  22.200  26.117  1.00  0.00    -0.463 OA
BRANCH   7   8
ATOM      8  C   UNL A   1      37.817  23.452  25.905  1.00  0.00     0.306 C 
ATOM      9  O   UNL A   1      38.219  24.446  26.502  1.00  0.00    -0.252 OA
BRANCH   8  10
ATOM     10  C   UNL A   1      36.766  23.574  24.819  1.00  0.00     0.126 C 
BRANCH  10  11
ATOM     11  C   UNL A   1      35.335  23.034  24.992  1.00  0.00     0.003 C 
ATOM     12  C   UNL A   1      31.511  24.285  24.008  1.00  0.00     0.234 C 
ATOM     13  O   UNL A   1      30.682  23.728  23.277  1.00  0.00    -0.274 OA
ATOM     14  N   UNL A   1      32.568  23.560  24.504  1.00  0.00    -0.342 N 
ATOM     15  C   UNL A   1      33.203  22.577  23.644  1.00  0.00     0.120 C 
ATOM     16  C   UNL A   1      33.009  23.546  25.883  1.00  0.00     0.120 C 
ATOM     17  C   UNL A   1      34.699  22.868  23.588  1.00  0.00     0.026 C 
ATOM     18  C   UNL A   1      34.495  23.867  25.973  1.00  0.00     0.026 C 
BRANCH  12  19
ATOM     19  C   UNL A   1      31.372  25.793  24.351  1.00  0.00     0.095 C 
ATOM     20  C   UNL A   1      30.365  25.915  25.513  1.00  0.00     0.028 C 
ATOM     21  C   UNL A   1      32.644  26.599  24.700  1.00  0.00     0.028 C 
ATOM     22  C   UNL A   1      30.808  26.456  23.061  1.00  0.00     0.277 C 
ATOM     23  C   UNL A   1      33.644  26.663  23.549  1.00  0.00     0.063 C 
ATOM     24  N   UNL A   1      31.778  26.431  21.952  1.00  0.00    -0.345 N 
ATOM     25  C   UNL A   1      33.002  27.159  22.262  1.00  0.00     0.260 C 
ATOM     26  H   UNL A   1      32.017  25.461  21.749  1.00  0.00     0.346 HD
ATOM     27  H   UNL A   1      31.342  26.888  21.151  1.00  0.00     0.346 HD
ENDBRANCH  12  19
ENDBRANCH  10  11
ENDBRANCH   8  10
ENDBRANCH   7   8
ENDBRANCH   6   7
ENDBRANCH   5   6
ENDBRANCH   4   5
ENDBRANCH   3   4
ENDBRANCH   2   3
ENDBRANCH   1   2
BRANCH   1  28
ATOM     28  C   UNL A   1      45.652  18.731  25.126  1.00  0.00     0.188 C 
BRANCH  28  29
ATOM     29  C   UNL A   1      45.624  20.050  24.332  1.00  0.00     0.188 C 
BRANCH  29  30
ATOM     30  O   UNL A   1      46.410  21.093  24.874  1.00  0.00    -0.376 OA
BRANCH  30  31
ATOM     31  C   UNL A   1      45.786  22.070  25.694  1.00  0.00     0.202 C 
BRANCH  31  32
ATOM     32  C   UNL A   1      45.995  23.550  25.336  1.00  0.00     0.261 C 
BRANCH  32  33
ATOM     33  O   UNL A   1      44.911  24.192  24.643  1.00  0.00    -0.460 OA
BRANCH  33  34
ATOM     34  C   UNL A   1      43.662  23.982  25.094  1.00  0.00     0.338 C 
ATOM     35  O   UNL A   1      42.837  23.185  24.667  1.00  0.00    -0.246 OA
BRANCH  34  36
ATOM     36  C   UNL A   1      43.486  24.754  26.335  1.00  0.00     0.060 A 
ATOM     37  C   UNL A   1      42.782  24.172  27.397  1.00  0.00     0.016 A 
ATOM     38  C   UNL A   1      43.971  26.061  26.434  1.00  0.00     0.016 A 
ATOM     39  C   UNL A   1      42.512  24.916  28.543  1.00  0.00     0.010 A 
ATOM     40  C   UNL A   1      43.682  26.812  27.577  1.00  0.00     0.010 A 
ATOM     41  C   UNL A   1      42.913  26.257  28.615  1.00  0.00    -0.014 A 
BRANCH  41  42
ATOM     42  C   UNL A   1      42.332  27.126  29.668  1.00  0.00     0.031 A 
ATOM     43  C   UNL A   1      43.033  27.199  30.998  1.00  0.00     0.074 A 
ATOM     44  C   UNL A   1      41.242  27.875  29.435  1.00  0.00     0.049 A 
ATOM     45  N   UNL A   1      42.717  27.878  32.071  1.00  0.00    -0.248 NA
ATOM     46  C   UNL A   1      44.258  26.395  31.135  1.00  0.00     0.031 C 
ATOM     47  C   UNL A   1      40.506  27.928  28.175  1.00  0.00     0.029 A 
ATOM     48  N   UNL A   1      40.565  28.740  30.259  1.00  0.00    -0.354 N 
ATOM     49  C   UNL A   1      43.700  27.581  33.008  1.00  0.00     0.074 A 
ATOM     50  C   UNL A   1      44.600  26.631  32.392  1.00  0.00     0.031 C 
ATOM     51  C   UNL A   1      39.472  28.776  28.311  1.00  0.00     0.029 A 
ATOM     52  C   UNL A   1      39.456  29.299  29.677  1.00  0.00     0.049 A 
ATOM     53  H   UNL A   1      40.848  28.938  31.181  1.00  0.00     0.167 HD
ATOM     54  C   UNL A   1      43.843  28.063  34.264  1.00  0.00     0.037 A 
ATOM     55  C   UNL A   1      38.527  30.125  30.196  1.00  0.00     0.037 A 
ATOM     56  C   UNL A   1      42.943  29.004  34.876  1.00  0.00     0.049 A 
ATOM     57  C   UNL A   1      38.668  30.589  31.625  1.00  0.00     0.074 A 
ATOM     58  C   UNL A   1      43.006  29.563  36.141  1.00  0.00     0.029 A 
ATOM     59  N   UNL A   1      41.808  29.520  34.268  1.00  0.00    -0.354 N 
ATOM     60  N   UNL A   1      39.609  30.321  32.498  1.00  0.00    -0.248 NA
ATOM     61  C   UNL A   1      37.615  31.478  32.138  1.00  0.00     0.031 C 
ATOM     62  C   UNL A   1      41.876  30.367  36.320  1.00  0.00     0.029 A 
ATOM     63  C   UNL A   1      41.146  30.368  35.142  1.00  0.00     0.049 A 
ATOM     64  H   UNL A   1      41.515  29.314  33.351  1.00  0.00     0.167 HD
ATOM     65  C   UNL A   1      39.285  31.036  33.645  1.00  0.00     0.074 A 
ATOM     66  C   UNL A   1      38.066  31.760  33.351  1.00  0.00     0.031 C 
ATOM     67  C   UNL A   1      39.937  31.090  34.834  1.00  0.00     0.037 A 
BRANCH  54  68
ATOM     68  C   UNL A   1      45.001  27.552  35.074  1.00  0.00     0.064 A 
ATOM     69  C   UNL A   1      46.243  28.205  35.088  1.00  0.00     0.173 A 
ATOM     70  C   UNL A   1      44.856  26.404  35.869  1.00  0.00     0.173 A 
ATOM     71  F   UNL A   1      46.441  29.297  34.333  1.00  0.00    -0.203 F 
ATOM     72  C   UNL A   1      47.304  27.712  35.843  1.00  0.00     0.198 A 
ATOM     73  C   UNL A   1      45.909  25.933  36.649  1.00  0.00     0.198 A 
ATOM     74  F   UNL A   1      43.690  25.742  35.896  1.00  0.00    -0.203 F 
ATOM     75  F   UNL A   1      48.497  28.321  35.798  1.00  0.00    -0.200 F 
ATOM     76  C   UNL A   1      47.135  26.581  36.629  1.00  0.00     0.200 A 
ATOM     77  F   UNL A   1      45.737  24.850  37.419  1.00  0.00    -0.200 F 
ATOM     78  F   UNL A   1      48.154  26.113  37.361  1.00  0.00    -0.200 F 
ENDBRANCH  54  68
BRANCH  55  79
ATOM     79  C   UNL A   1      37.371  30.564  29.369  1.00  0.00     0.064 A 
ATOM     80  C   UNL A   1      36.300  29.700  29.100  1.00  0.00     0.173 A 
ATOM     81  C   UNL A   1      37.328  31.847  28.805  1.00  0.00     0.173 A 
ATOM     82  F   UNL A   1      36.304  28.454  29.596  1.00  0.00    -0.203 F 
ATOM     83  C   UNL A   1      35.244  30.094  28.279  1.00  0.00     0.198 A 
ATOM     84  C   UNL A   1      36.257  32.252  28.011  1.00  0.00     0.198 A 
ATOM     85  F   UNL A   1      38.327  32.714  29.028  1.00  0.00    -0.203 F 
ATOM     86  F   UNL A   1      34.262  29.229  27.994  1.00  0.00    -0.200 F 
ATOM     87  C   UNL A   1      35.220  31.371  27.741  1.00  0.00     0.200 A 
ATOM     88  F   UNL A   1      36.231  33.492  27.505  1.00  0.00    -0.200 F 
ATOM     89  F   UNL A   1      34.205  31.750  26.953  1.00  0.00    -0.200 F 
ENDBRANCH  55  79
BRANCH  67  90
ATOM     90  C   UNL A   1      39.376  32.002  35.891  1.00  0.00     0.064 A 
ATOM     91  C   UNL A   1      38.384  31.579  36.788  1.00  0.00     0.173 A 
ATOM     92  C   UNL A   1      39.860  33.315  36.021  1.00  0.00     0.173 A 
ATOM     93  F   UNL A   1      37.879  30.340  36.702  1.00  0.00    -0.203 F 
ATOM     94  C   UNL A   1      37.871  32.447  37.749  1.00  0.00     0.198 A 
ATOM     95  C   UNL A   1      39.371  34.166  37.007  1.00  0.00     0.198 A 
ATOM     96  F   UNL A   1      40.816  33.768  35.196  1.00  0.00    -0.203 F 
ATOM     97  F   UNL A   1      36.878  32.041  38.553  1.00  0.00    -0.200 F 
ATOM     98  C   UNL A   1      38.369  33.737  37.862  1.00  0.00     0.200 A 
ATOM     99  F   UNL A   1      39.867  35.406  37.126  1.00  0.00    -0.200 F 
ATOM    100  F   UNL A   1      37.875  34.569  38.790  1.00  0.00    -0.200 F 
ENDBRANCH  67  90
ENDBRANCH  41  42
ENDBRANCH  34  36
ENDBRANCH  33  34
ENDBRANCH  32  33
ENDBRANCH  31  32
ENDBRANCH  30  31
ENDBRANCH  29  30
ENDBRANCH  28  29
ENDBRANCH   1  28
TORSDOF 22
ENDMDL
MODEL 3
REMARK VINA RESULT:     -10.4      5.299     10.812
REMARK SMILES C[C@]1(C(=O)N2CCC(CC(=O)OCCOCCOCCOCCOC(=O)c3ccc(-c4c5nc(c(-c6c(F)c(F)c(F)c(F)c6F)c6ccc([nH]6)c(-c6c(F)c(F)c(F)c(F)c6F)c6nc(c(-c7c(F)c(F)c(F)c(F)c7F)c7ccc4[nH]7)C=C6)C=C5)cc3)CC2)CCC[NH2+]C1
REMARK SMILES IDX 18 1 17 2 16 3 15 4 14 5 13 6 12 7 10 8 11 9 9 10 8 11 3 12
REMARK SMILES IDX 4 13 5 14 6 15 91 16 7 17 90 18 2 19 1 20 92 21 96 22 93 23
REMARK SMILES IDX 95 24 94 25 19 28 20 29 21 30 22 31 23 32 24 33 25 34 26 35
REMARK SMILES IDX 27 36 28 37 89 38 29 39 88 40 30 41 31 42 32 43 82 44 33 45
REMARK SMILES IDX 87 46 81 47 83 48 34 49 86 50 80 51 79 52 35 54 67 55 47 56
REMARK SMILES IDX 66 57 48 58 51 59 65 60 84 61 49 62 50 63 64 65 85 66 52 67
REMARK SMILES IDX 36 68 37 69 45 70 38 71 39 72 43 73 46 74 40 75 41 76 44 77
REMARK SMILES IDX 42 78 68 79 69 80 77 81 70 82 71 83 75 84 78 85 72 86 73 87
REMARK SMILES IDX 76 88 74 89 53 90 54 91 62 92 55 93 56 94 60 95 63 96 57 97
REMARK SMILES IDX 58 98 61 99 59 100
REMARK H PARENT 95 26 95 27 83 53 51 64
REMARK Flexibility Score: inf
ROOT
ATOM      1  O   UNL A   1      33.780  32.682  27.795  1.00  0.00    -0.377 OA
ENDROOT
BRANCH   1   2
ATOM      2  C   UNL A   1      32.557  32.201  27.265  1.00  0.00     0.188 C 
BRANCH   2   3
ATOM      3  C   UNL A   1      32.443  30.709  26.940  1.00  0.00     0.188 C 
BRANCH   3   4
ATOM      4  O   UNL A   1      33.482  29.863  27.379  1.00  0.00    -0.376 OA
BRANCH   4   5
ATOM      5  C   UNL A   1      33.626  28.553  26.850  1.00  0.00     0.202 C 
BRANCH   5   6
ATOM      6  C   UNL A   1      32.896  28.013  25.606  1.00  0.00     0.261 C 
BRANCH   6   7
ATOM      7  O   UNL A   1      31.474  27.864  25.702  1.00  0.00    -0.463 OA
BRANCH   7   8
ATOM      8  C   UNL A   1      30.997  26.600  25.625  1.00  0.00     0.306 C 
ATOM      9  O   UNL A   1      30.958  25.821  26.573  1.00  0.00    -0.252 OA
BRANCH   8  10
ATOM     10  C   UNL A   1      30.453  26.196  24.268  1.00  0.00     0.126 C 
BRANCH  10  11
ATOM     11  C   UNL A   1      31.130  25.126  23.394  1.00  0.00     0.003 C 
ATOM     12  C   UNL A   1      33.901  22.099  23.954  1.00  0.00     0.234 C 
ATOM     13  O   UNL A   1      33.759  20.883  23.779  1.00  0.00    -0.274 OA
ATOM     14  N   UNL A   1      33.009  22.972  23.379  1.00  0.00    -0.342 N 
ATOM     15  C   UNL A   1      31.604  22.607  23.340  1.00  0.00     0.120 C 
ATOM     16  C   UNL A   1      33.356  24.162  22.631  1.00  0.00     0.120 C 
ATOM     17  C   UNL A   1      30.788  23.729  23.974  1.00  0.00     0.026 C 
ATOM     18  C   UNL A   1      32.633  25.378  23.194  1.00  0.00     0.026 C 
BRANCH  12  19
ATOM     19  C   UNL A   1      35.064  22.639  24.830  1.00  0.00     0.095 C 
ATOM     20  C   UNL A   1      36.221  23.019  23.884  1.00  0.00     0.028 C 
ATOM     21  C   UNL A   1      34.790  23.819  25.790  1.00  0.00     0.028 C 
ATOM     22  C   UNL A   1      35.471  21.450  25.748  1.00  0.00     0.277 C 
ATOM     23  C   UNL A   1      33.759  23.486  26.865  1.00  0.00     0.063 C 
ATOM     24  N   UNL A   1      34.419  21.113  26.723  1.00  0.00    -0.345 N 
ATOM     25  C   UNL A   1      34.116  22.217  27.625  1.00  0.00     0.260 C 
ATOM     26  H   UNL A   1      33.571  20.864  26.214  1.00  0.00     0.346 HD
ATOM     27  H   UNL A   1      34.761  20.337  27.289  1.00  0.00     0.346 HD
ENDBRANCH  12  19
ENDBRANCH  10  11
ENDBRANCH   8  10
ENDBRANCH   7   8
ENDBRANCH   6   7
ENDBRANCH   5   6
ENDBRANCH   4   5
ENDBRANCH   3   4
ENDBRANCH   2   3
ENDBRANCH   1   2
BRANCH   1  28
ATOM     28  C   UNL A   1      33.923  34.055  28.138  1.00  0.00     0.188 C 
BRANCH  28  29
ATOM     29  C   UNL A   1      34.510  34.474  29.499  1.00  0.00     0.188 C 
BRANCH  29  30
ATOM     30  O   UNL A   1      33.606  34.415  30.586  1.00  0.00    -0.376 OA
BRANCH  30  31
ATOM     31  C   UNL A   1      34.062  33.913  31.833  1.00  0.00     0.202 C 
BRANCH  31  32
ATOM     32  C   UNL A   1      35.190  34.674  32.546  1.00  0.00     0.261 C 
BRANCH  32  33
ATOM     33  O   UNL A   1      36.495  34.073  32.486  1.00  0.00    -0.460 OA
BRANCH  33  34
ATOM     34  C   UNL A   1      36.683  32.909  33.133  1.00  0.00     0.338 C 
ATOM     35  O   UNL A   1      36.130  32.523  34.153  1.00  0.00    -0.246 OA
BRANCH  34  36
ATOM     36  C   UNL A   1      37.557  32.060  32.305  1.00  0.00     0.060 A 
ATOM     37  C   UNL A   1      38.542  31.290  32.936  1.00  0.00     0.016 A 
ATOM     38  C   UNL A   1      37.436  32.060  30.913  1.00  0.00     0.016 A 
ATOM     39  C   UNL A   1      39.448  30.559  32.171  1.00  0.00     0.010 A 
ATOM     40  C   UNL A   1      38.358  31.341  30.147  1.00  0.00     0.010 A 
ATOM     41  C   UNL A   1      39.394  30.626  30.773  1.00  0.00    -0.014 A 
BRANCH  41  42
ATOM     42  C   UNL A   1      40.551  30.133  29.984  1.00  0.00     0.031 A 
ATOM     43  C   UNL A   1      41.680  31.086  29.702  1.00  0.00     0.074 A 
ATOM     44  C   UNL A   1      40.625  28.855  29.575  1.00  0.00     0.049 A 
ATOM     45  N   UNL A   1      42.787  30.892  29.033  1.00  0.00    -0.248 NA
ATOM     46  C   UNL A   1      41.540  32.445  30.250  1.00  0.00     0.031 C 
ATOM     47  C   UNL A   1      39.620  27.826  29.829  1.00  0.00     0.029 A 
ATOM     48  N   UNL A   1      41.598  28.207  28.856  1.00  0.00    -0.354 N 
ATOM     49  C   UNL A   1      43.471  32.102  29.078  1.00  0.00     0.074 A 
ATOM     50  C   UNL A   1      42.638  33.034  29.805  1.00  0.00     0.031 C 
ATOM     51  C   UNL A   1      40.024  26.675  29.266  1.00  0.00     0.029 A 
ATOM     52  C   UNL A   1      41.301  26.895  28.586  1.00  0.00     0.049 A 
ATOM     53  H   UNL A   1      42.429  28.643  28.560  1.00  0.00     0.167 HD
ATOM     54  C   UNL A   1      44.687  32.404  28.566  1.00  0.00     0.037 A 
ATOM     55  C   UNL A   1      41.976  25.985  27.858  1.00  0.00     0.037 A 
ATOM     56  C   UNL A   1      45.512  31.476  27.839  1.00  0.00     0.049 A 
ATOM     57  C   UNL A   1      43.294  26.370  27.233  1.00  0.00     0.074 A 
ATOM     58  C   UNL A   1      46.765  31.682  27.289  1.00  0.00     0.029 A 
ATOM     59  N   UNL A   1      45.160  30.166  27.552  1.00  0.00    -0.354 N 
ATOM     60  N   UNL A   1      43.944  27.507  27.297  1.00  0.00    -0.248 NA
ATOM     61  C   UNL A   1      43.977  25.338  26.439  1.00  0.00     0.031 C 
ATOM     62  C   UNL A   1      47.143  30.516  26.616  1.00  0.00     0.029 A 
ATOM     63  C   UNL A   1      46.160  29.559  26.808  1.00  0.00     0.049 A 
ATOM     64  H   UNL A   1      44.324  29.730  27.835  1.00  0.00     0.167 HD
ATOM     65  C   UNL A   1      45.124  27.316  26.587  1.00  0.00     0.074 A 
ATOM     66  C   UNL A   1      45.106  25.948  26.114  1.00  0.00     0.031 C 
ATOM     67  C   UNL A   1      46.132  28.192  26.350  1.00  0.00     0.037 A 
BRANCH  54  68
ATOM     68  C   UNL A   1      45.184  33.811  28.747  1.00  0.00     0.064 A 
ATOM     69  C   UNL A   1      45.986  34.180  29.838  1.00  0.00     0.173 A 
ATOM     70  C   UNL A   1      44.872  34.799  27.800  1.00  0.00     0.173 A 
ATOM     71  F   UNL A   1      46.300  33.280  30.782  1.00  0.00    -0.203 F 
ATOM     72  C   UNL A   1      46.432  35.491  29.989  1.00  0.00     0.198 A 
ATOM     73  C   UNL A   1      45.348  36.100  27.936  1.00  0.00     0.198 A 
ATOM     74  F   UNL A   1      44.111  34.500  26.737  1.00  0.00    -0.203 F 
ATOM     75  F   UNL A   1      47.151  35.833  31.066  1.00  0.00    -0.200 F 
ATOM     76  C   UNL A   1      46.120  36.448  29.034  1.00  0.00     0.200 A 
ATOM     77  F   UNL A   1      45.057  37.018  27.003  1.00  0.00    -0.200 F 
ATOM     78  F   UNL A   1      46.557  37.706  29.175  1.00  0.00    -0.200 F 
ENDBRANCH  54  68
BRANCH  55  79
ATOM     79  C   UNL A   1      41.418  24.619  27.665  1.00  0.00     0.064 A 
ATOM     80  C   UNL A   1      42.012  23.500  28.265  1.00  0.00     0.173 A 
ATOM     81  C   UNL A   1      40.296  24.402  26.851  1.00  0.00     0.173 A 
ATOM     82  F   UNL A   1      43.101  23.651  29.034  1.00  0.00    -0.203 F 
ATOM     83  C   UNL A   1      41.520  22.215  28.040  1.00  0.00     0.198 A 
ATOM     84  C   UNL A   1      39.786  23.121  26.652  1.00  0.00     0.198 A 
ATOM     85  F   UNL A   1      39.690  25.437  26.251  1.00  0.00    -0.203 F 
ATOM     86  F   UNL A   1      42.141  21.158  28.581  1.00  0.00    -0.200 F 
ATOM     87  C   UNL A   1      40.405  22.027  27.238  1.00  0.00     0.200 A 
ATOM     88  F   UNL A   1      38.699  22.946  25.888  1.00  0.00    -0.200 F 
ATOM     89  F   UNL A   1      39.932  20.792  27.022  1.00  0.00    -0.200 F 
ENDBRANCH  55  79
BRANCH  67  90
ATOM     90  C   UNL A   1      47.326  27.685  25.587  1.00  0.00     0.064 A 
ATOM     91  C   UNL A   1      47.398  27.752  24.188  1.00  0.00     0.173 A 
ATOM     92  C   UNL A   1      48.426  27.145  26.274  1.00  0.00     0.173 A 
ATOM     93  F   UNL A   1      46.371  28.248  23.481  1.00  0.00    -0.203 F 
ATOM     94  C   UNL A   1      48.508  27.262  23.503  1.00  0.00     0.198 A 
ATOM     95  C   UNL A   1      49.550  26.691  25.587  1.00  0.00     0.198 A 
ATOM     96  F   UNL A   1      48.416  27.066  27.613  1.00  0.00    -0.203 F 
ATOM     97  F   UNL A   1      48.526  27.278  22.163  1.00  0.00    -0.200 F 
ATOM     98  C   UNL A   1      49.585  26.739  24.204  1.00  0.00     0.200 A 
ATOM     99  F   UNL A   1      50.596  26.204  26.268  1.00  0.00    -0.200 F 
ATOM    100  F   UNL A   1      50.653  26.271  23.542  1.00  0.00    -0.200 F 
ENDBRANCH  67  90
ENDBRANCH  41  42
ENDBRANCH  34  36
ENDBRANCH  33  34
ENDBRANCH  32  33
ENDBRANCH  31  32
ENDBRANCH  30  31
ENDBRANCH  29  30
ENDBRANCH  28  29
ENDBRANCH   1  28
TORSDOF 22
ENDMDL
