MODEL 1
REMARK VINA RESULT:     -10.9      0.000      0.000
REMARK SMILES O=C(Cn1cc(NC(=O)N2CC[N@@H+]3CCC[C@@H]3C2)cn1)OCCOCCOCCOCCOC(=O)c1ccc(-c2c3nc(c(-c4c(F)c(F)c(F)c(F)c4F)c4ccc([nH]4)c(-c4c(F)c(F)c(F)c(F)c4F)c4nc(c(-c5c(F)c(F)c(F)c(F)c5F)c5ccc2[nH]5)C=C4)C=C3)cc1
REMARK SMILES IDX 26 1 25 2 24 3 23 4 22 5 21 6 2 7 1 8 3 9 4 10 5 11 20 12
REMARK SMILES IDX 6 13 19 14 7 15 8 16 9 18 10 19 11 20 18 21 12 22 17 23
REMARK SMILES IDX 13 24 16 25 14 26 15 28 27 29 28 30 29 31 30 32 31 33 32 34
REMARK SMILES IDX 33 35 34 36 35 37 36 38 37 39 98 40 38 41 97 42 39 43 40 44
REMARK SMILES IDX 41 45 91 46 42 47 96 48 90 49 92 50 43 51 95 52 89 53 88 54
REMARK SMILES IDX 44 56 76 57 56 58 75 59 57 60 60 61 74 62 93 63 58 64 59 65
REMARK SMILES IDX 73 67 94 68 61 69 45 70 46 71 54 72 47 73 48 74 52 75 55 76
REMARK SMILES IDX 49 77 50 78 53 79 51 80 77 81 78 82 86 83 79 84 80 85 84 86
REMARK SMILES IDX 87 87 81 88 82 89 85 90 83 91 62 92 63 93 71 94 64 95 65 96
REMARK SMILES IDX 69 97 72 98 66 99 67 100 70 101 68 102
REMARK H PARENT 7 17 13 27 92 55 60 66
REMARK Flexibility Score: inf
ROOT
ATOM      1  C   UNL A   1      36.894  20.828  25.033  1.00  0.00     0.188 C 
ENDROOT
BRANCH   1   2
ATOM      2  C   UNL A   1      35.382  20.724  24.781  1.00  0.00     0.188 C 
BRANCH   2   3
ATOM      3  O   UNL A   1      34.777  19.463  24.988  1.00  0.00    -0.376 OA
BRANCH   3   4
ATOM      4  C   UNL A   1      33.368  19.282  24.967  1.00  0.00     0.202 C 
BRANCH   4   5
ATOM      5  C   UNL A   1      32.491  20.372  24.363  1.00  0.00     0.261 C 
BRANCH   5   6
ATOM      6  O   UNL A   1      31.416  20.939  25.164  1.00  0.00    -0.462 OA
BRANCH   6   7
ATOM      7  C   UNL A   1      31.339  22.045  25.943  1.00  0.00     0.327 C 
ATOM      8  O   UNL A   1      30.258  22.631  26.026  1.00  0.00    -0.250 OA
BRANCH   7   9
ATOM      9  C   UNL A   1      32.557  22.637  26.599  1.00  0.00     0.266 C 
BRANCH   9  10
ATOM     10  N   UNL A   1      33.329  23.461  25.703  1.00  0.00    -0.259 N 
ATOM     11  C   UNL A   1      33.116  23.680  24.368  1.00  0.00     0.135 A 
ATOM     12  N   UNL A   1      34.419  24.077  26.174  1.00  0.00    -0.179 NA
ATOM     13  C   UNL A   1      34.128  24.521  23.967  1.00  0.00     0.081 A 
ATOM     14  C   UNL A   1      34.869  24.766  25.139  1.00  0.00     0.161 A 
BRANCH  13  15
ATOM     15  N   UNL A   1      34.315  25.052  22.704  1.00  0.00    -0.305 N 
ATOM     16  C   UNL A   1      33.365  25.830  22.086  1.00  0.00     0.322 C 
ATOM     17  H   UNL A   1      35.158  24.866  22.230  1.00  0.00     0.171 HD
ATOM     18  O   UNL A   1      33.098  25.664  20.899  1.00  0.00    -0.248 OA
BRANCH  16  19
ATOM     19  N   UNL A   1      32.718  26.750  22.886  1.00  0.00    -0.313 N 
ATOM     20  C   UNL A   1      33.403  27.953  23.382  1.00  0.00     0.183 C 
ATOM     21  C   UNL A   1      31.271  26.712  23.022  1.00  0.00     0.186 C 
ATOM     22  C   UNL A   1      32.445  29.012  23.968  1.00  0.00     0.284 C 
ATOM     23  C   UNL A   1      30.626  28.032  22.601  1.00  0.00     0.204 C 
ATOM     24  N   UNL A   1      31.255  29.260  23.144  1.00  0.00    -0.330 N 
ATOM     25  C   UNL A   1      29.158  28.097  23.016  1.00  0.00     0.073 C 
ATOM     26  C   UNL A   1      30.229  30.028  23.856  1.00  0.00     0.262 C 
ATOM     27  H   UNL A   1      31.617  29.806  22.361  1.00  0.00     0.348 HD
ATOM     28  C   UNL A   1      28.924  29.579  23.223  1.00  0.00     0.068 C 
ENDBRANCH  16  19
ENDBRANCH  13  15
ENDBRANCH   9  10
ENDBRANCH   7   9
ENDBRANCH   6   7
ENDBRANCH   5   6
ENDBRANCH   4   5
ENDBRANCH   3   4
ENDBRANCH   2   3
ENDBRANCH   1   2
BRANCH   1  29
ATOM     29  O   UNL A   1      37.585  22.023  24.717  1.00  0.00    -0.377 OA
BRANCH  29  30
ATOM     30  C   UNL A   1      38.037  22.843  25.770  1.00  0.00     0.188 C 
BRANCH  30  31
ATOM     31  C   UNL A   1      39.241  22.256  26.539  1.00  0.00     0.188 C 
BRANCH  31  32
ATOM     32  O   UNL A   1      40.277  21.479  25.947  1.00  0.00    -0.376 OA
BRANCH  32  33
ATOM     33  C   UNL A   1      40.514  20.102  26.203  1.00  0.00     0.202 C 
BRANCH  33  34
ATOM     34  C   UNL A   1      41.895  19.522  26.500  1.00  0.00     0.261 C 
BRANCH  34  35
ATOM     35  O   UNL A   1      42.895  20.516  26.578  1.00  0.00    -0.460 OA
BRANCH  35  36
ATOM     36  C   UNL A   1      43.638  20.602  25.470  1.00  0.00     0.338 C 
ATOM     37  O   UNL A   1      43.950  19.677  24.713  1.00  0.00    -0.246 OA
BRANCH  36  38
ATOM     38  C   UNL A   1      44.109  21.973  25.294  1.00  0.00     0.060 A 
ATOM     39  C   UNL A   1      45.136  22.360  26.152  1.00  0.00     0.016 A 
ATOM     40  C   UNL A   1      43.370  22.902  24.541  1.00  0.00     0.016 A 
ATOM     41  C   UNL A   1      45.175  23.672  26.532  1.00  0.00     0.010 A 
ATOM     42  C   UNL A   1      43.432  24.226  24.895  1.00  0.00     0.010 A 
ATOM     43  C   UNL A   1      44.221  24.544  25.994  1.00  0.00    -0.014 A 
BRANCH  43  44
ATOM     44  C   UNL A   1      43.973  25.742  26.757  1.00  0.00     0.031 A 
ATOM     45  C   UNL A   1      44.994  26.787  26.597  1.00  0.00     0.074 A 
ATOM     46  C   UNL A   1      42.902  25.834  27.566  1.00  0.00     0.049 A 
ATOM     47  N   UNL A   1      45.758  27.300  27.502  1.00  0.00    -0.248 NA
ATOM     48  C   UNL A   1      45.277  27.228  25.225  1.00  0.00     0.031 C 
ATOM     49  C   UNL A   1      41.716  24.971  27.613  1.00  0.00     0.029 A 
ATOM     50  N   UNL A   1      42.615  26.807  28.468  1.00  0.00    -0.354 N 
ATOM     51  C   UNL A   1      46.511  28.259  26.842  1.00  0.00     0.074 A 
ATOM     52  C   UNL A   1      46.276  28.083  25.432  1.00  0.00     0.031 C 
ATOM     53  C   UNL A   1      40.750  25.592  28.325  1.00  0.00     0.029 A 
ATOM     54  C   UNL A   1      41.294  26.820  28.878  1.00  0.00     0.049 A 
ATOM     55  H   UNL A   1      43.285  27.446  28.800  1.00  0.00     0.167 HD
ATOM     56  C   UNL A   1      47.086  29.285  27.518  1.00  0.00     0.037 A 
ATOM     57  C   UNL A   1      40.679  27.835  29.529  1.00  0.00     0.037 A 
ATOM     58  C   UNL A   1      47.317  28.955  28.900  1.00  0.00     0.049 A 
ATOM     59  C   UNL A   1      41.733  28.687  30.139  1.00  0.00     0.074 A 
ATOM     60  C   UNL A   1      48.051  27.975  29.543  1.00  0.00     0.029 A 
ATOM     61  N   UNL A   1      46.487  29.478  29.859  1.00  0.00    -0.354 N 
ATOM     62  N   UNL A   1      42.483  28.327  31.144  1.00  0.00    -0.248 NA
ATOM     63  C   UNL A   1      42.244  29.802  29.353  1.00  0.00     0.031 C 
ATOM     64  C   UNL A   1      47.304  27.649  30.712  1.00  0.00     0.029 A 
ATOM     65  C   UNL A   1      46.170  28.459  30.721  1.00  0.00     0.049 A 
ATOM     66  H   UNL A   1      46.176  30.411  29.916  1.00  0.00     0.167 HD
ATOM     67  C   UNL A   1      43.726  28.883  30.878  1.00  0.00     0.074 A 
ATOM     68  C   UNL A   1      43.491  29.862  29.825  1.00  0.00     0.031 C 
ATOM     69  C   UNL A   1      44.874  28.300  31.336  1.00  0.00     0.037 A 
BRANCH  56  70
ATOM     70  C   UNL A   1      47.096  30.690  26.983  1.00  0.00     0.064 A 
ATOM     71  C   UNL A   1      48.295  31.422  26.990  1.00  0.00     0.173 A 
ATOM     72  C   UNL A   1      45.922  31.438  26.732  1.00  0.00     0.173 A 
ATOM     73  F   UNL A   1      49.463  30.815  27.249  1.00  0.00    -0.203 F 
ATOM     74  C   UNL A   1      48.309  32.809  26.824  1.00  0.00     0.198 A 
ATOM     75  C   UNL A   1      45.947  32.811  26.508  1.00  0.00     0.198 A 
ATOM     76  F   UNL A   1      44.700  30.898  26.804  1.00  0.00    -0.203 F 
ATOM     77  F   UNL A   1      49.460  33.481  26.961  1.00  0.00    -0.200 F 
ATOM     78  C   UNL A   1      47.136  33.501  26.586  1.00  0.00     0.200 A 
ATOM     79  F   UNL A   1      44.795  33.465  26.299  1.00  0.00    -0.200 F 
ATOM     80  F   UNL A   1      47.142  34.837  26.485  1.00  0.00    -0.200 F 
ENDBRANCH  56  70
BRANCH  57  81
ATOM     81  C   UNL A   1      39.278  28.281  29.360  1.00  0.00     0.064 A 
ATOM     82  C   UNL A   1      38.419  28.395  30.463  1.00  0.00     0.173 A 
ATOM     83  C   UNL A   1      38.822  28.841  28.150  1.00  0.00     0.173 A 
ATOM     84  F   UNL A   1      38.800  27.935  31.664  1.00  0.00    -0.203 F 
ATOM     85  C   UNL A   1      37.183  29.041  30.362  1.00  0.00     0.198 A 
ATOM     86  C   UNL A   1      37.583  29.472  28.046  1.00  0.00     0.198 A 
ATOM     87  F   UNL A   1      39.607  28.874  27.063  1.00  0.00    -0.203 F 
ATOM     88  F   UNL A   1      36.414  29.184  31.451  1.00  0.00    -0.200 F 
ATOM     89  C   UNL A   1      36.768  29.583  29.156  1.00  0.00     0.200 A 
ATOM     90  F   UNL A   1      37.213  30.021  26.881  1.00  0.00    -0.200 F 
ATOM     91  F   UNL A   1      35.608  30.245  29.071  1.00  0.00    -0.200 F 
ENDBRANCH  57  81
BRANCH  69  92
ATOM     92  C   UNL A   1      44.735  27.210  32.361  1.00  0.00     0.064 A 
ATOM     93  C   UNL A   1      44.639  27.453  33.741  1.00  0.00     0.173 A 
ATOM     94  C   UNL A   1      44.562  25.891  31.924  1.00  0.00     0.173 A 
ATOM     95  F   UNL A   1      44.685  28.703  34.224  1.00  0.00    -0.203 F 
ATOM     96  C   UNL A   1      44.434  26.414  34.646  1.00  0.00     0.198 A 
ATOM     97  C   UNL A   1      44.321  24.858  32.827  1.00  0.00     0.198 A 
ATOM     98  F   UNL A   1      44.580  25.608  30.611  1.00  0.00    -0.203 F 
ATOM     99  F   UNL A   1      44.363  26.669  35.961  1.00  0.00    -0.200 F 
ATOM    100  C   UNL A   1      44.270  25.117  34.187  1.00  0.00     0.200 A 
ATOM    101  F   UNL A   1      44.112  23.613  32.376  1.00  0.00    -0.200 F 
ATOM    102  F   UNL A   1      44.036  24.122  35.053  1.00  0.00    -0.200 F 
ENDBRANCH  69  92
ENDBRANCH  43  44
ENDBRANCH  36  38
ENDBRANCH  35  36
ENDBRANCH  34  35
ENDBRANCH  33  34
ENDBRANCH  32  33
ENDBRANCH  31  32
ENDBRANCH  30  31
ENDBRANCH  29  30
ENDBRANCH   1  29
TORSDOF 23
ENDMDL
MODEL 2
REMARK VINA RESULT:     -10.6      4.072      9.395
REMARK SMILES O=C(Cn1cc(NC(=O)N2CC[N@@H+]3CCC[C@@H]3C2)cn1)OCCOCCOCCOCCOC(=O)c1ccc(-c2c3nc(c(-c4c(F)c(F)c(F)c(F)c4F)c4ccc([nH]4)c(-c4c(F)c(F)c(F)c(F)c4F)c4nc(c(-c5c(F)c(F)c(F)c(F)c5F)c5ccc2[nH]5)C=C4)C=C3)cc1
REMARK SMILES IDX 26 1 25 2 24 3 23 4 22 5 21 6 2 7 1 8 3 9 4 10 5 11 20 12
REMARK SMILES IDX 6 13 19 14 7 15 8 16 9 18 10 19 11 20 18 21 12 22 17 23
REMARK SMILES IDX 13 24 16 25 14 26 15 28 27 29 28 30 29 31 30 32 31 33 32 34
REMARK SMILES IDX 33 35 34 36 35 37 36 38 37 39 98 40 38 41 97 42 39 43 40 44
REMARK SMILES IDX 41 45 91 46 42 47 96 48 90 49 92 50 43 51 95 52 89 53 88 54
REMARK SMILES IDX 44 56 76 57 56 58 75 59 57 60 60 61 74 62 93 63 58 64 59 65
REMARK SMILES IDX 73 67 94 68 61 69 45 70 46 71 54 72 47 73 48 74 52 75 55 76
REMARK SMILES IDX 49 77 50 78 53 79 51 80 77 81 78 82 86 83 79 84 80 85 84 86
REMARK SMILES IDX 87 87 81 88 82 89 85 90 83 91 62 92 63 93 71 94 64 95 65 96
REMARK SMILES IDX 69 97 72 98 66 99 67 100 70 101 68 102
REMARK H PARENT 7 17 13 27 92 55 60 66
REMARK Flexibility Score: inf
ROOT
ATOM      1  C   UNL A   1      33.628  34.379  29.105  1.00  0.00     0.188 C 
ENDROOT
BRANCH   1   2
ATOM      2  C   UNL A   1      34.447  34.253  27.811  1.00  0.00     0.188 C 
BRANCH   2   3
ATOM      3  O   UNL A   1      35.192  33.065  27.632  1.00  0.00    -0.376 OA
BRANCH   3   4
ATOM      4  C   UNL A   1      34.663  31.782  27.936  1.00  0.00     0.202 C 
BRANCH   4   5
ATOM      5  C   UNL A   1      35.492  30.544  27.615  1.00  0.00     0.261 C 
BRANCH   5   6
ATOM      6  O   UNL A   1      34.809  29.310  27.253  1.00  0.00    -0.462 OA
BRANCH   6   7
ATOM      7  C   UNL A   1      33.563  29.056  26.787  1.00  0.00     0.327 C 
ATOM      8  O   UNL A   1      32.943  28.099  27.256  1.00  0.00    -0.250 OA
BRANCH   7   9
ATOM      9  C   UNL A   1      32.975  29.827  25.636  1.00  0.00     0.266 C 
BRANCH   9  10
ATOM     10  N   UNL A   1      32.308  28.980  24.679  1.00  0.00    -0.259 N 
ATOM     11  C   UNL A   1      32.811  28.474  23.510  1.00  0.00     0.135 A 
ATOM     12  N   UNL A   1      31.030  28.650  24.893  1.00  0.00    -0.179 NA
ATOM     13  C   UNL A   1      31.786  27.745  22.953  1.00  0.00     0.081 A 
ATOM     14  C   UNL A   1      30.731  27.855  23.880  1.00  0.00     0.161 A 
BRANCH  13  15
ATOM     15  N   UNL A   1      31.828  27.016  21.779  1.00  0.00    -0.305 N 
ATOM     16  C   UNL A   1      32.637  25.916  21.626  1.00  0.00     0.322 C 
ATOM     17  H   UNL A   1      31.258  27.295  21.025  1.00  0.00     0.171 HD
ATOM     18  O   UNL A   1      33.278  25.751  20.591  1.00  0.00    -0.248 OA
BRANCH  16  19
ATOM     19  N   UNL A   1      32.713  25.061  22.707  1.00  0.00    -0.313 N 
ATOM     20  C   UNL A   1      31.570  24.229  23.110  1.00  0.00     0.183 C 
ATOM     21  C   UNL A   1      34.002  24.740  23.297  1.00  0.00     0.186 C 
ATOM     22  C   UNL A   1      31.940  23.113  24.110  1.00  0.00     0.284 C 
ATOM     23  C   UNL A   1      34.274  23.236  23.286  1.00  0.00     0.204 C 
ATOM     24  N   UNL A   1      33.160  22.376  23.755  1.00  0.00    -0.330 N 
ATOM     25  C   UNL A   1      35.474  22.875  24.158  1.00  0.00     0.073 C 
ATOM     26  C   UNL A   1      33.653  21.542  24.856  1.00  0.00     0.262 C 
ATOM     27  H   UNL A   1      32.865  21.785  22.978  1.00  0.00     0.348 HD
ATOM     28  C   UNL A   1      35.152  21.471  24.626  1.00  0.00     0.068 C 
ENDBRANCH  16  19
ENDBRANCH  13  15
ENDBRANCH   9  10
ENDBRANCH   7   9
ENDBRANCH   6   7
ENDBRANCH   5   6
ENDBRANCH   4   5
ENDBRANCH   3   4
ENDBRANCH   2   3
ENDBRANCH   1   2
BRANCH   1  29
ATOM     29  O   UNL A   1      32.631  35.379  29.218  1.00  0.00    -0.377 OA
BRANCH  29  30
ATOM     30  C   UNL A   1      32.907  36.529  29.984  1.00  0.00     0.188 C 
BRANCH  30  31
ATOM     31  C   UNL A   1      33.112  36.237  31.487  1.00  0.00     0.188 C 
BRANCH  31  32
ATOM     32  O   UNL A   1      32.984  34.951  32.086  1.00  0.00    -0.376 OA
BRANCH  32  33
ATOM     33  C   UNL A   1      33.983  34.308  32.864  1.00  0.00     0.202 C 
BRANCH  33  34
ATOM     34  C   UNL A   1      35.370  33.953  32.332  1.00  0.00     0.261 C 
BRANCH  34  35
ATOM     35  O   UNL A   1      35.370  32.768  31.564  1.00  0.00    -0.460 OA
BRANCH  35  36
ATOM     36  C   UNL A   1      36.129  31.801  32.090  1.00  0.00     0.338 C 
ATOM     37  O   UNL A   1      36.281  31.548  33.289  1.00  0.00    -0.246 OA
BRANCH  36  38
ATOM     38  C   UNL A   1      36.836  31.093  31.026  1.00  0.00     0.060 A 
ATOM     39  C   UNL A   1      36.689  29.708  31.041  1.00  0.00     0.016 A 
ATOM     40  C   UNL A   1      37.825  31.735  30.261  1.00  0.00     0.016 A 
ATOM     41  C   UNL A   1      37.742  28.960  30.593  1.00  0.00     0.010 A 
ATOM     42  C   UNL A   1      38.866  30.984  29.779  1.00  0.00     0.010 A 
ATOM     43  C   UNL A   1      38.867  29.633  30.102  1.00  0.00    -0.014 A 
BRANCH  43  44
ATOM     44  C   UNL A   1      40.096  28.879  30.114  1.00  0.00     0.031 A 
ATOM     45  C   UNL A   1      40.748  28.799  31.428  1.00  0.00     0.074 A 
ATOM     46  C   UNL A   1      40.588  28.345  28.981  1.00  0.00     0.049 A 
ATOM     47  N   UNL A   1      41.917  29.230  31.766  1.00  0.00    -0.248 NA
ATOM     48  C   UNL A   1      39.938  28.274  32.536  1.00  0.00     0.031 C 
ATOM     49  C   UNL A   1      39.912  28.158  27.692  1.00  0.00     0.029 A 
ATOM     50  N   UNL A   1      41.797  27.761  28.786  1.00  0.00    -0.354 N 
ATOM     51  C   UNL A   1      42.063  28.879  33.100  1.00  0.00     0.074 A 
ATOM     52  C   UNL A   1      40.777  28.419  33.558  1.00  0.00     0.031 C 
ATOM     53  C   UNL A   1      40.638  27.304  26.936  1.00  0.00     0.029 A 
ATOM     54  C   UNL A   1      41.872  26.994  27.637  1.00  0.00     0.049 A 
ATOM     55  H   UNL A   1      42.553  27.872  29.406  1.00  0.00     0.167 HD
ATOM     56  C   UNL A   1      43.292  28.765  33.664  1.00  0.00     0.037 A 
ATOM     57  C   UNL A   1      42.837  26.088  27.353  1.00  0.00     0.037 A 
ATOM     58  C   UNL A   1      44.273  29.560  32.974  1.00  0.00     0.049 A 
ATOM     59  C   UNL A   1      44.011  26.393  28.210  1.00  0.00     0.074 A 
ATOM     60  C   UNL A   1      44.400  30.911  32.707  1.00  0.00     0.029 A 
ATOM     61  N   UNL A   1      45.172  28.938  32.145  1.00  0.00    -0.354 N 
ATOM     62  N   UNL A   1      44.776  27.440  28.069  1.00  0.00    -0.248 NA
ATOM     63  C   UNL A   1      44.093  25.736  29.509  1.00  0.00     0.031 C 
ATOM     64  C   UNL A   1      45.017  30.987  31.424  1.00  0.00     0.029 A 
ATOM     65  C   UNL A   1      45.245  29.680  30.994  1.00  0.00     0.049 A 
ATOM     66  H   UNL A   1      45.672  28.111  32.340  1.00  0.00     0.167 HD
ATOM     67  C   UNL A   1      45.117  27.810  29.363  1.00  0.00     0.074 A 
ATOM     68  C   UNL A   1      44.758  26.668  30.195  1.00  0.00     0.031 C 
ATOM     69  C   UNL A   1      45.395  29.110  29.676  1.00  0.00     0.037 A 
BRANCH  56  70
ATOM     70  C   UNL A   1      43.636  27.653  34.614  1.00  0.00     0.064 A 
ATOM     71  C   UNL A   1      43.556  26.321  34.174  1.00  0.00     0.173 A 
ATOM     72  C   UNL A   1      43.760  27.831  36.012  1.00  0.00     0.173 A 
ATOM     73  F   UNL A   1      43.405  26.041  32.870  1.00  0.00    -0.203 F 
ATOM     74  C   UNL A   1      43.536  25.251  35.072  1.00  0.00     0.198 A 
ATOM     75  C   UNL A   1      43.799  26.759  36.899  1.00  0.00     0.198 A 
ATOM     76  F   UNL A   1      43.735  29.039  36.585  1.00  0.00    -0.203 F 
ATOM     77  F   UNL A   1      43.335  24.007  34.617  1.00  0.00    -0.200 F 
ATOM     78  C   UNL A   1      43.655  25.472  36.433  1.00  0.00     0.200 A 
ATOM     79  F   UNL A   1      43.896  26.997  38.215  1.00  0.00    -0.200 F 
ATOM     80  F   UNL A   1      43.578  24.451  37.298  1.00  0.00    -0.200 F 
ENDBRANCH  56  70
BRANCH  57  81
ATOM     81  C   UNL A   1      42.665  24.799  26.646  1.00  0.00     0.064 A 
ATOM     82  C   UNL A   1      43.409  24.504  25.495  1.00  0.00     0.173 A 
ATOM     83  C   UNL A   1      41.950  23.730  27.223  1.00  0.00     0.173 A 
ATOM     84  F   UNL A   1      44.160  25.453  24.915  1.00  0.00    -0.203 F 
ATOM     85  C   UNL A   1      43.444  23.212  24.960  1.00  0.00     0.198 A 
ATOM     86  C   UNL A   1      41.973  22.446  26.679  1.00  0.00     0.198 A 
ATOM     87  F   UNL A   1      41.289  23.883  28.379  1.00  0.00    -0.203 F 
ATOM     88  F   UNL A   1      44.214  22.953  23.893  1.00  0.00    -0.200 F 
ATOM     89  C   UNL A   1      42.731  22.184  25.554  1.00  0.00     0.200 A 
ATOM     90  F   UNL A   1      41.305  21.456  27.287  1.00  0.00    -0.200 F 
ATOM     91  F   UNL A   1      42.804  20.937  25.072  1.00  0.00    -0.200 F 
ENDBRANCH  57  81
BRANCH  69  92
ATOM     92  C   UNL A   1      45.595  30.070  28.537  1.00  0.00     0.064 A 
ATOM     93  C   UNL A   1      44.538  30.724  27.883  1.00  0.00     0.173 A 
ATOM     94  C   UNL A   1      46.900  30.439  28.187  1.00  0.00     0.173 A 
ATOM     95  F   UNL A   1      43.266  30.503  28.241  1.00  0.00    -0.203 F 
ATOM     96  C   UNL A   1      44.779  31.665  26.883  1.00  0.00     0.198 A 
ATOM     97  C   UNL A   1      47.138  31.405  27.213  1.00  0.00     0.198 A 
ATOM     98  F   UNL A   1      47.949  29.893  28.825  1.00  0.00    -0.203 F 
ATOM     99  F   UNL A   1      43.753  32.262  26.260  1.00  0.00    -0.200 F 
ATOM    100  C   UNL A   1      46.080  32.008  26.552  1.00  0.00     0.200 A 
ATOM    101  F   UNL A   1      48.397  31.773  26.932  1.00  0.00    -0.200 F 
ATOM    102  F   UNL A   1      46.313  32.939  25.618  1.00  0.00    -0.200 F 
ENDBRANCH  69  92
ENDBRANCH  43  44
ENDBRANCH  36  38
ENDBRANCH  35  36
ENDBRANCH  34  35
ENDBRANCH  33  34
ENDBRANCH  32  33
ENDBRANCH  31  32
ENDBRANCH  30  31
ENDBRANCH  29  30
ENDBRANCH   1  29
TORSDOF 23
ENDMDL
MODEL 3
REMARK VINA RESULT:     -10.4      3.853      8.542
REMARK SMILES O=C(Cn1cc(NC(=O)N2CC[N@@H+]3CCC[C@@H]3C2)cn1)OCCOCCOCCOCCOC(=O)c1ccc(-c2c3nc(c(-c4c(F)c(F)c(F)c(F)c4F)c4ccc([nH]4)c(-c4c(F)c(F)c(F)c(F)c4F)c4nc(c(-c5c(F)c(F)c(F)c(F)c5F)c5ccc2[nH]5)C=C4)C=C3)cc1
REMARK SMILES IDX 26 1 25 2 24 3 23 4 22 5 21 6 2 7 1 8 3 9 4 10 5 11 20 12
REMARK SMILES IDX 6 13 19 14 7 15 8 16 9 18 10 19 11 20 18 21 12 22 17 23
REMARK SMILES IDX 13 24 16 25 14 26 15 28 27 29 28 30 29 31 30 32 31 33 32 34
REMARK SMILES IDX 33 35 34 36 35 37 36 38 37 39 98 40 38 41 97 42 39 43 40 44
REMARK SMILES IDX 41 45 91 46 42 47 96 48 90 49 92 50 43 51 95 52 89 53 88 54
REMARK SMILES IDX 44 56 76 57 56 58 75 59 57 60 60 61 74 62 93 63 58 64 59 65
REMARK SMILES IDX 73 67 94 68 61 69 45 70 46 71 54 72 47 73 48 74 52 75 55 76
REMARK SMILES IDX 49 77 50 78 53 79 51 80 77 81 78 82 86 83 79 84 80 85 84 86
REMARK SMILES IDX 87 87 81 88 82 89 85 90 83 91 62 92 63 93 71 94 64 95 65 96
REMARK SMILES IDX 69 97 72 98 66 99 67 100 70 101 68 102
REMARK H PARENT 7 17 13 27 92 55 60 66
REMARK Flexibility Score: inf
ROOT
ATOM      1  C   UNL A   1      34.197  33.568  29.597  1.00  0.00     0.188 C 
ENDROOT
BRANCH   1   2
ATOM      2  C   UNL A   1      34.948  33.746  28.269  1.00  0.00     0.188 C 
BRANCH   2   3
ATOM      3  O   UNL A   1      35.257  32.575  27.540  1.00  0.00    -0.376 OA
BRANCH   3   4
ATOM      4  C   UNL A   1      34.720  31.304  27.879  1.00  0.00     0.202 C 
BRANCH   4   5
ATOM      5  C   UNL A   1      35.280  30.059  27.202  1.00  0.00     0.261 C 
BRANCH   5   6
ATOM      6  O   UNL A   1      34.417  28.898  27.032  1.00  0.00    -0.462 OA
BRANCH   6   7
ATOM      7  C   UNL A   1      33.148  28.759  26.579  1.00  0.00     0.327 C 
ATOM      8  O   UNL A   1      32.425  27.913  27.110  1.00  0.00    -0.250 OA
BRANCH   7   9
ATOM      9  C   UNL A   1      32.648  29.514  25.377  1.00  0.00     0.266 C 
BRANCH   9  10
ATOM     10  N   UNL A   1      32.003  28.661  24.411  1.00  0.00    -0.259 N 
ATOM     11  C   UNL A   1      32.547  28.107  23.283  1.00  0.00     0.135 A 
ATOM     12  N   UNL A   1      30.705  28.376  24.569  1.00  0.00    -0.179 NA
ATOM     13  C   UNL A   1      31.528  27.394  22.695  1.00  0.00     0.081 A 
ATOM     14  C   UNL A   1      30.432  27.562  23.564  1.00  0.00     0.161 A 
BRANCH  13  15
ATOM     15  N   UNL A   1      31.604  26.630  21.544  1.00  0.00    -0.305 N 
ATOM     16  C   UNL A   1      32.515  25.611  21.398  1.00  0.00     0.322 C 
ATOM     17  H   UNL A   1      30.985  26.825  20.803  1.00  0.00     0.171 HD
ATOM     18  O   UNL A   1      33.135  25.474  20.347  1.00  0.00    -0.248 OA
BRANCH  16  19
ATOM     19  N   UNL A   1      32.711  24.807  22.503  1.00  0.00    -0.313 N 
ATOM     20  C   UNL A   1      31.687  23.852  22.949  1.00  0.00     0.183 C 
ATOM     21  C   UNL A   1      34.037  24.670  23.082  1.00  0.00     0.186 C 
ATOM     22  C   UNL A   1      32.206  22.823  23.975  1.00  0.00     0.284 C 
ATOM     23  C   UNL A   1      34.496  23.213  23.112  1.00  0.00     0.204 C 
ATOM     24  N   UNL A   1      33.506  22.235  23.624  1.00  0.00    -0.330 N 
ATOM     25  C   UNL A   1      35.743  23.034  23.976  1.00  0.00     0.073 C 
ATOM     26  C   UNL A   1      34.113  21.505  24.741  1.00  0.00     0.262 C 
ATOM     27  H   UNL A   1      33.278  21.587  22.869  1.00  0.00     0.348 HD
ATOM     28  C   UNL A   1      35.606  21.616  24.490  1.00  0.00     0.068 C 
ENDBRANCH  16  19
ENDBRANCH  13  15
ENDBRANCH   9  10
ENDBRANCH   7   9
ENDBRANCH   6   7
ENDBRANCH   5   6
ENDBRANCH   4   5
ENDBRANCH   3   4
ENDBRANCH   2   3
ENDBRANCH   1   2
BRANCH   1  29
ATOM     29  O   UNL A   1      33.260  34.543  30.019  1.00  0.00    -0.377 OA
BRANCH  29  30
ATOM     30  C   UNL A   1      33.642  35.468  31.010  1.00  0.00     0.188 C 
BRANCH  30  31
ATOM     31  C   UNL A   1      33.819  34.838  32.409  1.00  0.00     0.188 C 
BRANCH  31  32
ATOM     32  O   UNL A   1      33.835  33.438  32.669  1.00  0.00    -0.376 OA
BRANCH  32  33
ATOM     33  C   UNL A   1      34.966  32.701  33.110  1.00  0.00     0.202 C 
BRANCH  33  34
ATOM     34  C   UNL A   1      36.115  32.287  32.193  1.00  0.00     0.261 C 
BRANCH  34  35
ATOM     35  O   UNL A   1      36.060  30.921  31.838  1.00  0.00    -0.460 OA
BRANCH  35  36
ATOM     36  C   UNL A   1      37.005  30.186  32.430  1.00  0.00     0.338 C 
ATOM     37  O   UNL A   1      37.443  30.324  33.577  1.00  0.00    -0.246 OA
BRANCH  36  38
ATOM     38  C   UNL A   1      37.525  29.196  31.489  1.00  0.00     0.060 A 
ATOM     39  C   UNL A   1      38.255  28.159  32.067  1.00  0.00     0.016 A 
ATOM     40  C   UNL A   1      37.550  29.453  30.108  1.00  0.00     0.016 A 
ATOM     41  C   UNL A   1      39.275  27.625  31.331  1.00  0.00     0.010 A 
ATOM     42  C   UNL A   1      38.551  28.890  29.358  1.00  0.00     0.010 A 
ATOM     43  C   UNL A   1      39.482  28.114  30.037  1.00  0.00    -0.014 A 
BRANCH  43  44
ATOM     44  C   UNL A   1      40.806  27.913  29.500  1.00  0.00     0.031 A 
ATOM     45  C   UNL A   1      41.048  26.565  28.968  1.00  0.00     0.074 A 
ATOM     46  C   UNL A   1      41.723  28.897  29.542  1.00  0.00     0.049 A 
ATOM     47  N   UNL A   1      41.918  25.697  29.362  1.00  0.00    -0.248 NA
ATOM     48  C   UNL A   1      40.113  26.083  27.942  1.00  0.00     0.031 C 
ATOM     49  C   UNL A   1      41.520  30.323  29.818  1.00  0.00     0.029 A 
ATOM     50  N   UNL A   1      43.044  28.823  29.240  1.00  0.00    -0.354 N 
ATOM     51  C   UNL A   1      41.757  24.610  28.515  1.00  0.00     0.074 A 
ATOM     52  C   UNL A   1      40.556  24.842  27.755  1.00  0.00     0.031 C 
ATOM     53  C   UNL A   1      42.625  31.004  29.445  1.00  0.00     0.029 A 
ATOM     54  C   UNL A   1      43.641  30.053  29.028  1.00  0.00     0.049 A 
ATOM     55  H   UNL A   1      43.534  27.972  29.179  1.00  0.00     0.167 HD
ATOM     56  C   UNL A   1      42.757  23.712  28.330  1.00  0.00     0.037 A 
ATOM     57  C   UNL A   1      44.844  30.256  28.442  1.00  0.00     0.037 A 
ATOM     58  C   UNL A   1      43.659  23.677  29.450  1.00  0.00     0.049 A 
ATOM     59  C   UNL A   1      45.602  28.980  28.508  1.00  0.00     0.074 A 
ATOM     60  C   UNL A   1      43.509  23.397  30.797  1.00  0.00     0.029 A 
ATOM     61  N   UNL A   1      44.887  24.278  29.337  1.00  0.00    -0.354 N 
ATOM     62  N   UNL A   1      46.081  28.463  29.606  1.00  0.00    -0.248 NA
ATOM     63  C   UNL A   1      45.470  28.052  27.392  1.00  0.00     0.031 C 
ATOM     64  C   UNL A   1      44.430  24.255  31.466  1.00  0.00     0.029 A 
ATOM     65  C   UNL A   1      45.097  24.993  30.489  1.00  0.00     0.049 A 
ATOM     66  H   UNL A   1      45.502  24.210  28.571  1.00  0.00     0.167 HD
ATOM     67  C   UNL A   1      45.927  27.092  29.452  1.00  0.00     0.074 A 
ATOM     68  C   UNL A   1      45.647  26.896  28.035  1.00  0.00     0.031 C 
ATOM     69  C   UNL A   1      45.762  26.273  30.532  1.00  0.00     0.037 A 
BRANCH  56  70
ATOM     70  C   UNL A   1      43.083  23.145  26.977  1.00  0.00     0.064 A 
ATOM     71  C   UNL A   1      42.908  21.770  26.745  1.00  0.00     0.173 A 
ATOM     72  C   UNL A   1      43.826  23.844  25.997  1.00  0.00     0.173 A 
ATOM     73  F   UNL A   1      42.246  21.008  27.628  1.00  0.00    -0.203 F 
ATOM     74  C   UNL A   1      43.492  21.132  25.647  1.00  0.00     0.198 A 
ATOM     75  C   UNL A   1      44.356  23.215  24.874  1.00  0.00     0.198 A 
ATOM     76  F   UNL A   1      44.167  25.130  26.138  1.00  0.00    -0.203 F 
ATOM     77  F   UNL A   1      43.403  19.800  25.532  1.00  0.00    -0.200 F 
ATOM     78  C   UNL A   1      44.216  21.854  24.716  1.00  0.00     0.200 A 
ATOM     79  F   UNL A   1      45.070  23.930  23.994  1.00  0.00    -0.200 F 
ATOM     80  F   UNL A   1      44.823  21.233  23.696  1.00  0.00    -0.200 F 
ENDBRANCH  56  70
BRANCH  57  81
ATOM     81  C   UNL A   1      45.219  31.373  27.546  1.00  0.00     0.064 A 
ATOM     82  C   UNL A   1      44.387  31.756  26.484  1.00  0.00     0.173 A 
ATOM     83  C   UNL A   1      46.279  32.247  27.860  1.00  0.00     0.173 A 
ATOM     84  F   UNL A   1      43.325  31.006  26.155  1.00  0.00    -0.203 F 
ATOM     85  C   UNL A   1      44.598  32.950  25.786  1.00  0.00     0.198 A 
ATOM     86  C   UNL A   1      46.497  33.429  27.153  1.00  0.00     0.198 A 
ATOM     87  F   UNL A   1      47.070  32.025  28.919  1.00  0.00    -0.203 F 
ATOM     88  F   UNL A   1      43.747  33.314  24.816  1.00  0.00    -0.200 F 
ATOM     89  C   UNL A   1      45.648  33.787  26.124  1.00  0.00     0.200 A 
ATOM     90  F   UNL A   1      47.497  34.245  27.516  1.00  0.00    -0.200 F 
ATOM     91  F   UNL A   1      45.820  34.954  25.489  1.00  0.00    -0.200 F 
ENDBRANCH  57  81
BRANCH  69  92
ATOM     92  C   UNL A   1      46.031  26.856  31.891  1.00  0.00     0.064 A 
ATOM     93  C   UNL A   1      45.070  27.562  32.634  1.00  0.00     0.173 A 
ATOM     94  C   UNL A   1      47.254  26.578  32.514  1.00  0.00     0.173 A 
ATOM     95  F   UNL A   1      43.840  27.769  32.145  1.00  0.00    -0.203 F 
ATOM     96  C   UNL A   1      45.343  28.016  33.923  1.00  0.00     0.198 A 
ATOM     97  C   UNL A   1      47.512  27.002  33.816  1.00  0.00     0.198 A 
ATOM     98  F   UNL A   1      48.186  25.852  31.876  1.00  0.00    -0.203 F 
ATOM     99  F   UNL A   1      44.416  28.703  34.605  1.00  0.00    -0.200 F 
ATOM    100  C   UNL A   1      46.563  27.731  34.514  1.00  0.00     0.200 A 
ATOM    101  F   UNL A   1      48.673  26.680  34.404  1.00  0.00    -0.200 F 
ATOM    102  F   UNL A   1      46.814  28.135  35.767  1.00  0.00    -0.200 F 
ENDBRANCH  69  92
ENDBRANCH  43  44
ENDBRANCH  36  38
ENDBRANCH  35  36
ENDBRANCH  34  35
ENDBRANCH  33  34
ENDBRANCH  32  33
ENDBRANCH  31  32
ENDBRANCH  30  31
ENDBRANCH  29  30
ENDBRANCH   1  29
TORSDOF 23
ENDMDL
