MODEL 1
REMARK VINA RESULT:     -11.3      0.000      0.000
REMARK SMILES Cc1nn(C(C)C)c(C)c1S(=O)(=O)Nc1cccc(C(=O)OCCOCCOCCOCCOC(=O)c2ccc(-c3c4nc(c(-c5c(F)c(F)c(F)c(F)c5F)c5ccc([nH]5)c(-c5c(F)c(F)c(F)c(F)c5F)c5nc(c(-c6c(F)c(F)c(F)c(F)c6F)c6ccc3[nH]6)C=C5)C=C4)cc2)c1C
REMARK SMILES IDX 27 1 26 2 25 3 24 4 23 5 22 6 20 7 21 8 19 9 15 10 16 11
REMARK SMILES IDX 100 12 17 13 101 14 18 15 14 16 11 18 12 19 13 20 10 21 1 22
REMARK SMILES IDX 2 23 3 24 4 25 8 26 9 27 5 28 6 29 7 30 28 31 29 32 30 33
REMARK SMILES IDX 31 34 32 35 33 36 34 37 35 38 36 39 37 40 38 41 99 42 39 43
REMARK SMILES IDX 98 44 40 45 41 46 42 47 92 48 43 49 97 50 91 51 93 52 44 53
REMARK SMILES IDX 96 54 90 55 89 56 45 58 77 59 57 60 76 61 58 62 61 63 75 64
REMARK SMILES IDX 94 65 59 66 60 67 74 69 95 70 62 71 46 72 47 73 55 74 48 75
REMARK SMILES IDX 49 76 53 77 56 78 50 79 51 80 54 81 52 82 78 83 79 84 87 85
REMARK SMILES IDX 80 86 81 87 85 88 88 89 82 90 83 91 86 92 84 93 63 94 64 95
REMARK SMILES IDX 72 96 65 97 66 98 70 99 73 100 67 101 68 102 71 103 69 104
REMARK H PARENT 14 17 93 57 61 68
REMARK Flexibility Score: inf
ROOT
ATOM      1  C   UNL A   1      40.031  22.470  27.107  1.00  0.00     0.188 C 
ENDROOT
BRANCH   1   2
ATOM      2  C   UNL A   1      39.666  23.946  26.834  1.00  0.00     0.188 C 
BRANCH   2   3
ATOM      3  O   UNL A   1      38.459  24.350  26.225  1.00  0.00    -0.376 OA
BRANCH   3   4
ATOM      4  C   UNL A   1      37.471  23.352  26.077  1.00  0.00     0.202 C 
BRANCH   4   5
ATOM      5  C   UNL A   1      36.237  23.600  25.237  1.00  0.00     0.261 C 
BRANCH   5   6
ATOM      6  O   UNL A   1      35.124  23.561  26.116  1.00  0.00    -0.460 OA
BRANCH   6   7
ATOM      7  C   UNL A   1      34.463  22.416  25.968  1.00  0.00     0.338 C 
ATOM      8  O   UNL A   1      34.871  21.309  26.209  1.00  0.00    -0.246 OA
BRANCH   7   9
ATOM      9  C   UNL A   1      33.067  22.814  25.713  1.00  0.00     0.065 A 
ATOM     10  C   UNL A   1      31.571  23.659  24.114  1.00  0.00     0.053 A 
ATOM     11  C   UNL A   1      30.701  24.093  25.122  1.00  0.00     0.027 A 
ATOM     12  C   UNL A   1      32.666  22.853  24.379  1.00  0.00    -0.012 A 
ATOM     13  C   UNL A   1      30.988  23.815  26.452  1.00  0.00     0.003 A 
ATOM     14  C   UNL A   1      33.357  22.009  23.333  1.00  0.00     0.047 C 
ATOM     15  C   UNL A   1      32.216  23.231  26.756  1.00  0.00     0.016 A 
BRANCH  10  16
ATOM     16  N   UNL A   1      31.376  24.219  22.837  1.00  0.00    -0.279 N 
ATOM     17  H   UNL A   1      30.824  23.771  22.156  1.00  0.00     0.180 HD
BRANCH  16  18
ATOM     18  S   UNL A   1      32.142  25.706  22.529  1.00  0.00     0.265 S 
ATOM     19  O   UNL A   1      31.627  26.046  21.214  1.00  0.00    -0.201 OA
ATOM     20  O   UNL A   1      33.565  25.518  22.698  1.00  0.00    -0.201 OA
BRANCH  18  21
ATOM     21  C   UNL A   1      31.807  27.122  23.480  1.00  0.00     0.131 A 
ATOM     22  C   UNL A   1      29.550  28.403  22.750  1.00  0.00     0.070 C 
ATOM     23  C   UNL A   1      30.792  28.123  23.469  1.00  0.00     0.080 A 
ATOM     24  N   UNL A   1      30.998  29.037  24.413  1.00  0.00    -0.176 NA
ATOM     25  N   UNL A   1      31.948  28.529  25.178  1.00  0.00    -0.266 N 
ATOM     26  C   UNL A   1      32.460  27.363  24.694  1.00  0.00     0.056 A 
ATOM     27  C   UNL A   1      33.465  26.561  25.435  1.00  0.00     0.068 C 
BRANCH  25  28
ATOM     28  C   UNL A   1      32.269  29.283  26.381  1.00  0.00     0.101 C 
ATOM     29  C   UNL A   1      31.770  30.718  26.216  1.00  0.00     0.033 C 
ATOM     30  C   UNL A   1      31.648  28.616  27.614  1.00  0.00     0.033 C 
ENDBRANCH  25  28
ENDBRANCH  18  21
ENDBRANCH  16  18
ENDBRANCH  10  16
ENDBRANCH   7   9
ENDBRANCH   6   7
ENDBRANCH   5   6
ENDBRANCH   4   5
ENDBRANCH   3   4
ENDBRANCH   2   3
ENDBRANCH   1   2
BRANCH   1  31
ATOM     31  O   UNL A   1      40.836  21.736  26.201  1.00  0.00    -0.377 OA
BRANCH  31  32
ATOM     32  C   UNL A   1      40.698  20.321  26.215  1.00  0.00     0.188 C 
BRANCH  32  33
ATOM     33  C   UNL A   1      41.939  19.482  26.451  1.00  0.00     0.188 C 
BRANCH  33  34
ATOM     34  O   UNL A   1      42.580  19.262  25.197  1.00  0.00    -0.376 OA
BRANCH  34  35
ATOM     35  C   UNL A   1      43.940  18.848  25.263  1.00  0.00     0.202 C 
BRANCH  35  36
ATOM     36  C   UNL A   1      44.746  19.271  24.036  1.00  0.00     0.261 C 
BRANCH  36  37
ATOM     37  O   UNL A   1      45.563  20.405  24.396  1.00  0.00    -0.460 OA
BRANCH  37  38
ATOM     38  C   UNL A   1      44.990  21.625  24.196  1.00  0.00     0.338 C 
ATOM     39  O   UNL A   1      44.300  21.926  23.235  1.00  0.00    -0.246 OA
BRANCH  38  40
ATOM     40  C   UNL A   1      45.585  22.639  25.124  1.00  0.00     0.060 A 
ATOM     41  C   UNL A   1      45.192  22.676  26.474  1.00  0.00     0.016 A 
ATOM     42  C   UNL A   1      46.198  23.756  24.578  1.00  0.00     0.016 A 
ATOM     43  C   UNL A   1      45.223  23.885  27.199  1.00  0.00     0.010 A 
ATOM     44  C   UNL A   1      46.114  24.958  25.261  1.00  0.00     0.010 A 
ATOM     45  C   UNL A   1      45.580  25.068  26.559  1.00  0.00    -0.014 A 
BRANCH  45  46
ATOM     46  C   UNL A   1      45.335  26.445  27.077  1.00  0.00     0.031 A 
ATOM     47  C   UNL A   1      43.944  27.023  26.956  1.00  0.00     0.074 A 
ATOM     48  C   UNL A   1      46.207  26.989  27.976  1.00  0.00     0.049 A 
ATOM     49  N   UNL A   1      43.531  28.119  27.497  1.00  0.00    -0.248 NA
ATOM     50  C   UNL A   1      42.859  26.344  26.255  1.00  0.00     0.031 C 
ATOM     51  C   UNL A   1      45.888  27.903  29.080  1.00  0.00     0.029 A 
ATOM     52  N   UNL A   1      47.573  26.761  28.178  1.00  0.00    -0.354 N 
ATOM     53  C   UNL A   1      42.141  28.138  27.513  1.00  0.00     0.074 A 
ATOM     54  C   UNL A   1      41.785  27.033  26.659  1.00  0.00     0.031 C 
ATOM     55  C   UNL A   1      46.977  28.187  29.810  1.00  0.00     0.029 A 
ATOM     56  C   UNL A   1      48.095  27.791  29.003  1.00  0.00     0.049 A 
ATOM     57  H   UNL A   1      48.088  26.009  27.809  1.00  0.00     0.167 HD
ATOM     58  C   UNL A   1      41.491  29.020  28.350  1.00  0.00     0.037 A 
ATOM     59  C   UNL A   1      48.951  28.709  28.449  1.00  0.00     0.037 A 
ATOM     60  C   UNL A   1      42.464  29.925  29.018  1.00  0.00     0.049 A 
ATOM     61  C   UNL A   1      48.264  30.053  28.162  1.00  0.00     0.074 A 
ATOM     62  C   UNL A   1      42.785  30.282  30.319  1.00  0.00     0.029 A 
ATOM     63  N   UNL A   1      43.462  30.500  28.242  1.00  0.00    -0.354 N 
ATOM     64  N   UNL A   1      47.008  30.298  28.457  1.00  0.00    -0.248 NA
ATOM     65  C   UNL A   1      48.878  31.217  27.533  1.00  0.00     0.031 C 
ATOM     66  C   UNL A   1      43.990  31.060  30.294  1.00  0.00     0.029 A 
ATOM     67  C   UNL A   1      44.375  31.217  28.975  1.00  0.00     0.049 A 
ATOM     68  H   UNL A   1      43.510  30.402  27.263  1.00  0.00     0.167 HD
ATOM     69  C   UNL A   1      46.623  31.540  28.061  1.00  0.00     0.074 A 
ATOM     70  C   UNL A   1      47.835  32.070  27.451  1.00  0.00     0.031 C 
ATOM     71  C   UNL A   1      45.353  32.021  28.255  1.00  0.00     0.037 A 
BRANCH  58  72
ATOM     72  C   UNL A   1      39.989  29.038  28.723  1.00  0.00     0.064 A 
ATOM     73  C   UNL A   1      39.001  29.368  27.755  1.00  0.00     0.173 A 
ATOM     74  C   UNL A   1      39.437  28.777  29.998  1.00  0.00     0.173 A 
ATOM     75  F   UNL A   1      39.318  29.572  26.471  1.00  0.00    -0.203 F 
ATOM     76  C   UNL A   1      37.630  29.481  28.048  1.00  0.00     0.198 A 
ATOM     77  C   UNL A   1      38.061  28.855  30.282  1.00  0.00     0.198 A 
ATOM     78  F   UNL A   1      40.185  28.428  31.042  1.00  0.00    -0.203 F 
ATOM     79  F   UNL A   1      36.769  29.833  27.081  1.00  0.00    -0.200 F 
ATOM     80  C   UNL A   1      37.159  29.222  29.313  1.00  0.00     0.200 A 
ATOM     81  F   UNL A   1      37.625  28.569  31.519  1.00  0.00    -0.200 F 
ATOM     82  F   UNL A   1      35.850  29.306  29.592  1.00  0.00    -0.200 F 
ENDBRANCH  58  72
BRANCH  59  83
ATOM     83  C   UNL A   1      50.033  27.957  27.718  1.00  0.00     0.064 A 
ATOM     84  C   UNL A   1      50.010  28.177  26.315  1.00  0.00     0.173 A 
ATOM     85  C   UNL A   1      51.297  27.834  28.318  1.00  0.00     0.173 A 
ATOM     86  F   UNL A   1      48.833  28.249  25.674  1.00  0.00    -0.203 F 
ATOM     87  C   UNL A   1      51.152  28.612  25.640  1.00  0.00     0.198 A 
ATOM     88  C   UNL A   1      52.450  28.209  27.612  1.00  0.00     0.198 A 
ATOM     89  F   UNL A   1      51.396  27.597  29.633  1.00  0.00    -0.203 F 
ATOM     90  F   UNL A   1      51.047  29.110  24.399  1.00  0.00    -0.200 F 
ATOM     91  C   UNL A   1      52.359  28.685  26.310  1.00  0.00     0.200 A 
ATOM     92  F   UNL A   1      53.632  28.261  28.244  1.00  0.00    -0.200 F 
ATOM     93  F   UNL A   1      53.409  29.294  25.737  1.00  0.00    -0.200 F 
ENDBRANCH  59  83
BRANCH  71  94
ATOM     94  C   UNL A   1      44.866  33.331  27.699  1.00  0.00     0.064 A 
ATOM     95  C   UNL A   1      44.292  33.434  26.431  1.00  0.00     0.173 A 
ATOM     96  C   UNL A   1      44.999  34.546  28.418  1.00  0.00     0.173 A 
ATOM     97  F   UNL A   1      44.293  32.390  25.590  1.00  0.00    -0.203 F 
ATOM     98  C   UNL A   1      43.714  34.624  25.992  1.00  0.00     0.198 A 
ATOM     99  C   UNL A   1      44.490  35.748  27.945  1.00  0.00     0.198 A 
ATOM    100  F   UNL A   1      45.594  34.617  29.615  1.00  0.00    -0.203 F 
ATOM    101  F   UNL A   1      43.056  34.645  24.827  1.00  0.00    -0.200 F 
ATOM    102  C   UNL A   1      43.801  35.776  26.755  1.00  0.00     0.200 A 
ATOM    103  F   UNL A   1      44.645  36.866  28.671  1.00  0.00    -0.200 F 
ATOM    104  F   UNL A   1      43.221  36.910  26.344  1.00  0.00    -0.200 F 
ENDBRANCH  71  94
ENDBRANCH  45  46
ENDBRANCH  38  40
ENDBRANCH  37  38
ENDBRANCH  36  37
ENDBRANCH  35  36
ENDBRANCH  34  35
ENDBRANCH  33  34
ENDBRANCH  32  33
ENDBRANCH  31  32
ENDBRANCH   1  31
TORSDOF 24
ENDMDL
MODEL 2
REMARK VINA RESULT:     -10.5      1.189      2.104
REMARK SMILES Cc1nn(C(C)C)c(C)c1S(=O)(=O)Nc1cccc(C(=O)OCCOCCOCCOCCOC(=O)c2ccc(-c3c4nc(c(-c5c(F)c(F)c(F)c(F)c5F)c5ccc([nH]5)c(-c5c(F)c(F)c(F)c(F)c5F)c5nc(c(-c6c(F)c(F)c(F)c(F)c6F)c6ccc3[nH]6)C=C5)C=C4)cc2)c1C
REMARK SMILES IDX 27 1 26 2 25 3 24 4 23 5 22 6 20 7 21 8 19 9 15 10 16 11
REMARK SMILES IDX 100 12 17 13 101 14 18 15 14 16 11 18 12 19 13 20 10 21 1 22
REMARK SMILES IDX 2 23 3 24 4 25 8 26 9 27 5 28 6 29 7 30 28 31 29 32 30 33
REMARK SMILES IDX 31 34 32 35 33 36 34 37 35 38 36 39 37 40 38 41 99 42 39 43
REMARK SMILES IDX 98 44 40 45 41 46 42 47 92 48 43 49 97 50 91 51 93 52 44 53
REMARK SMILES IDX 96 54 90 55 89 56 45 58 77 59 57 60 76 61 58 62 61 63 75 64
REMARK SMILES IDX 94 65 59 66 60 67 74 69 95 70 62 71 46 72 47 73 55 74 48 75
REMARK SMILES IDX 49 76 53 77 56 78 50 79 51 80 54 81 52 82 78 83 79 84 87 85
REMARK SMILES IDX 80 86 81 87 85 88 88 89 82 90 83 91 86 92 84 93 63 94 64 95
REMARK SMILES IDX 72 96 65 97 66 98 70 99 73 100 67 101 68 102 71 103 69 104
REMARK H PARENT 14 17 93 57 61 68
REMARK Flexibility Score: inf
ROOT
ATOM      1  C   UNL A   1      40.172  22.522  27.086  1.00  0.00     0.188 C 
ENDROOT
BRANCH   1   2
ATOM      2  C   UNL A   1      39.137  23.188  26.153  1.00  0.00     0.188 C 
BRANCH   2   3
ATOM      3  O   UNL A   1      37.842  22.672  25.933  1.00  0.00    -0.376 OA
BRANCH   3   4
ATOM      4  C   UNL A   1      37.737  21.639  24.976  1.00  0.00     0.202 C 
BRANCH   4   5
ATOM      5  C   UNL A   1      36.602  20.639  25.034  1.00  0.00     0.261 C 
BRANCH   5   6
ATOM      6  O   UNL A   1      35.439  21.306  24.569  1.00  0.00    -0.460 OA
BRANCH   6   7
ATOM      7  C   UNL A   1      34.376  20.518  24.702  1.00  0.00     0.338 C 
ATOM      8  O   UNL A   1      34.347  19.318  24.602  1.00  0.00    -0.246 OA
BRANCH   7   9
ATOM      9  C   UNL A   1      33.324  21.390  25.256  1.00  0.00     0.065 A 
ATOM     10  C   UNL A   1      31.769  23.077  24.764  1.00  0.00     0.053 A 
ATOM     11  C   UNL A   1      31.723  23.460  26.110  1.00  0.00     0.027 A 
ATOM     12  C   UNL A   1      32.418  21.927  24.345  1.00  0.00    -0.012 A 
ATOM     13  C   UNL A   1      32.438  22.743  27.060  1.00  0.00     0.003 A 
ATOM     14  C   UNL A   1      32.137  21.239  23.029  1.00  0.00     0.047 C 
ATOM     15  C   UNL A   1      33.302  21.742  26.621  1.00  0.00     0.016 A 
BRANCH  10  16
ATOM     16  N   UNL A   1      31.267  24.005  23.832  1.00  0.00    -0.279 N 
ATOM     17  H   UNL A   1      30.324  23.992  23.547  1.00  0.00     0.180 HD
BRANCH  16  18
ATOM     18  S   UNL A   1      32.368  25.150  23.223  1.00  0.00     0.265 S 
ATOM     19  O   UNL A   1      31.785  25.475  21.933  1.00  0.00    -0.201 OA
ATOM     20  O   UNL A   1      33.689  24.565  23.268  1.00  0.00    -0.201 OA
BRANCH  18  21
ATOM     21  C   UNL A   1      32.588  26.699  23.977  1.00  0.00     0.131 A 
ATOM     22  C   UNL A   1      34.092  28.402  22.526  1.00  0.00     0.070 C 
ATOM     23  C   UNL A   1      33.302  27.888  23.643  1.00  0.00     0.080 A 
ATOM     24  N   UNL A   1      33.171  28.817  24.586  1.00  0.00    -0.176 NA
ATOM     25  N   UNL A   1      32.211  28.369  25.376  1.00  0.00    -0.266 N 
ATOM     26  C   UNL A   1      31.791  27.114  25.051  1.00  0.00     0.056 A 
ATOM     27  C   UNL A   1      30.656  26.448  25.735  1.00  0.00     0.068 C 
BRANCH  25  28
ATOM     28  C   UNL A   1      31.774  29.277  26.427  1.00  0.00     0.101 C 
ATOM     29  C   UNL A   1      31.604  28.487  27.726  1.00  0.00     0.033 C 
ATOM     30  C   UNL A   1      32.779  30.421  26.600  1.00  0.00     0.033 C 
ENDBRANCH  25  28
ENDBRANCH  18  21
ENDBRANCH  16  18
ENDBRANCH  10  16
ENDBRANCH   7   9
ENDBRANCH   6   7
ENDBRANCH   5   6
ENDBRANCH   4   5
ENDBRANCH   3   4
ENDBRANCH   2   3
ENDBRANCH   1   2
BRANCH   1  31
ATOM     31  O   UNL A   1      41.233  21.740  26.564  1.00  0.00    -0.377 OA
BRANCH  31  32
ATOM     32  C   UNL A   1      40.987  20.351  26.392  1.00  0.00     0.188 C 
BRANCH  32  33
ATOM     33  C   UNL A   1      42.174  19.409  26.388  1.00  0.00     0.188 C 
BRANCH  33  34
ATOM     34  O   UNL A   1      42.781  19.451  25.099  1.00  0.00    -0.376 OA
BRANCH  34  35
ATOM     35  C   UNL A   1      44.092  18.903  25.016  1.00  0.00     0.202 C 
BRANCH  35  36
ATOM     36  C   UNL A   1      44.968  19.622  23.991  1.00  0.00     0.261 C 
BRANCH  36  37
ATOM     37  O   UNL A   1      45.599  20.747  24.640  1.00  0.00    -0.460 OA
BRANCH  37  38
ATOM     38  C   UNL A   1      44.981  21.948  24.459  1.00  0.00     0.338 C 
ATOM     39  O   UNL A   1      44.300  22.246  23.491  1.00  0.00    -0.246 OA
BRANCH  38  40
ATOM     40  C   UNL A   1      45.516  22.960  25.426  1.00  0.00     0.060 A 
ATOM     41  C   UNL A   1      45.052  22.981  26.753  1.00  0.00     0.016 A 
ATOM     42  C   UNL A   1      46.144  24.088  24.922  1.00  0.00     0.016 A 
ATOM     43  C   UNL A   1      45.032  24.184  27.489  1.00  0.00     0.010 A 
ATOM     44  C   UNL A   1      46.011  25.283  25.609  1.00  0.00     0.010 A 
ATOM     45  C   UNL A   1      45.408  25.376  26.879  1.00  0.00    -0.014 A 
BRANCH  45  46
ATOM     46  C   UNL A   1      45.122  26.746  27.395  1.00  0.00     0.031 A 
ATOM     47  C   UNL A   1      43.714  27.282  27.267  1.00  0.00     0.074 A 
ATOM     48  C   UNL A   1      45.974  27.315  28.296  1.00  0.00     0.049 A 
ATOM     49  N   UNL A   1      43.268  28.367  27.806  1.00  0.00    -0.248 NA
ATOM     50  C   UNL A   1      42.652  26.572  26.563  1.00  0.00     0.031 C 
ATOM     51  C   UNL A   1      45.624  28.221  29.398  1.00  0.00     0.029 A 
ATOM     52  N   UNL A   1      47.345  27.128  28.504  1.00  0.00    -0.354 N 
ATOM     53  C   UNL A   1      41.878  28.345  27.817  1.00  0.00     0.074 A 
ATOM     54  C   UNL A   1      41.557  27.229  26.962  1.00  0.00     0.031 C 
ATOM     55  C   UNL A   1      46.702  28.537  30.132  1.00  0.00     0.029 A 
ATOM     56  C   UNL A   1      47.834  28.173  29.329  1.00  0.00     0.049 A 
ATOM     57  H   UNL A   1      47.884  26.391  28.137  1.00  0.00     0.167 HD
ATOM     58  C   UNL A   1      41.199  29.208  28.651  1.00  0.00     0.037 A 
ATOM     59  C   UNL A   1      48.665  29.116  28.778  1.00  0.00     0.037 A 
ATOM     60  C   UNL A   1      42.143  30.142  29.321  1.00  0.00     0.049 A 
ATOM     61  C   UNL A   1      47.939  30.438  28.488  1.00  0.00     0.074 A 
ATOM     62  C   UNL A   1      42.448  30.509  30.623  1.00  0.00     0.029 A 
ATOM     63  N   UNL A   1      43.126  30.745  28.548  1.00  0.00    -0.354 N 
ATOM     64  N   UNL A   1      46.676  30.647  28.777  1.00  0.00    -0.248 NA
ATOM     65  C   UNL A   1      48.522  31.619  27.860  1.00  0.00     0.031 C 
ATOM     66  C   UNL A   1      43.630  31.322  30.602  1.00  0.00     0.029 A 
ATOM     67  C   UNL A   1      44.016  31.489  29.285  1.00  0.00     0.049 A 
ATOM     68  H   UNL A   1      43.181  30.648  27.570  1.00  0.00     0.167 HD
ATOM     69  C   UNL A   1      46.256  31.877  28.379  1.00  0.00     0.074 A 
ATOM     70  C   UNL A   1      47.455  32.441  27.773  1.00  0.00     0.031 C 
ATOM     71  C   UNL A   1      44.972  32.320  28.568  1.00  0.00     0.037 A 
BRANCH  58  72
ATOM     72  C   UNL A   1      39.695  29.182  29.018  1.00  0.00     0.064 A 
ATOM     73  C   UNL A   1      38.703  29.488  28.047  1.00  0.00     0.173 A 
ATOM     74  C   UNL A   1      39.146  28.903  30.290  1.00  0.00     0.173 A 
ATOM     75  F   UNL A   1      39.018  29.703  26.765  1.00  0.00    -0.203 F 
ATOM     76  C   UNL A   1      37.328  29.561  28.335  1.00  0.00     0.198 A 
ATOM     77  C   UNL A   1      37.768  28.941  30.569  1.00  0.00     0.198 A 
ATOM     78  F   UNL A   1      39.900  28.572  31.336  1.00  0.00    -0.203 F 
ATOM     79  F   UNL A   1      36.461  29.891  27.366  1.00  0.00    -0.200 F 
ATOM     80  C   UNL A   1      36.859  29.284  29.598  1.00  0.00     0.200 A 
ATOM     81  F   UNL A   1      37.336  28.639  31.803  1.00  0.00    -0.200 F 
ATOM     82  F   UNL A   1      35.548  29.331  29.871  1.00  0.00    -0.200 F 
ENDBRANCH  58  72
BRANCH  59  83
ATOM     83  C   UNL A   1      49.771  28.395  28.052  1.00  0.00     0.064 A 
ATOM     84  C   UNL A   1      50.593  27.626  28.917  1.00  0.00     0.173 A 
ATOM     85  C   UNL A   1      49.510  27.854  26.782  1.00  0.00     0.173 A 
ATOM     86  F   UNL A   1      50.925  28.113  30.124  1.00  0.00    -0.203 F 
ATOM     87  C   UNL A   1      50.817  26.269  28.674  1.00  0.00     0.198 A 
ATOM     88  C   UNL A   1      49.798  26.507  26.520  1.00  0.00     0.198 A 
ATOM     89  F   UNL A   1      48.765  28.537  25.901  1.00  0.00    -0.203 F 
ATOM     90  F   UNL A   1      51.323  25.490  29.642  1.00  0.00    -0.200 F 
ATOM     91  C   UNL A   1      50.363  25.699  27.499  1.00  0.00     0.200 A 
ATOM     92  F   UNL A   1      49.385  25.947  25.373  1.00  0.00    -0.200 F 
ATOM     93  F   UNL A   1      50.386  24.366  27.348  1.00  0.00    -0.200 F 
ENDBRANCH  59  83
BRANCH  71  94
ATOM     94  C   UNL A   1      44.449  33.615  28.009  1.00  0.00     0.064 A 
ATOM     95  C   UNL A   1      44.422  34.792  28.758  1.00  0.00     0.173 A 
ATOM     96  C   UNL A   1      43.917  33.705  26.697  1.00  0.00     0.173 A 
ATOM     97  F   UNL A   1      44.717  34.780  30.065  1.00  0.00    -0.203 F 
ATOM     98  C   UNL A   1      44.072  36.011  28.179  1.00  0.00     0.198 A 
ATOM     99  C   UNL A   1      43.497  34.908  26.146  1.00  0.00     0.198 A 
ATOM    100  F   UNL A   1      43.810  32.645  25.885  1.00  0.00    -0.203 F 
ATOM    101  F   UNL A   1      44.189  37.137  28.895  1.00  0.00    -0.200 F 
ATOM    102  C   UNL A   1      43.625  36.071  26.870  1.00  0.00     0.200 A 
ATOM    103  F   UNL A   1      43.003  34.931  24.900  1.00  0.00    -0.200 F 
ATOM    104  F   UNL A   1      43.317  37.246  26.309  1.00  0.00    -0.200 F 
ENDBRANCH  71  94
ENDBRANCH  45  46
ENDBRANCH  38  40
ENDBRANCH  37  38
ENDBRANCH  36  37
ENDBRANCH  35  36
ENDBRANCH  34  35
ENDBRANCH  33  34
ENDBRANCH  32  33
ENDBRANCH  31  32
ENDBRANCH   1  31
TORSDOF 24
ENDMDL
MODEL 3
REMARK VINA RESULT:      -9.9      1.029      2.076
REMARK SMILES Cc1nn(C(C)C)c(C)c1S(=O)(=O)Nc1cccc(C(=O)OCCOCCOCCOCCOC(=O)c2ccc(-c3c4nc(c(-c5c(F)c(F)c(F)c(F)c5F)c5ccc([nH]5)c(-c5c(F)c(F)c(F)c(F)c5F)c5nc(c(-c6c(F)c(F)c(F)c(F)c6F)c6ccc3[nH]6)C=C5)C=C4)cc2)c1C
REMARK SMILES IDX 27 1 26 2 25 3 24 4 23 5 22 6 20 7 21 8 19 9 15 10 16 11
REMARK SMILES IDX 100 12 17 13 101 14 18 15 14 16 11 18 12 19 13 20 10 21 1 22
REMARK SMILES IDX 2 23 3 24 4 25 8 26 9 27 5 28 6 29 7 30 28 31 29 32 30 33
REMARK SMILES IDX 31 34 32 35 33 36 34 37 35 38 36 39 37 40 38 41 99 42 39 43
REMARK SMILES IDX 98 44 40 45 41 46 42 47 92 48 43 49 97 50 91 51 93 52 44 53
REMARK SMILES IDX 96 54 90 55 89 56 45 58 77 59 57 60 76 61 58 62 61 63 75 64
REMARK SMILES IDX 94 65 59 66 60 67 74 69 95 70 62 71 46 72 47 73 55 74 48 75
REMARK SMILES IDX 49 76 53 77 56 78 50 79 51 80 54 81 52 82 78 83 79 84 87 85
REMARK SMILES IDX 80 86 81 87 85 88 88 89 82 90 83 91 86 92 84 93 63 94 64 95
REMARK SMILES IDX 72 96 65 97 66 98 70 99 73 100 67 101 68 102 71 103 69 104
REMARK H PARENT 14 17 93 57 61 68
REMARK Flexibility Score: inf
ROOT
ATOM      1  C   UNL A   1      37.842  23.270  25.527  1.00  0.00     0.188 C 
ENDROOT
BRANCH   1   2
ATOM      2  C   UNL A   1      36.438  23.509  26.125  1.00  0.00     0.188 C 
BRANCH   2   3
ATOM      3  O   UNL A   1      35.332  22.668  25.877  1.00  0.00    -0.376 OA
BRANCH   3   4
ATOM      4  C   UNL A   1      35.625  21.305  25.650  1.00  0.00     0.202 C 
BRANCH   4   5
ATOM      5  C   UNL A   1      34.600  20.385  25.022  1.00  0.00     0.261 C 
BRANCH   5   6
ATOM      6  O   UNL A   1      33.403  20.526  25.772  1.00  0.00    -0.460 OA
BRANCH   6   7
ATOM      7  C   UNL A   1      32.351  20.528  24.958  1.00  0.00     0.338 C 
ATOM      8  O   UNL A   1      31.883  19.583  24.377  1.00  0.00    -0.246 OA
BRANCH   7   9
ATOM      9  C   UNL A   1      31.735  21.856  25.138  1.00  0.00     0.065 A 
ATOM     10  C   UNL A   1      31.933  24.147  24.669  1.00  0.00     0.053 A 
ATOM     11  C   UNL A   1      31.101  24.464  25.749  1.00  0.00     0.027 A 
ATOM     12  C   UNL A   1      32.112  22.844  24.232  1.00  0.00    -0.012 A 
ATOM     13  C   UNL A   1      30.514  23.450  26.494  1.00  0.00     0.003 A 
ATOM     14  C   UNL A   1      32.614  22.485  22.852  1.00  0.00     0.047 C 
ATOM     15  C   UNL A   1      30.889  22.134  26.231  1.00  0.00     0.016 A 
BRANCH  10  16
ATOM     16  N   UNL A   1      32.713  25.198  24.151  1.00  0.00    -0.279 N 
ATOM     17  H   UNL A   1      33.693  25.209  24.247  1.00  0.00     0.180 HD
BRANCH  16  18
ATOM     18  S   UNL A   1      31.881  26.447  23.351  1.00  0.00     0.265 S 
ATOM     19  O   UNL A   1      30.542  25.895  23.236  1.00  0.00    -0.201 OA
ATOM     20  O   UNL A   1      32.612  26.771  22.148  1.00  0.00    -0.201 OA
BRANCH  18  21
ATOM     21  C   UNL A   1      31.623  27.996  24.095  1.00  0.00     0.131 A 
ATOM     22  C   UNL A   1      29.659  29.435  22.937  1.00  0.00     0.070 C 
ATOM     23  C   UNL A   1      30.757  29.101  23.842  1.00  0.00     0.080 A 
ATOM     24  N   UNL A   1      30.965  30.091  24.705  1.00  0.00    -0.176 NA
ATOM     25  N   UNL A   1      31.741  29.572  25.641  1.00  0.00    -0.266 N 
ATOM     26  C   UNL A   1      32.149  28.304  25.355  1.00  0.00     0.056 A 
ATOM     27  C   UNL A   1      32.943  27.485  26.304  1.00  0.00     0.068 C 
BRANCH  25  28
ATOM     28  C   UNL A   1      32.010  30.422  26.791  1.00  0.00     0.101 C 
ATOM     29  C   UNL A   1      33.522  30.603  26.932  1.00  0.00     0.033 C 
ATOM     30  C   UNL A   1      31.300  31.772  26.639  1.00  0.00     0.033 C 
ENDBRANCH  25  28
ENDBRANCH  18  21
ENDBRANCH  16  18
ENDBRANCH  10  16
ENDBRANCH   7   9
ENDBRANCH   6   7
ENDBRANCH   5   6
ENDBRANCH   4   5
ENDBRANCH   3   4
ENDBRANCH   2   3
ENDBRANCH   1   2
BRANCH   1  31
ATOM     31  O   UNL A   1      38.765  22.395  26.154  1.00  0.00    -0.377 OA
BRANCH  31  32
ATOM     32  C   UNL A   1      38.871  21.081  25.623  1.00  0.00     0.188 C 
BRANCH  32  33
ATOM     33  C   UNL A   1      39.950  20.170  26.175  1.00  0.00     0.188 C 
BRANCH  33  34
ATOM     34  O   UNL A   1      40.532  20.799  27.314  1.00  0.00    -0.376 OA
BRANCH  34  35
ATOM     35  C   UNL A   1      41.937  21.014  27.250  1.00  0.00     0.202 C 
BRANCH  35  36
ATOM     36  C   UNL A   1      42.585  20.320  26.052  1.00  0.00     0.261 C 
BRANCH  36  37
ATOM     37  O   UNL A   1      42.993  21.332  25.106  1.00  0.00    -0.460 OA
BRANCH  37  38
ATOM     38  C   UNL A   1      44.284  21.246  24.679  1.00  0.00     0.338 C 
ATOM     39  O   UNL A   1      44.785  20.265  24.155  1.00  0.00    -0.246 OA
BRANCH  38  40
ATOM     40  C   UNL A   1      45.093  22.379  25.235  1.00  0.00     0.060 A 
ATOM     41  C   UNL A   1      45.333  22.460  26.619  1.00  0.00     0.016 A 
ATOM     42  C   UNL A   1      45.254  23.518  24.463  1.00  0.00     0.016 A 
ATOM     43  C   UNL A   1      45.527  23.710  27.242  1.00  0.00     0.010 A 
ATOM     44  C   UNL A   1      45.327  24.746  25.100  1.00  0.00     0.010 A 
ATOM     45  C   UNL A   1      45.411  24.880  26.500  1.00  0.00    -0.014 A 
BRANCH  45  46
ATOM     46  C   UNL A   1      45.246  26.253  27.060  1.00  0.00     0.031 A 
ATOM     47  C   UNL A   1      43.874  26.887  27.019  1.00  0.00     0.074 A 
ATOM     48  C   UNL A   1      46.180  26.741  27.927  1.00  0.00     0.049 A 
ATOM     49  N   UNL A   1      43.532  27.985  27.604  1.00  0.00    -0.248 NA
ATOM     50  C   UNL A   1      42.731  26.267  26.356  1.00  0.00     0.031 C 
ATOM     51  C   UNL A   1      45.950  27.640  29.065  1.00  0.00     0.029 A 
ATOM     52  N   UNL A   1      47.544  26.456  28.058  1.00  0.00    -0.354 N 
ATOM     53  C   UNL A   1      42.146  28.057  27.688  1.00  0.00     0.074 A 
ATOM     54  C   UNL A   1      41.706  26.987  26.828  1.00  0.00     0.031 C 
ATOM     55  C   UNL A   1      47.084  27.864  29.749  1.00  0.00     0.029 A 
ATOM     56  C   UNL A   1      48.146  27.444  28.879  1.00  0.00     0.049 A 
ATOM     57  H   UNL A   1      48.011  25.693  27.647  1.00  0.00     0.167 HD
ATOM     58  C   UNL A   1      41.572  28.943  28.575  1.00  0.00     0.037 A 
ATOM     59  C   UNL A   1      49.010  28.342  28.305  1.00  0.00     0.037 A 
ATOM     60  C   UNL A   1      42.611  29.793  29.215  1.00  0.00     0.049 A 
ATOM     61  C   UNL A   1      48.364  29.718  28.082  1.00  0.00     0.074 A 
ATOM     62  C   UNL A   1      43.007  30.106  30.506  1.00  0.00     0.029 A 
ATOM     63  N   UNL A   1      43.592  30.348  28.404  1.00  0.00    -0.354 N 
ATOM     64  N   UNL A   1      47.134  30.004  28.443  1.00  0.00    -0.248 NA
ATOM     65  C   UNL A   1      48.994  30.872  27.450  1.00  0.00     0.031 C 
ATOM     66  C   UNL A   1      44.240  30.837  30.440  1.00  0.00     0.029 A 
ATOM     67  C   UNL A   1      44.568  31.011  29.109  1.00  0.00     0.049 A 
ATOM     68  H   UNL A   1      43.590  30.272  27.422  1.00  0.00     0.167 HD
ATOM     69  C   UNL A   1      46.781  31.269  28.094  1.00  0.00     0.074 A 
ATOM     70  C   UNL A   1      47.982  31.766  27.438  1.00  0.00     0.031 C 
ATOM     71  C   UNL A   1      45.541  31.794  28.360  1.00  0.00     0.037 A 
BRANCH  58  72
ATOM     72  C   UNL A   1      40.091  29.010  29.020  1.00  0.00     0.064 A 
ATOM     73  C   UNL A   1      39.711  28.656  30.344  1.00  0.00     0.173 A 
ATOM     74  C   UNL A   1      38.988  29.375  28.216  1.00  0.00     0.173 A 
ATOM     75  F   UNL A   1      40.621  28.356  31.278  1.00  0.00    -0.203 F 
ATOM     76  C   UNL A   1      38.377  28.618  30.788  1.00  0.00     0.198 A 
ATOM     77  C   UNL A   1      37.656  29.371  28.671  1.00  0.00     0.198 A 
ATOM     78  F   UNL A   1      39.125  29.762  26.950  1.00  0.00    -0.203 F 
ATOM     79  F   UNL A   1      38.104  28.238  32.045  1.00  0.00    -0.200 F 
ATOM     80  C   UNL A   1      37.348  28.978  29.951  1.00  0.00     0.200 A 
ATOM     81  F   UNL A   1      36.674  29.755  27.841  1.00  0.00    -0.200 F 
ATOM     82  F   UNL A   1      36.077  28.965  30.376  1.00  0.00    -0.200 F 
ENDBRANCH  58  72
BRANCH  59  83
ATOM     83  C   UNL A   1      50.025  27.567  27.506  1.00  0.00     0.064 A 
ATOM     84  C   UNL A   1      49.921  27.793  26.108  1.00  0.00     0.173 A 
ATOM     85  C   UNL A   1      51.321  27.409  28.025  1.00  0.00     0.173 A 
ATOM     86  F   UNL A   1      48.708  27.897  25.541  1.00  0.00    -0.203 F 
ATOM     87  C   UNL A   1      51.029  28.203  25.364  1.00  0.00     0.198 A 
ATOM     88  C   UNL A   1      52.436  27.759  27.251  1.00  0.00     0.198 A 
ATOM     89  F   UNL A   1      51.495  27.164  29.331  1.00  0.00    -0.203 F 
ATOM     90  F   UNL A   1      50.859  28.709  24.133  1.00  0.00    -0.200 F 
ATOM     91  C   UNL A   1      52.277  28.243  25.958  1.00  0.00     0.200 A 
ATOM     92  F   UNL A   1      53.656  27.779  27.807  1.00  0.00    -0.200 F 
ATOM     93  F   UNL A   1      53.303  28.828  25.322  1.00  0.00    -0.200 F 
ENDBRANCH  59  83
BRANCH  71  94
ATOM     94  C   UNL A   1      45.081  33.134  27.857  1.00  0.00     0.064 A 
ATOM     95  C   UNL A   1      45.356  34.320  28.541  1.00  0.00     0.173 A 
ATOM     96  C   UNL A   1      44.305  33.267  26.678  1.00  0.00     0.173 A 
ATOM     97  F   UNL A   1      45.910  34.296  29.761  1.00  0.00    -0.203 F 
ATOM     98  C   UNL A   1      45.050  35.562  27.987  1.00  0.00     0.198 A 
ATOM     99  C   UNL A   1      43.935  34.504  26.166  1.00  0.00     0.198 A 
ATOM    100  F   UNL A   1      43.902  32.215  25.954  1.00  0.00    -0.203 F 
ATOM    101  F   UNL A   1      45.451  36.677  28.612  1.00  0.00    -0.200 F 
ATOM    102  C   UNL A   1      44.354  35.654  26.794  1.00  0.00     0.200 A 
ATOM    103  F   UNL A   1      43.202  34.566  25.045  1.00  0.00    -0.200 F 
ATOM    104  F   UNL A   1      44.087  36.848  26.252  1.00  0.00    -0.200 F 
ENDBRANCH  71  94
ENDBRANCH  45  46
ENDBRANCH  38  40
ENDBRANCH  37  38
ENDBRANCH  36  37
ENDBRANCH  35  36
ENDBRANCH  34  35
ENDBRANCH  33  34
ENDBRANCH  32  33
ENDBRANCH  31  32
ENDBRANCH   1  31
TORSDOF 24
ENDMDL
