MODEL 1
REMARK VINA RESULT:      -8.0      0.000      0.000
REMARK SMILES CC1CC[NH+]([C@H](c2ccc(F)cc2)c2ccc([C@@H](C)C(=O)OCCOCCOCCOCCOC(=O)c3ccc(-c4c5nc(c(-c6c(F)c(F)c(F)c(F)c6F)c6ccc([nH]6)c(-c6c(F)c(F)c(F)c(F)c6F)c6nc(c(-c7c(F)c(F)c(F)c(F)c7F)c7ccc4[nH]7)C=C6)C=C5)cc3)cc2-c2ccc(C(F)(F)F)cc2)CC1
REMARK SMILES IDX 27 1 26 2 25 3 24 4 23 5 22 6 20 7 21 8 18 9 19 10 17 11
REMARK SMILES IDX 14 12 15 13 101 14 16 15 100 16 6 17 5 18 1 19 2 20 3 21
REMARK SMILES IDX 113 22 4 23 112 24 7 26 8 27 13 28 9 29 12 30 10 31 11 32
REMARK SMILES IDX 102 33 103 34 111 35 104 36 110 37 105 38 106 39 107 40
REMARK SMILES IDX 108 41 109 42 28 43 29 44 30 45 31 46 32 47 33 48 34 49
REMARK SMILES IDX 35 50 36 51 37 52 38 53 99 54 39 55 98 56 40 57 41 58 42 59
REMARK SMILES IDX 92 60 43 61 97 62 91 63 93 64 44 65 96 66 90 67 89 68 45 70
REMARK SMILES IDX 77 71 57 72 76 73 58 74 61 75 75 76 94 77 59 78 60 79 74 81
REMARK SMILES IDX 95 82 62 83 46 84 47 85 55 86 48 87 49 88 53 89 56 90 50 91
REMARK SMILES IDX 51 92 54 93 52 94 78 95 79 96 87 97 80 98 81 99 85 100
REMARK SMILES IDX 88 101 82 102 83 103 86 104 84 105 63 106 64 107 72 108
REMARK SMILES IDX 65 109 66 110 70 111 73 112 67 113 68 114 71 115 69 116
REMARK H PARENT 5 25 93 69 61 80
REMARK Flexibility Score: inf
ROOT
ATOM      1  C   UNL A   1      34.128  24.399  25.071  1.00  0.00     0.188 C 
ENDROOT
BRANCH   1   2
ATOM      2  C   UNL A   1      33.375  25.678  25.471  1.00  0.00     0.188 C 
BRANCH   2   3
ATOM      3  O   UNL A   1      32.087  25.619  26.072  1.00  0.00    -0.376 OA
BRANCH   3   4
ATOM      4  C   UNL A   1      31.378  26.807  26.384  1.00  0.00     0.202 C 
BRANCH   4   5
ATOM      5  C   UNL A   1      31.968  27.843  27.358  1.00  0.00     0.261 C 
BRANCH   5   6
ATOM      6  O   UNL A   1      31.475  29.193  27.248  1.00  0.00    -0.463 OA
BRANCH   6   7
ATOM      7  C   UNL A   1      32.308  30.090  26.669  1.00  0.00     0.313 C 
ATOM      8  O   UNL A   1      32.388  30.251  25.452  1.00  0.00    -0.252 OA
BRANCH   7   9
ATOM      9  C   UNL A   1      33.208  30.874  27.628  1.00  0.00     0.126 C 
ATOM     10  C   UNL A   1      33.105  32.350  27.251  1.00  0.00     0.025 C 
BRANCH   9  11
ATOM     11  C   UNL A   1      34.663  30.457  27.849  1.00  0.00    -0.033 A 
ATOM     12  C   UNL A   1      37.426  29.707  28.349  1.00  0.00     0.022 A 
ATOM     13  C   UNL A   1      36.561  28.981  27.494  1.00  0.00     0.011 A 
ATOM     14  C   UNL A   1      36.857  30.846  28.986  1.00  0.00    -0.009 A 
ATOM     15  C   UNL A   1      35.232  29.352  27.228  1.00  0.00     0.005 A 
ATOM     16  C   UNL A   1      35.497  31.192  28.719  1.00  0.00     0.013 A 
BRANCH  12  17
ATOM     17  C   UNL A   1      38.949  29.345  28.468  1.00  0.00     0.247 C 
BRANCH  17  18
ATOM     18  N   UNL A   1      39.551  28.469  27.401  1.00  0.00    -0.325 N 
ATOM     19  C   UNL A   1      42.639  25.887  25.614  1.00  0.00     0.008 C 
ATOM     20  C   UNL A   1      41.780  26.774  26.508  1.00  0.00    -0.003 C 
ATOM     21  C   UNL A   1      40.433  26.145  26.847  1.00  0.00     0.065 C 
ATOM     22  C   UNL A   1      41.490  28.090  25.810  1.00  0.00     0.065 C 
ATOM     23  C   UNL A   1      39.614  27.051  27.775  1.00  0.00     0.263 C 
ATOM     24  C   UNL A   1      40.696  29.041  26.696  1.00  0.00     0.263 C 
ATOM     25  H   UNL A   1      38.874  28.458  26.638  1.00  0.00     0.348 HD
ENDBRANCH  17  18
BRANCH  17  26
ATOM     26  C   UNL A   1      39.442  28.905  29.868  1.00  0.00     0.014 A 
ATOM     27  C   UNL A   1      40.697  29.280  30.366  1.00  0.00     0.013 A 
ATOM     28  C   UNL A   1      38.600  28.166  30.726  1.00  0.00     0.013 A 
ATOM     29  C   UNL A   1      41.078  28.972  31.677  1.00  0.00     0.040 A 
ATOM     30  C   UNL A   1      39.017  27.783  32.008  1.00  0.00     0.040 A 
ATOM     31  C   UNL A   1      40.250  28.202  32.476  1.00  0.00     0.123 A 
ATOM     32  F   UNL A   1      40.646  27.872  33.712  1.00  0.00    -0.207 F 
ENDBRANCH  17  26
ENDBRANCH  12  17
BRANCH  14  33
ATOM     33  C   UNL A   1      37.594  31.704  29.937  1.00  0.00    -0.018 A 
ATOM     34  C   UNL A   1      37.367  31.588  31.319  1.00  0.00     0.009 A 
ATOM     35  C   UNL A   1      38.529  32.654  29.501  1.00  0.00     0.009 A 
ATOM     36  C   UNL A   1      38.091  32.357  32.238  1.00  0.00     0.014 A 
ATOM     37  C   UNL A   1      39.265  33.416  30.418  1.00  0.00     0.014 A 
ATOM     38  C   UNL A   1      39.066  33.263  31.797  1.00  0.00     0.056 A 
BRANCH  38  39
ATOM     39  C   UNL A   1      39.874  34.052  32.799  1.00  0.00     0.416 C 
ATOM     40  F   UNL A   1      39.094  34.804  33.623  1.00  0.00    -0.166 F 
ATOM     41  F   UNL A   1      40.623  33.258  33.613  1.00  0.00    -0.166 F 
ATOM     42  F   UNL A   1      40.753  34.920  32.221  1.00  0.00    -0.166 F 
ENDBRANCH  38  39
ENDBRANCH  14  33
ENDBRANCH   9  11
ENDBRANCH   7   9
ENDBRANCH   6   7
ENDBRANCH   5   6
ENDBRANCH   4   5
ENDBRANCH   3   4
ENDBRANCH   2   3
ENDBRANCH   1   2
BRANCH   1  43
ATOM     43  O   UNL A   1      34.979  23.864  26.067  1.00  0.00    -0.377 OA
BRANCH  43  44
ATOM     44  C   UNL A   1      36.361  23.841  25.747  1.00  0.00     0.188 C 
BRANCH  44  45
ATOM     45  C   UNL A   1      37.002  22.454  25.529  1.00  0.00     0.188 C 
BRANCH  45  46
ATOM     46  O   UNL A   1      38.335  22.349  26.012  1.00  0.00    -0.376 OA
BRANCH  46  47
ATOM     47  C   UNL A   1      39.036  21.139  25.770  1.00  0.00     0.202 C 
BRANCH  47  48
ATOM     48  C   UNL A   1      40.453  21.035  26.335  1.00  0.00     0.261 C 
BRANCH  48  49
ATOM     49  O   UNL A   1      41.240  22.242  26.317  1.00  0.00    -0.460 OA
BRANCH  49  50
ATOM     50  C   UNL A   1      42.580  22.152  26.345  1.00  0.00     0.338 C 
ATOM     51  O   UNL A   1      43.296  21.617  25.509  1.00  0.00    -0.246 OA
BRANCH  50  52
ATOM     52  C   UNL A   1      43.070  22.957  27.487  1.00  0.00     0.060 A 
ATOM     53  C   UNL A   1      42.155  23.438  28.433  1.00  0.00     0.016 A 
ATOM     54  C   UNL A   1      44.426  23.259  27.621  1.00  0.00     0.016 A 
ATOM     55  C   UNL A   1      42.585  24.235  29.500  1.00  0.00     0.010 A 
ATOM     56  C   UNL A   1      44.848  24.082  28.674  1.00  0.00     0.010 A 
ATOM     57  C   UNL A   1      43.933  24.595  29.613  1.00  0.00    -0.014 A 
BRANCH  57  58
ATOM     58  C   UNL A   1      44.353  25.665  30.562  1.00  0.00     0.031 A 
ATOM     59  C   UNL A   1      44.836  25.255  31.930  1.00  0.00     0.074 A 
ATOM     60  C   UNL A   1      44.339  26.971  30.233  1.00  0.00     0.049 A 
ATOM     61  N   UNL A   1      45.216  25.996  32.940  1.00  0.00    -0.248 NA
ATOM     62  C   UNL A   1      44.883  23.809  32.197  1.00  0.00     0.031 C 
ATOM     63  C   UNL A   1      43.923  27.514  28.942  1.00  0.00     0.029 A 
ATOM     64  N   UNL A   1      44.686  28.082  30.968  1.00  0.00    -0.354 N 
ATOM     65  C   UNL A   1      45.529  25.106  33.960  1.00  0.00     0.074 A 
ATOM     66  C   UNL A   1      45.249  23.777  33.467  1.00  0.00     0.031 C 
ATOM     67  C   UNL A   1      44.047  28.854  28.973  1.00  0.00     0.029 A 
ATOM     68  C   UNL A   1      44.519  29.268  30.295  1.00  0.00     0.049 A 
ATOM     69  H   UNL A   1      45.023  28.032  31.892  1.00  0.00     0.167 HD
ATOM     70  C   UNL A   1      46.029  25.368  35.190  1.00  0.00     0.037 A 
ATOM     71  C   UNL A   1      44.711  30.542  30.700  1.00  0.00     0.037 A 
ATOM     72  C   UNL A   1      46.333  26.685  35.680  1.00  0.00     0.049 A 
ATOM     73  C   UNL A   1      45.214  30.819  32.096  1.00  0.00     0.074 A 
ATOM     74  C   UNL A   1      46.878  27.042  36.901  1.00  0.00     0.029 A 
ATOM     75  N   UNL A   1      46.115  27.860  34.977  1.00  0.00    -0.354 N 
ATOM     76  N   UNL A   1      45.535  29.970  33.042  1.00  0.00    -0.248 NA
ATOM     77  C   UNL A   1      45.385  32.229  32.480  1.00  0.00     0.031 C 
ATOM     78  C   UNL A   1      46.930  28.437  36.962  1.00  0.00     0.029 A 
ATOM     79  C   UNL A   1      46.485  28.947  35.753  1.00  0.00     0.049 A 
ATOM     80  H   UNL A   1      45.753  27.913  34.064  1.00  0.00     0.167 HD
ATOM     81  C   UNL A   1      45.965  30.737  34.120  1.00  0.00     0.074 A 
ATOM     82  C   UNL A   1      45.875  32.121  33.709  1.00  0.00     0.031 C 
ATOM     83  C   UNL A   1      46.397  30.325  35.338  1.00  0.00     0.037 A 
BRANCH  70  84
ATOM     84  C   UNL A   1      46.267  24.201  36.105  1.00  0.00     0.064 A 
ATOM     85  C   UNL A   1      45.446  24.001  37.227  1.00  0.00     0.173 A 
ATOM     86  C   UNL A   1      47.325  23.303  35.900  1.00  0.00     0.173 A 
ATOM     87  F   UNL A   1      44.422  24.833  37.471  1.00  0.00    -0.203 F 
ATOM     88  C   UNL A   1      45.682  22.953  38.110  1.00  0.00     0.198 A 
ATOM     89  C   UNL A   1      47.536  22.234  36.767  1.00  0.00     0.198 A 
ATOM     90  F   UNL A   1      48.128  23.439  34.834  1.00  0.00    -0.203 F 
ATOM     91  F   UNL A   1      44.903  22.801  39.191  1.00  0.00    -0.200 F 
ATOM     92  C   UNL A   1      46.722  22.066  37.876  1.00  0.00     0.200 A 
ATOM     93  F   UNL A   1      48.521  21.359  36.521  1.00  0.00    -0.200 F 
ATOM     94  F   UNL A   1      46.935  21.045  38.717  1.00  0.00    -0.200 F 
ENDBRANCH  70  84
BRANCH  71  95
ATOM     95  C   UNL A   1      44.436  31.660  29.756  1.00  0.00     0.064 A 
ATOM     96  C   UNL A   1      45.344  31.995  28.739  1.00  0.00     0.173 A 
ATOM     97  C   UNL A   1      43.273  32.435  29.870  1.00  0.00     0.173 A 
ATOM     98  F   UNL A   1      46.468  31.281  28.582  1.00  0.00    -0.203 F 
ATOM     99  C   UNL A   1      45.114  33.082  27.897  1.00  0.00     0.198 A 
ATOM    100  C   UNL A   1      43.032  33.505  29.010  1.00  0.00     0.198 A 
ATOM    101  F   UNL A   1      42.359  32.136  30.805  1.00  0.00    -0.203 F 
ATOM    102  F   UNL A   1      46.018  33.403  26.961  1.00  0.00    -0.200 F 
ATOM    103  C   UNL A   1      43.959  33.836  28.032  1.00  0.00     0.200 A 
ATOM    104  F   UNL A   1      41.902  34.216  29.126  1.00  0.00    -0.200 F 
ATOM    105  F   UNL A   1      43.738  34.879  27.221  1.00  0.00    -0.200 F 
ENDBRANCH  71  95
BRANCH  83 106
ATOM    106  C   UNL A   1      46.834  31.367  36.328  1.00  0.00     0.064 A 
ATOM    107  C   UNL A   1      48.181  31.762  36.393  1.00  0.00     0.173 A 
ATOM    108  C   UNL A   1      45.952  31.890  37.284  1.00  0.00     0.173 A 
ATOM    109  F   UNL A   1      49.070  31.282  35.510  1.00  0.00    -0.203 F 
ATOM    110  C   UNL A   1      48.630  32.622  37.392  1.00  0.00     0.198 A 
ATOM    111  C   UNL A   1      46.399  32.776  38.262  1.00  0.00     0.198 A 
ATOM    112  F   UNL A   1      44.654  31.552  37.262  1.00  0.00    -0.203 F 
ATOM    113  F   UNL A   1      49.929  32.945  37.461  1.00  0.00    -0.200 F 
ATOM    114  C   UNL A   1      47.739  33.129  38.324  1.00  0.00     0.200 A 
ATOM    115  F   UNL A   1      45.533  33.282  39.151  1.00  0.00    -0.200 F 
ATOM    116  F   UNL A   1      48.172  33.959  39.283  1.00  0.00    -0.200 F 
ENDBRANCH  83 106
ENDBRANCH  57  58
ENDBRANCH  50  52
ENDBRANCH  49  50
ENDBRANCH  48  49
ENDBRANCH  47  48
ENDBRANCH  46  47
ENDBRANCH  45  46
ENDBRANCH  44  45
ENDBRANCH  43  44
ENDBRANCH   1  43
TORSDOF 26
ENDMDL
MODEL 2
REMARK VINA RESULT:      -7.3      0.733      6.619
REMARK SMILES CC1CC[NH+]([C@H](c2ccc(F)cc2)c2ccc([C@@H](C)C(=O)OCCOCCOCCOCCOC(=O)c3ccc(-c4c5nc(c(-c6c(F)c(F)c(F)c(F)c6F)c6ccc([nH]6)c(-c6c(F)c(F)c(F)c(F)c6F)c6nc(c(-c7c(F)c(F)c(F)c(F)c7F)c7ccc4[nH]7)C=C6)C=C5)cc3)cc2-c2ccc(C(F)(F)F)cc2)CC1
REMARK SMILES IDX 27 1 26 2 25 3 24 4 23 5 22 6 20 7 21 8 18 9 19 10 17 11
REMARK SMILES IDX 14 12 15 13 101 14 16 15 100 16 6 17 5 18 1 19 2 20 3 21
REMARK SMILES IDX 113 22 4 23 112 24 7 26 8 27 13 28 9 29 12 30 10 31 11 32
REMARK SMILES IDX 102 33 103 34 111 35 104 36 110 37 105 38 106 39 107 40
REMARK SMILES IDX 108 41 109 42 28 43 29 44 30 45 31 46 32 47 33 48 34 49
REMARK SMILES IDX 35 50 36 51 37 52 38 53 99 54 39 55 98 56 40 57 41 58 42 59
REMARK SMILES IDX 92 60 43 61 97 62 91 63 93 64 44 65 96 66 90 67 89 68 45 70
REMARK SMILES IDX 77 71 57 72 76 73 58 74 61 75 75 76 94 77 59 78 60 79 74 81
REMARK SMILES IDX 95 82 62 83 46 84 47 85 55 86 48 87 49 88 53 89 56 90 50 91
REMARK SMILES IDX 51 92 54 93 52 94 78 95 79 96 87 97 80 98 81 99 85 100
REMARK SMILES IDX 88 101 82 102 83 103 86 104 84 105 63 106 64 107 72 108
REMARK SMILES IDX 65 109 66 110 70 111 73 112 67 113 68 114 71 115 69 116
REMARK H PARENT 5 25 93 69 61 80
REMARK Flexibility Score: inf
ROOT
ATOM      1  C   UNL A   1      34.473  23.729  23.667  1.00  0.00     0.188 C 
ENDROOT
BRANCH   1   2
ATOM      2  C   UNL A   1      33.783  25.082  23.901  1.00  0.00     0.188 C 
BRANCH   2   3
ATOM      3  O   UNL A   1      32.870  25.269  24.975  1.00  0.00    -0.376 OA
BRANCH   3   4
ATOM      4  C   UNL A   1      32.282  26.537  25.214  1.00  0.00     0.202 C 
BRANCH   4   5
ATOM      5  C   UNL A   1      33.041  27.621  26.001  1.00  0.00     0.261 C 
BRANCH   5   6
ATOM      6  O   UNL A   1      32.241  28.570  26.735  1.00  0.00    -0.463 OA
BRANCH   6   7
ATOM      7  C   UNL A   1      32.492  29.879  26.493  1.00  0.00     0.313 C 
ATOM      8  O   UNL A   1      32.137  30.457  25.466  1.00  0.00    -0.252 OA
BRANCH   7   9
ATOM      9  C   UNL A   1      33.308  30.607  27.564  1.00  0.00     0.126 C 
ATOM     10  C   UNL A   1      33.155  32.106  27.318  1.00  0.00     0.025 C 
BRANCH   9  11
ATOM     11  C   UNL A   1      34.769  30.232  27.821  1.00  0.00    -0.033 A 
ATOM     12  C   UNL A   1      37.538  29.558  28.391  1.00  0.00     0.022 A 
ATOM     13  C   UNL A   1      36.735  28.851  27.462  1.00  0.00     0.011 A 
ATOM     14  C   UNL A   1      36.900  30.637  29.067  1.00  0.00    -0.009 A 
ATOM     15  C   UNL A   1      35.404  29.187  27.163  1.00  0.00     0.005 A 
ATOM     16  C   UNL A   1      35.539  30.947  28.764  1.00  0.00     0.013 A 
BRANCH  12  17
ATOM     17  C   UNL A   1      39.068  29.246  28.552  1.00  0.00     0.247 C 
BRANCH  17  18
ATOM     18  N   UNL A   1      39.724  28.378  27.510  1.00  0.00    -0.325 N 
ATOM     19  C   UNL A   1      42.984  25.976  25.778  1.00  0.00     0.008 C 
ATOM     20  C   UNL A   1      42.068  26.828  26.651  1.00  0.00    -0.003 C 
ATOM     21  C   UNL A   1      40.780  26.110  27.034  1.00  0.00     0.065 C 
ATOM     22  C   UNL A   1      41.667  28.088  25.906  1.00  0.00     0.065 C 
ATOM     23  C   UNL A   1      39.903  26.986  27.939  1.00  0.00     0.263 C 
ATOM     24  C   UNL A   1      40.811  29.009  26.766  1.00  0.00     0.263 C 
ATOM     25  H   UNL A   1      39.041  28.283  26.759  1.00  0.00     0.348 HD
ENDBRANCH  17  18
BRANCH  17  26
ATOM     26  C   UNL A   1      39.539  28.838  29.969  1.00  0.00     0.014 A 
ATOM     27  C   UNL A   1      40.736  29.314  30.520  1.00  0.00     0.013 A 
ATOM     28  C   UNL A   1      38.730  28.022  30.788  1.00  0.00     0.013 A 
ATOM     29  C   UNL A   1      41.088  29.029  31.844  1.00  0.00     0.040 A 
ATOM     30  C   UNL A   1      39.125  27.666  32.084  1.00  0.00     0.040 A 
ATOM     31  C   UNL A   1      40.298  28.185  32.604  1.00  0.00     0.123 A 
ATOM     32  F   UNL A   1      40.671  27.879  33.854  1.00  0.00    -0.207 F 
ENDBRANCH  17  26
ENDBRANCH  12  17
BRANCH  14  33
ATOM     33  C   UNL A   1      37.566  31.466  30.093  1.00  0.00    -0.018 A 
ATOM     34  C   UNL A   1      38.396  32.533  29.713  1.00  0.00     0.009 A 
ATOM     35  C   UNL A   1      37.399  31.216  31.464  1.00  0.00     0.009 A 
ATOM     36  C   UNL A   1      38.997  33.359  30.671  1.00  0.00     0.014 A 
ATOM     37  C   UNL A   1      37.987  32.048  32.425  1.00  0.00     0.014 A 
ATOM     38  C   UNL A   1      38.778  33.140  32.039  1.00  0.00     0.056 A 
BRANCH  38  39
ATOM     39  C   UNL A   1      39.391  34.065  33.061  1.00  0.00     0.416 C 
ATOM     40  F   UNL A   1      40.530  34.660  32.611  1.00  0.00    -0.166 F 
ATOM     41  F   UNL A   1      38.556  35.079  33.421  1.00  0.00    -0.166 F 
ATOM     42  F   UNL A   1      39.731  33.439  34.223  1.00  0.00    -0.166 F 
ENDBRANCH  38  39
ENDBRANCH  14  33
ENDBRANCH   9  11
ENDBRANCH   7   9
ENDBRANCH   6   7
ENDBRANCH   5   6
ENDBRANCH   4   5
ENDBRANCH   3   4
ENDBRANCH   2   3
ENDBRANCH   1   2
BRANCH   1  43
ATOM     43  O   UNL A   1      35.093  23.162  24.806  1.00  0.00    -0.377 OA
BRANCH  43  44
ATOM     44  C   UNL A   1      36.503  23.298  24.871  1.00  0.00     0.188 C 
BRANCH  44  45
ATOM     45  C   UNL A   1      37.314  22.018  25.164  1.00  0.00     0.188 C 
BRANCH  45  46
ATOM     46  O   UNL A   1      38.498  22.241  25.918  1.00  0.00    -0.376 OA
BRANCH  46  47
ATOM     47  C   UNL A   1      39.520  21.259  25.857  1.00  0.00     0.202 C 
BRANCH  47  48
ATOM     48  C   UNL A   1      40.676  21.399  26.848  1.00  0.00     0.261 C 
BRANCH  48  49
ATOM     49  O   UNL A   1      41.554  22.524  26.651  1.00  0.00    -0.460 OA
BRANCH  49  50
ATOM     50  C   UNL A   1      42.883  22.338  26.719  1.00  0.00     0.338 C 
ATOM     51  O   UNL A   1      43.596  21.825  25.868  1.00  0.00    -0.246 OA
BRANCH  50  52
ATOM     52  C   UNL A   1      43.378  23.013  27.941  1.00  0.00     0.060 A 
ATOM     53  C   UNL A   1      42.508  23.200  29.024  1.00  0.00     0.016 A 
ATOM     54  C   UNL A   1      44.691  23.480  28.020  1.00  0.00     0.016 A 
ATOM     55  C   UNL A   1      42.937  23.870  30.176  1.00  0.00     0.010 A 
ATOM     56  C   UNL A   1      45.107  24.176  29.163  1.00  0.00     0.010 A 
ATOM     57  C   UNL A   1      44.232  24.396  30.244  1.00  0.00    -0.014 A 
BRANCH  57  58
ATOM     58  C   UNL A   1      44.605  25.349  31.328  1.00  0.00     0.031 A 
ATOM     59  C   UNL A   1      44.549  26.826  31.029  1.00  0.00     0.074 A 
ATOM     60  C   UNL A   1      44.962  24.940  32.561  1.00  0.00     0.049 A 
ATOM     61  N   UNL A   1      44.860  27.845  31.788  1.00  0.00    -0.248 NA
ATOM     62  C   UNL A   1      44.090  27.200  29.683  1.00  0.00     0.031 C 
ATOM     63  C   UNL A   1      45.036  23.550  33.003  1.00  0.00     0.029 A 
ATOM     64  N   UNL A   1      45.332  25.665  33.671  1.00  0.00    -0.354 N 
ATOM     65  C   UNL A   1      44.651  28.973  31.005  1.00  0.00     0.074 A 
ATOM     66  C   UNL A   1      44.234  28.515  29.700  1.00  0.00     0.031 C 
ATOM     67  C   UNL A   1      45.420  23.522  34.292  1.00  0.00     0.029 A 
ATOM     68  C   UNL A   1      45.652  24.890  34.760  1.00  0.00     0.049 A 
ATOM     69  H   UNL A   1      45.367  26.649  33.684  1.00  0.00     0.167 HD
ATOM     70  C   UNL A   1      44.770  30.278  31.347  1.00  0.00     0.037 A 
ATOM     71  C   UNL A   1      46.092  25.239  35.987  1.00  0.00     0.037 A 
ATOM     72  C   UNL A   1      45.160  30.744  32.650  1.00  0.00     0.049 A 
ATOM     73  C   UNL A   1      46.274  26.697  36.333  1.00  0.00     0.074 A 
ATOM     74  C   UNL A   1      45.271  32.048  33.097  1.00  0.00     0.029 A 
ATOM     75  N   UNL A   1      45.508  29.923  33.712  1.00  0.00    -0.354 N 
ATOM     76  N   UNL A   1      46.045  27.756  35.596  1.00  0.00    -0.248 NA
ATOM     77  C   UNL A   1      46.774  27.009  37.682  1.00  0.00     0.031 C 
ATOM     78  C   UNL A   1      45.748  32.019  34.410  1.00  0.00     0.029 A 
ATOM     79  C   UNL A   1      45.866  30.696  34.805  1.00  0.00     0.049 A 
ATOM     80  H   UNL A   1      45.500  28.939  33.692  1.00  0.00     0.167 HD
ATOM     81  C   UNL A   1      46.349  28.855  36.392  1.00  0.00     0.074 A 
ATOM     82  C   UNL A   1      46.769  28.337  37.676  1.00  0.00     0.031 C 
ATOM     83  C   UNL A   1      46.280  30.174  36.083  1.00  0.00     0.037 A 
BRANCH  70  84
ATOM     84  C   UNL A   1      44.486  31.302  30.285  1.00  0.00     0.064 A 
ATOM     85  C   UNL A   1      45.405  31.518  29.247  1.00  0.00     0.173 A 
ATOM     86  C   UNL A   1      43.330  32.096  30.312  1.00  0.00     0.173 A 
ATOM     87  F   UNL A   1      46.530  30.789  29.176  1.00  0.00    -0.203 F 
ATOM     88  C   UNL A   1      45.181  32.495  28.282  1.00  0.00     0.198 A 
ATOM     89  C   UNL A   1      43.091  33.048  29.325  1.00  0.00     0.198 A 
ATOM     90  F   UNL A   1      42.411  31.918  31.274  1.00  0.00    -0.203 F 
ATOM     91  F   UNL A   1      46.088  32.704  27.318  1.00  0.00    -0.200 F 
ATOM     92  C   UNL A   1      44.021  33.255  28.317  1.00  0.00     0.200 A 
ATOM     93  F   UNL A   1      41.954  33.758  29.343  1.00  0.00    -0.200 F 
ATOM     94  F   UNL A   1      43.796  34.181  27.376  1.00  0.00    -0.200 F 
ENDBRANCH  70  84
BRANCH  71  95
ATOM     95  C   UNL A   1      46.379  24.178  36.992  1.00  0.00     0.064 A 
ATOM     96  C   UNL A   1      47.540  23.394  36.914  1.00  0.00     0.173 A 
ATOM     97  C   UNL A   1      45.482  23.908  38.035  1.00  0.00     0.173 A 
ATOM     98  F   UNL A   1      48.434  23.618  35.940  1.00  0.00    -0.203 F 
ATOM     99  C   UNL A   1      47.775  22.360  37.818  1.00  0.00     0.198 A 
ATOM    100  C   UNL A   1      45.730  22.891  38.956  1.00  0.00     0.198 A 
ATOM    101  F   UNL A   1      44.373  24.650  38.174  1.00  0.00    -0.203 F 
ATOM    102  F   UNL A   1      48.872  21.602  37.694  1.00  0.00    -0.200 F 
ATOM    103  C   UNL A   1      46.871  22.110  38.838  1.00  0.00     0.200 A 
ATOM    104  F   UNL A   1      44.869  22.668  39.956  1.00  0.00    -0.200 F 
ATOM    105  F   UNL A   1      47.098  21.117  39.709  1.00  0.00    -0.200 F 
ENDBRANCH  71  95
BRANCH  83 106
ATOM    106  C   UNL A   1      46.644  31.174  37.145  1.00  0.00     0.064 A 
ATOM    107  C   UNL A   1      45.649  31.726  37.969  1.00  0.00     0.173 A 
ATOM    108  C   UNL A   1      47.948  31.669  37.274  1.00  0.00     0.173 A 
ATOM    109  F   UNL A   1      44.380  31.297  37.878  1.00  0.00    -0.203 F 
ATOM    110  C   UNL A   1      45.943  32.753  38.863  1.00  0.00     0.198 A 
ATOM    111  C   UNL A   1      48.246  32.674  38.193  1.00  0.00     0.198 A 
ATOM    112  F   UNL A   1      48.938  31.171  36.518  1.00  0.00    -0.203 F 
ATOM    113  F   UNL A   1      44.966  33.296  39.602  1.00  0.00    -0.200 F 
ATOM    114  C   UNL A   1      47.241  33.224  38.975  1.00  0.00     0.200 A 
ATOM    115  F   UNL A   1      49.505  33.115  38.316  1.00  0.00    -0.200 F 
ATOM    116  F   UNL A   1      47.524  34.210  39.838  1.00  0.00    -0.200 F 
ENDBRANCH  83 106
ENDBRANCH  57  58
ENDBRANCH  50  52
ENDBRANCH  49  50
ENDBRANCH  48  49
ENDBRANCH  47  48
ENDBRANCH  46  47
ENDBRANCH  45  46
ENDBRANCH  44  45
ENDBRANCH  43  44
ENDBRANCH   1  43
TORSDOF 26
ENDMDL
MODEL 3
REMARK VINA RESULT:      -7.3      4.330      9.789
REMARK SMILES CC1CC[NH+]([C@H](c2ccc(F)cc2)c2ccc([C@@H](C)C(=O)OCCOCCOCCOCCOC(=O)c3ccc(-c4c5nc(c(-c6c(F)c(F)c(F)c(F)c6F)c6ccc([nH]6)c(-c6c(F)c(F)c(F)c(F)c6F)c6nc(c(-c7c(F)c(F)c(F)c(F)c7F)c7ccc4[nH]7)C=C6)C=C5)cc3)cc2-c2ccc(C(F)(F)F)cc2)CC1
REMARK SMILES IDX 27 1 26 2 25 3 24 4 23 5 22 6 20 7 21 8 18 9 19 10 17 11
REMARK SMILES IDX 14 12 15 13 101 14 16 15 100 16 6 17 5 18 1 19 2 20 3 21
REMARK SMILES IDX 113 22 4 23 112 24 7 26 8 27 13 28 9 29 12 30 10 31 11 32
REMARK SMILES IDX 102 33 103 34 111 35 104 36 110 37 105 38 106 39 107 40
REMARK SMILES IDX 108 41 109 42 28 43 29 44 30 45 31 46 32 47 33 48 34 49
REMARK SMILES IDX 35 50 36 51 37 52 38 53 99 54 39 55 98 56 40 57 41 58 42 59
REMARK SMILES IDX 92 60 43 61 97 62 91 63 93 64 44 65 96 66 90 67 89 68 45 70
REMARK SMILES IDX 77 71 57 72 76 73 58 74 61 75 75 76 94 77 59 78 60 79 74 81
REMARK SMILES IDX 95 82 62 83 46 84 47 85 55 86 48 87 49 88 53 89 56 90 50 91
REMARK SMILES IDX 51 92 54 93 52 94 78 95 79 96 87 97 80 98 81 99 85 100
REMARK SMILES IDX 88 101 82 102 83 103 86 104 84 105 63 106 64 107 72 108
REMARK SMILES IDX 65 109 66 110 70 111 73 112 67 113 68 114 71 115 69 116
REMARK H PARENT 5 25 93 69 61 80
REMARK Flexibility Score: inf
ROOT
ATOM      1  C   UNL A   1      34.595  34.538  29.047  1.00  0.00     0.188 C 
ENDROOT
BRANCH   1   2
ATOM      2  C   UNL A   1      35.165  33.601  27.970  1.00  0.00     0.188 C 
BRANCH   2   3
ATOM      3  O   UNL A   1      35.156  32.188  28.141  1.00  0.00    -0.376 OA
BRANCH   3   4
ATOM      4  C   UNL A   1      36.347  31.433  27.997  1.00  0.00     0.202 C 
BRANCH   4   5
ATOM      5  C   UNL A   1      36.555  30.131  28.791  1.00  0.00     0.261 C 
BRANCH   5   6
ATOM      6  O   UNL A   1      37.594  30.139  29.790  1.00  0.00    -0.463 OA
BRANCH   6   7
ATOM      7  C   UNL A   1      37.441  29.272  30.820  1.00  0.00     0.313 C 
ATOM      8  O   UNL A   1      36.474  29.290  31.581  1.00  0.00    -0.252 OA
BRANCH   7   9
ATOM      9  C   UNL A   1      38.589  28.280  31.028  1.00  0.00     0.126 C 
ATOM     10  C   UNL A   1      38.500  27.768  32.464  1.00  0.00     0.025 C 
BRANCH   9  11
ATOM     11  C   UNL A   1      40.024  28.660  30.661  1.00  0.00    -0.033 A 
ATOM     12  C   UNL A   1      42.746  29.328  29.891  1.00  0.00     0.022 A 
ATOM     13  C   UNL A   1      41.932  30.165  30.694  1.00  0.00     0.011 A 
ATOM     14  C   UNL A   1      42.144  28.116  29.450  1.00  0.00    -0.009 A 
ATOM     15  C   UNL A   1      40.625  29.836  31.092  1.00  0.00     0.005 A 
ATOM     16  C   UNL A   1      40.806  27.813  29.847  1.00  0.00     0.013 A 
BRANCH  12  17
ATOM     17  C   UNL A   1      44.256  29.667  29.628  1.00  0.00     0.247 C 
BRANCH  17  18
ATOM     18  N   UNL A   1      44.603  30.407  28.362  1.00  0.00    -0.325 N 
ATOM     19  C   UNL A   1      44.664  33.868  25.638  1.00  0.00     0.008 C 
ATOM     20  C   UNL A   1      44.490  32.893  26.798  1.00  0.00    -0.003 C 
ATOM     21  C   UNL A   1      45.818  32.414  27.373  1.00  0.00     0.065 C 
ATOM     22  C   UNL A   1      43.740  31.658  26.332  1.00  0.00     0.065 C 
ATOM     23  C   UNL A   1      45.602  31.464  28.558  1.00  0.00     0.263 C 
ATOM     24  C   UNL A   1      43.476  30.687  27.474  1.00  0.00     0.263 C 
ATOM     25  H   UNL A   1      45.110  29.739  27.782  1.00  0.00     0.348 HD
ENDBRANCH  17  18
BRANCH  17  26
ATOM     26  C   UNL A   1      45.270  28.524  29.880  1.00  0.00     0.014 A 
ATOM     27  C   UNL A   1      45.323  27.832  31.097  1.00  0.00     0.013 A 
ATOM     28  C   UNL A   1      46.132  28.090  28.851  1.00  0.00     0.013 A 
ATOM     29  C   UNL A   1      46.164  26.727  31.266  1.00  0.00     0.040 A 
ATOM     30  C   UNL A   1      47.036  27.038  29.050  1.00  0.00     0.040 A 
ATOM     31  C   UNL A   1      47.034  26.358  30.255  1.00  0.00     0.123 A 
ATOM     32  F   UNL A   1      47.870  25.329  30.446  1.00  0.00    -0.207 F 
ENDBRANCH  17  26
ENDBRANCH  12  17
BRANCH  14  33
ATOM     33  C   UNL A   1      42.825  27.136  28.578  1.00  0.00    -0.018 A 
ATOM     34  C   UNL A   1      43.054  27.432  27.223  1.00  0.00     0.009 A 
ATOM     35  C   UNL A   1      43.256  25.892  29.062  1.00  0.00     0.009 A 
ATOM     36  C   UNL A   1      43.740  26.537  26.393  1.00  0.00     0.014 A 
ATOM     37  C   UNL A   1      43.954  25.000  28.238  1.00  0.00     0.014 A 
ATOM     38  C   UNL A   1      44.220  25.321  26.899  1.00  0.00     0.056 A 
BRANCH  38  39
ATOM     39  C   UNL A   1      45.000  24.386  26.008  1.00  0.00     0.416 C 
ATOM     40  F   UNL A   1      44.540  23.105  26.064  1.00  0.00    -0.166 F 
ATOM     41  F   UNL A   1      44.949  24.744  24.695  1.00  0.00    -0.166 F 
ATOM     42  F   UNL A   1      46.326  24.320  26.320  1.00  0.00    -0.166 F 
ENDBRANCH  38  39
ENDBRANCH  14  33
ENDBRANCH   9  11
ENDBRANCH   7   9
ENDBRANCH   6   7
ENDBRANCH   5   6
ENDBRANCH   4   5
ENDBRANCH   3   4
ENDBRANCH   2   3
ENDBRANCH   1   2
BRANCH   1  43
ATOM     43  O   UNL A   1      33.215  34.830  28.923  1.00  0.00    -0.377 OA
BRANCH  43  44
ATOM     44  C   UNL A   1      32.723  35.849  29.778  1.00  0.00     0.188 C 
BRANCH  44  45
ATOM     45  C   UNL A   1      33.366  35.956  31.178  1.00  0.00     0.188 C 
BRANCH  45  46
ATOM     46  O   UNL A   1      32.962  34.934  32.080  1.00  0.00    -0.376 OA
BRANCH  46  47
ATOM     47  C   UNL A   1      33.950  34.362  32.922  1.00  0.00     0.202 C 
BRANCH  47  48
ATOM     48  C   UNL A   1      34.578  33.047  32.459  1.00  0.00     0.261 C 
BRANCH  48  49
ATOM     49  O   UNL A   1      35.830  32.685  33.072  1.00  0.00    -0.460 OA
BRANCH  49  50
ATOM     50  C   UNL A   1      36.968  32.826  32.373  1.00  0.00     0.338 C 
ATOM     51  O   UNL A   1      37.121  33.471  31.344  1.00  0.00    -0.246 OA
BRANCH  50  52
ATOM     52  C   UNL A   1      38.063  32.197  33.147  1.00  0.00     0.060 A 
ATOM     53  C   UNL A   1      37.756  31.224  34.108  1.00  0.00     0.016 A 
ATOM     54  C   UNL A   1      39.392  32.575  32.944  1.00  0.00     0.016 A 
ATOM     55  C   UNL A   1      38.767  30.642  34.882  1.00  0.00     0.010 A 
ATOM     56  C   UNL A   1      40.397  32.012  33.743  1.00  0.00     0.010 A 
ATOM     57  C   UNL A   1      40.096  31.056  34.732  1.00  0.00    -0.014 A 
BRANCH  57  58
ATOM     58  C   UNL A   1      41.127  30.663  35.734  1.00  0.00     0.031 A 
ATOM     59  C   UNL A   1      41.335  31.556  36.930  1.00  0.00     0.074 A 
ATOM     60  C   UNL A   1      41.856  29.535  35.619  1.00  0.00     0.049 A 
ATOM     61  N   UNL A   1      42.192  31.451  37.914  1.00  0.00    -0.248 NA
ATOM     62  C   UNL A   1      40.460  32.735  37.021  1.00  0.00     0.031 C 
ATOM     63  C   UNL A   1      41.747  28.565  34.533  1.00  0.00     0.029 A 
ATOM     64  N   UNL A   1      42.837  29.019  36.434  1.00  0.00    -0.354 N 
ATOM     65  C   UNL A   1      41.969  32.557  38.724  1.00  0.00     0.074 A 
ATOM     66  C   UNL A   1      40.934  33.344  38.096  1.00  0.00     0.031 C 
ATOM     67  C   UNL A   1      42.622  27.566  34.753  1.00  0.00     0.029 A 
ATOM     68  C   UNL A   1      43.377  27.841  35.976  1.00  0.00     0.049 A 
ATOM     69  H   UNL A   1      43.128  29.454  37.268  1.00  0.00     0.167 HD
ATOM     70  C   UNL A   1      42.556  32.879  39.901  1.00  0.00     0.037 A 
ATOM     71  C   UNL A   1      44.371  27.077  36.478  1.00  0.00     0.037 A 
ATOM     72  C   UNL A   1      43.570  32.089  40.546  1.00  0.00     0.049 A 
ATOM     73  C   UNL A   1      45.055  27.482  37.761  1.00  0.00     0.074 A 
ATOM     74  C   UNL A   1      44.195  32.319  41.758  1.00  0.00     0.029 A 
ATOM     75  N   UNL A   1      44.111  30.922  40.029  1.00  0.00    -0.354 N 
ATOM     76  N   UNL A   1      44.817  28.513  38.535  1.00  0.00    -0.248 NA
ATOM     77  C   UNL A   1      46.143  26.616  38.243  1.00  0.00     0.031 C 
ATOM     78  C   UNL A   1      45.159  31.326  41.946  1.00  0.00     0.029 A 
ATOM     79  C   UNL A   1      45.087  30.437  40.885  1.00  0.00     0.049 A 
ATOM     80  H   UNL A   1      43.841  30.500  39.181  1.00  0.00     0.167 HD
ATOM     81  C   UNL A   1      45.704  28.409  39.601  1.00  0.00     0.074 A 
ATOM     82  C   UNL A   1      46.480  27.208  39.383  1.00  0.00     0.031 C 
ATOM     83  C   UNL A   1      45.855  29.237  40.665  1.00  0.00     0.037 A 
BRANCH  70  84
ATOM     84  C   UNL A   1      42.124  34.154  40.566  1.00  0.00     0.064 A 
ATOM     85  C   UNL A   1      42.760  35.367  40.253  1.00  0.00     0.173 A 
ATOM     86  C   UNL A   1      41.112  34.177  41.538  1.00  0.00     0.173 A 
ATOM     87  F   UNL A   1      43.737  35.400  39.334  1.00  0.00    -0.203 F 
ATOM     88  C   UNL A   1      42.404  36.549  40.894  1.00  0.00     0.198 A 
ATOM     89  C   UNL A   1      40.734  35.368  42.151  1.00  0.00     0.198 A 
ATOM     90  F   UNL A   1      40.462  33.049  41.860  1.00  0.00    -0.203 F 
ATOM     91  F   UNL A   1      43.047  37.688  40.601  1.00  0.00    -0.200 F 
ATOM     92  C   UNL A   1      41.387  36.551  41.837  1.00  0.00     0.200 A 
ATOM     93  F   UNL A   1      39.730  35.373  43.038  1.00  0.00    -0.200 F 
ATOM     94  F   UNL A   1      41.032  37.694  42.439  1.00  0.00    -0.200 F 
ENDBRANCH  70  84
BRANCH  71  95
ATOM     95  C   UNL A   1      44.773  25.835  35.762  1.00  0.00     0.064 A 
ATOM     96  C   UNL A   1      45.857  25.824  34.872  1.00  0.00     0.173 A 
ATOM     97  C   UNL A   1      44.061  24.639  35.933  1.00  0.00     0.173 A 
ATOM     98  F   UNL A   1      46.577  26.939  34.679  1.00  0.00    -0.203 F 
ATOM     99  C   UNL A   1      46.191  24.676  34.156  1.00  0.00     0.198 A 
ATOM    100  C   UNL A   1      44.412  23.484  35.236  1.00  0.00     0.198 A 
ATOM    101  F   UNL A   1      43.036  24.588  36.797  1.00  0.00    -0.203 F 
ATOM    102  F   UNL A   1      47.207  24.706  33.282  1.00  0.00    -0.200 F 
ATOM    103  C   UNL A   1      45.469  23.507  34.338  1.00  0.00     0.200 A 
ATOM    104  F   UNL A   1      43.729  22.349  35.435  1.00  0.00    -0.200 F 
ATOM    105  F   UNL A   1      45.792  22.403  33.651  1.00  0.00    -0.200 F 
ENDBRANCH  71  95
BRANCH  83 106
ATOM    106  C   UNL A   1      46.881  28.882  41.703  1.00  0.00     0.064 A 
ATOM    107  C   UNL A   1      46.503  28.186  42.864  1.00  0.00     0.173 A 
ATOM    108  C   UNL A   1      48.208  29.323  41.609  1.00  0.00     0.173 A 
ATOM    109  F   UNL A   1      45.242  27.752  43.012  1.00  0.00    -0.203 F 
ATOM    110  C   UNL A   1      47.409  27.969  43.900  1.00  0.00     0.198 A 
ATOM    111  C   UNL A   1      49.120  29.075  42.633  1.00  0.00     0.198 A 
ATOM    112  F   UNL A   1      48.624  29.984  40.518  1.00  0.00    -0.203 F 
ATOM    113  F   UNL A   1      47.010  27.346  45.017  1.00  0.00    -0.200 F 
ATOM    114  C   UNL A   1      48.716  28.411  43.782  1.00  0.00     0.200 A 
ATOM    115  F   UNL A   1      50.390  29.485  42.509  1.00  0.00    -0.200 F 
ATOM    116  F   UNL A   1      49.588  28.199  44.777  1.00  0.00    -0.200 F 
ENDBRANCH  83 106
ENDBRANCH  57  58
ENDBRANCH  50  52
ENDBRANCH  49  50
ENDBRANCH  48  49
ENDBRANCH  47  48
ENDBRANCH  46  47
ENDBRANCH  45  46
ENDBRANCH  44  45
ENDBRANCH  43  44
ENDBRANCH   1  43
TORSDOF 26
ENDMDL
