MODEL 1
REMARK VINA RESULT:      -8.4      0.000      0.000
REMARK SMILES Cn1cnnc1CCNC(=O)NCc1ccc(C(=O)OCCOCCOCCOCCOC(=O)c2ccc(-c3c4nc(c(-c5c(F)c(F)c(F)c(F)c5F)c5ccc([nH]5)c(-c5c(F)c(F)c(F)c(F)c5F)c5nc(c(-c6c(F)c(F)c(F)c(F)c6F)c6ccc3[nH]6)C=C5)C=C4)cc2)o1
REMARK SMILES IDX 24 1 23 2 22 3 21 4 20 5 18 6 19 7 17 8 14 9 15 10 98 11
REMARK SMILES IDX 16 12 13 13 12 14 9 15 10 16 11 18 8 20 7 21 6 22 1 23 2 24
REMARK SMILES IDX 3 25 4 26 5 27 25 28 26 29 27 30 28 31 29 32 30 33 31 34
REMARK SMILES IDX 32 35 33 36 34 37 35 38 36 39 97 40 37 41 96 42 38 43 39 44
REMARK SMILES IDX 40 45 90 46 41 47 95 48 89 49 91 50 42 51 94 52 88 53 87 54
REMARK SMILES IDX 43 56 75 57 55 58 74 59 56 60 59 61 73 62 92 63 57 64 58 65
REMARK SMILES IDX 72 67 93 68 60 69 44 70 45 71 53 72 46 73 47 74 51 75 54 76
REMARK SMILES IDX 48 77 49 78 52 79 50 80 76 81 77 82 85 83 78 84 79 85 83 86
REMARK SMILES IDX 86 87 80 88 81 89 84 90 82 91 61 92 62 93 70 94 63 95 64 96
REMARK SMILES IDX 68 97 71 98 65 99 66 100 69 101 67 102
REMARK H PARENT 9 17 12 19 91 55 59 66
REMARK Flexibility Score: inf
ROOT
ATOM      1  C   UNL A   1      34.723  35.078  33.882  1.00  0.00     0.188 C 
ENDROOT
BRANCH   1   2
ATOM      2  O   UNL A   1      34.584  33.665  34.063  1.00  0.00    -0.376 OA
BRANCH   2   3
ATOM      3  C   UNL A   1      34.834  32.863  32.911  1.00  0.00     0.202 C 
BRANCH   3   4
ATOM      4  C   UNL A   1      36.262  32.307  32.797  1.00  0.00     0.261 C 
BRANCH   4   5
ATOM      5  O   UNL A   1      37.073  32.935  31.788  1.00  0.00    -0.457 OA
BRANCH   5   6
ATOM      6  C   UNL A   1      37.982  33.856  32.198  1.00  0.00     0.374 C 
ATOM      7  O   UNL A   1      38.181  34.173  33.362  1.00  0.00    -0.242 OA
BRANCH   6   8
ATOM      8  C   UNL A   1      38.758  34.265  31.053  1.00  0.00     0.211 A 
ATOM      9  C   UNL A   1      40.651  34.689  29.998  1.00  0.00     0.124 A 
ATOM     10  C   UNL A   1      39.680  34.563  29.024  1.00  0.00     0.048 A 
ATOM     11  O   UNL A   1      40.085  34.557  31.232  1.00  0.00    -0.452 OA
ATOM     12  C   UNL A   1      38.466  34.296  29.697  1.00  0.00     0.058 A 
BRANCH   9  13
ATOM     13  C   UNL A   1      42.125  34.876  29.967  1.00  0.00     0.193 C 
BRANCH  13  14
ATOM     14  N   UNL A   1      42.710  33.887  29.090  1.00  0.00    -0.331 N 
ATOM     15  N   UNL A   1      44.476  34.950  27.939  1.00  0.00    -0.338 N 
ATOM     16  C   UNL A   1      43.762  33.868  28.267  1.00  0.00     0.315 C 
ATOM     17  H   UNL A   1      45.293  34.727  27.439  1.00  0.00     0.165 HD
ATOM     18  O   UNL A   1      44.085  32.783  27.780  1.00  0.00    -0.249 OA
ATOM     19  H   UNL A   1      42.221  33.032  29.100  1.00  0.00     0.165 HD
BRANCH  15  20
ATOM     20  C   UNL A   1      44.322  36.377  28.152  1.00  0.00     0.126 C 
BRANCH  20  21
ATOM     21  C   UNL A   1      43.889  37.114  26.883  1.00  0.00     0.099 C 
BRANCH  21  22
ATOM     22  C   UNL A   1      43.148  38.362  27.224  1.00  0.00     0.134 A 
ATOM     23  C   UNL A   1      44.673  40.115  26.188  1.00  0.00     0.152 C 
ATOM     24  N   UNL A   1      43.526  39.645  26.918  1.00  0.00    -0.321 N 
ATOM     25  C   UNL A   1      42.585  40.460  27.475  1.00  0.00     0.225 A 
ATOM     26  N   UNL A   1      41.680  39.733  28.083  1.00  0.00    -0.139 NA
ATOM     27  N   UNL A   1      42.031  38.415  27.924  1.00  0.00    -0.136 NA
ENDBRANCH  21  22
ENDBRANCH  20  21
ENDBRANCH  15  20
ENDBRANCH  13  14
ENDBRANCH   9  13
ENDBRANCH   6   8
ENDBRANCH   5   6
ENDBRANCH   4   5
ENDBRANCH   3   4
ENDBRANCH   2   3
ENDBRANCH   1   2
BRANCH   1  28
ATOM     28  C   UNL A   1      34.647  35.509  32.409  1.00  0.00     0.188 C 
BRANCH  28  29
ATOM     29  O   UNL A   1      33.319  35.824  32.011  1.00  0.00    -0.377 OA
BRANCH  29  30
ATOM     30  C   UNL A   1      33.194  36.624  30.838  1.00  0.00     0.188 C 
BRANCH  30  31
ATOM     31  C   UNL A   1      33.006  35.914  29.485  1.00  0.00     0.188 C 
BRANCH  31  32
ATOM     32  O   UNL A   1      34.232  35.786  28.757  1.00  0.00    -0.376 OA
BRANCH  32  33
ATOM     33  C   UNL A   1      34.528  34.480  28.261  1.00  0.00     0.202 C 
BRANCH  33  34
ATOM     34  C   UNL A   1      34.028  33.358  29.181  1.00  0.00     0.261 C 
BRANCH  34  35
ATOM     35  O   UNL A   1      34.987  32.312  29.409  1.00  0.00    -0.460 OA
BRANCH  35  36
ATOM     36  C   UNL A   1      34.918  31.241  28.590  1.00  0.00     0.338 C 
ATOM     37  O   UNL A   1      34.062  30.997  27.760  1.00  0.00    -0.246 OA
BRANCH  36  38
ATOM     38  C   UNL A   1      36.168  30.470  28.735  1.00  0.00     0.060 A 
ATOM     39  C   UNL A   1      36.371  29.749  29.918  1.00  0.00     0.016 A 
ATOM     40  C   UNL A   1      37.140  30.480  27.731  1.00  0.00     0.016 A 
ATOM     41  C   UNL A   1      37.575  29.076  30.122  1.00  0.00     0.010 A 
ATOM     42  C   UNL A   1      38.351  29.819  27.943  1.00  0.00     0.010 A 
ATOM     43  C   UNL A   1      38.586  29.148  29.154  1.00  0.00    -0.014 A 
BRANCH  43  44
ATOM     44  C   UNL A   1      39.956  28.696  29.486  1.00  0.00     0.031 A 
ATOM     45  C   UNL A   1      40.800  29.572  30.368  1.00  0.00     0.074 A 
ATOM     46  C   UNL A   1      40.444  27.538  29.010  1.00  0.00     0.049 A 
ATOM     47  N   UNL A   1      42.033  29.404  30.774  1.00  0.00    -0.248 NA
ATOM     48  C   UNL A   1      40.166  30.808  30.859  1.00  0.00     0.031 C 
ATOM     49  C   UNL A   1      39.717  26.599  28.161  1.00  0.00     0.029 A 
ATOM     50  N   UNL A   1      41.682  26.968  29.168  1.00  0.00    -0.354 N 
ATOM     51  C   UNL A   1      42.317  30.506  31.569  1.00  0.00     0.074 A 
ATOM     52  C   UNL A   1      41.144  31.350  31.569  1.00  0.00     0.031 C 
ATOM     53  C   UNL A   1      40.529  25.569  27.860  1.00  0.00     0.029 A 
ATOM     54  C   UNL A   1      41.836  25.791  28.478  1.00  0.00     0.049 A 
ATOM     55  H   UNL A   1      42.391  27.363  29.724  1.00  0.00     0.167 HD
ATOM     56  C   UNL A   1      43.455  30.784  32.248  1.00  0.00     0.037 A 
ATOM     57  C   UNL A   1      42.916  24.998  28.353  1.00  0.00     0.037 A 
ATOM     58  C   UNL A   1      44.630  29.956  32.237  1.00  0.00     0.049 A 
ATOM     59  C   UNL A   1      44.193  25.364  29.065  1.00  0.00     0.074 A 
ATOM     60  C   UNL A   1      45.827  30.146  32.903  1.00  0.00     0.029 A 
ATOM     61  N   UNL A   1      44.754  28.781  31.511  1.00  0.00    -0.354 N 
ATOM     62  N   UNL A   1      44.442  26.384  29.849  1.00  0.00    -0.248 NA
ATOM     63  C   UNL A   1      45.340  24.463  28.873  1.00  0.00     0.031 C 
ATOM     64  C   UNL A   1      46.691  29.103  32.551  1.00  0.00     0.029 A 
ATOM     65  C   UNL A   1      46.017  28.246  31.694  1.00  0.00     0.049 A 
ATOM     66  H   UNL A   1      44.049  28.387  30.948  1.00  0.00     0.167 HD
ATOM     67  C   UNL A   1      45.759  26.236  30.263  1.00  0.00     0.074 A 
ATOM     68  C   UNL A   1      46.257  25.023  29.650  1.00  0.00     0.031 C 
ATOM     69  C   UNL A   1      46.490  27.033  31.080  1.00  0.00     0.037 A 
BRANCH  56  70
ATOM     70  C   UNL A   1      43.481  32.051  33.045  1.00  0.00     0.064 A 
ATOM     71  C   UNL A   1      44.101  33.208  32.554  1.00  0.00     0.173 A 
ATOM     72  C   UNL A   1      42.870  32.112  34.306  1.00  0.00     0.173 A 
ATOM     73  F   UNL A   1      44.716  33.191  31.361  1.00  0.00    -0.203 F 
ATOM     74  C   UNL A   1      44.123  34.380  33.306  1.00  0.00     0.198 A 
ATOM     75  C   UNL A   1      42.877  33.291  35.045  1.00  0.00     0.198 A 
ATOM     76  F   UNL A   1      42.268  31.028  34.818  1.00  0.00    -0.203 F 
ATOM     77  F   UNL A   1      44.755  35.464  32.834  1.00  0.00    -0.200 F 
ATOM     78  C   UNL A   1      43.508  34.421  34.548  1.00  0.00     0.200 A 
ATOM     79  F   UNL A   1      42.279  33.331  36.244  1.00  0.00    -0.200 F 
ATOM     80  F   UNL A   1      43.531  35.550  35.270  1.00  0.00    -0.200 F 
ENDBRANCH  56  70
BRANCH  57  81
ATOM     81  C   UNL A   1      42.844  23.775  27.515  1.00  0.00     0.064 A 
ATOM     82  C   UNL A   1      42.431  22.552  28.059  1.00  0.00     0.173 A 
ATOM     83  C   UNL A   1      43.210  23.800  26.161  1.00  0.00     0.173 A 
ATOM     84  F   UNL A   1      42.099  22.474  29.356  1.00  0.00    -0.203 F 
ATOM     85  C   UNL A   1      42.399  21.395  27.282  1.00  0.00     0.198 A 
ATOM     86  C   UNL A   1      43.157  22.648  25.381  1.00  0.00     0.198 A 
ATOM     87  F   UNL A   1      43.618  24.947  25.597  1.00  0.00    -0.203 F 
ATOM     88  F   UNL A   1      42.039  20.229  27.836  1.00  0.00    -0.200 F 
ATOM     89  C   UNL A   1      42.758  21.445  25.944  1.00  0.00     0.200 A 
ATOM     90  F   UNL A   1      43.500  22.700  24.087  1.00  0.00    -0.200 F 
ATOM     91  F   UNL A   1      42.729  20.331  25.199  1.00  0.00    -0.200 F 
ENDBRANCH  57  81
BRANCH  69  92
ATOM     92  C   UNL A   1      47.895  26.607  31.382  1.00  0.00     0.064 A 
ATOM     93  C   UNL A   1      48.183  25.726  32.432  1.00  0.00     0.173 A 
ATOM     94  C   UNL A   1      48.958  27.045  30.577  1.00  0.00     0.173 A 
ATOM     95  F   UNL A   1      47.201  25.292  33.238  1.00  0.00    -0.203 F 
ATOM     96  C   UNL A   1      49.489  25.309  32.677  1.00  0.00     0.198 A 
ATOM     97  C   UNL A   1      50.258  26.609  30.810  1.00  0.00     0.198 A 
ATOM     98  F   UNL A   1      48.731  27.885  29.556  1.00  0.00    -0.203 F 
ATOM     99  F   UNL A   1      49.747  24.491  33.707  1.00  0.00    -0.200 F 
ATOM    100  C   UNL A   1      50.524  25.744  31.862  1.00  0.00     0.200 A 
ATOM    101  F   UNL A   1      51.256  27.023  30.016  1.00  0.00    -0.200 F 
ATOM    102  F   UNL A   1      51.778  25.336  32.095  1.00  0.00    -0.200 F 
ENDBRANCH  69  92
ENDBRANCH  43  44
ENDBRANCH  36  38
ENDBRANCH  35  36
ENDBRANCH  34  35
ENDBRANCH  33  34
ENDBRANCH  32  33
ENDBRANCH  31  32
ENDBRANCH  30  31
ENDBRANCH  29  30
ENDBRANCH  28  29
ENDBRANCH   1  28
TORSDOF 25
ENDMDL
MODEL 2
REMARK VINA RESULT:      -8.4      4.975     11.485
REMARK SMILES Cn1cnnc1CCNC(=O)NCc1ccc(C(=O)OCCOCCOCCOCCOC(=O)c2ccc(-c3c4nc(c(-c5c(F)c(F)c(F)c(F)c5F)c5ccc([nH]5)c(-c5c(F)c(F)c(F)c(F)c5F)c5nc(c(-c6c(F)c(F)c(F)c(F)c6F)c6ccc3[nH]6)C=C5)C=C4)cc2)o1
REMARK SMILES IDX 24 1 23 2 22 3 21 4 20 5 18 6 19 7 17 8 14 9 15 10 98 11
REMARK SMILES IDX 16 12 13 13 12 14 9 15 10 16 11 18 8 20 7 21 6 22 1 23 2 24
REMARK SMILES IDX 3 25 4 26 5 27 25 28 26 29 27 30 28 31 29 32 30 33 31 34
REMARK SMILES IDX 32 35 33 36 34 37 35 38 36 39 97 40 37 41 96 42 38 43 39 44
REMARK SMILES IDX 40 45 90 46 41 47 95 48 89 49 91 50 42 51 94 52 88 53 87 54
REMARK SMILES IDX 43 56 75 57 55 58 74 59 56 60 59 61 73 62 92 63 57 64 58 65
REMARK SMILES IDX 72 67 93 68 60 69 44 70 45 71 53 72 46 73 47 74 51 75 54 76
REMARK SMILES IDX 48 77 49 78 52 79 50 80 76 81 77 82 85 83 78 84 79 85 83 86
REMARK SMILES IDX 86 87 80 88 81 89 84 90 82 91 61 92 62 93 70 94 63 95 64 96
REMARK SMILES IDX 68 97 71 98 65 99 66 100 69 101 67 102
REMARK H PARENT 9 17 12 19 91 55 59 66
REMARK Flexibility Score: inf
ROOT
ATOM      1  C   UNL A   1      33.621  27.640  23.790  1.00  0.00     0.188 C 
ENDROOT
BRANCH   1   2
ATOM      2  O   UNL A   1      33.681  26.474  22.962  1.00  0.00    -0.376 OA
BRANCH   2   3
ATOM      3  C   UNL A   1      32.783  26.450  21.855  1.00  0.00     0.202 C 
BRANCH   3   4
ATOM      4  C   UNL A   1      31.502  27.279  22.034  1.00  0.00     0.261 C 
BRANCH   4   5
ATOM      5  O   UNL A   1      30.362  26.534  22.498  1.00  0.00    -0.457 OA
BRANCH   5   6
ATOM      6  C   UNL A   1      29.897  26.811  23.743  1.00  0.00     0.374 C 
ATOM      7  O   UNL A   1      29.279  27.821  24.050  1.00  0.00    -0.242 OA
BRANCH   6   8
ATOM      8  C   UNL A   1      30.119  25.654  24.575  1.00  0.00     0.211 A 
ATOM      9  C   UNL A   1      31.057  23.713  25.053  1.00  0.00     0.124 A 
ATOM     10  C   UNL A   1      30.538  24.199  26.237  1.00  0.00     0.048 A 
ATOM     11  O   UNL A   1      30.761  24.571  24.035  1.00  0.00    -0.452 OA
ATOM     12  C   UNL A   1      29.934  25.440  25.933  1.00  0.00     0.058 A 
BRANCH   9  13
ATOM     13  C   UNL A   1      31.878  22.527  24.696  1.00  0.00     0.193 C 
BRANCH  13  14
ATOM     14  N   UNL A   1      32.579  22.790  23.460  1.00  0.00    -0.331 N 
ATOM     15  N   UNL A   1      34.730  23.567  24.042  1.00  0.00    -0.338 N 
ATOM     16  C   UNL A   1      33.823  23.163  23.147  1.00  0.00     0.315 C 
ATOM     17  H   UNL A   1      35.628  23.666  23.652  1.00  0.00     0.165 HD
ATOM     18  O   UNL A   1      34.144  23.136  21.958  1.00  0.00    -0.249 OA
ATOM     19  H   UNL A   1      32.009  22.666  22.666  1.00  0.00     0.165 HD
BRANCH  15  20
ATOM     20  C   UNL A   1      34.695  23.891  25.456  1.00  0.00     0.126 C 
BRANCH  20  21
ATOM     21  C   UNL A   1      35.891  23.317  26.217  1.00  0.00     0.099 C 
BRANCH  21  22
ATOM     22  C   UNL A   1      36.224  21.949  25.726  1.00  0.00     0.134 A 
ATOM     23  C   UNL A   1      38.765  22.036  25.767  1.00  0.00     0.152 C 
ATOM     24  N   UNL A   1      37.480  21.435  25.530  1.00  0.00    -0.321 N 
ATOM     25  C   UNL A   1      37.302  20.184  25.020  1.00  0.00     0.225 A 
ATOM     26  N   UNL A   1      36.020  19.934  24.909  1.00  0.00    -0.139 NA
ATOM     27  N   UNL A   1      35.342  21.040  25.354  1.00  0.00    -0.136 NA
ENDBRANCH  21  22
ENDBRANCH  20  21
ENDBRANCH  15  20
ENDBRANCH  13  14
ENDBRANCH   9  13
ENDBRANCH   6   8
ENDBRANCH   5   6
ENDBRANCH   4   5
ENDBRANCH   3   4
ENDBRANCH   2   3
ENDBRANCH   1   2
BRANCH   1  28
ATOM     28  C   UNL A   1      33.985  27.360  25.256  1.00  0.00     0.188 C 
BRANCH  28  29
ATOM     29  O   UNL A   1      32.833  27.191  26.071  1.00  0.00    -0.377 OA
BRANCH  29  30
ATOM     30  C   UNL A   1      32.443  28.325  26.842  1.00  0.00     0.188 C 
BRANCH  30  31
ATOM     31  C   UNL A   1      33.175  29.658  26.603  1.00  0.00     0.188 C 
BRANCH  31  32
ATOM     32  O   UNL A   1      33.285  30.445  27.794  1.00  0.00    -0.376 OA
BRANCH  32  33
ATOM     33  C   UNL A   1      33.921  31.715  27.644  1.00  0.00     0.202 C 
BRANCH  33  34
ATOM     34  C   UNL A   1      32.927  32.869  27.457  1.00  0.00     0.261 C 
BRANCH  34  35
ATOM     35  O   UNL A   1      32.694  33.645  28.644  1.00  0.00    -0.460 OA
BRANCH  35  36
ATOM     36  C   UNL A   1      33.484  34.724  28.826  1.00  0.00     0.338 C 
ATOM     37  O   UNL A   1      33.264  35.870  28.481  1.00  0.00    -0.246 OA
BRANCH  36  38
ATOM     38  C   UNL A   1      34.615  34.326  29.687  1.00  0.00     0.060 A 
ATOM     39  C   UNL A   1      35.915  34.579  29.236  1.00  0.00     0.016 A 
ATOM     40  C   UNL A   1      34.397  33.685  30.910  1.00  0.00     0.016 A 
ATOM     41  C   UNL A   1      37.007  34.143  29.986  1.00  0.00     0.010 A 
ATOM     42  C   UNL A   1      35.489  33.236  31.653  1.00  0.00     0.010 A 
ATOM     43  C   UNL A   1      36.796  33.430  31.174  1.00  0.00    -0.014 A 
BRANCH  43  44
ATOM     44  C   UNL A   1      37.922  32.714  31.812  1.00  0.00     0.031 A 
ATOM     45  C   UNL A   1      38.534  31.553  31.080  1.00  0.00     0.074 A 
ATOM     46  C   UNL A   1      38.390  33.080  33.018  1.00  0.00     0.049 A 
ATOM     47  N   UNL A   1      39.507  30.757  31.445  1.00  0.00    -0.248 NA
ATOM     48  C   UNL A   1      37.968  31.246  29.755  1.00  0.00     0.031 C 
ATOM     49  C   UNL A   1      37.892  34.197  33.815  1.00  0.00     0.029 A 
ATOM     50  N   UNL A   1      39.387  32.531  33.784  1.00  0.00    -0.354 N 
ATOM     51  C   UNL A   1      39.672  29.864  30.395  1.00  0.00     0.074 A 
ATOM     52  C   UNL A   1      38.685  30.193  29.392  1.00  0.00     0.031 C 
ATOM     53  C   UNL A   1      38.578  34.244  34.971  1.00  0.00     0.029 A 
ATOM     54  C   UNL A   1      39.547  33.149  35.000  1.00  0.00     0.049 A 
ATOM     55  H   UNL A   1      39.935  31.768  33.492  1.00  0.00     0.167 HD
ATOM     56  C   UNL A   1      40.575  28.862  30.275  1.00  0.00     0.037 A 
ATOM     57  C   UNL A   1      40.373  32.849  36.019  1.00  0.00     0.037 A 
ATOM     58  C   UNL A   1      41.547  28.521  31.276  1.00  0.00     0.049 A 
ATOM     59  C   UNL A   1      41.324  31.688  35.888  1.00  0.00     0.074 A 
ATOM     60  C   UNL A   1      42.513  27.532  31.242  1.00  0.00     0.029 A 
ATOM     61  N   UNL A   1      41.665  29.158  32.502  1.00  0.00    -0.354 N 
ATOM     62  N   UNL A   1      41.504  30.874  34.877  1.00  0.00    -0.248 NA
ATOM     63  C   UNL A   1      42.188  31.404  37.044  1.00  0.00     0.031 C 
ATOM     64  C   UNL A   1      43.194  27.546  32.464  1.00  0.00     0.029 A 
ATOM     65  C   UNL A   1      42.674  28.568  33.244  1.00  0.00     0.049 A 
ATOM     66  H   UNL A   1      41.113  29.916  32.801  1.00  0.00     0.167 HD
ATOM     67  C   UNL A   1      42.514  30.002  35.261  1.00  0.00     0.074 A 
ATOM     68  C   UNL A   1      42.915  30.389  36.598  1.00  0.00     0.031 C 
ATOM     69  C   UNL A   1      43.062  28.974  34.569  1.00  0.00     0.037 A 
BRANCH  56  70
ATOM     70  C   UNL A   1      40.534  28.055  29.015  1.00  0.00     0.064 A 
ATOM     71  C   UNL A   1      41.273  28.431  27.884  1.00  0.00     0.173 A 
ATOM     72  C   UNL A   1      39.759  26.888  28.941  1.00  0.00     0.173 A 
ATOM     73  F   UNL A   1      42.013  29.550  27.902  1.00  0.00    -0.203 F 
ATOM     74  C   UNL A   1      41.225  27.675  26.716  1.00  0.00     0.198 A 
ATOM     75  C   UNL A   1      39.729  26.125  27.777  1.00  0.00     0.198 A 
ATOM     76  F   UNL A   1      39.033  26.492  29.996  1.00  0.00    -0.203 F 
ATOM     77  F   UNL A   1      41.908  28.073  25.634  1.00  0.00    -0.200 F 
ATOM     78  C   UNL A   1      40.456  26.521  26.665  1.00  0.00     0.200 A 
ATOM     79  F   UNL A   1      38.990  25.008  27.730  1.00  0.00    -0.200 F 
ATOM     80  F   UNL A   1      40.411  25.795  25.540  1.00  0.00    -0.200 F 
ENDBRANCH  56  70
BRANCH  57  81
ATOM     81  C   UNL A   1      40.341  33.660  37.262  1.00  0.00     0.064 A 
ATOM     82  C   UNL A   1      39.435  33.365  38.291  1.00  0.00     0.173 A 
ATOM     83  C   UNL A   1      41.196  34.757  37.436  1.00  0.00     0.173 A 
ATOM     84  F   UNL A   1      38.579  32.343  38.156  1.00  0.00    -0.203 F 
ATOM     85  C   UNL A   1      39.378  34.149  39.442  1.00  0.00     0.198 A 
ATOM     86  C   UNL A   1      41.152  35.526  38.597  1.00  0.00     0.198 A 
ATOM     87  F   UNL A   1      42.075  35.081  36.477  1.00  0.00    -0.203 F 
ATOM     88  F   UNL A   1      38.475  33.871  40.394  1.00  0.00    -0.200 F 
ATOM     89  C   UNL A   1      40.239  35.225  39.596  1.00  0.00     0.200 A 
ATOM     90  F   UNL A   1      41.988  36.562  38.744  1.00  0.00    -0.200 F 
ATOM     91  F   UNL A   1      40.181  35.979  40.703  1.00  0.00    -0.200 F 
ENDBRANCH  57  81
BRANCH  69  92
ATOM     92  C   UNL A   1      44.172  28.213  35.229  1.00  0.00     0.064 A 
ATOM     93  C   UNL A   1      43.920  27.060  35.985  1.00  0.00     0.173 A 
ATOM     94  C   UNL A   1      45.506  28.612  35.059  1.00  0.00     0.173 A 
ATOM     95  F   UNL A   1      42.659  26.648  36.187  1.00  0.00    -0.203 F 
ATOM     96  C   UNL A   1      44.964  26.341  36.561  1.00  0.00     0.198 A 
ATOM     97  C   UNL A   1      46.548  27.879  35.617  1.00  0.00     0.198 A 
ATOM     98  F   UNL A   1      45.798  29.706  34.339  1.00  0.00    -0.203 F 
ATOM     99  F   UNL A   1      44.699  25.260  37.308  1.00  0.00    -0.200 F 
ATOM    100  C   UNL A   1      46.277  26.747  36.371  1.00  0.00     0.200 A 
ATOM    101  F   UNL A   1      47.817  28.267  35.425  1.00  0.00    -0.200 F 
ATOM    102  F   UNL A   1      47.281  26.049  36.920  1.00  0.00    -0.200 F 
ENDBRANCH  69  92
ENDBRANCH  43  44
ENDBRANCH  36  38
ENDBRANCH  35  36
ENDBRANCH  34  35
ENDBRANCH  33  34
ENDBRANCH  32  33
ENDBRANCH  31  32
ENDBRANCH  30  31
ENDBRANCH  29  30
ENDBRANCH  28  29
ENDBRANCH   1  28
TORSDOF 25
ENDMDL
MODEL 3
REMARK VINA RESULT:      -8.3      6.297     12.043
REMARK SMILES Cn1cnnc1CCNC(=O)NCc1ccc(C(=O)OCCOCCOCCOCCOC(=O)c2ccc(-c3c4nc(c(-c5c(F)c(F)c(F)c(F)c5F)c5ccc([nH]5)c(-c5c(F)c(F)c(F)c(F)c5F)c5nc(c(-c6c(F)c(F)c(F)c(F)c6F)c6ccc3[nH]6)C=C5)C=C4)cc2)o1
REMARK SMILES IDX 24 1 23 2 22 3 21 4 20 5 18 6 19 7 17 8 14 9 15 10 98 11
REMARK SMILES IDX 16 12 13 13 12 14 9 15 10 16 11 18 8 20 7 21 6 22 1 23 2 24
REMARK SMILES IDX 3 25 4 26 5 27 25 28 26 29 27 30 28 31 29 32 30 33 31 34
REMARK SMILES IDX 32 35 33 36 34 37 35 38 36 39 97 40 37 41 96 42 38 43 39 44
REMARK SMILES IDX 40 45 90 46 41 47 95 48 89 49 91 50 42 51 94 52 88 53 87 54
REMARK SMILES IDX 43 56 75 57 55 58 74 59 56 60 59 61 73 62 92 63 57 64 58 65
REMARK SMILES IDX 72 67 93 68 60 69 44 70 45 71 53 72 46 73 47 74 51 75 54 76
REMARK SMILES IDX 48 77 49 78 52 79 50 80 76 81 77 82 85 83 78 84 79 85 83 86
REMARK SMILES IDX 86 87 80 88 81 89 84 90 82 91 61 92 62 93 70 94 63 95 64 96
REMARK SMILES IDX 68 97 71 98 65 99 66 100 69 101 67 102
REMARK H PARENT 9 17 12 19 91 55 59 66
REMARK Flexibility Score: inf
ROOT
ATOM      1  C   UNL A   1      33.896  25.128  23.489  1.00  0.00     0.188 C 
ENDROOT
BRANCH   1   2
ATOM      2  O   UNL A   1      34.029  25.538  22.125  1.00  0.00    -0.376 OA
BRANCH   2   3
ATOM      3  C   UNL A   1      32.809  25.768  21.422  1.00  0.00     0.202 C 
BRANCH   3   4
ATOM      4  C   UNL A   1      31.915  26.872  22.008  1.00  0.00     0.261 C 
BRANCH   4   5
ATOM      5  O   UNL A   1      30.725  26.399  22.664  1.00  0.00    -0.457 OA
BRANCH   5   6
ATOM      6  C   UNL A   1      30.488  26.837  23.925  1.00  0.00     0.374 C 
ATOM      7  O   UNL A   1      30.280  28.003  24.234  1.00  0.00    -0.242 OA
BRANCH   6   8
ATOM      8  C   UNL A   1      30.371  25.688  24.788  1.00  0.00     0.211 A 
ATOM      9  C   UNL A   1      30.874  23.633  25.424  1.00  0.00     0.124 A 
ATOM     10  C   UNL A   1      30.260  24.238  26.504  1.00  0.00     0.048 A 
ATOM     11  O   UNL A   1      30.898  24.496  24.367  1.00  0.00    -0.452 OA
ATOM     12  C   UNL A   1      29.933  25.552  26.098  1.00  0.00     0.058 A 
BRANCH   9  13
ATOM     13  C   UNL A   1      31.529  22.316  25.214  1.00  0.00     0.193 C 
BRANCH  13  14
ATOM     14  N   UNL A   1      32.612  22.169  26.159  1.00  0.00    -0.331 N 
ATOM     15  N   UNL A   1      33.281  19.907  26.088  1.00  0.00    -0.338 N 
ATOM     16  C   UNL A   1      33.431  21.170  26.500  1.00  0.00     0.315 C 
ATOM     17  H   UNL A   1      34.051  19.340  26.321  1.00  0.00     0.165 HD
ATOM     18  O   UNL A   1      34.375  21.436  27.245  1.00  0.00    -0.249 OA
ATOM     19  H   UNL A   1      32.787  22.994  26.669  1.00  0.00     0.165 HD
BRANCH  15  20
ATOM     20  C   UNL A   1      32.246  19.181  25.376  1.00  0.00     0.126 C 
BRANCH  20  21
ATOM     21  C   UNL A   1      32.792  18.420  24.167  1.00  0.00     0.099 C 
BRANCH  21  22
ATOM     22  C   UNL A   1      33.885  17.491  24.575  1.00  0.00     0.134 A 
ATOM     23  C   UNL A   1      32.532  15.483  25.354  1.00  0.00     0.152 C 
ATOM     24  N   UNL A   1      33.733  16.232  25.098  1.00  0.00    -0.321 N 
ATOM     25  C   UNL A   1      34.990  15.784  25.376  1.00  0.00     0.225 A 
ATOM     26  N   UNL A   1      35.865  16.700  25.045  1.00  0.00    -0.139 NA
ATOM     27  N   UNL A   1      35.174  17.772  24.540  1.00  0.00    -0.136 NA
ENDBRANCH  21  22
ENDBRANCH  20  21
ENDBRANCH  15  20
ENDBRANCH  13  14
ENDBRANCH   9  13
ENDBRANCH   6   8
ENDBRANCH   5   6
ENDBRANCH   4   5
ENDBRANCH   3   4
ENDBRANCH   2   3
ENDBRANCH   1   2
BRANCH   1  28
ATOM     28  C   UNL A   1      35.023  24.191  23.950  1.00  0.00     0.188 C 
BRANCH  28  29
ATOM     29  O   UNL A   1      35.437  23.303  22.920  1.00  0.00    -0.377 OA
BRANCH  29  30
ATOM     30  C   UNL A   1      36.646  22.589  23.162  1.00  0.00     0.188 C 
BRANCH  30  31
ATOM     31  C   UNL A   1      36.884  22.006  24.567  1.00  0.00     0.188 C 
BRANCH  31  32
ATOM     32  O   UNL A   1      37.772  22.809  25.352  1.00  0.00    -0.376 OA
BRANCH  32  33
ATOM     33  C   UNL A   1      38.691  22.094  26.179  1.00  0.00     0.202 C 
BRANCH  33  34
ATOM     34  C   UNL A   1      38.924  20.651  25.713  1.00  0.00     0.261 C 
BRANCH  34  35
ATOM     35  O   UNL A   1      40.310  20.287  25.594  1.00  0.00    -0.460 OA
BRANCH  35  36
ATOM     36  C   UNL A   1      41.009  20.189  26.745  1.00  0.00     0.338 C 
ATOM     37  O   UNL A   1      41.074  19.231  27.493  1.00  0.00    -0.246 OA
BRANCH  36  38
ATOM     38  C   UNL A   1      41.850  21.394  26.875  1.00  0.00     0.060 A 
ATOM     39  C   UNL A   1      42.262  21.782  28.155  1.00  0.00     0.016 A 
ATOM     40  C   UNL A   1      42.205  22.148  25.754  1.00  0.00     0.016 A 
ATOM     41  C   UNL A   1      42.989  22.960  28.323  1.00  0.00     0.010 A 
ATOM     42  C   UNL A   1      42.919  23.335  25.924  1.00  0.00     0.010 A 
ATOM     43  C   UNL A   1      43.280  23.763  27.212  1.00  0.00    -0.014 A 
BRANCH  43  44
ATOM     44  C   UNL A   1      43.780  25.141  27.412  1.00  0.00     0.031 A 
ATOM     45  C   UNL A   1      42.825  26.177  27.936  1.00  0.00     0.074 A 
ATOM     46  C   UNL A   1      45.052  25.471  27.128  1.00  0.00     0.049 A 
ATOM     47  N   UNL A   1      43.021  27.449  28.166  1.00  0.00    -0.248 NA
ATOM     48  C   UNL A   1      41.461  25.711  28.240  1.00  0.00     0.031 C 
ATOM     49  C   UNL A   1      46.073  24.554  26.632  1.00  0.00     0.029 A 
ATOM     50  N   UNL A   1      45.691  26.683  27.208  1.00  0.00    -0.354 N 
ATOM     51  C   UNL A   1      41.811  27.932  28.646  1.00  0.00     0.074 A 
ATOM     52  C   UNL A   1      40.879  26.828  28.649  1.00  0.00     0.031 C 
ATOM     53  C   UNL A   1      47.214  25.240  26.437  1.00  0.00     0.029 A 
ATOM     54  C   UNL A   1      46.993  26.645  26.775  1.00  0.00     0.049 A 
ATOM     55  H   UNL A   1      45.258  27.500  27.544  1.00  0.00     0.167 HD
ATOM     56  C   UNL A   1      41.507  29.186  29.058  1.00  0.00     0.037 A 
ATOM     57  C   UNL A   1      47.893  27.639  26.655  1.00  0.00     0.037 A 
ATOM     58  C   UNL A   1      42.426  30.291  29.041  1.00  0.00     0.049 A 
ATOM     59  C   UNL A   1      47.510  29.040  27.057  1.00  0.00     0.074 A 
ATOM     60  C   UNL A   1      42.217  31.595  29.450  1.00  0.00     0.029 A 
ATOM     61  N   UNL A   1      43.731  30.218  28.578  1.00  0.00    -0.354 N 
ATOM     62  N   UNL A   1      46.378  29.482  27.550  1.00  0.00    -0.248 NA
ATOM     63  C   UNL A   1      48.534  30.082  26.887  1.00  0.00     0.031 C 
ATOM     64  C   UNL A   1      43.386  32.323  29.200  1.00  0.00     0.029 A 
ATOM     65  C   UNL A   1      44.333  31.461  28.669  1.00  0.00     0.049 A 
ATOM     66  H   UNL A   1      44.164  29.403  28.234  1.00  0.00     0.167 HD
ATOM     67  C   UNL A   1      46.560  30.840  27.771  1.00  0.00     0.074 A 
ATOM     68  C   UNL A   1      47.915  31.152  27.366  1.00  0.00     0.031 C 
ATOM     69  C   UNL A   1      45.685  31.748  28.267  1.00  0.00     0.037 A 
BRANCH  56  70
ATOM     70  C   UNL A   1      40.112  29.424  29.545  1.00  0.00     0.064 A 
ATOM     71  C   UNL A   1      39.057  29.653  28.651  1.00  0.00     0.173 A 
ATOM     72  C   UNL A   1      39.825  29.411  30.918  1.00  0.00     0.173 A 
ATOM     73  F   UNL A   1      39.288  29.693  27.329  1.00  0.00    -0.203 F 
ATOM     74  C   UNL A   1      37.764  29.878  29.115  1.00  0.00     0.198 A 
ATOM     75  C   UNL A   1      38.527  29.617  31.376  1.00  0.00     0.198 A 
ATOM     76  F   UNL A   1      40.803  29.201  31.811  1.00  0.00    -0.203 F 
ATOM     77  F   UNL A   1      36.776  30.133  28.244  1.00  0.00    -0.200 F 
ATOM     78  C   UNL A   1      37.499  29.856  30.476  1.00  0.00     0.200 A 
ATOM     79  F   UNL A   1      38.271  29.592  32.692  1.00  0.00    -0.200 F 
ATOM     80  F   UNL A   1      36.254  30.073  30.921  1.00  0.00    -0.200 F 
ENDBRANCH  56  70
BRANCH  57  81
ATOM     81  C   UNL A   1      49.249  27.351  26.127  1.00  0.00     0.064 A 
ATOM     82  C   UNL A   1      50.316  27.075  26.992  1.00  0.00     0.173 A 
ATOM     83  C   UNL A   1      49.511  27.371  24.749  1.00  0.00     0.173 A 
ATOM     84  F   UNL A   1      50.119  27.074  28.318  1.00  0.00    -0.203 F 
ATOM     85  C   UNL A   1      51.599  26.842  26.499  1.00  0.00     0.198 A 
ATOM     86  C   UNL A   1      50.788  27.116  24.257  1.00  0.00     0.198 A 
ATOM     87  F   UNL A   1      48.523  27.637  23.882  1.00  0.00    -0.203 F 
ATOM     88  F   UNL A   1      52.611  26.619  27.349  1.00  0.00    -0.200 F 
ATOM     89  C   UNL A   1      51.833  26.858  25.132  1.00  0.00     0.200 A 
ATOM     90  F   UNL A   1      51.010  27.128  22.935  1.00  0.00    -0.200 F 
ATOM     91  F   UNL A   1      53.067  26.636  24.659  1.00  0.00    -0.200 F 
ENDBRANCH  57  81
BRANCH  69  92
ATOM     92  C   UNL A   1      46.170  33.157  28.427  1.00  0.00     0.064 A 
ATOM     93  C   UNL A   1      46.811  33.583  29.598  1.00  0.00     0.173 A 
ATOM     94  C   UNL A   1      46.038  34.076  27.375  1.00  0.00     0.173 A 
ATOM     95  F   UNL A   1      46.947  32.743  30.636  1.00  0.00    -0.203 F 
ATOM     96  C   UNL A   1      47.290  34.885  29.717  1.00  0.00     0.198 A 
ATOM     97  C   UNL A   1      46.537  35.370  27.489  1.00  0.00     0.198 A 
ATOM     98  F   UNL A   1      45.436  33.714  26.232  1.00  0.00    -0.203 F 
ATOM     99  F   UNL A   1      47.870  35.281  30.858  1.00  0.00    -0.200 F 
ATOM    100  C   UNL A   1      47.159  35.774  28.661  1.00  0.00     0.200 A 
ATOM    101  F   UNL A   1      46.418  36.226  26.464  1.00  0.00    -0.200 F 
ATOM    102  F   UNL A   1      47.627  37.025  28.774  1.00  0.00    -0.200 F 
ENDBRANCH  69  92
ENDBRANCH  43  44
ENDBRANCH  36  38
ENDBRANCH  35  36
ENDBRANCH  34  35
ENDBRANCH  33  34
ENDBRANCH  32  33
ENDBRANCH  31  32
ENDBRANCH  30  31
ENDBRANCH  29  30
ENDBRANCH  28  29
ENDBRANCH   1  28
TORSDOF 25
ENDMDL
