MODEL 1
REMARK VINA RESULT:     -10.0      0.000      0.000
REMARK SMILES CC[C@@H]1COCC[N@@H+]1[C@@H]1CC[C@]([NH2+]C(C)C)(C(=O)OCCOCCOCCOCCOC(=O)c2ccc(-c3c4nc(c(-c5c(F)c(F)c(F)c(F)c5F)c5ccc([nH]5)c(-c5c(F)c(F)c(F)c(F)c5F)c5nc(c(-c6c(F)c(F)c(F)c(F)c6F)c6ccc3[nH]6)C=C5)C=C4)cc2)C1
REMARK SMILES IDX 25 1 24 2 23 3 22 4 21 5 20 6 19 7 17 8 18 9 12 10 9 11
REMARK SMILES IDX 10 12 97 13 11 14 8 15 3 16 4 17 5 18 7 19 6 21 2 22 1 23
REMARK SMILES IDX 13 24 14 27 15 28 16 29 26 30 27 31 28 32 29 33 30 34 31 35
REMARK SMILES IDX 32 36 33 37 34 38 35 39 96 40 36 41 95 42 37 43 38 44 39 45
REMARK SMILES IDX 89 46 40 47 94 48 88 49 90 50 41 51 93 52 87 53 86 54 42 56
REMARK SMILES IDX 74 57 54 58 73 59 55 60 58 61 72 62 91 63 56 64 57 65 71 67
REMARK SMILES IDX 92 68 59 69 43 70 44 71 52 72 45 73 46 74 50 75 53 76 47 77
REMARK SMILES IDX 48 78 51 79 49 80 75 81 76 82 84 83 77 84 78 85 82 86 85 87
REMARK SMILES IDX 79 88 80 89 83 90 81 91 60 92 61 93 69 94 62 95 63 96 67 97
REMARK SMILES IDX 70 98 64 99 65 100 68 101 66 102
REMARK H PARENT 8 20 13 25 13 26 90 55 58 66
REMARK Flexibility Score: inf
ROOT
ATOM      1  O   UNL A   1      33.874  18.570  25.162  1.00  0.00    -0.377 OA
ENDROOT
BRANCH   1   2
ATOM      2  C   UNL A   1      33.336  17.453  24.468  1.00  0.00     0.188 C 
BRANCH   2   3
ATOM      3  C   UNL A   1      33.011  17.733  22.974  1.00  0.00     0.188 C 
BRANCH   3   4
ATOM      4  O   UNL A   1      31.954  18.606  22.611  1.00  0.00    -0.376 OA
BRANCH   4   5
ATOM      5  C   UNL A   1      32.245  19.932  22.215  1.00  0.00     0.202 C 
BRANCH   5   6
ATOM      6  C   UNL A   1      32.242  21.079  23.244  1.00  0.00     0.261 C 
BRANCH   6   7
ATOM      7  O   UNL A   1      31.916  22.400  22.773  1.00  0.00    -0.459 OA
BRANCH   7   8
ATOM      8  C   UNL A   1      32.827  23.383  22.990  1.00  0.00     0.368 C 
ATOM      9  O   UNL A   1      33.817  23.554  22.281  1.00  0.00    -0.245 OA
BRANCH   8  10
ATOM     10  C   UNL A   1      32.522  24.278  24.270  1.00  0.00     0.200 C 
ATOM     11  C   UNL A   1      33.025  26.604  25.005  1.00  0.00     0.191 C 
ATOM     12  C   UNL A   1      34.082  25.704  25.608  1.00  0.00     0.072 C 
ATOM     13  C   UNL A   1      32.464  25.778  23.830  1.00  0.00     0.146 C 
ATOM     14  C   UNL A   1      33.594  24.289  25.393  1.00  0.00     0.087 C 
BRANCH  11  15
ATOM     15  N   UNL A   1      33.414  28.016  24.807  1.00  0.00    -0.326 N 
ATOM     16  C   UNL A   1      33.345  29.040  25.891  1.00  0.00     0.210 C 
ATOM     17  C   UNL A   1      31.938  29.653  26.135  1.00  0.00     0.225 C 
ATOM     18  O   UNL A   1      31.377  30.192  24.933  1.00  0.00    -0.369 OA
ATOM     19  C   UNL A   1      32.730  28.604  23.619  1.00  0.00     0.291 C 
ATOM     20  H   UNL A   1      34.418  27.853  24.723  1.00  0.00     0.348 HD
ATOM     21  C   UNL A   1      31.340  29.214  23.892  1.00  0.00     0.221 C 
BRANCH  16  22
ATOM     22  C   UNL A   1      34.030  28.731  27.233  1.00  0.00     0.064 C 
ATOM     23  C   UNL A   1      35.293  29.556  27.451  1.00  0.00     0.010 C 
ENDBRANCH  16  22
ENDBRANCH  11  15
BRANCH  10  24
ATOM     24  N   UNL A   1      31.175  23.815  24.733  1.00  0.00    -0.330 N 
ATOM     25  H   UNL A   1      31.098  22.831  24.476  1.00  0.00     0.347 HD
ATOM     26  H   UNL A   1      30.538  24.473  24.284  1.00  0.00     0.347 HD
BRANCH  24  27
ATOM     27  C   UNL A   1      30.805  23.910  26.153  1.00  0.00     0.176 C 
ATOM     28  C   UNL A   1      29.934  25.161  26.304  1.00  0.00     0.075 C 
ATOM     29  C   UNL A   1      30.028  22.729  26.766  1.00  0.00     0.075 C 
ENDBRANCH  24  27
ENDBRANCH  10  24
ENDBRANCH   8  10
ENDBRANCH   7   8
ENDBRANCH   6   7
ENDBRANCH   5   6
ENDBRANCH   4   5
ENDBRANCH   3   4
ENDBRANCH   2   3
ENDBRANCH   1   2
BRANCH   1  30
ATOM     30  C   UNL A   1      35.119  19.020  24.652  1.00  0.00     0.188 C 
BRANCH  30  31
ATOM     31  C   UNL A   1      35.514  20.448  25.063  1.00  0.00     0.188 C 
BRANCH  31  32
ATOM     32  O   UNL A   1      36.925  20.605  25.131  1.00  0.00    -0.376 OA
BRANCH  32  33
ATOM     33  C   UNL A   1      37.785  19.560  24.724  1.00  0.00     0.202 C 
BRANCH  33  34
ATOM     34  C   UNL A   1      39.165  19.490  25.394  1.00  0.00     0.261 C 
BRANCH  34  35
ATOM     35  O   UNL A   1      39.404  20.424  26.453  1.00  0.00    -0.460 OA
BRANCH  35  36
ATOM     36  C   UNL A   1      40.651  20.484  26.964  1.00  0.00     0.338 C 
ATOM     37  O   UNL A   1      41.498  19.607  26.940  1.00  0.00    -0.246 OA
BRANCH  36  38
ATOM     38  C   UNL A   1      40.897  21.888  27.360  1.00  0.00     0.060 A 
ATOM     39  C   UNL A   1      40.135  22.899  26.757  1.00  0.00     0.016 A 
ATOM     40  C   UNL A   1      41.821  22.201  28.362  1.00  0.00     0.016 A 
ATOM     41  C   UNL A   1      40.312  24.228  27.139  1.00  0.00     0.010 A 
ATOM     42  C   UNL A   1      42.022  23.536  28.719  1.00  0.00     0.010 A 
ATOM     43  C   UNL A   1      41.291  24.557  28.086  1.00  0.00    -0.014 A 
BRANCH  43  44
ATOM     44  C   UNL A   1      41.720  25.969  28.223  1.00  0.00     0.031 A 
ATOM     45  C   UNL A   1      43.052  26.351  27.638  1.00  0.00     0.074 A 
ATOM     46  C   UNL A   1      40.945  26.892  28.815  1.00  0.00     0.049 A 
ATOM     47  N   UNL A   1      43.669  27.503  27.648  1.00  0.00    -0.248 NA
ATOM     48  C   UNL A   1      43.789  25.279  26.945  1.00  0.00     0.031 C 
ATOM     49  C   UNL A   1      39.615  26.655  29.372  1.00  0.00     0.029 A 
ATOM     50  N   UNL A   1      41.176  28.226  29.051  1.00  0.00    -0.354 N 
ATOM     51  C   UNL A   1      44.867  27.292  26.978  1.00  0.00     0.074 A 
ATOM     52  C   UNL A   1      44.904  25.899  26.592  1.00  0.00     0.031 C 
ATOM     53  C   UNL A   1      39.149  27.805  29.892  1.00  0.00     0.029 A 
ATOM     54  C   UNL A   1      40.162  28.849  29.736  1.00  0.00     0.049 A 
ATOM     55  H   UNL A   1      41.992  28.691  28.756  1.00  0.00     0.167 HD
ATOM     56  C   UNL A   1      45.846  28.184  26.703  1.00  0.00     0.037 A 
ATOM     57  C   UNL A   1      40.080  30.113  30.198  1.00  0.00     0.037 A 
ATOM     58  C   UNL A   1      45.804  29.569  27.084  1.00  0.00     0.049 A 
ATOM     59  C   UNL A   1      41.227  31.064  29.950  1.00  0.00     0.074 A 
ATOM     60  C   UNL A   1      46.732  30.561  26.828  1.00  0.00     0.029 A 
ATOM     61  N   UNL A   1      44.780  30.152  27.815  1.00  0.00    -0.354 N 
ATOM     62  N   UNL A   1      42.338  30.870  29.281  1.00  0.00    -0.248 NA
ATOM     63  C   UNL A   1      41.104  32.413  30.523  1.00  0.00     0.031 C 
ATOM     64  C   UNL A   1      46.302  31.732  27.461  1.00  0.00     0.029 A 
ATOM     65  C   UNL A   1      45.072  31.486  28.051  1.00  0.00     0.049 A 
ATOM     66  H   UNL A   1      43.968  29.689  28.121  1.00  0.00     0.167 HD
ATOM     67  C   UNL A   1      43.025  32.079  29.318  1.00  0.00     0.074 A 
ATOM     68  C   UNL A   1      42.200  33.003  30.066  1.00  0.00     0.031 C 
ATOM     69  C   UNL A   1      44.229  32.397  28.781  1.00  0.00     0.037 A 
BRANCH  56  70
ATOM     70  C   UNL A   1      47.067  27.679  25.990  1.00  0.00     0.064 A 
ATOM     71  C   UNL A   1      47.185  27.728  24.593  1.00  0.00     0.173 A 
ATOM     72  C   UNL A   1      48.150  27.172  26.724  1.00  0.00     0.173 A 
ATOM     73  F   UNL A   1      46.169  28.185  23.845  1.00  0.00    -0.203 F 
ATOM     74  C   UNL A   1      48.336  27.270  23.956  1.00  0.00     0.198 A 
ATOM     75  C   UNL A   1      49.311  26.744  26.085  1.00  0.00     0.198 A 
ATOM     76  F   UNL A   1      48.086  27.101  28.062  1.00  0.00    -0.203 F 
ATOM     77  F   UNL A   1      48.409  27.284  22.618  1.00  0.00    -0.200 F 
ATOM     78  C   UNL A   1      49.400  26.788  24.702  1.00  0.00     0.200 A 
ATOM     79  F   UNL A   1      50.342  26.289  26.811  1.00  0.00    -0.200 F 
ATOM     80  F   UNL A   1      50.511  26.358  24.089  1.00  0.00    -0.200 F 
ENDBRANCH  56  70
BRANCH  57  81
ATOM     81  C   UNL A   1      38.881  30.563  30.958  1.00  0.00     0.064 A 
ATOM     82  C   UNL A   1      37.776  31.121  30.300  1.00  0.00     0.173 A 
ATOM     83  C   UNL A   1      38.840  30.499  32.359  1.00  0.00     0.173 A 
ATOM     84  F   UNL A   1      37.778  31.232  28.964  1.00  0.00    -0.203 F 
ATOM     85  C   UNL A   1      36.688  31.623  31.015  1.00  0.00     0.198 A 
ATOM     86  C   UNL A   1      37.738  30.971  33.070  1.00  0.00     0.198 A 
ATOM     87  F   UNL A   1      39.873  29.982  33.039  1.00  0.00    -0.203 F 
ATOM     88  F   UNL A   1      35.674  32.207  30.363  1.00  0.00    -0.200 F 
ATOM     89  C   UNL A   1      36.669  31.543  32.398  1.00  0.00     0.200 A 
ATOM     90  F   UNL A   1      37.719  30.883  34.407  1.00  0.00    -0.200 F 
ATOM     91  F   UNL A   1      35.626  32.031  33.085  1.00  0.00    -0.200 F 
ENDBRANCH  57  81
BRANCH  69  92
ATOM     92  C   UNL A   1      44.705  33.814  28.931  1.00  0.00     0.064 A 
ATOM     93  C   UNL A   1      44.392  34.806  27.990  1.00  0.00     0.173 A 
ATOM     94  C   UNL A   1      45.447  34.194  30.062  1.00  0.00     0.173 A 
ATOM     95  F   UNL A   1      43.696  34.494  26.887  1.00  0.00    -0.203 F 
ATOM     96  C   UNL A   1      44.827  36.118  28.162  1.00  0.00     0.198 A 
ATOM     97  C   UNL A   1      45.849  35.514  30.247  1.00  0.00     0.198 A 
ATOM     98  F   UNL A   1      45.765  33.288  30.998  1.00  0.00    -0.203 F 
ATOM     99  F   UNL A   1      44.560  37.037  27.224  1.00  0.00    -0.200 F 
ATOM    100  C   UNL A   1      45.548  36.472  29.293  1.00  0.00     0.200 A 
ATOM    101  F   UNL A   1      46.527  35.857  31.351  1.00  0.00    -0.200 F 
ATOM    102  F   UNL A   1      45.955  37.738  29.460  1.00  0.00    -0.200 F 
ENDBRANCH  69  92
ENDBRANCH  43  44
ENDBRANCH  36  38
ENDBRANCH  35  36
ENDBRANCH  34  35
ENDBRANCH  33  34
ENDBRANCH  32  33
ENDBRANCH  31  32
ENDBRANCH  30  31
ENDBRANCH   1  30
TORSDOF 24
ENDMDL
MODEL 2
REMARK VINA RESULT:      -9.3      1.945      3.411
REMARK SMILES CC[C@@H]1COCC[N@@H+]1[C@@H]1CC[C@]([NH2+]C(C)C)(C(=O)OCCOCCOCCOCCOC(=O)c2ccc(-c3c4nc(c(-c5c(F)c(F)c(F)c(F)c5F)c5ccc([nH]5)c(-c5c(F)c(F)c(F)c(F)c5F)c5nc(c(-c6c(F)c(F)c(F)c(F)c6F)c6ccc3[nH]6)C=C5)C=C4)cc2)C1
REMARK SMILES IDX 25 1 24 2 23 3 22 4 21 5 20 6 19 7 17 8 18 9 12 10 9 11
REMARK SMILES IDX 10 12 97 13 11 14 8 15 3 16 4 17 5 18 7 19 6 21 2 22 1 23
REMARK SMILES IDX 13 24 14 27 15 28 16 29 26 30 27 31 28 32 29 33 30 34 31 35
REMARK SMILES IDX 32 36 33 37 34 38 35 39 96 40 36 41 95 42 37 43 38 44 39 45
REMARK SMILES IDX 89 46 40 47 94 48 88 49 90 50 41 51 93 52 87 53 86 54 42 56
REMARK SMILES IDX 74 57 54 58 73 59 55 60 58 61 72 62 91 63 56 64 57 65 71 67
REMARK SMILES IDX 92 68 59 69 43 70 44 71 52 72 45 73 46 74 50 75 53 76 47 77
REMARK SMILES IDX 48 78 51 79 49 80 75 81 76 82 84 83 77 84 78 85 82 86 85 87
REMARK SMILES IDX 79 88 80 89 83 90 81 91 60 92 61 93 69 94 62 95 63 96 67 97
REMARK SMILES IDX 70 98 64 99 65 100 68 101 66 102
REMARK H PARENT 8 20 13 25 13 26 90 55 58 66
REMARK Flexibility Score: inf
ROOT
ATOM      1  O   UNL A   1      34.750  22.495  26.089  1.00  0.00    -0.377 OA
ENDROOT
BRANCH   1   2
ATOM      2  C   UNL A   1      33.738  21.767  26.772  1.00  0.00     0.188 C 
BRANCH   2   3
ATOM      3  C   UNL A   1      32.816  20.937  25.837  1.00  0.00     0.188 C 
BRANCH   3   4
ATOM      4  O   UNL A   1      31.833  21.571  25.035  1.00  0.00    -0.376 OA
BRANCH   4   5
ATOM      5  C   UNL A   1      32.111  22.826  24.446  1.00  0.00     0.202 C 
BRANCH   5   6
ATOM      6  C   UNL A   1      31.276  24.068  24.810  1.00  0.00     0.261 C 
BRANCH   6   7
ATOM      7  O   UNL A   1      31.421  25.238  23.983  1.00  0.00    -0.459 OA
BRANCH   7   8
ATOM      8  C   UNL A   1      32.482  26.049  24.229  1.00  0.00     0.368 C 
ATOM      9  O   UNL A   1      33.626  25.632  24.390  1.00  0.00    -0.245 OA
BRANCH   8  10
ATOM     10  C   UNL A   1      32.107  27.593  24.329  1.00  0.00     0.200 C 
ATOM     11  C   UNL A   1      30.561  29.152  23.154  1.00  0.00     0.191 C 
ATOM     12  C   UNL A   1      31.921  29.294  22.505  1.00  0.00     0.072 C 
ATOM     13  C   UNL A   1      30.628  27.780  23.855  1.00  0.00     0.146 C 
ATOM     14  C   UNL A   1      32.891  28.568  23.410  1.00  0.00     0.087 C 
BRANCH  11  15
ATOM     15  N   UNL A   1      29.401  29.503  22.309  1.00  0.00    -0.326 N 
ATOM     16  C   UNL A   1      28.684  30.809  22.410  1.00  0.00     0.210 C 
ATOM     17  C   UNL A   1      27.643  30.905  23.560  1.00  0.00     0.225 C 
ATOM     18  O   UNL A   1      26.689  29.840  23.504  1.00  0.00    -0.369 OA
ATOM     19  C   UNL A   1      28.358  28.438  22.352  1.00  0.00     0.291 C 
ATOM     20  H   UNL A   1      29.916  29.604  21.434  1.00  0.00     0.348 HD
ATOM     21  C   UNL A   1      27.332  28.565  23.497  1.00  0.00     0.221 C 
BRANCH  16  22
ATOM     22  C   UNL A   1      29.509  32.104  22.331  1.00  0.00     0.064 C 
ATOM     23  C   UNL A   1      28.851  33.265  23.066  1.00  0.00     0.010 C 
ENDBRANCH  16  22
ENDBRANCH  11  15
BRANCH  10  24
ATOM     24  N   UNL A   1      32.234  27.911  25.788  1.00  0.00    -0.330 N 
ATOM     25  H   UNL A   1      32.712  27.120  26.219  1.00  0.00     0.347 HD
ATOM     26  H   UNL A   1      31.271  28.093  26.069  1.00  0.00     0.347 HD
BRANCH  24  27
ATOM     27  C   UNL A   1      32.944  29.122  26.224  1.00  0.00     0.176 C 
ATOM     28  C   UNL A   1      31.894  30.062  26.824  1.00  0.00     0.075 C 
ATOM     29  C   UNL A   1      34.064  28.954  27.268  1.00  0.00     0.075 C 
ENDBRANCH  24  27
ENDBRANCH  10  24
ENDBRANCH   8  10
ENDBRANCH   7   8
ENDBRANCH   6   7
ENDBRANCH   5   6
ENDBRANCH   4   5
ENDBRANCH   3   4
ENDBRANCH   2   3
ENDBRANCH   1   2
BRANCH   1  30
ATOM     30  C   UNL A   1      35.856  21.703  25.686  1.00  0.00     0.188 C 
BRANCH  30  31
ATOM     31  C   UNL A   1      37.175  22.471  25.501  1.00  0.00     0.188 C 
BRANCH  31  32
ATOM     32  O   UNL A   1      38.289  21.592  25.417  1.00  0.00    -0.376 OA
BRANCH  32  33
ATOM     33  C   UNL A   1      38.119  20.254  24.995  1.00  0.00     0.202 C 
BRANCH  33  34
ATOM     34  C   UNL A   1      39.182  19.241  25.442  1.00  0.00     0.261 C 
BRANCH  34  35
ATOM     35  O   UNL A   1      40.062  19.664  26.489  1.00  0.00    -0.460 OA
BRANCH  35  36
ATOM     36  C   UNL A   1      41.390  19.579  26.263  1.00  0.00     0.338 C 
ATOM     37  O   UNL A   1      41.995  18.636  25.783  1.00  0.00    -0.246 OA
BRANCH  36  38
ATOM     38  C   UNL A   1      41.961  20.925  26.488  1.00  0.00     0.060 A 
ATOM     39  C   UNL A   1      42.304  21.299  27.795  1.00  0.00     0.016 A 
ATOM     40  C   UNL A   1      42.216  21.786  25.416  1.00  0.00     0.016 A 
ATOM     41  C   UNL A   1      42.883  22.544  28.036  1.00  0.00     0.010 A 
ATOM     42  C   UNL A   1      42.764  23.047  25.663  1.00  0.00     0.010 A 
ATOM     43  C   UNL A   1      43.070  23.443  26.977  1.00  0.00    -0.014 A 
BRANCH  43  44
ATOM     44  C   UNL A   1      43.342  24.868  27.276  1.00  0.00     0.031 A 
ATOM     45  C   UNL A   1      44.717  25.393  26.972  1.00  0.00     0.074 A 
ATOM     46  C   UNL A   1      42.394  25.682  27.771  1.00  0.00     0.049 A 
ATOM     47  N   UNL A   1      45.219  26.585  27.167  1.00  0.00    -0.248 NA
ATOM     48  C   UNL A   1      45.658  24.436  26.363  1.00  0.00     0.031 C 
ATOM     49  C   UNL A   1      41.012  25.303  28.056  1.00  0.00     0.029 A 
ATOM     50  N   UNL A   1      42.460  27.007  28.126  1.00  0.00    -0.354 N 
ATOM     51  C   UNL A   1      46.531  26.516  26.718  1.00  0.00     0.074 A 
ATOM     52  C   UNL A   1      46.760  25.164  26.262  1.00  0.00     0.031 C 
ATOM     53  C   UNL A   1      40.361  26.372  28.550  1.00  0.00     0.029 A 
ATOM     54  C   UNL A   1      41.289  27.498  28.648  1.00  0.00     0.049 A 
ATOM     55  H   UNL A   1      43.272  27.554  28.016  1.00  0.00     0.167 HD
ATOM     56  C   UNL A   1      47.461  27.498  26.685  1.00  0.00     0.037 A 
ATOM     57  C   UNL A   1      41.014  28.713  29.164  1.00  0.00     0.037 A 
ATOM     58  C   UNL A   1      47.229  28.843  27.135  1.00  0.00     0.049 A 
ATOM     59  C   UNL A   1      42.098  29.764  29.191  1.00  0.00     0.074 A 
ATOM     60  C   UNL A   1      48.097  29.920  27.116  1.00  0.00     0.029 A 
ATOM     61  N   UNL A   1      46.043  29.290  27.699  1.00  0.00    -0.354 N 
ATOM     62  N   UNL A   1      43.324  29.706  28.729  1.00  0.00    -0.248 NA
ATOM     63  C   UNL A   1      41.756  31.053  29.813  1.00  0.00     0.031 C 
ATOM     64  C   UNL A   1      47.459  31.002  27.729  1.00  0.00     0.029 A 
ATOM     65  C   UNL A   1      46.169  30.620  28.065  1.00  0.00     0.049 A 
ATOM     66  H   UNL A   1      45.233  28.744  27.820  1.00  0.00     0.167 HD
ATOM     67  C   UNL A   1      43.884  30.958  28.966  1.00  0.00     0.074 A 
ATOM     68  C   UNL A   1      42.860  31.757  29.604  1.00  0.00     0.031 C 
ATOM     69  C   UNL A   1      45.132  31.406  28.682  1.00  0.00     0.037 A 
BRANCH  56  70
ATOM     70  C   UNL A   1      48.829  27.143  26.180  1.00  0.00     0.064 A 
ATOM     71  C   UNL A   1      49.848  26.703  27.040  1.00  0.00     0.173 A 
ATOM     72  C   UNL A   1      49.112  27.211  24.808  1.00  0.00     0.173 A 
ATOM     73  F   UNL A   1      49.634  26.640  28.363  1.00  0.00    -0.203 F 
ATOM     74  C   UNL A   1      51.104  26.362  26.545  1.00  0.00     0.198 A 
ATOM     75  C   UNL A   1      50.360  26.840  24.313  1.00  0.00     0.198 A 
ATOM     76  F   UNL A   1      48.174  27.629  23.945  1.00  0.00    -0.203 F 
ATOM     77  F   UNL A   1      52.075  25.989  27.389  1.00  0.00    -0.200 F 
ATOM     78  C   UNL A   1      51.356  26.422  25.183  1.00  0.00     0.200 A 
ATOM     79  F   UNL A   1      50.596  26.888  22.995  1.00  0.00    -0.200 F 
ATOM     80  F   UNL A   1      52.561  26.083  24.707  1.00  0.00    -0.200 F 
ENDBRANCH  56  70
BRANCH  57  81
ATOM     81  C   UNL A   1      39.664  29.012  29.716  1.00  0.00     0.064 A 
ATOM     82  C   UNL A   1      39.316  28.631  31.019  1.00  0.00     0.173 A 
ATOM     83  C   UNL A   1      38.678  29.634  28.935  1.00  0.00     0.173 A 
ATOM     84  F   UNL A   1      40.213  28.007  31.797  1.00  0.00    -0.203 F 
ATOM     85  C   UNL A   1      38.025  28.832  31.510  1.00  0.00     0.198 A 
ATOM     86  C   UNL A   1      37.399  29.864  29.437  1.00  0.00     0.198 A 
ATOM     87  F   UNL A   1      38.955  30.013  27.679  1.00  0.00    -0.203 F 
ATOM     88  F   UNL A   1      37.703  28.400  32.737  1.00  0.00    -0.200 F 
ATOM     89  C   UNL A   1      37.070  29.453  30.720  1.00  0.00     0.200 A 
ATOM     90  F   UNL A   1      36.481  30.473  28.675  1.00  0.00    -0.200 F 
ATOM     91  F   UNL A   1      35.829  29.641  31.190  1.00  0.00    -0.200 F 
ENDBRANCH  57  81
BRANCH  69  92
ATOM     92  C   UNL A   1      45.447  32.840  29.004  1.00  0.00     0.064 A 
ATOM     93  C   UNL A   1      45.174  33.879  28.103  1.00  0.00     0.173 A 
ATOM     94  C   UNL A   1      45.985  33.181  30.255  1.00  0.00     0.173 A 
ATOM     95  F   UNL A   1      44.670  33.608  26.890  1.00  0.00    -0.203 F 
ATOM     96  C   UNL A   1      45.454  35.203  28.432  1.00  0.00     0.198 A 
ATOM     97  C   UNL A   1      46.231  34.508  30.593  1.00  0.00     0.198 A 
ATOM     98  F   UNL A   1      46.255  32.227  31.158  1.00  0.00    -0.203 F 
ATOM     99  F   UNL A   1      45.235  36.175  27.536  1.00  0.00    -0.200 F 
ATOM    100  C   UNL A   1      45.975  35.517  29.679  1.00  0.00     0.200 A 
ATOM    101  F   UNL A   1      46.715  34.810  31.807  1.00  0.00    -0.200 F 
ATOM    102  F   UNL A   1      46.234  36.793  29.996  1.00  0.00    -0.200 F 
ENDBRANCH  69  92
ENDBRANCH  43  44
ENDBRANCH  36  38
ENDBRANCH  35  36
ENDBRANCH  34  35
ENDBRANCH  33  34
ENDBRANCH  32  33
ENDBRANCH  31  32
ENDBRANCH  30  31
ENDBRANCH   1  30
TORSDOF 24
ENDMDL
MODEL 3
REMARK VINA RESULT:      -8.5      5.224     10.982
REMARK SMILES CC[C@@H]1COCC[N@@H+]1[C@@H]1CC[C@]([NH2+]C(C)C)(C(=O)OCCOCCOCCOCCOC(=O)c2ccc(-c3c4nc(c(-c5c(F)c(F)c(F)c(F)c5F)c5ccc([nH]5)c(-c5c(F)c(F)c(F)c(F)c5F)c5nc(c(-c6c(F)c(F)c(F)c(F)c6F)c6ccc3[nH]6)C=C5)C=C4)cc2)C1
REMARK SMILES IDX 25 1 24 2 23 3 22 4 21 5 20 6 19 7 17 8 18 9 12 10 9 11
REMARK SMILES IDX 10 12 97 13 11 14 8 15 3 16 4 17 5 18 7 19 6 21 2 22 1 23
REMARK SMILES IDX 13 24 14 27 15 28 16 29 26 30 27 31 28 32 29 33 30 34 31 35
REMARK SMILES IDX 32 36 33 37 34 38 35 39 96 40 36 41 95 42 37 43 38 44 39 45
REMARK SMILES IDX 89 46 40 47 94 48 88 49 90 50 41 51 93 52 87 53 86 54 42 56
REMARK SMILES IDX 74 57 54 58 73 59 55 60 58 61 72 62 91 63 56 64 57 65 71 67
REMARK SMILES IDX 92 68 59 69 43 70 44 71 52 72 45 73 46 74 50 75 53 76 47 77
REMARK SMILES IDX 48 78 51 79 49 80 75 81 76 82 84 83 77 84 78 85 82 86 85 87
REMARK SMILES IDX 79 88 80 89 83 90 81 91 60 92 61 93 69 94 62 95 63 96 67 97
REMARK SMILES IDX 70 98 64 99 65 100 68 101 66 102
REMARK H PARENT 8 20 13 25 13 26 90 55 58 66
REMARK Flexibility Score: inf
ROOT
ATOM      1  O   UNL A   1      36.341  31.768  31.441  1.00  0.00    -0.377 OA
ENDROOT
BRANCH   1   2
ATOM      2  C   UNL A   1      35.993  31.594  30.074  1.00  0.00     0.188 C 
BRANCH   2   3
ATOM      3  C   UNL A   1      36.280  30.170  29.524  1.00  0.00     0.188 C 
BRANCH   3   4
ATOM      4  O   UNL A   1      37.051  29.243  30.272  1.00  0.00    -0.376 OA
BRANCH   4   5
ATOM      5  C   UNL A   1      38.394  28.993  29.907  1.00  0.00     0.202 C 
BRANCH   5   6
ATOM      6  C   UNL A   1      39.087  27.676  30.311  1.00  0.00     0.261 C 
BRANCH   6   7
ATOM      7  O   UNL A   1      40.412  27.435  29.803  1.00  0.00    -0.459 OA
BRANCH   7   8
ATOM      8  C   UNL A   1      40.532  26.600  28.739  1.00  0.00     0.368 C 
ATOM      9  O   UNL A   1      39.574  26.032  28.218  1.00  0.00    -0.245 OA
BRANCH   8  10
ATOM     10  C   UNL A   1      42.029  26.390  28.245  1.00  0.00     0.200 C 
ATOM     11  C   UNL A   1      43.553  24.453  27.883  1.00  0.00     0.191 C 
ATOM     12  C   UNL A   1      43.847  25.004  29.261  1.00  0.00     0.072 C 
ATOM     13  C   UNL A   1      42.140  24.984  27.567  1.00  0.00     0.146 C 
ATOM     14  C   UNL A   1      43.129  26.333  29.338  1.00  0.00     0.087 C 
BRANCH  11  15
ATOM     15  N   UNL A   1      43.878  23.026  27.673  1.00  0.00    -0.326 N 
ATOM     16  C   UNL A   1      44.667  22.534  26.505  1.00  0.00     0.210 C 
ATOM     17  C   UNL A   1      43.860  22.355  25.189  1.00  0.00     0.225 C 
ATOM     18  O   UNL A   1      42.715  21.518  25.377  1.00  0.00    -0.369 OA
ATOM     19  C   UNL A   1      42.656  22.175  27.753  1.00  0.00     0.291 C 
ATOM     20  H   UNL A   1      44.546  22.942  28.439  1.00  0.00     0.348 HD
ATOM     21  C   UNL A   1      41.881  22.006  26.430  1.00  0.00     0.221 C 
BRANCH  16  22
ATOM     22  C   UNL A   1      46.025  23.193  26.210  1.00  0.00     0.064 C 
ATOM     23  C   UNL A   1      46.010  24.021  24.930  1.00  0.00     0.010 C 
ENDBRANCH  16  22
ENDBRANCH  11  15
BRANCH  10  24
ATOM     24  N   UNL A   1      42.243  27.476  27.236  1.00  0.00    -0.330 N 
ATOM     25  H   UNL A   1      41.696  28.278  27.549  1.00  0.00     0.347 HD
ATOM     26  H   UNL A   1      41.972  27.032  26.358  1.00  0.00     0.347 HD
BRANCH  24  27
ATOM     27  C   UNL A   1      43.598  27.972  26.955  1.00  0.00     0.176 C 
ATOM     28  C   UNL A   1      44.023  27.372  25.611  1.00  0.00     0.075 C 
ATOM     29  C   UNL A   1      43.792  29.498  26.861  1.00  0.00     0.075 C 
ENDBRANCH  24  27
ENDBRANCH  10  24
ENDBRANCH   8  10
ENDBRANCH   7   8
ENDBRANCH   6   7
ENDBRANCH   5   6
ENDBRANCH   4   5
ENDBRANCH   3   4
ENDBRANCH   2   3
ENDBRANCH   1   2
BRANCH   1  30
ATOM     30  C   UNL A   1      37.433  32.650  31.650  1.00  0.00     0.188 C 
BRANCH  30  31
ATOM     31  C   UNL A   1      37.160  33.805  32.625  1.00  0.00     0.188 C 
BRANCH  31  32
ATOM     32  O   UNL A   1      35.914  33.649  33.292  1.00  0.00    -0.376 OA
BRANCH  32  33
ATOM     33  C   UNL A   1      35.748  34.101  34.620  1.00  0.00     0.202 C 
BRANCH  33  34
ATOM     34  C   UNL A   1      36.887  33.806  35.606  1.00  0.00     0.261 C 
BRANCH  34  35
ATOM     35  O   UNL A   1      37.032  32.442  36.018  1.00  0.00    -0.460 OA
BRANCH  35  36
ATOM     36  C   UNL A   1      38.097  32.130  36.786  1.00  0.00     0.338 C 
ATOM     37  O   UNL A   1      38.108  31.958  37.993  1.00  0.00    -0.246 OA
BRANCH  36  38
ATOM     38  C   UNL A   1      39.216  31.807  35.874  1.00  0.00     0.060 A 
ATOM     39  C   UNL A   1      38.941  31.090  34.700  1.00  0.00     0.016 A 
ATOM     40  C   UNL A   1      40.512  32.261  36.138  1.00  0.00     0.016 A 
ATOM     41  C   UNL A   1      39.966  30.806  33.799  1.00  0.00     0.010 A 
ATOM     42  C   UNL A   1      41.545  31.946  35.251  1.00  0.00     0.010 A 
ATOM     43  C   UNL A   1      41.281  31.190  34.095  1.00  0.00    -0.014 A 
BRANCH  43  44
ATOM     44  C   UNL A   1      42.399  30.586  33.334  1.00  0.00     0.031 A 
ATOM     45  C   UNL A   1      42.982  31.386  32.202  1.00  0.00     0.074 A 
ATOM     46  C   UNL A   1      42.907  29.383  33.652  1.00  0.00     0.049 A 
ATOM     47  N   UNL A   1      43.939  31.076  31.366  1.00  0.00    -0.248 NA
ATOM     48  C   UNL A   1      42.402  32.723  31.984  1.00  0.00     0.031 C 
ATOM     49  C   UNL A   1      42.462  28.539  34.759  1.00  0.00     0.029 A 
ATOM     50  N   UNL A   1      43.914  28.661  33.061  1.00  0.00    -0.354 N 
ATOM     51  C   UNL A   1      44.065  32.170  30.521  1.00  0.00     0.074 A 
ATOM     52  C   UNL A   1      43.076  33.143  30.925  1.00  0.00     0.031 C 
ATOM     53  C   UNL A   1      43.189  27.407  34.762  1.00  0.00     0.029 A 
ATOM     54  C   UNL A   1      44.126  27.433  33.639  1.00  0.00     0.049 A 
ATOM     55  H   UNL A   1      44.436  28.992  32.295  1.00  0.00     0.167 HD
ATOM     56  C   UNL A   1      44.934  32.349  29.499  1.00  0.00     0.037 A 
ATOM     57  C   UNL A   1      44.967  26.443  33.281  1.00  0.00     0.037 A 
ATOM     58  C   UNL A   1      45.920  31.381  29.102  1.00  0.00     0.049 A 
ATOM     59  C   UNL A   1      45.867  26.637  32.084  1.00  0.00     0.074 A 
ATOM     60  C   UNL A   1      46.868  31.479  28.100  1.00  0.00     0.029 A 
ATOM     61  N   UNL A   1      46.074  30.132  29.684  1.00  0.00    -0.354 N 
ATOM     62  N   UNL A   1      46.010  27.688  31.313  1.00  0.00    -0.248 NA
ATOM     63  C   UNL A   1      46.726  25.502  31.709  1.00  0.00     0.031 C 
ATOM     64  C   UNL A   1      47.553  30.261  28.031  1.00  0.00     0.029 A 
ATOM     65  C   UNL A   1      47.080  29.433  29.037  1.00  0.00     0.049 A 
ATOM     66  H   UNL A   1      45.548  29.793  30.444  1.00  0.00     0.167 HD
ATOM     67  C   UNL A   1      46.999  27.358  30.392  1.00  0.00     0.074 A 
ATOM     68  C   UNL A   1      47.427  26.012  30.707  1.00  0.00     0.031 C 
ATOM     69  C   UNL A   1      47.507  28.100  29.377  1.00  0.00     0.037 A 
BRANCH  56  70
ATOM     70  C   UNL A   1      44.832  33.623  28.713  1.00  0.00     0.064 A 
ATOM     71  C   UNL A   1      45.506  34.792  29.098  1.00  0.00     0.173 A 
ATOM     72  C   UNL A   1      44.073  33.661  27.533  1.00  0.00     0.173 A 
ATOM     73  F   UNL A   1      46.228  34.812  30.229  1.00  0.00    -0.203 F 
ATOM     74  C   UNL A   1      45.409  35.956  28.341  1.00  0.00     0.198 A 
ATOM     75  C   UNL A   1      44.004  34.819  26.762  1.00  0.00     0.198 A 
ATOM     76  F   UNL A   1      43.407  32.572  27.122  1.00  0.00    -0.203 F 
ATOM     77  F   UNL A   1      46.024  37.073  28.753  1.00  0.00    -0.200 F 
ATOM     78  C   UNL A   1      44.666  35.966  27.170  1.00  0.00     0.200 A 
ATOM     79  F   UNL A   1      43.295  34.821  25.625  1.00  0.00    -0.200 F 
ATOM     80  F   UNL A   1      44.583  37.084  26.436  1.00  0.00    -0.200 F 
ENDBRANCH  56  70
BRANCH  57  81
ATOM     81  C   UNL A   1      44.998  25.165  34.045  1.00  0.00     0.064 A 
ATOM     82  C   UNL A   1      45.727  25.054  35.237  1.00  0.00     0.173 A 
ATOM     83  C   UNL A   1      44.349  24.016  33.570  1.00  0.00     0.173 A 
ATOM     84  F   UNL A   1      46.390  26.116  35.719  1.00  0.00    -0.203 F 
ATOM     85  C   UNL A   1      45.830  23.836  35.910  1.00  0.00     0.198 A 
ATOM     86  C   UNL A   1      44.425  22.807  34.260  1.00  0.00     0.198 A 
ATOM     87  F   UNL A   1      43.644  24.063  32.431  1.00  0.00    -0.203 F 
ATOM     88  F   UNL A   1      46.585  23.745  37.013  1.00  0.00    -0.200 F 
ATOM     89  C   UNL A   1      45.175  22.716  35.424  1.00  0.00     0.200 A 
ATOM     90  F   UNL A   1      43.783  21.728  33.792  1.00  0.00    -0.200 F 
ATOM     91  F   UNL A   1      45.278  21.545  36.067  1.00  0.00    -0.200 F 
ENDBRANCH  57  81
BRANCH  69  92
ATOM     92  C   UNL A   1      48.622  27.501  28.567  1.00  0.00     0.064 A 
ATOM     93  C   UNL A   1      49.956  27.541  28.998  1.00  0.00     0.173 A 
ATOM     94  C   UNL A   1      48.341  26.834  27.363  1.00  0.00     0.173 A 
ATOM     95  F   UNL A   1      50.280  28.175  30.134  1.00  0.00    -0.203 F 
ATOM     96  C   UNL A   1      50.970  26.960  28.240  1.00  0.00     0.198 A 
ATOM     97  C   UNL A   1      49.353  26.224  26.627  1.00  0.00     0.198 A 
ATOM     98  F   UNL A   1      47.081  26.757  26.911  1.00  0.00    -0.203 F 
ATOM     99  F   UNL A   1      52.244  27.056  28.645  1.00  0.00    -0.200 F 
ATOM    100  C   UNL A   1      50.667  26.295  27.060  1.00  0.00     0.200 A 
ATOM    101  F   UNL A   1      49.053  25.565  25.499  1.00  0.00    -0.200 F 
ATOM    102  F   UNL A   1      51.644  25.728  26.339  1.00  0.00    -0.200 F 
ENDBRANCH  69  92
ENDBRANCH  43  44
ENDBRANCH  36  38
ENDBRANCH  35  36
ENDBRANCH  34  35
ENDBRANCH  33  34
ENDBRANCH  32  33
ENDBRANCH  31  32
ENDBRANCH  30  31
ENDBRANCH   1  30
TORSDOF 24
ENDMDL
