MODEL 1
REMARK VINA RESULT:     -10.8      0.000      0.000
REMARK SMILES O=C(OCCOCCOCCOCCOC(=O)c1ccc(-c2c3nc(c(-c4c(F)c(F)c(F)c(F)c4F)c4ccc([nH]4)c(-c4c(F)c(F)c(F)c(F)c4F)c4nc(c(-c5c(F)c(F)c(F)c(F)c5F)c5ccc2[nH]5)C=C4)C=C3)cc1)c1ccc(CNC(=O)c2ccccc2I)cc1
REMARK SMILES IDX 8 1 7 2 6 3 5 4 4 5 3 6 2 7 1 8 81 9 82 10 97 11 83 12 96 13
REMARK SMILES IDX 84 14 85 15 86 16 87 17 88 19 89 20 90 21 94 22 91 23 93 24
REMARK SMILES IDX 95 25 92 26 9 27 10 28 11 29 12 30 13 31 14 32 15 33 16 34
REMARK SMILES IDX 17 35 18 36 19 37 80 38 20 39 79 40 21 41 22 42 23 43 73 44
REMARK SMILES IDX 24 45 78 46 72 47 74 48 25 49 77 50 71 51 70 52 26 54 58 55
REMARK SMILES IDX 38 56 57 57 39 58 42 59 56 60 75 61 40 62 41 63 55 65 76 66
REMARK SMILES IDX 43 67 27 68 28 69 36 70 29 71 30 72 34 73 37 74 31 75 32 76
REMARK SMILES IDX 35 77 33 78 59 79 60 80 68 81 61 82 62 83 66 84 69 85 63 86
REMARK SMILES IDX 64 87 67 88 65 89 44 90 45 91 53 92 46 93 47 94 51 95 54 96
REMARK SMILES IDX 48 97 49 98 52 99 50 100
REMARK H PARENT 86 18 74 53 42 64
REMARK Flexibility Score: inf
ROOT
ATOM      1  C   UNL A   1      34.178  22.863  27.258  1.00  0.00     0.188 C 
ENDROOT
BRANCH   1   2
ATOM      2  C   UNL A   1      32.888  23.318  26.574  1.00  0.00     0.188 C 
BRANCH   2   3
ATOM      3  O   UNL A   1      32.077  22.178  26.277  1.00  0.00    -0.376 OA
BRANCH   3   4
ATOM      4  C   UNL A   1      31.638  22.045  24.931  1.00  0.00     0.202 C 
BRANCH   4   5
ATOM      5  C   UNL A   1      32.650  21.423  23.972  1.00  0.00     0.261 C 
BRANCH   5   6
ATOM      6  O   UNL A   1      32.983  22.282  22.873  1.00  0.00    -0.460 OA
BRANCH   6   7
ATOM      7  C   UNL A   1      33.977  23.202  22.865  1.00  0.00     0.338 C 
ATOM      8  O   UNL A   1      35.146  22.842  22.746  1.00  0.00    -0.246 OA
BRANCH   7   9
ATOM      9  C   UNL A   1      33.692  24.659  22.895  1.00  0.00     0.060 A 
ATOM     10  C   UNL A   1      34.110  25.513  23.917  1.00  0.00     0.016 A 
ATOM     11  C   UNL A   1      33.118  25.212  21.746  1.00  0.00     0.016 A 
ATOM     12  C   UNL A   1      33.894  26.887  23.834  1.00  0.00     0.006 A 
ATOM     13  C   UNL A   1      32.930  26.595  21.644  1.00  0.00     0.006 A 
ATOM     14  C   UNL A   1      33.312  27.441  22.694  1.00  0.00    -0.029 A 
BRANCH  14  15
ATOM     15  C   UNL A   1      33.176  28.936  22.591  1.00  0.00     0.152 C 
BRANCH  15  16
ATOM     16  N   UNL A   1      31.785  29.336  22.574  1.00  0.00    -0.348 N 
ATOM     17  C   UNL A   1      30.841  29.327  23.567  1.00  0.00     0.252 C 
ATOM     18  H   UNL A   1      31.463  29.670  21.706  1.00  0.00     0.164 HD
ATOM     19  O   UNL A   1      29.681  29.634  23.298  1.00  0.00    -0.269 OA
BRANCH  17  20
ATOM     20  C   UNL A   1      31.151  28.857  24.936  1.00  0.00     0.053 A 
ATOM     21  C   UNL A   1      31.908  29.748  25.720  1.00  0.00     0.015 A 
ATOM     22  C   UNL A   1      30.840  27.591  25.453  1.00  0.00     0.026 A 
ATOM     23  C   UNL A   1      32.293  29.410  27.019  1.00  0.00     0.001 A 
ATOM     24  C   UNL A   1      31.188  27.278  26.777  1.00  0.00     0.015 A 
ATOM     25  I   UNL A   1      30.024  26.022  24.319  1.00  0.00    -0.043 I 
ATOM     26  C   UNL A   1      31.910  28.185  27.555  1.00  0.00     0.001 A 
ENDBRANCH  17  20
ENDBRANCH  15  16
ENDBRANCH  14  15
ENDBRANCH   7   9
ENDBRANCH   6   7
ENDBRANCH   5   6
ENDBRANCH   4   5
ENDBRANCH   3   4
ENDBRANCH   2   3
ENDBRANCH   1   2
BRANCH   1  27
ATOM     27  O   UNL A   1      34.626  21.560  26.881  1.00  0.00    -0.377 OA
BRANCH  27  28
ATOM     28  C   UNL A   1      35.674  21.506  25.921  1.00  0.00     0.188 C 
BRANCH  28  29
ATOM     29  C   UNL A   1      36.603  22.730  25.767  1.00  0.00     0.188 C 
BRANCH  29  30
ATOM     30  O   UNL A   1      37.870  22.463  25.180  1.00  0.00    -0.376 OA
BRANCH  30  31
ATOM     31  C   UNL A   1      38.832  21.871  26.053  1.00  0.00     0.202 C 
BRANCH  31  32
ATOM     32  C   UNL A   1      39.267  20.456  25.650  1.00  0.00     0.261 C 
BRANCH  32  33
ATOM     33  O   UNL A   1      40.135  19.800  26.591  1.00  0.00    -0.460 OA
BRANCH  33  34
ATOM     34  C   UNL A   1      41.432  19.634  26.255  1.00  0.00     0.338 C 
ATOM     35  O   UNL A   1      41.927  18.686  25.671  1.00  0.00    -0.246 OA
BRANCH  34  36
ATOM     36  C   UNL A   1      42.114  20.931  26.492  1.00  0.00     0.060 A 
ATOM     37  C   UNL A   1      42.277  21.367  27.815  1.00  0.00     0.016 A 
ATOM     38  C   UNL A   1      42.713  21.635  25.441  1.00  0.00     0.016 A 
ATOM     39  C   UNL A   1      43.027  22.515  28.086  1.00  0.00     0.010 A 
ATOM     40  C   UNL A   1      43.446  22.794  25.711  1.00  0.00     0.010 A 
ATOM     41  C   UNL A   1      43.584  23.254  27.032  1.00  0.00    -0.014 A 
BRANCH  41  42
ATOM     42  C   UNL A   1      44.060  24.638  27.276  1.00  0.00     0.031 A 
ATOM     43  C   UNL A   1      43.039  25.638  27.746  1.00  0.00     0.074 A 
ATOM     44  C   UNL A   1      45.338  25.014  27.097  1.00  0.00     0.049 A 
ATOM     45  N   UNL A   1      43.175  26.911  28.014  1.00  0.00    -0.248 NA
ATOM     46  C   UNL A   1      41.673  25.125  27.939  1.00  0.00     0.031 C 
ATOM     47  C   UNL A   1      46.429  24.145  26.667  1.00  0.00     0.029 A 
ATOM     48  N   UNL A   1      45.928  26.246  27.249  1.00  0.00    -0.354 N 
ATOM     49  C   UNL A   1      41.917  27.345  28.407  1.00  0.00     0.074 A 
ATOM     50  C   UNL A   1      41.022  26.215  28.308  1.00  0.00     0.031 C 
ATOM     51  C   UNL A   1      47.558  24.874  26.580  1.00  0.00     0.029 A 
ATOM     52  C   UNL A   1      47.263  26.266  26.923  1.00  0.00     0.049 A 
ATOM     53  H   UNL A   1      45.439  27.042  27.561  1.00  0.00     0.167 HD
ATOM     54  C   UNL A   1      41.538  28.574  28.824  1.00  0.00     0.037 A 
ATOM     55  C   UNL A   1      48.134  27.296  26.893  1.00  0.00     0.037 A 
ATOM     56  C   UNL A   1      42.415  29.708  28.904  1.00  0.00     0.049 A 
ATOM     57  C   UNL A   1      47.668  28.679  27.283  1.00  0.00     0.074 A 
ATOM     58  C   UNL A   1      42.128  30.993  29.326  1.00  0.00     0.029 A 
ATOM     59  N   UNL A   1      43.752  29.694  28.534  1.00  0.00    -0.354 N 
ATOM     60  N   UNL A   1      46.489  29.071  27.701  1.00  0.00    -0.248 NA
ATOM     61  C   UNL A   1      48.659  29.763  27.197  1.00  0.00     0.031 C 
ATOM     62  C   UNL A   1      43.278  31.771  29.162  1.00  0.00     0.029 A 
ATOM     63  C   UNL A   1      44.296  30.957  28.691  1.00  0.00     0.049 A 
ATOM     64  H   UNL A   1      44.241  28.904  28.207  1.00  0.00     0.167 HD
ATOM     65  C   UNL A   1      46.605  30.434  27.955  1.00  0.00     0.074 A 
ATOM     66  C   UNL A   1      47.972  30.799  27.656  1.00  0.00     0.031 C 
ATOM     67  C   UNL A   1      45.663  31.304  28.399  1.00  0.00     0.037 A 
BRANCH  54  68
ATOM     68  C   UNL A   1      40.097  28.751  29.198  1.00  0.00     0.064 A 
ATOM     69  C   UNL A   1      39.136  29.149  28.256  1.00  0.00     0.173 A 
ATOM     70  C   UNL A   1      39.672  28.522  30.515  1.00  0.00     0.173 A 
ATOM     71  F   UNL A   1      39.498  29.404  26.989  1.00  0.00    -0.203 F 
ATOM     72  C   UNL A   1      37.808  29.340  28.625  1.00  0.00     0.198 A 
ATOM     73  C   UNL A   1      38.338  28.683  30.874  1.00  0.00     0.198 A 
ATOM     74  F   UNL A   1      40.554  28.145  31.454  1.00  0.00    -0.203 F 
ATOM     75  F   UNL A   1      36.919  29.774  27.722  1.00  0.00    -0.200 F 
ATOM     76  C   UNL A   1      37.409  29.101  29.932  1.00  0.00     0.200 A 
ATOM     77  F   UNL A   1      37.952  28.446  32.135  1.00  0.00    -0.200 F 
ATOM     78  F   UNL A   1      36.130  29.283  30.286  1.00  0.00    -0.200 F 
ENDBRANCH  54  68
BRANCH  55  79
ATOM     79  C   UNL A   1      49.544  27.073  26.472  1.00  0.00     0.064 A 
ATOM     80  C   UNL A   1      49.914  27.131  25.120  1.00  0.00     0.173 A 
ATOM     81  C   UNL A   1      50.541  26.754  27.406  1.00  0.00     0.173 A 
ATOM     82  F   UNL A   1      48.992  27.400  24.185  1.00  0.00    -0.203 F 
ATOM     83  C   UNL A   1      51.222  26.862  24.719  1.00  0.00     0.198 A 
ATOM     84  C   UNL A   1      51.854  26.511  27.005  1.00  0.00     0.198 A 
ATOM     85  F   UNL A   1      50.238  26.674  28.709  1.00  0.00    -0.203 F 
ATOM     86  F   UNL A   1      51.537  26.876  23.416  1.00  0.00    -0.200 F 
ATOM     87  C   UNL A   1      52.192  26.557  25.661  1.00  0.00     0.200 A 
ATOM     88  F   UNL A   1      52.789  26.224  27.921  1.00  0.00    -0.200 F 
ATOM     89  F   UNL A   1      53.448  26.299  25.274  1.00  0.00    -0.200 F 
ENDBRANCH  55  79
BRANCH  67  90
ATOM     90  C   UNL A   1      46.081  32.729  28.628  1.00  0.00     0.064 A 
ATOM     91  C   UNL A   1      46.026  33.688  27.605  1.00  0.00     0.173 A 
ATOM     92  C   UNL A   1      46.483  33.152  29.904  1.00  0.00     0.173 A 
ATOM     93  F   UNL A   1      45.658  33.331  26.366  1.00  0.00    -0.203 F 
ATOM     94  C   UNL A   1      46.379  35.013  27.847  1.00  0.00     0.198 A 
ATOM     95  C   UNL A   1      46.806  34.484  30.150  1.00  0.00     0.198 A 
ATOM     96  F   UNL A   1      46.543  32.278  30.920  1.00  0.00    -0.203 F 
ATOM     97  F   UNL A   1      46.359  35.903  26.846  1.00  0.00    -0.200 F 
ATOM     98  C   UNL A   1      46.760  35.412  29.120  1.00  0.00     0.200 A 
ATOM     99  F   UNL A   1      47.157  34.871  31.384  1.00  0.00    -0.200 F 
ATOM    100  F   UNL A   1      47.087  36.690  29.354  1.00  0.00    -0.200 F 
ENDBRANCH  67  90
ENDBRANCH  41  42
ENDBRANCH  34  36
ENDBRANCH  33  34
ENDBRANCH  32  33
ENDBRANCH  31  32
ENDBRANCH  30  31
ENDBRANCH  29  30
ENDBRANCH  28  29
ENDBRANCH  27  28
ENDBRANCH   1  27
TORSDOF 23
ENDMDL
MODEL 2
REMARK VINA RESULT:     -10.3      0.904      6.963
REMARK SMILES O=C(OCCOCCOCCOCCOC(=O)c1ccc(-c2c3nc(c(-c4c(F)c(F)c(F)c(F)c4F)c4ccc([nH]4)c(-c4c(F)c(F)c(F)c(F)c4F)c4nc(c(-c5c(F)c(F)c(F)c(F)c5F)c5ccc2[nH]5)C=C4)C=C3)cc1)c1ccc(CNC(=O)c2ccccc2I)cc1
REMARK SMILES IDX 8 1 7 2 6 3 5 4 4 5 3 6 2 7 1 8 81 9 82 10 97 11 83 12 96 13
REMARK SMILES IDX 84 14 85 15 86 16 87 17 88 19 89 20 90 21 94 22 91 23 93 24
REMARK SMILES IDX 95 25 92 26 9 27 10 28 11 29 12 30 13 31 14 32 15 33 16 34
REMARK SMILES IDX 17 35 18 36 19 37 80 38 20 39 79 40 21 41 22 42 23 43 73 44
REMARK SMILES IDX 24 45 78 46 72 47 74 48 25 49 77 50 71 51 70 52 26 54 58 55
REMARK SMILES IDX 38 56 57 57 39 58 42 59 56 60 75 61 40 62 41 63 55 65 76 66
REMARK SMILES IDX 43 67 27 68 28 69 36 70 29 71 30 72 34 73 37 74 31 75 32 76
REMARK SMILES IDX 35 77 33 78 59 79 60 80 68 81 61 82 62 83 66 84 69 85 63 86
REMARK SMILES IDX 64 87 67 88 65 89 44 90 45 91 53 92 46 93 47 94 51 95 54 96
REMARK SMILES IDX 48 97 49 98 52 99 50 100
REMARK H PARENT 86 18 74 53 42 64
REMARK Flexibility Score: inf
ROOT
ATOM      1  C   UNL A   1      33.988  22.009  26.673  1.00  0.00     0.188 C 
ENDROOT
BRANCH   1   2
ATOM      2  C   UNL A   1      32.967  23.004  26.118  1.00  0.00     0.188 C 
BRANCH   2   3
ATOM      3  O   UNL A   1      31.800  22.300  25.687  1.00  0.00    -0.376 OA
BRANCH   3   4
ATOM      4  C   UNL A   1      31.427  22.463  24.324  1.00  0.00     0.202 C 
BRANCH   4   5
ATOM      5  C   UNL A   1      32.227  21.632  23.324  1.00  0.00     0.261 C 
BRANCH   5   6
ATOM      6  O   UNL A   1      32.936  22.433  22.369  1.00  0.00    -0.460 OA
BRANCH   6   7
ATOM      7  C   UNL A   1      33.905  23.334  22.660  1.00  0.00     0.338 C 
ATOM      8  O   UNL A   1      35.070  22.964  22.786  1.00  0.00    -0.246 OA
BRANCH   7   9
ATOM      9  C   UNL A   1      33.620  24.789  22.734  1.00  0.00     0.060 A 
ATOM     10  C   UNL A   1      34.077  25.621  23.758  1.00  0.00     0.016 A 
ATOM     11  C   UNL A   1      33.000  25.367  21.622  1.00  0.00     0.016 A 
ATOM     12  C   UNL A   1      33.857  26.996  23.716  1.00  0.00     0.006 A 
ATOM     13  C   UNL A   1      32.807  26.752  21.559  1.00  0.00     0.006 A 
ATOM     14  C   UNL A   1      33.229  27.575  22.612  1.00  0.00    -0.029 A 
BRANCH  14  15
ATOM     15  C   UNL A   1      33.088  29.071  22.549  1.00  0.00     0.152 C 
BRANCH  15  16
ATOM     16  N   UNL A   1      31.696  29.468  22.580  1.00  0.00    -0.348 N 
ATOM     17  C   UNL A   1      30.785  29.449  23.603  1.00  0.00     0.252 C 
ATOM     18  H   UNL A   1      31.346  29.808  21.725  1.00  0.00     0.164 HD
ATOM     19  O   UNL A   1      29.616  29.756  23.374  1.00  0.00    -0.269 OA
BRANCH  17  20
ATOM     20  C   UNL A   1      31.141  28.969  24.957  1.00  0.00     0.053 A 
ATOM     21  C   UNL A   1      31.918  29.857  25.725  1.00  0.00     0.015 A 
ATOM     22  C   UNL A   1      30.853  27.698  25.473  1.00  0.00     0.026 A 
ATOM     23  C   UNL A   1      32.345  29.511  27.008  1.00  0.00     0.001 A 
ATOM     24  C   UNL A   1      31.243  27.375  26.782  1.00  0.00     0.015 A 
ATOM     25  I   UNL A   1      30.009  26.133  24.352  1.00  0.00    -0.043 I 
ATOM     26  C   UNL A   1      31.984  28.280  27.545  1.00  0.00     0.001 A 
ENDBRANCH  17  20
ENDBRANCH  15  16
ENDBRANCH  14  15
ENDBRANCH   7   9
ENDBRANCH   6   7
ENDBRANCH   5   6
ENDBRANCH   4   5
ENDBRANCH   3   4
ENDBRANCH   2   3
ENDBRANCH   1   2
BRANCH   1  27
ATOM     27  O   UNL A   1      33.767  20.650  26.289  1.00  0.00    -0.377 OA
BRANCH  27  28
ATOM     28  C   UNL A   1      34.582  20.151  25.236  1.00  0.00     0.188 C 
BRANCH  28  29
ATOM     29  C   UNL A   1      35.994  20.747  25.044  1.00  0.00     0.188 C 
BRANCH  29  30
ATOM     30  O   UNL A   1      37.050  19.798  24.969  1.00  0.00    -0.376 OA
BRANCH  30  31
ATOM     31  C   UNL A   1      38.358  20.327  25.187  1.00  0.00     0.202 C 
BRANCH  31  32
ATOM     32  C   UNL A   1      39.440  19.264  25.419  1.00  0.00     0.261 C 
BRANCH  32  33
ATOM     33  O   UNL A   1      40.323  19.530  26.522  1.00  0.00    -0.460 OA
BRANCH  33  34
ATOM     34  C   UNL A   1      41.649  19.595  26.277  1.00  0.00     0.338 C 
ATOM     35  O   UNL A   1      42.344  18.744  25.750  1.00  0.00    -0.246 OA
BRANCH  34  36
ATOM     36  C   UNL A   1      42.072  20.996  26.526  1.00  0.00     0.060 A 
ATOM     37  C   UNL A   1      42.433  21.361  27.831  1.00  0.00     0.016 A 
ATOM     38  C   UNL A   1      42.252  21.896  25.469  1.00  0.00     0.016 A 
ATOM     39  C   UNL A   1      42.960  22.632  28.082  1.00  0.00     0.010 A 
ATOM     40  C   UNL A   1      42.762  23.173  25.724  1.00  0.00     0.010 A 
ATOM     41  C   UNL A   1      43.092  23.556  27.035  1.00  0.00    -0.014 A 
BRANCH  41  42
ATOM     42  C   UNL A   1      43.303  24.991  27.344  1.00  0.00     0.031 A 
ATOM     43  C   UNL A   1      44.669  25.556  27.069  1.00  0.00     0.074 A 
ATOM     44  C   UNL A   1      42.337  25.780  27.848  1.00  0.00     0.049 A 
ATOM     45  N   UNL A   1      45.132  26.764  27.264  1.00  0.00    -0.248 NA
ATOM     46  C   UNL A   1      45.651  24.621  26.494  1.00  0.00     0.031 C 
ATOM     47  C   UNL A   1      40.967  25.368  28.141  1.00  0.00     0.029 A 
ATOM     48  N   UNL A   1      42.376  27.105  28.211  1.00  0.00    -0.354 N 
ATOM     49  C   UNL A   1      46.450  26.732  26.833  1.00  0.00     0.074 A 
ATOM     50  C   UNL A   1      46.729  25.380  26.403  1.00  0.00     0.031 C 
ATOM     51  C   UNL A   1      40.296  26.419  28.650  1.00  0.00     0.029 A 
ATOM     52  C   UNL A   1      41.197  27.569  28.742  1.00  0.00     0.049 A 
ATOM     53  H   UNL A   1      43.175  27.669  28.103  1.00  0.00     0.167 HD
ATOM     54  C   UNL A   1      47.351  27.740  26.788  1.00  0.00     0.037 A 
ATOM     55  C   UNL A   1      40.893  28.779  29.255  1.00  0.00     0.037 A 
ATOM     56  C   UNL A   1      47.089  29.079  27.234  1.00  0.00     0.049 A 
ATOM     57  C   UNL A   1      41.941  29.868  29.272  1.00  0.00     0.074 A 
ATOM     58  C   UNL A   1      47.933  30.174  27.219  1.00  0.00     0.029 A 
ATOM     59  N   UNL A   1      45.892  29.500  27.795  1.00  0.00    -0.354 N 
ATOM     60  N   UNL A   1      43.170  29.844  28.818  1.00  0.00    -0.248 NA
ATOM     61  C   UNL A   1      41.554  31.153  29.874  1.00  0.00     0.031 C 
ATOM     62  C   UNL A   1      47.266  31.246  27.819  1.00  0.00     0.029 A 
ATOM     63  C   UNL A   1      45.986  30.833  28.157  1.00  0.00     0.049 A 
ATOM     64  H   UNL A   1      45.095  28.935  27.919  1.00  0.00     0.167 HD
ATOM     65  C   UNL A   1      43.691  31.112  29.050  1.00  0.00     0.074 A 
ATOM     66  C   UNL A   1      42.641  31.886  29.676  1.00  0.00     0.031 C 
ATOM     67  C   UNL A   1      44.928  31.594  28.769  1.00  0.00     0.037 A 
BRANCH  54  68
ATOM     68  C   UNL A   1      48.715  27.410  26.261  1.00  0.00     0.064 A 
ATOM     69  C   UNL A   1      48.996  27.430  24.886  1.00  0.00     0.173 A 
ATOM     70  C   UNL A   1      49.752  27.067  27.141  1.00  0.00     0.173 A 
ATOM     71  F   UNL A   1      48.031  27.728  24.003  1.00  0.00    -0.203 F 
ATOM     72  C   UNL A   1      50.259  27.090  24.410  1.00  0.00     0.198 A 
ATOM     73  C   UNL A   1      51.021  26.758  26.663  1.00  0.00     0.198 A 
ATOM     74  F   UNL A   1      49.531  27.029  28.464  1.00  0.00    -0.203 F 
ATOM     75  F   UNL A   1      50.490  27.061  23.090  1.00  0.00    -0.200 F 
ATOM     76  C   UNL A   1      51.272  26.761  25.299  1.00  0.00     0.200 A 
ATOM     77  F   UNL A   1      52.001  26.447  27.523  1.00  0.00    -0.200 F 
ATOM     78  F   UNL A   1      52.487  26.435  24.839  1.00  0.00    -0.200 F 
ENDBRANCH  54  68
BRANCH  55  79
ATOM     79  C   UNL A   1      39.535  29.041  29.806  1.00  0.00     0.064 A 
ATOM     80  C   UNL A   1      38.533  29.626  29.018  1.00  0.00     0.173 A 
ATOM     81  C   UNL A   1      39.225  28.754  31.144  1.00  0.00     0.173 A 
ATOM     82  F   UNL A   1      38.789  29.950  27.743  1.00  0.00    -0.203 F 
ATOM     83  C   UNL A   1      37.281  29.928  29.551  1.00  0.00     0.198 A 
ATOM     84  C   UNL A   1      37.964  29.032  31.668  1.00  0.00     0.198 A 
ATOM     85  F   UNL A   1      40.150  28.204  31.944  1.00  0.00    -0.203 F 
ATOM     86  F   UNL A   1      36.359  30.533  28.789  1.00  0.00    -0.200 F 
ATOM     87  C   UNL A   1      36.995  29.627  30.873  1.00  0.00     0.200 A 
ATOM     88  F   UNL A   1      37.690  28.733  32.945  1.00  0.00    -0.200 F 
ATOM     89  F   UNL A   1      35.791  29.918  31.385  1.00  0.00    -0.200 F 
ENDBRANCH  55  79
BRANCH  67  90
ATOM     90  C   UNL A   1      45.208  33.033  29.097  1.00  0.00     0.064 A 
ATOM     91  C   UNL A   1      44.891  34.069  28.205  1.00  0.00     0.173 A 
ATOM     92  C   UNL A   1      45.746  33.383  30.344  1.00  0.00     0.173 A 
ATOM     93  F   UNL A   1      44.385  33.786  26.996  1.00  0.00    -0.203 F 
ATOM     94  C   UNL A   1      45.121  35.400  28.543  1.00  0.00     0.198 A 
ATOM     95  C   UNL A   1      45.947  34.716  30.692  1.00  0.00     0.198 A 
ATOM     96  F   UNL A   1      46.058  32.432  31.238  1.00  0.00    -0.203 F 
ATOM     97  F   UNL A   1      44.849  36.371  27.660  1.00  0.00    -0.200 F 
ATOM     98  C   UNL A   1      45.641  35.723  29.789  1.00  0.00     0.200 A 
ATOM     99  F   UNL A   1      46.433  35.027  31.902  1.00  0.00    -0.200 F 
ATOM    100  F   UNL A   1      45.851  37.005  30.116  1.00  0.00    -0.200 F 
ENDBRANCH  67  90
ENDBRANCH  41  42
ENDBRANCH  34  36
ENDBRANCH  33  34
ENDBRANCH  32  33
ENDBRANCH  31  32
ENDBRANCH  30  31
ENDBRANCH  29  30
ENDBRANCH  28  29
ENDBRANCH  27  28
ENDBRANCH   1  27
TORSDOF 23
ENDMDL
MODEL 3
REMARK VINA RESULT:     -10.2      1.830      7.395
REMARK SMILES O=C(OCCOCCOCCOCCOC(=O)c1ccc(-c2c3nc(c(-c4c(F)c(F)c(F)c(F)c4F)c4ccc([nH]4)c(-c4c(F)c(F)c(F)c(F)c4F)c4nc(c(-c5c(F)c(F)c(F)c(F)c5F)c5ccc2[nH]5)C=C4)C=C3)cc1)c1ccc(CNC(=O)c2ccccc2I)cc1
REMARK SMILES IDX 8 1 7 2 6 3 5 4 4 5 3 6 2 7 1 8 81 9 82 10 97 11 83 12 96 13
REMARK SMILES IDX 84 14 85 15 86 16 87 17 88 19 89 20 90 21 94 22 91 23 93 24
REMARK SMILES IDX 95 25 92 26 9 27 10 28 11 29 12 30 13 31 14 32 15 33 16 34
REMARK SMILES IDX 17 35 18 36 19 37 80 38 20 39 79 40 21 41 22 42 23 43 73 44
REMARK SMILES IDX 24 45 78 46 72 47 74 48 25 49 77 50 71 51 70 52 26 54 58 55
REMARK SMILES IDX 38 56 57 57 39 58 42 59 56 60 75 61 40 62 41 63 55 65 76 66
REMARK SMILES IDX 43 67 27 68 28 69 36 70 29 71 30 72 34 73 37 74 31 75 32 76
REMARK SMILES IDX 35 77 33 78 59 79 60 80 68 81 61 82 62 83 66 84 69 85 63 86
REMARK SMILES IDX 64 87 67 88 65 89 44 90 45 91 53 92 46 93 47 94 51 95 54 96
REMARK SMILES IDX 48 97 49 98 52 99 50 100
REMARK H PARENT 86 18 74 53 42 64
REMARK Flexibility Score: inf
ROOT
ATOM      1  C   UNL A   1      34.420  21.773  27.172  1.00  0.00     0.188 C 
ENDROOT
BRANCH   1   2
ATOM      2  C   UNL A   1      33.601  23.025  27.490  1.00  0.00     0.188 C 
BRANCH   2   3
ATOM      3  O   UNL A   1      32.213  22.686  27.544  1.00  0.00    -0.376 OA
BRANCH   3   4
ATOM      4  C   UNL A   1      31.397  23.184  26.492  1.00  0.00     0.202 C 
BRANCH   4   5
ATOM      5  C   UNL A   1      31.100  22.192  25.370  1.00  0.00     0.261 C 
BRANCH   5   6
ATOM      6  O   UNL A   1      31.176  22.781  24.066  1.00  0.00    -0.460 OA
BRANCH   6   7
ATOM      7  C   UNL A   1      32.316  23.132  23.424  1.00  0.00     0.338 C 
ATOM      8  O   UNL A   1      33.077  22.263  23.003  1.00  0.00    -0.246 OA
BRANCH   7   9
ATOM      9  C   UNL A   1      32.634  24.550  23.118  1.00  0.00     0.060 A 
ATOM     10  C   UNL A   1      32.000  25.293  22.121  1.00  0.00     0.016 A 
ATOM     11  C   UNL A   1      33.502  25.204  23.998  1.00  0.00     0.016 A 
ATOM     12  C   UNL A   1      32.278  26.648  21.953  1.00  0.00     0.006 A 
ATOM     13  C   UNL A   1      33.757  26.572  23.854  1.00  0.00     0.006 A 
ATOM     14  C   UNL A   1      33.151  27.302  22.823  1.00  0.00    -0.029 A 
BRANCH  14  15
ATOM     15  C   UNL A   1      33.360  28.784  22.676  1.00  0.00     0.152 C 
BRANCH  15  16
ATOM     16  N   UNL A   1      33.037  29.483  23.903  1.00  0.00    -0.348 N 
ATOM     17  C   UNL A   1      31.946  29.384  24.726  1.00  0.00     0.252 C 
ATOM     18  H   UNL A   1      33.711  30.139  24.192  1.00  0.00     0.164 HD
ATOM     19  O   UNL A   1      31.841  30.152  25.681  1.00  0.00    -0.269 OA
BRANCH  17  20
ATOM     20  C   UNL A   1      30.836  28.447  24.442  1.00  0.00     0.053 A 
ATOM     21  C   UNL A   1      30.870  27.238  25.162  1.00  0.00     0.015 A 
ATOM     22  C   UNL A   1      29.843  28.631  23.469  1.00  0.00     0.026 A 
ATOM     23  C   UNL A   1      29.897  26.257  24.963  1.00  0.00     0.001 A 
ATOM     24  C   UNL A   1      28.839  27.663  23.310  1.00  0.00     0.015 A 
ATOM     25  I   UNL A   1      29.834  30.204  22.076  1.00  0.00    -0.043 I 
ATOM     26  C   UNL A   1      28.867  26.482  24.056  1.00  0.00     0.001 A 
ENDBRANCH  17  20
ENDBRANCH  15  16
ENDBRANCH  14  15
ENDBRANCH   7   9
ENDBRANCH   6   7
ENDBRANCH   5   6
ENDBRANCH   4   5
ENDBRANCH   3   4
ENDBRANCH   2   3
ENDBRANCH   1   2
BRANCH   1  27
ATOM     27  O   UNL A   1      33.668  20.690  26.621  1.00  0.00    -0.377 OA
BRANCH  27  28
ATOM     28  C   UNL A   1      34.122  20.174  25.377  1.00  0.00     0.188 C 
BRANCH  28  29
ATOM     29  C   UNL A   1      35.506  20.613  24.852  1.00  0.00     0.188 C 
BRANCH  29  30
ATOM     30  O   UNL A   1      36.547  19.656  25.002  1.00  0.00    -0.376 OA
BRANCH  30  31
ATOM     31  C   UNL A   1      37.859  20.133  24.704  1.00  0.00     0.202 C 
BRANCH  31  32
ATOM     32  C   UNL A   1      38.952  19.611  25.648  1.00  0.00     0.261 C 
BRANCH  32  33
ATOM     33  O   UNL A   1      40.081  20.487  25.807  1.00  0.00    -0.460 OA
BRANCH  33  34
ATOM     34  C   UNL A   1      40.716  20.499  26.999  1.00  0.00     0.338 C 
ATOM     35  O   UNL A   1      41.175  19.543  27.599  1.00  0.00    -0.246 OA
BRANCH  34  36
ATOM     36  C   UNL A   1      40.990  21.918  27.335  1.00  0.00     0.060 A 
ATOM     37  C   UNL A   1      40.279  22.915  26.650  1.00  0.00     0.016 A 
ATOM     38  C   UNL A   1      41.824  22.260  28.405  1.00  0.00     0.016 A 
ATOM     39  C   UNL A   1      40.413  24.255  27.027  1.00  0.00     0.010 A 
ATOM     40  C   UNL A   1      41.972  23.602  28.769  1.00  0.00     0.010 A 
ATOM     41  C   UNL A   1      41.288  24.608  28.064  1.00  0.00    -0.014 A 
BRANCH  41  42
ATOM     42  C   UNL A   1      41.704  26.022  28.226  1.00  0.00     0.031 A 
ATOM     43  C   UNL A   1      43.054  26.404  27.683  1.00  0.00     0.074 A 
ATOM     44  C   UNL A   1      40.933  26.947  28.825  1.00  0.00     0.049 A 
ATOM     45  N   UNL A   1      43.671  27.557  27.707  1.00  0.00    -0.248 NA
ATOM     46  C   UNL A   1      43.812  25.328  27.022  1.00  0.00     0.031 C 
ATOM     47  C   UNL A   1      39.600  26.718  29.374  1.00  0.00     0.029 A 
ATOM     48  N   UNL A   1      41.178  28.276  29.077  1.00  0.00    -0.354 N 
ATOM     49  C   UNL A   1      44.882  27.344  27.064  1.00  0.00     0.074 A 
ATOM     50  C   UNL A   1      44.933  25.947  26.694  1.00  0.00     0.031 C 
ATOM     51  C   UNL A   1      39.146  27.868  29.910  1.00  0.00     0.029 A 
ATOM     52  C   UNL A   1      40.168  28.906  29.763  1.00  0.00     0.049 A 
ATOM     53  H   UNL A   1      42.003  28.734  28.794  1.00  0.00     0.167 HD
ATOM     54  C   UNL A   1      45.864  28.233  26.793  1.00  0.00     0.037 A 
ATOM     55  C   UNL A   1      40.092  30.170  30.228  1.00  0.00     0.037 A 
ATOM     56  C   UNL A   1      45.831  29.616  27.176  1.00  0.00     0.049 A 
ATOM     57  C   UNL A   1      41.239  31.124  29.987  1.00  0.00     0.074 A 
ATOM     58  C   UNL A   1      46.773  30.600  26.937  1.00  0.00     0.029 A 
ATOM     59  N   UNL A   1      44.805  30.207  27.898  1.00  0.00    -0.354 N 
ATOM     60  N   UNL A   1      42.359  30.929  29.336  1.00  0.00    -0.248 NA
ATOM     61  C   UNL A   1      41.105  32.477  30.549  1.00  0.00     0.031 C 
ATOM     62  C   UNL A   1      46.342  31.775  27.560  1.00  0.00     0.029 A 
ATOM     63  C   UNL A   1      45.105  31.537  28.138  1.00  0.00     0.049 A 
ATOM     64  H   UNL A   1      43.986  29.749  28.195  1.00  0.00     0.167 HD
ATOM     65  C   UNL A   1      43.047  32.137  29.382  1.00  0.00     0.074 A 
ATOM     66  C   UNL A   1      42.213  33.064  30.117  1.00  0.00     0.031 C 
ATOM     67  C   UNL A   1      44.259  32.451  28.862  1.00  0.00     0.037 A 
BRANCH  54  68
ATOM     68  C   UNL A   1      47.070  27.714  26.069  1.00  0.00     0.064 A 
ATOM     69  C   UNL A   1      48.183  27.212  26.760  1.00  0.00     0.173 A 
ATOM     70  C   UNL A   1      47.113  27.723  24.667  1.00  0.00     0.173 A 
ATOM     71  F   UNL A   1      48.199  27.206  28.102  1.00  0.00    -0.203 F 
ATOM     72  C   UNL A   1      49.308  26.764  26.074  1.00  0.00     0.198 A 
ATOM     73  C   UNL A   1      48.227  27.244  23.984  1.00  0.00     0.198 A 
ATOM     74  F   UNL A   1      46.076  28.197  23.961  1.00  0.00    -0.203 F 
ATOM     75  F   UNL A   1      50.382  26.341  26.755  1.00  0.00    -0.200 F 
ATOM     76  C   UNL A   1      49.327  26.774  24.686  1.00  0.00     0.200 A 
ATOM     77  F   UNL A   1      48.242  27.249  22.644  1.00  0.00    -0.200 F 
ATOM     78  F   UNL A   1      50.409  26.341  24.028  1.00  0.00    -0.200 F 
ENDBRANCH  54  68
BRANCH  55  79
ATOM     79  C   UNL A   1      38.889  30.621  30.980  1.00  0.00     0.064 A 
ATOM     80  C   UNL A   1      37.808  31.226  30.322  1.00  0.00     0.173 A 
ATOM     81  C   UNL A   1      38.815  30.499  32.376  1.00  0.00     0.173 A 
ATOM     82  F   UNL A   1      37.845  31.395  28.993  1.00  0.00    -0.203 F 
ATOM     83  C   UNL A   1      36.708  31.705  31.032  1.00  0.00     0.198 A 
ATOM     84  C   UNL A   1      37.702  30.955  33.081  1.00  0.00     0.198 A 
ATOM     85  F   UNL A   1      39.826  29.939  33.055  1.00  0.00    -0.203 F 
ATOM     86  F   UNL A   1      35.712  32.323  30.382  1.00  0.00    -0.200 F 
ATOM     87  C   UNL A   1      36.653  31.565  32.409  1.00  0.00     0.200 A 
ATOM     88  F   UNL A   1      37.651  30.811  34.412  1.00  0.00    -0.200 F 
ATOM     89  F   UNL A   1      35.596  32.026  33.091  1.00  0.00    -0.200 F 
ENDBRANCH  55  79
BRANCH  67  90
ATOM     90  C   UNL A   1      44.747  33.862  29.029  1.00  0.00     0.064 A 
ATOM     91  C   UNL A   1      45.483  34.260  30.156  1.00  0.00     0.173 A 
ATOM     92  C   UNL A   1      44.528  34.812  28.020  1.00  0.00     0.173 A 
ATOM     93  F   UNL A   1      45.710  33.394  31.154  1.00  0.00    -0.203 F 
ATOM     94  C   UNL A   1      45.962  35.563  30.274  1.00  0.00     0.198 A 
ATOM     95  C   UNL A   1      45.034  36.104  28.127  1.00  0.00     0.198 A 
ATOM     96  F   UNL A   1      43.840  34.480  26.916  1.00  0.00    -0.203 F 
ATOM     97  F   UNL A   1      46.626  35.933  31.378  1.00  0.00    -0.200 F 
ATOM     98  C   UNL A   1      45.744  36.481  29.256  1.00  0.00     0.200 A 
ATOM     99  F   UNL A   1      44.838  36.984  27.135  1.00  0.00    -0.200 F 
ATOM    100  F   UNL A   1      46.217  37.730  29.367  1.00  0.00    -0.200 F 
ENDBRANCH  67  90
ENDBRANCH  41  42
ENDBRANCH  34  36
ENDBRANCH  33  34
ENDBRANCH  32  33
ENDBRANCH  31  32
ENDBRANCH  30  31
ENDBRANCH  29  30
ENDBRANCH  28  29
ENDBRANCH  27  28
ENDBRANCH   1  27
TORSDOF 23
ENDMDL
