MODEL 1
REMARK VINA RESULT:     -10.7      0.000      0.000
REMARK SMILES Cn1c(C(=O)OCCOCCOCCOCCOC(=O)c2ccc(-c3c4nc(c(-c5c(F)c(F)c(F)c(F)c5F)c5ccc([nH]5)c(-c5c(F)c(F)c(F)c(F)c5F)c5nc(c(-c6c(F)c(F)c(F)c(F)c6F)c6ccc3[nH]6)C=C5)C=C4)cc2)cc2cc(OCc3ccccc3)ccc21
REMARK SMILES IDX 11 1 10 2 9 3 8 4 7 5 6 6 4 7 5 8 3 9 1 10 2 11 98 12 84 13
REMARK SMILES IDX 85 14 97 15 86 16 96 17 87 18 88 19 89 20 90 21 91 22 95 23
REMARK SMILES IDX 92 24 94 25 93 26 12 27 13 28 14 29 15 30 16 31 17 32 18 33
REMARK SMILES IDX 19 34 20 35 21 36 22 37 83 38 23 39 82 40 24 41 25 42 26 43
REMARK SMILES IDX 76 44 27 45 81 46 75 47 77 48 28 49 80 50 74 51 73 52 29 54
REMARK SMILES IDX 61 55 41 56 60 57 42 58 45 59 59 60 78 61 43 62 44 63 58 65
REMARK SMILES IDX 79 66 46 67 30 68 31 69 39 70 32 71 33 72 37 73 40 74 34 75
REMARK SMILES IDX 35 76 38 77 36 78 62 79 63 80 71 81 64 82 65 83 69 84 72 85
REMARK SMILES IDX 66 86 67 87 70 88 68 89 47 90 48 91 56 92 49 93 50 94 54 95
REMARK SMILES IDX 57 96 51 97 52 98 55 99 53 100
REMARK H PARENT 77 53 45 64
REMARK Flexibility Score: inf
ROOT
ATOM      1  C   UNL A   1      34.010  26.389  25.076  1.00  0.00     0.188 C 
ENDROOT
BRANCH   1   2
ATOM      2  C   UNL A   1      34.384  25.008  25.639  1.00  0.00     0.188 C 
BRANCH   2   3
ATOM      3  O   UNL A   1      35.368  24.321  24.862  1.00  0.00    -0.376 OA
BRANCH   3   4
ATOM      4  C   UNL A   1      35.731  23.028  25.331  1.00  0.00     0.202 C 
BRANCH   4   5
ATOM      5  C   UNL A   1      34.548  22.058  25.421  1.00  0.00     0.261 C 
BRANCH   5   6
ATOM      6  O   UNL A   1      34.090  21.576  24.150  1.00  0.00    -0.459 OA
BRANCH   6   7
ATOM      7  C   UNL A   1      32.760  21.372  24.007  1.00  0.00     0.355 C 
ATOM      8  O   UNL A   1      32.225  20.271  24.014  1.00  0.00    -0.244 OA
BRANCH   7   9
ATOM      9  C   UNL A   1      32.060  22.639  24.005  1.00  0.00     0.128 A 
ATOM     10  C   UNL A   1      30.704  22.499  26.150  1.00  0.00     0.150 C 
ATOM     11  N   UNL A   1      31.187  23.150  24.949  1.00  0.00    -0.338 N 
ATOM     12  C   UNL A   1      30.841  24.449  24.618  1.00  0.00     0.049 A 
ATOM     13  C   UNL A   1      32.114  23.576  22.980  1.00  0.00     0.044 A 
ATOM     14  C   UNL A   1      31.339  24.704  23.343  1.00  0.00     0.004 A 
ATOM     15  C   UNL A   1      30.115  25.412  25.328  1.00  0.00     0.031 A 
ATOM     16  C   UNL A   1      31.033  25.931  22.718  1.00  0.00     0.056 A 
ATOM     17  C   UNL A   1      29.873  26.641  24.710  1.00  0.00     0.048 A 
ATOM     18  C   UNL A   1      30.305  26.904  23.413  1.00  0.00     0.120 A 
BRANCH  18  19
ATOM     19  O   UNL A   1      30.047  28.052  22.709  1.00  0.00    -0.489 OA
BRANCH  19  20
ATOM     20  C   UNL A   1      28.693  28.520  22.666  1.00  0.00     0.265 C 
BRANCH  20  21
ATOM     21  C   UNL A   1      28.582  30.021  22.506  1.00  0.00    -0.011 A 
ATOM     22  C   UNL A   1      28.894  30.881  23.567  1.00  0.00     0.007 A 
ATOM     23  C   UNL A   1      28.186  30.574  21.278  1.00  0.00     0.007 A 
ATOM     24  C   UNL A   1      28.854  32.265  23.390  1.00  0.00     0.000 A 
ATOM     25  C   UNL A   1      28.165  31.957  21.097  1.00  0.00     0.000 A 
ATOM     26  C   UNL A   1      28.502  32.802  22.152  1.00  0.00     0.000 A 
ENDBRANCH  20  21
ENDBRANCH  19  20
ENDBRANCH  18  19
ENDBRANCH   7   9
ENDBRANCH   6   7
ENDBRANCH   5   6
ENDBRANCH   4   5
ENDBRANCH   3   4
ENDBRANCH   2   3
ENDBRANCH   1   2
BRANCH   1  27
ATOM     27  O   UNL A   1      33.140  27.158  25.888  1.00  0.00    -0.377 OA
BRANCH  27  28
ATOM     28  C   UNL A   1      33.364  28.562  26.001  1.00  0.00     0.188 C 
BRANCH  28  29
ATOM     29  C   UNL A   1      32.317  29.614  25.572  1.00  0.00     0.188 C 
BRANCH  29  30
ATOM     30  O   UNL A   1      31.632  30.247  26.648  1.00  0.00    -0.376 OA
BRANCH  30  31
ATOM     31  C   UNL A   1      31.764  31.660  26.736  1.00  0.00     0.202 C 
BRANCH  31  32
ATOM     32  C   UNL A   1      33.050  32.089  27.448  1.00  0.00     0.261 C 
BRANCH  32  33
ATOM     33  O   UNL A   1      33.396  33.470  27.254  1.00  0.00    -0.460 OA
BRANCH  33  34
ATOM     34  C   UNL A   1      33.311  34.272  28.336  1.00  0.00     0.338 C 
ATOM     35  O   UNL A   1      32.404  35.024  28.638  1.00  0.00    -0.246 OA
BRANCH  34  36
ATOM     36  C   UNL A   1      34.455  33.964  29.213  1.00  0.00     0.060 A 
ATOM     37  C   UNL A   1      35.749  34.228  28.750  1.00  0.00     0.016 A 
ATOM     38  C   UNL A   1      34.245  33.406  30.476  1.00  0.00     0.016 A 
ATOM     39  C   UNL A   1      36.847  33.893  29.541  1.00  0.00     0.010 A 
ATOM     40  C   UNL A   1      35.344  33.057  31.259  1.00  0.00     0.010 A 
ATOM     41  C   UNL A   1      36.647  33.266  30.779  1.00  0.00    -0.014 A 
BRANCH  41  42
ATOM     42  C   UNL A   1      37.790  32.644  31.484  1.00  0.00     0.031 A 
ATOM     43  C   UNL A   1      38.456  31.459  30.844  1.00  0.00     0.074 A 
ATOM     44  C   UNL A   1      38.219  33.112  32.667  1.00  0.00     0.049 A 
ATOM     45  N   UNL A   1      39.442  30.719  31.285  1.00  0.00    -0.248 NA
ATOM     46  C   UNL A   1      37.935  31.049  29.530  1.00  0.00     0.031 C 
ATOM     47  C   UNL A   1      37.667  34.266  33.371  1.00  0.00     0.029 A 
ATOM     48  N   UNL A   1      39.217  32.656  33.490  1.00  0.00    -0.354 N 
ATOM     49  C   UNL A   1      39.659  29.763  30.303  1.00  0.00     0.074 A 
ATOM     50  C   UNL A   1      38.686  29.993  29.258  1.00  0.00     0.031 C 
ATOM     51  C   UNL A   1      38.328  34.422  34.532  1.00  0.00     0.029 A 
ATOM     52  C   UNL A   1      39.329  33.364  34.660  1.00  0.00     0.049 A 
ATOM     53  H   UNL A   1      39.798  31.894  33.263  1.00  0.00     0.167 HD
ATOM     54  C   UNL A   1      40.594  28.786  30.270  1.00  0.00     0.037 A 
ATOM     55  C   UNL A   1      40.137  33.161  35.719  1.00  0.00     0.037 A 
ATOM     56  C   UNL A   1      41.551  28.548  31.315  1.00  0.00     0.049 A 
ATOM     57  C   UNL A   1      41.122  32.019  35.692  1.00  0.00     0.074 A 
ATOM     58  C   UNL A   1      42.552  27.595  31.371  1.00  0.00     0.029 A 
ATOM     59  N   UNL A   1      41.618  29.268  32.499  1.00  0.00    -0.354 N 
ATOM     60  N   UNL A   1      41.350  31.144  34.743  1.00  0.00    -0.248 NA
ATOM     61  C   UNL A   1      41.962  31.840  36.886  1.00  0.00     0.031 C 
ATOM     62  C   UNL A   1      43.194  27.709  32.609  1.00  0.00     0.029 A 
ATOM     63  C   UNL A   1      42.625  28.764  33.304  1.00  0.00     0.049 A 
ATOM     64  H   UNL A   1      41.035  30.027  32.731  1.00  0.00     0.167 HD
ATOM     65  C   UNL A   1      42.374  30.329  35.212  1.00  0.00     0.074 A 
ATOM     66  C   UNL A   1      42.729  30.821  36.527  1.00  0.00     0.031 C 
ATOM     67  C   UNL A   1      42.967  29.271  34.607  1.00  0.00     0.037 A 
BRANCH  54  68
ATOM     68  C   UNL A   1      40.602  27.887  29.072  1.00  0.00     0.064 A 
ATOM     69  C   UNL A   1      41.429  28.145  27.968  1.00  0.00     0.173 A 
ATOM     70  C   UNL A   1      39.782  26.750  29.029  1.00  0.00     0.173 A 
ATOM     71  F   UNL A   1      42.218  29.231  27.954  1.00  0.00    -0.203 F 
ATOM     72  C   UNL A   1      41.416  27.310  26.855  1.00  0.00     0.198 A 
ATOM     73  C   UNL A   1      39.789  25.904  27.924  1.00  0.00     0.198 A 
ATOM     74  F   UNL A   1      38.972  26.462  30.059  1.00  0.00    -0.203 F 
ATOM     75  F   UNL A   1      42.179  27.601  25.791  1.00  0.00    -0.200 F 
ATOM     76  C   UNL A   1      40.601  26.188  26.835  1.00  0.00     0.200 A 
ATOM     77  F   UNL A   1      39.006  24.817  27.910  1.00  0.00    -0.200 F 
ATOM     78  F   UNL A   1      40.589  25.385  25.762  1.00  0.00    -0.200 F 
ENDBRANCH  54  68
BRANCH  55  79
ATOM     79  C   UNL A   1      40.051  34.057  36.900  1.00  0.00     0.064 A 
ATOM     80  C   UNL A   1      39.169  33.778  37.953  1.00  0.00     0.173 A 
ATOM     81  C   UNL A   1      40.831  35.218  36.991  1.00  0.00     0.173 A 
ATOM     82  F   UNL A   1      38.382  32.694  37.897  1.00  0.00    -0.203 F 
ATOM     83  C   UNL A   1      39.061  34.635  39.046  1.00  0.00     0.198 A 
ATOM     84  C   UNL A   1      40.741  36.061  38.096  1.00  0.00     0.198 A 
ATOM     85  F   UNL A   1      41.688  35.531  36.007  1.00  0.00    -0.203 F 
ATOM     86  F   UNL A   1      38.179  34.368  40.020  1.00  0.00    -0.200 F 
ATOM     87  C   UNL A   1      39.850  35.773  39.120  1.00  0.00     0.200 A 
ATOM     88  F   UNL A   1      41.512  37.155  38.166  1.00  0.00    -0.200 F 
ATOM     89  F   UNL A   1      39.747  36.596  40.172  1.00  0.00    -0.200 F 
ENDBRANCH  55  79
BRANCH  67  90
ATOM     90  C   UNL A   1      44.083  28.590  35.345  1.00  0.00     0.064 A 
ATOM     91  C   UNL A   1      45.422  28.948  35.142  1.00  0.00     0.173 A 
ATOM     92  C   UNL A   1      43.802  27.603  36.302  1.00  0.00     0.173 A 
ATOM     93  F   UNL A   1      45.743  29.876  34.226  1.00  0.00    -0.203 F 
ATOM     94  C   UNL A   1      46.444  28.330  35.858  1.00  0.00     0.198 A 
ATOM     95  C   UNL A   1      44.823  27.006  37.035  1.00  0.00     0.198 A 
ATOM     96  F   UNL A   1      42.535  27.231  36.538  1.00  0.00    -0.203 F 
ATOM     97  F   UNL A   1      47.721  28.659  35.620  1.00  0.00    -0.200 F 
ATOM     98  C   UNL A   1      46.144  27.366  36.809  1.00  0.00     0.200 A 
ATOM     99  F   UNL A   1      44.530  26.084  37.963  1.00  0.00    -0.200 F 
ATOM    100  F   UNL A   1      47.127  26.777  37.503  1.00  0.00    -0.200 F 
ENDBRANCH  67  90
ENDBRANCH  41  42
ENDBRANCH  34  36
ENDBRANCH  33  34
ENDBRANCH  32  33
ENDBRANCH  31  32
ENDBRANCH  30  31
ENDBRANCH  29  30
ENDBRANCH  28  29
ENDBRANCH  27  28
ENDBRANCH   1  27
TORSDOF 23
ENDMDL
MODEL 2
REMARK VINA RESULT:     -10.6      4.515     10.425
REMARK SMILES Cn1c(C(=O)OCCOCCOCCOCCOC(=O)c2ccc(-c3c4nc(c(-c5c(F)c(F)c(F)c(F)c5F)c5ccc([nH]5)c(-c5c(F)c(F)c(F)c(F)c5F)c5nc(c(-c6c(F)c(F)c(F)c(F)c6F)c6ccc3[nH]6)C=C5)C=C4)cc2)cc2cc(OCc3ccccc3)ccc21
REMARK SMILES IDX 11 1 10 2 9 3 8 4 7 5 6 6 4 7 5 8 3 9 1 10 2 11 98 12 84 13
REMARK SMILES IDX 85 14 97 15 86 16 96 17 87 18 88 19 89 20 90 21 91 22 95 23
REMARK SMILES IDX 92 24 94 25 93 26 12 27 13 28 14 29 15 30 16 31 17 32 18 33
REMARK SMILES IDX 19 34 20 35 21 36 22 37 83 38 23 39 82 40 24 41 25 42 26 43
REMARK SMILES IDX 76 44 27 45 81 46 75 47 77 48 28 49 80 50 74 51 73 52 29 54
REMARK SMILES IDX 61 55 41 56 60 57 42 58 45 59 59 60 78 61 43 62 44 63 58 65
REMARK SMILES IDX 79 66 46 67 30 68 31 69 39 70 32 71 33 72 37 73 40 74 34 75
REMARK SMILES IDX 35 76 38 77 36 78 62 79 63 80 71 81 64 82 65 83 69 84 72 85
REMARK SMILES IDX 66 86 67 87 70 88 68 89 47 90 48 91 56 92 49 93 50 94 54 95
REMARK SMILES IDX 57 96 51 97 52 98 55 99 53 100
REMARK H PARENT 77 53 45 64
REMARK Flexibility Score: inf
ROOT
ATOM      1  C   UNL A   1      32.916  25.552  21.285  1.00  0.00     0.188 C 
ENDROOT
BRANCH   1   2
ATOM      2  C   UNL A   1      33.076  26.915  21.978  1.00  0.00     0.188 C 
BRANCH   2   3
ATOM      3  O   UNL A   1      31.839  27.485  22.411  1.00  0.00    -0.376 OA
BRANCH   3   4
ATOM      4  C   UNL A   1      31.946  28.554  23.343  1.00  0.00     0.202 C 
BRANCH   4   5
ATOM      5  C   UNL A   1      33.384  28.821  23.801  1.00  0.00     0.261 C 
BRANCH   5   6
ATOM      6  O   UNL A   1      33.699  28.272  25.088  1.00  0.00    -0.459 OA
BRANCH   6   7
ATOM      7  C   UNL A   1      32.662  27.907  25.877  1.00  0.00     0.355 C 
ATOM      8  O   UNL A   1      31.888  28.692  26.409  1.00  0.00    -0.244 OA
BRANCH   7   9
ATOM      9  C   UNL A   1      32.511  26.467  25.867  1.00  0.00     0.128 A 
ATOM     10  C   UNL A   1      30.037  26.196  25.355  1.00  0.00     0.150 C 
ATOM     11  N   UNL A   1      31.379  25.715  25.610  1.00  0.00    -0.338 N 
ATOM     12  C   UNL A   1      31.703  24.368  25.581  1.00  0.00     0.049 A 
ATOM     13  C   UNL A   1      33.517  25.560  26.177  1.00  0.00     0.044 A 
ATOM     14  C   UNL A   1      33.018  24.244  26.021  1.00  0.00     0.004 A 
ATOM     15  C   UNL A   1      30.941  23.252  25.221  1.00  0.00     0.031 A 
ATOM     16  C   UNL A   1      33.567  22.956  26.189  1.00  0.00     0.056 A 
ATOM     17  C   UNL A   1      31.526  21.989  25.342  1.00  0.00     0.048 A 
ATOM     18  C   UNL A   1      32.818  21.828  25.837  1.00  0.00     0.120 A 
BRANCH  18  19
ATOM     19  O   UNL A   1      33.438  20.625  26.056  1.00  0.00    -0.489 OA
BRANCH  19  20
ATOM     20  C   UNL A   1      34.039  19.968  24.932  1.00  0.00     0.265 C 
BRANCH  20  21
ATOM     21  C   UNL A   1      33.677  18.502  24.830  1.00  0.00    -0.011 A 
ATOM     22  C   UNL A   1      34.296  17.674  23.885  1.00  0.00     0.007 A 
ATOM     23  C   UNL A   1      32.728  17.946  25.701  1.00  0.00     0.007 A 
ATOM     24  C   UNL A   1      34.005  16.309  23.843  1.00  0.00     0.000 A 
ATOM     25  C   UNL A   1      32.451  16.579  25.672  1.00  0.00     0.000 A 
ATOM     26  C   UNL A   1      33.093  15.760  24.744  1.00  0.00     0.000 A 
ENDBRANCH  20  21
ENDBRANCH  19  20
ENDBRANCH  18  19
ENDBRANCH   7   9
ENDBRANCH   6   7
ENDBRANCH   5   6
ENDBRANCH   4   5
ENDBRANCH   3   4
ENDBRANCH   2   3
ENDBRANCH   1   2
BRANCH   1  27
ATOM     27  O   UNL A   1      32.591  24.471  22.143  1.00  0.00    -0.377 OA
BRANCH  27  28
ATOM     28  C   UNL A   1      33.552  23.437  22.343  1.00  0.00     0.188 C 
BRANCH  28  29
ATOM     29  C   UNL A   1      34.839  23.639  23.173  1.00  0.00     0.188 C 
BRANCH  29  30
ATOM     30  O   UNL A   1      35.989  22.971  22.664  1.00  0.00    -0.376 OA
BRANCH  30  31
ATOM     31  C   UNL A   1      37.117  22.909  23.528  1.00  0.00     0.202 C 
BRANCH  31  32
ATOM     32  C   UNL A   1      37.133  21.642  24.388  1.00  0.00     0.261 C 
BRANCH  32  33
ATOM     33  O   UNL A   1      37.528  21.863  25.751  1.00  0.00    -0.460 OA
BRANCH  33  34
ATOM     34  C   UNL A   1      38.813  21.588  26.060  1.00  0.00     0.338 C 
ATOM     35  O   UNL A   1      39.442  20.579  25.803  1.00  0.00    -0.246 OA
BRANCH  34  36
ATOM     36  C   UNL A   1      39.408  22.808  26.633  1.00  0.00     0.060 A 
ATOM     37  C   UNL A   1      38.900  24.052  26.243  1.00  0.00     0.016 A 
ATOM     38  C   UNL A   1      40.468  22.716  27.538  1.00  0.00     0.016 A 
ATOM     39  C   UNL A   1      39.485  25.220  26.731  1.00  0.00     0.010 A 
ATOM     40  C   UNL A   1      41.062  23.885  28.014  1.00  0.00     0.010 A 
ATOM     41  C   UNL A   1      40.596  25.138  27.584  1.00  0.00    -0.014 A 
BRANCH  41  42
ATOM     42  C   UNL A   1      41.399  26.348  27.866  1.00  0.00     0.031 A 
ATOM     43  C   UNL A   1      40.745  27.473  28.618  1.00  0.00     0.074 A 
ATOM     44  C   UNL A   1      42.674  26.451  27.458  1.00  0.00     0.049 A 
ATOM     45  N   UNL A   1      41.225  28.645  28.946  1.00  0.00    -0.248 NA
ATOM     46  C   UNL A   1      39.358  27.245  29.055  1.00  0.00     0.031 C 
ATOM     47  C   UNL A   1      43.419  25.419  26.742  1.00  0.00     0.029 A 
ATOM     48  N   UNL A   1      43.562  27.489  27.578  1.00  0.00    -0.354 N 
ATOM     49  C   UNL A   1      40.203  29.290  29.628  1.00  0.00     0.074 A 
ATOM     50  C   UNL A   1      39.066  28.396  29.642  1.00  0.00     0.031 C 
ATOM     51  C   UNL A   1      44.653  25.882  26.475  1.00  0.00     0.029 A 
ATOM     52  C   UNL A   1      44.772  27.250  26.978  1.00  0.00     0.049 A 
ATOM     53  H   UNL A   1      43.351  28.328  28.051  1.00  0.00     0.167 HD
ATOM     54  C   UNL A   1      40.213  30.515  30.201  1.00  0.00     0.037 A 
ATOM     55  C   UNL A   1      45.842  28.056  26.838  1.00  0.00     0.037 A 
ATOM     56  C   UNL A   1      41.337  31.410  30.174  1.00  0.00     0.049 A 
ATOM     57  C   UNL A   1      45.804  29.446  27.421  1.00  0.00     0.074 A 
ATOM     58  C   UNL A   1      41.456  32.667  30.740  1.00  0.00     0.029 A 
ATOM     59  N   UNL A   1      42.539  31.144  29.534  1.00  0.00    -0.354 N 
ATOM     60  N   UNL A   1      44.849  30.035  28.100  1.00  0.00    -0.248 NA
ATOM     61  C   UNL A   1      46.996  30.282  27.217  1.00  0.00     0.031 C 
ATOM     62  C   UNL A   1      42.714  33.180  30.402  1.00  0.00     0.029 A 
ATOM     63  C   UNL A   1      43.395  32.224  29.667  1.00  0.00     0.049 A 
ATOM     64  H   UNL A   1      42.751  30.310  29.055  1.00  0.00     0.167 HD
ATOM     65  C   UNL A   1      45.333  31.296  28.427  1.00  0.00     0.074 A 
ATOM     66  C   UNL A   1      46.671  31.384  27.879  1.00  0.00     0.031 C 
ATOM     67  C   UNL A   1      44.725  32.290  29.119  1.00  0.00     0.037 A 
BRANCH  54  68
ATOM     68  C   UNL A   1      38.956  30.964  30.882  1.00  0.00     0.064 A 
ATOM     69  C   UNL A   1      38.771  30.796  32.262  1.00  0.00     0.173 A 
ATOM     70  C   UNL A   1      37.929  31.575  30.148  1.00  0.00     0.173 A 
ATOM     71  F   UNL A   1      39.717  30.199  33.003  1.00  0.00    -0.203 F 
ATOM     72  C   UNL A   1      37.592  31.203  32.880  1.00  0.00     0.198 A 
ATOM     73  C   UNL A   1      36.761  32.003  30.774  1.00  0.00     0.198 A 
ATOM     74  F   UNL A   1      38.058  31.755  28.826  1.00  0.00    -0.203 F 
ATOM     75  F   UNL A   1      37.416  30.991  34.192  1.00  0.00    -0.200 F 
ATOM     76  C   UNL A   1      36.591  31.810  32.137  1.00  0.00     0.200 A 
ATOM     77  F   UNL A   1      35.798  32.595  30.055  1.00  0.00    -0.200 F 
ATOM     78  F   UNL A   1      35.456  32.201  32.733  1.00  0.00    -0.200 F 
ENDBRANCH  54  68
BRANCH  55  79
ATOM     79  C   UNL A   1      47.043  27.573  26.111  1.00  0.00     0.064 A 
ATOM     80  C   UNL A   1      48.147  27.058  26.804  1.00  0.00     0.173 A 
ATOM     81  C   UNL A   1      47.121  27.636  24.713  1.00  0.00     0.173 A 
ATOM     82  F   UNL A   1      48.131  27.005  28.144  1.00  0.00    -0.203 F 
ATOM     83  C   UNL A   1      49.289  26.637  26.126  1.00  0.00     0.198 A 
ATOM     84  C   UNL A   1      48.253  27.191  24.034  1.00  0.00     0.198 A 
ATOM     85  F   UNL A   1      46.092  28.125  24.004  1.00  0.00    -0.203 F 
ATOM     86  F   UNL A   1      50.347  26.188  26.815  1.00  0.00    -0.200 F 
ATOM     87  C   UNL A   1      49.340  26.699  24.742  1.00  0.00     0.200 A 
ATOM     88  F   UNL A   1      48.294  27.245  22.696  1.00  0.00    -0.200 F 
ATOM     89  F   UNL A   1      50.437  26.292  24.090  1.00  0.00    -0.200 F 
ENDBRANCH  55  79
BRANCH  67  90
ATOM     90  C   UNL A   1      45.509  33.548  29.352  1.00  0.00     0.064 A 
ATOM     91  C   UNL A   1      46.329  33.704  30.479  1.00  0.00     0.173 A 
ATOM     92  C   UNL A   1      45.476  34.589  28.411  1.00  0.00     0.173 A 
ATOM     93  F   UNL A   1      46.382  32.743  31.414  1.00  0.00    -0.203 F 
ATOM     94  C   UNL A   1      47.075  34.865  30.664  1.00  0.00     0.198 A 
ATOM     95  C   UNL A   1      46.245  35.736  28.587  1.00  0.00     0.198 A 
ATOM     96  F   UNL A   1      44.713  34.485  27.314  1.00  0.00    -0.203 F 
ATOM     97  F   UNL A   1      47.823  35.010  31.767  1.00  0.00    -0.200 F 
ATOM     98  C   UNL A   1      47.039  35.876  29.716  1.00  0.00     0.200 A 
ATOM     99  F   UNL A   1      46.217  36.707  27.663  1.00  0.00    -0.200 F 
ATOM    100  F   UNL A   1      47.764  36.989  29.891  1.00  0.00    -0.200 F 
ENDBRANCH  67  90
ENDBRANCH  41  42
ENDBRANCH  34  36
ENDBRANCH  33  34
ENDBRANCH  32  33
ENDBRANCH  31  32
ENDBRANCH  30  31
ENDBRANCH  29  30
ENDBRANCH  28  29
ENDBRANCH  27  28
ENDBRANCH   1  27
TORSDOF 23
ENDMDL
MODEL 3
REMARK VINA RESULT:     -10.5      1.043      7.078
REMARK SMILES Cn1c(C(=O)OCCOCCOCCOCCOC(=O)c2ccc(-c3c4nc(c(-c5c(F)c(F)c(F)c(F)c5F)c5ccc([nH]5)c(-c5c(F)c(F)c(F)c(F)c5F)c5nc(c(-c6c(F)c(F)c(F)c(F)c6F)c6ccc3[nH]6)C=C5)C=C4)cc2)cc2cc(OCc3ccccc3)ccc21
REMARK SMILES IDX 11 1 10 2 9 3 8 4 7 5 6 6 4 7 5 8 3 9 1 10 2 11 98 12 84 13
REMARK SMILES IDX 85 14 97 15 86 16 96 17 87 18 88 19 89 20 90 21 91 22 95 23
REMARK SMILES IDX 92 24 94 25 93 26 12 27 13 28 14 29 15 30 16 31 17 32 18 33
REMARK SMILES IDX 19 34 20 35 21 36 22 37 83 38 23 39 82 40 24 41 25 42 26 43
REMARK SMILES IDX 76 44 27 45 81 46 75 47 77 48 28 49 80 50 74 51 73 52 29 54
REMARK SMILES IDX 61 55 41 56 60 57 42 58 45 59 59 60 78 61 43 62 44 63 58 65
REMARK SMILES IDX 79 66 46 67 30 68 31 69 39 70 32 71 33 72 37 73 40 74 34 75
REMARK SMILES IDX 35 76 38 77 36 78 62 79 63 80 71 81 64 82 65 83 69 84 72 85
REMARK SMILES IDX 66 86 67 87 70 88 68 89 47 90 48 91 56 92 49 93 50 94 54 95
REMARK SMILES IDX 57 96 51 97 52 98 55 99 53 100
REMARK H PARENT 77 53 45 64
REMARK Flexibility Score: inf
ROOT
ATOM      1  C   UNL A   1      33.120  26.491  25.730  1.00  0.00     0.188 C 
ENDROOT
BRANCH   1   2
ATOM      2  C   UNL A   1      32.711  25.100  26.241  1.00  0.00     0.188 C 
BRANCH   2   3
ATOM      3  O   UNL A   1      33.821  24.257  26.557  1.00  0.00    -0.376 OA
BRANCH   3   4
ATOM      4  C   UNL A   1      34.421  23.588  25.455  1.00  0.00     0.202 C 
BRANCH   4   5
ATOM      5  C   UNL A   1      33.605  22.393  24.951  1.00  0.00     0.261 C 
BRANCH   5   6
ATOM      6  O   UNL A   1      33.644  22.216  23.529  1.00  0.00    -0.459 OA
BRANCH   6   7
ATOM      7  C   UNL A   1      32.463  22.223  22.869  1.00  0.00     0.355 C 
ATOM      8  O   UNL A   1      31.935  21.230  22.385  1.00  0.00    -0.244 OA
BRANCH   7   9
ATOM      9  C   UNL A   1      31.850  23.531  22.962  1.00  0.00     0.128 A 
ATOM     10  C   UNL A   1      33.642  25.028  21.958  1.00  0.00     0.150 C 
ATOM     11  N   UNL A   1      32.343  24.753  22.539  1.00  0.00    -0.338 N 
ATOM     12  C   UNL A   1      31.381  25.735  22.705  1.00  0.00     0.049 A 
ATOM     13  C   UNL A   1      30.625  23.795  23.563  1.00  0.00     0.044 A 
ATOM     14  C   UNL A   1      30.331  25.173  23.427  1.00  0.00     0.004 A 
ATOM     15  C   UNL A   1      31.358  27.072  22.296  1.00  0.00     0.031 A 
ATOM     16  C   UNL A   1      29.257  25.995  23.829  1.00  0.00     0.056 A 
ATOM     17  C   UNL A   1      30.256  27.852  22.657  1.00  0.00     0.048 A 
ATOM     18  C   UNL A   1      29.219  27.337  23.431  1.00  0.00     0.120 A 
BRANCH  18  19
ATOM     19  O   UNL A   1      28.142  28.050  23.889  1.00  0.00    -0.489 OA
BRANCH  19  20
ATOM     20  C   UNL A   1      27.295  28.680  22.919  1.00  0.00     0.265 C 
BRANCH  20  21
ATOM     21  C   UNL A   1      27.732  30.085  22.564  1.00  0.00    -0.011 A 
ATOM     22  C   UNL A   1      28.003  30.438  21.235  1.00  0.00     0.007 A 
ATOM     23  C   UNL A   1      27.848  31.063  23.564  1.00  0.00     0.007 A 
ATOM     24  C   UNL A   1      28.339  31.753  20.909  1.00  0.00     0.000 A 
ATOM     25  C   UNL A   1      28.165  32.381  23.234  1.00  0.00     0.000 A 
ATOM     26  C   UNL A   1      28.408  32.726  21.905  1.00  0.00     0.000 A 
ENDBRANCH  20  21
ENDBRANCH  19  20
ENDBRANCH  18  19
ENDBRANCH   7   9
ENDBRANCH   6   7
ENDBRANCH   5   6
ENDBRANCH   4   5
ENDBRANCH   3   4
ENDBRANCH   2   3
ENDBRANCH   1   2
BRANCH   1  27
ATOM     27  O   UNL A   1      32.320  27.566  26.192  1.00  0.00    -0.377 OA
BRANCH  27  28
ATOM     28  C   UNL A   1      32.806  28.379  27.258  1.00  0.00     0.188 C 
BRANCH  28  29
ATOM     29  C   UNL A   1      32.880  29.919  27.169  1.00  0.00     0.188 C 
BRANCH  29  30
ATOM     30  O   UNL A   1      31.738  30.538  26.586  1.00  0.00    -0.376 OA
BRANCH  30  31
ATOM     31  C   UNL A   1      31.591  31.934  26.813  1.00  0.00     0.202 C 
BRANCH  31  32
ATOM     32  C   UNL A   1      32.721  32.515  27.667  1.00  0.00     0.261 C 
BRANCH  32  33
ATOM     33  O   UNL A   1      32.995  33.903  27.412  1.00  0.00    -0.460 OA
BRANCH  33  34
ATOM     34  C   UNL A   1      33.165  34.693  28.493  1.00  0.00     0.338 C 
ATOM     35  O   UNL A   1      32.443  35.593  28.879  1.00  0.00    -0.246 OA
BRANCH  34  36
ATOM     36  C   UNL A   1      34.315  34.173  29.253  1.00  0.00     0.060 A 
ATOM     37  C   UNL A   1      35.604  34.371  28.744  1.00  0.00     0.016 A 
ATOM     38  C   UNL A   1      34.114  33.485  30.451  1.00  0.00     0.016 A 
ATOM     39  C   UNL A   1      36.701  33.839  29.419  1.00  0.00     0.010 A 
ATOM     40  C   UNL A   1      35.212  32.940  31.117  1.00  0.00     0.010 A 
ATOM     41  C   UNL A   1      36.503  33.085  30.584  1.00  0.00    -0.014 A 
BRANCH  41  42
ATOM     42  C   UNL A   1      37.612  32.276  31.137  1.00  0.00     0.031 A 
ATOM     43  C   UNL A   1      38.099  32.594  32.523  1.00  0.00     0.074 A 
ATOM     44  C   UNL A   1      38.180  31.289  30.424  1.00  0.00     0.049 A 
ATOM     45  N   UNL A   1      39.080  32.060  33.204  1.00  0.00    -0.248 NA
ATOM     46  C   UNL A   1      37.384  33.666  33.234  1.00  0.00     0.031 C 
ATOM     47  C   UNL A   1      37.778  30.876  29.083  1.00  0.00     0.029 A 
ATOM     48  N   UNL A   1      39.232  30.466  30.733  1.00  0.00    -0.354 N 
ATOM     49  C   UNL A   1      39.096  32.727  34.421  1.00  0.00     0.074 A 
ATOM     50  C   UNL A   1      38.051  33.726  34.376  1.00  0.00     0.031 C 
ATOM     51  C   UNL A   1      38.586  29.880  28.676  1.00  0.00     0.029 A 
ATOM     52  C   UNL A   1      39.574  29.607  29.720  1.00  0.00     0.049 A 
ATOM     53  H   UNL A   1      39.698  30.489  31.601  1.00  0.00     0.167 HD
ATOM     54  C   UNL A   1      39.905  32.519  35.485  1.00  0.00     0.037 A 
ATOM     55  C   UNL A   1      40.583  28.718  29.643  1.00  0.00     0.037 A 
ATOM     56  C   UNL A   1      40.953  31.537  35.524  1.00  0.00     0.049 A 
ATOM     57  C   UNL A   1      41.518  28.556  30.814  1.00  0.00     0.074 A 
ATOM     58  C   UNL A   1      41.817  31.235  36.561  1.00  0.00     0.029 A 
ATOM     59  N   UNL A   1      41.287  30.702  34.468  1.00  0.00    -0.354 N 
ATOM     60  N   UNL A   1      41.503  29.161  31.978  1.00  0.00    -0.248 NA
ATOM     61  C   UNL A   1      42.610  27.584  30.660  1.00  0.00     0.031 C 
ATOM     62  C   UNL A   1      42.704  30.248  36.116  1.00  0.00     0.029 A 
ATOM     63  C   UNL A   1      42.362  29.903  34.819  1.00  0.00     0.049 A 
ATOM     64  H   UNL A   1      40.827  30.681  33.597  1.00  0.00     0.167 HD
ATOM     65  C   UNL A   1      42.562  28.626  32.701  1.00  0.00     0.074 A 
ATOM     66  C   UNL A   1      43.194  27.640  31.849  1.00  0.00     0.031 C 
ATOM     67  C   UNL A   1      42.973  28.923  33.958  1.00  0.00     0.037 A 
BRANCH  54  68
ATOM     68  C   UNL A   1      39.697  33.394  36.684  1.00  0.00     0.064 A 
ATOM     69  C   UNL A   1      38.794  33.043  37.699  1.00  0.00     0.173 A 
ATOM     70  C   UNL A   1      40.413  34.591  36.824  1.00  0.00     0.173 A 
ATOM     71  F   UNL A   1      38.071  31.917  37.601  1.00  0.00    -0.203 F 
ATOM     72  C   UNL A   1      38.599  33.872  38.800  1.00  0.00     0.198 A 
ATOM     73  C   UNL A   1      40.234  35.406  37.938  1.00  0.00     0.198 A 
ATOM     74  F   UNL A   1      41.286  34.971  35.879  1.00  0.00    -0.203 F 
ATOM     75  F   UNL A   1      37.697  33.541  39.735  1.00  0.00    -0.200 F 
ATOM     76  C   UNL A   1      39.321  35.049  38.921  1.00  0.00     0.200 A 
ATOM     77  F   UNL A   1      40.937  36.539  38.056  1.00  0.00    -0.200 F 
ATOM     78  F   UNL A   1      39.133  35.847  39.981  1.00  0.00    -0.200 F 
ENDBRANCH  54  68
BRANCH  55  79
ATOM     79  C   UNL A   1      40.769  27.913  28.410  1.00  0.00     0.064 A 
ATOM     80  C   UNL A   1      40.163  26.656  28.271  1.00  0.00     0.173 A 
ATOM     81  C   UNL A   1      41.569  28.372  27.354  1.00  0.00     0.173 A 
ATOM     82  F   UNL A   1      39.412  26.162  29.266  1.00  0.00    -0.203 F 
ATOM     83  C   UNL A   1      40.364  25.883  27.130  1.00  0.00     0.198 A 
ATOM     84  C   UNL A   1      41.749  27.609  26.203  1.00  0.00     0.198 A 
ATOM     85  F   UNL A   1      42.173  29.566  27.440  1.00  0.00    -0.203 F 
ATOM     86  F   UNL A   1      39.809  24.666  27.041  1.00  0.00    -0.200 F 
ATOM     87  C   UNL A   1      41.152  26.362  26.094  1.00  0.00     0.200 A 
ATOM     88  F   UNL A   1      42.505  28.080  25.201  1.00  0.00    -0.200 F 
ATOM     89  F   UNL A   1      41.344  25.619  24.996  1.00  0.00    -0.200 F 
ENDBRANCH  55  79
BRANCH  67  90
ATOM     90  C   UNL A   1      44.141  28.155  34.503  1.00  0.00     0.064 A 
ATOM     91  C   UNL A   1      45.460  28.583  34.301  1.00  0.00     0.173 A 
ATOM     92  C   UNL A   1      43.933  27.003  35.278  1.00  0.00     0.173 A 
ATOM     93  F   UNL A   1      45.711  29.670  33.554  1.00  0.00    -0.203 F 
ATOM     94  C   UNL A   1      46.532  27.876  34.840  1.00  0.00     0.198 A 
ATOM     95  C   UNL A   1      45.005  26.315  35.838  1.00  0.00     0.198 A 
ATOM     96  F   UNL A   1      42.689  26.557  35.505  1.00  0.00    -0.203 F 
ATOM     97  F   UNL A   1      47.787  28.281  34.603  1.00  0.00    -0.200 F 
ATOM     98  C   UNL A   1      46.304  26.748  35.614  1.00  0.00     0.200 A 
ATOM     99  F   UNL A   1      44.782  25.232  36.595  1.00  0.00    -0.200 F 
ATOM    100  F   UNL A   1      47.336  26.074  36.140  1.00  0.00    -0.200 F 
ENDBRANCH  67  90
ENDBRANCH  41  42
ENDBRANCH  34  36
ENDBRANCH  33  34
ENDBRANCH  32  33
ENDBRANCH  31  32
ENDBRANCH  30  31
ENDBRANCH  29  30
ENDBRANCH  28  29
ENDBRANCH  27  28
ENDBRANCH   1  27
TORSDOF 23
ENDMDL
