MODEL 1
REMARK VINA RESULT:      -9.6      0.000      0.000
REMARK SMILES C#CCN(CC(=O)OCCOCCOCCOCCOC(=O)c1ccc(-c2c3nc(c(-c4c(F)c(F)c(F)c(F)c4F)c4ccc([nH]4)c(-c4c(F)c(F)c(F)c(F)c4F)c4nc(c(-c5c(F)c(F)c(F)c(F)c5F)c5ccc2[nH]5)C=C4)C=C3)cc1)C(=O)CCc1ccc(Cl)cc1Cl
REMARK SMILES IDX 12 1 11 2 10 3 9 4 8 5 6 6 7 7 5 8 4 9 3 10 2 11 1 12 86 13
REMARK SMILES IDX 87 14 88 15 89 16 90 17 91 18 96 19 92 20 95 21 97 22 93 23
REMARK SMILES IDX 94 24 13 25 14 26 15 27 16 28 17 29 18 30 19 31 20 32 21 33
REMARK SMILES IDX 22 34 23 35 24 36 85 37 25 38 84 39 26 40 27 41 28 42 78 43
REMARK SMILES IDX 29 44 83 45 77 46 79 47 30 48 82 49 76 50 75 51 31 53 63 54
REMARK SMILES IDX 43 55 62 56 44 57 47 58 61 59 80 60 45 61 46 62 60 64 81 65
REMARK SMILES IDX 48 66 32 67 33 68 41 69 34 70 35 71 39 72 42 73 36 74 37 75
REMARK SMILES IDX 40 76 38 77 64 78 65 79 73 80 66 81 67 82 71 83 74 84 68 85
REMARK SMILES IDX 69 86 72 87 70 88 49 89 50 90 58 91 51 92 52 93 56 94 59 95
REMARK SMILES IDX 53 96 54 97 57 98 55 99
REMARK H PARENT 79 52 47 63
REMARK Flexibility Score: inf
ROOT
ATOM      1  C   UNL A   1      28.109  27.284  23.928  1.00  0.00     0.188 C 
ENDROOT
BRANCH   1   2
ATOM      2  O   UNL A   1      29.257  26.794  23.251  1.00  0.00    -0.376 OA
BRANCH   2   3
ATOM      3  C   UNL A   1      30.454  26.833  24.020  1.00  0.00     0.202 C 
BRANCH   3   4
ATOM      4  C   UNL A   1      30.392  25.973  25.289  1.00  0.00     0.261 C 
BRANCH   4   5
ATOM      5  O   UNL A   1      31.679  25.745  25.920  1.00  0.00    -0.462 OA
BRANCH   5   6
ATOM      6  C   UNL A   1      32.587  26.742  25.844  1.00  0.00     0.325 C 
ATOM      7  O   UNL A   1      32.552  27.743  26.553  1.00  0.00    -0.250 OA
BRANCH   6   8
ATOM      8  C   UNL A   1      33.649  26.558  24.739  1.00  0.00     0.243 C 
BRANCH   8   9
ATOM      9  N   UNL A   1      34.009  25.273  24.103  1.00  0.00    -0.320 N 
BRANCH   9  10
ATOM     10  C   UNL A   1      34.803  24.326  24.914  1.00  0.00     0.210 C 
BRANCH  10  11
ATOM     11  C   UNL A   1      35.776  23.590  24.007  1.00  0.00    -0.085 C 
ATOM     12  C   UNL A   1      36.610  22.960  23.228  1.00  0.00     0.006 C 
ENDBRANCH  10  11
ENDBRANCH   9  10
BRANCH   9  13
ATOM     13  C   UNL A   1      33.612  24.850  22.826  1.00  0.00     0.224 C 
ATOM     14  O   UNL A   1      33.767  25.550  21.819  1.00  0.00    -0.275 OA
BRANCH  13  15
ATOM     15  C   UNL A   1      32.870  23.539  22.630  1.00  0.00     0.105 C 
BRANCH  15  16
ATOM     16  C   UNL A   1      32.126  22.924  23.817  1.00  0.00     0.047 C 
BRANCH  16  17
ATOM     17  C   UNL A   1      32.542  21.495  24.098  1.00  0.00    -0.029 A 
ATOM     18  C   UNL A   1      33.097  21.203  25.353  1.00  0.00     0.007 A 
ATOM     19  C   UNL A   1      32.296  20.428  23.206  1.00  0.00     0.045 A 
ATOM     20  C   UNL A   1      33.281  19.879  25.754  1.00  0.00     0.021 A 
ATOM     21  C   UNL A   1      32.423  19.105  23.632  1.00  0.00     0.041 A 
ATOM     22  Cl  UNL A   1      31.776  20.681  21.575  1.00  0.00    -0.084 Cl
ATOM     23  C   UNL A   1      32.897  18.838  24.911  1.00  0.00     0.042 A 
ATOM     24  Cl  UNL A   1      32.988  17.215  25.467  1.00  0.00    -0.084 Cl
ENDBRANCH  16  17
ENDBRANCH  15  16
ENDBRANCH  13  15
ENDBRANCH   9  13
ENDBRANCH   8   9
ENDBRANCH   6   8
ENDBRANCH   5   6
ENDBRANCH   4   5
ENDBRANCH   3   4
ENDBRANCH   2   3
ENDBRANCH   1   2
BRANCH   1  25
ATOM     25  C   UNL A   1      27.206  28.225  23.096  1.00  0.00     0.188 C 
BRANCH  25  26
ATOM     26  O   UNL A   1      27.780  29.325  22.402  1.00  0.00    -0.377 OA
BRANCH  26  27
ATOM     27  C   UNL A   1      28.175  30.441  23.176  1.00  0.00     0.188 C 
BRANCH  27  28
ATOM     28  C   UNL A   1      29.676  30.631  23.451  1.00  0.00     0.188 C 
BRANCH  28  29
ATOM     29  O   UNL A   1      29.972  31.334  24.654  1.00  0.00    -0.376 OA
BRANCH  29  30
ATOM     30  C   UNL A   1      31.035  30.803  25.438  1.00  0.00     0.202 C 
BRANCH  30  31
ATOM     31  C   UNL A   1      31.507  31.702  26.591  1.00  0.00     0.261 C 
BRANCH  31  32
ATOM     32  O   UNL A   1      32.778  31.355  27.155  1.00  0.00    -0.460 OA
BRANCH  32  33
ATOM     33  C   UNL A   1      33.549  32.360  27.615  1.00  0.00     0.338 C 
ATOM     34  O   UNL A   1      33.235  33.528  27.770  1.00  0.00    -0.246 OA
BRANCH  33  35
ATOM     35  C   UNL A   1      34.804  31.751  28.096  1.00  0.00     0.060 A 
ATOM     36  C   UNL A   1      34.845  30.367  28.303  1.00  0.00     0.016 A 
ATOM     37  C   UNL A   1      35.947  32.535  28.281  1.00  0.00     0.016 A 
ATOM     38  C   UNL A   1      36.045  29.754  28.658  1.00  0.00     0.010 A 
ATOM     39  C   UNL A   1      37.131  31.930  28.701  1.00  0.00     0.010 A 
ATOM     40  C   UNL A   1      37.179  30.541  28.904  1.00  0.00    -0.014 A 
BRANCH  40  41
ATOM     41  C   UNL A   1      38.313  29.958  29.653  1.00  0.00     0.031 A 
ATOM     42  C   UNL A   1      38.531  30.461  31.051  1.00  0.00     0.074 A 
ATOM     43  C   UNL A   1      39.126  29.035  29.115  1.00  0.00     0.049 A 
ATOM     44  N   UNL A   1      39.471  30.164  31.908  1.00  0.00    -0.248 NA
ATOM     45  C   UNL A   1      37.546  31.437  31.551  1.00  0.00     0.031 C 
ATOM     46  C   UNL A   1      38.976  28.439  27.790  1.00  0.00     0.029 A 
ATOM     47  N   UNL A   1      40.256  28.444  29.625  1.00  0.00    -0.354 N 
ATOM     48  C   UNL A   1      39.184  30.909  33.044  1.00  0.00     0.074 A 
ATOM     49  C   UNL A   1      37.999  31.685  32.767  1.00  0.00     0.031 C 
ATOM     50  C   UNL A   1      39.987  27.574  27.585  1.00  0.00     0.029 A 
ATOM     51  C   UNL A   1      40.872  27.586  28.750  1.00  0.00     0.049 A 
ATOM     52  H   UNL A   1      40.591  28.621  30.534  1.00  0.00     0.167 HD
ATOM     53  C   UNL A   1      39.857  30.949  34.216  1.00  0.00     0.037 A 
ATOM     54  C   UNL A   1      42.032  26.912  28.879  1.00  0.00     0.037 A 
ATOM     55  C   UNL A   1      41.063  30.212  34.468  1.00  0.00     0.049 A 
ATOM     56  C   UNL A   1      42.830  27.065  30.152  1.00  0.00     0.074 A 
ATOM     57  C   UNL A   1      41.833  30.182  35.614  1.00  0.00     0.029 A 
ATOM     58  N   UNL A   1      41.686  29.393  33.537  1.00  0.00    -0.354 N 
ATOM     59  N   UNL A   1      42.538  27.741  31.239  1.00  0.00    -0.248 NA
ATOM     60  C   UNL A   1      44.124  26.369  30.214  1.00  0.00     0.031 C 
ATOM     61  C   UNL A   1      42.955  29.388  35.358  1.00  0.00     0.029 A 
ATOM     62  C   UNL A   1      42.853  28.877  34.073  1.00  0.00     0.049 A 
ATOM     63  H   UNL A   1      41.349  29.207  32.631  1.00  0.00     0.167 HD
ATOM     64  C   UNL A   1      43.587  27.522  32.122  1.00  0.00     0.074 A 
ATOM     65  C   UNL A   1      44.526  26.650  31.445  1.00  0.00     0.031 C 
ATOM     66  C   UNL A   1      43.757  27.992  33.383  1.00  0.00     0.037 A 
BRANCH  53  67
ATOM     67  C   UNL A   1      39.325  31.864  35.276  1.00  0.00     0.064 A 
ATOM     68  C   UNL A   1      39.676  33.222  35.322  1.00  0.00     0.173 A 
ATOM     69  C   UNL A   1      38.472  31.371  36.273  1.00  0.00     0.173 A 
ATOM     70  F   UNL A   1      40.512  33.735  34.406  1.00  0.00    -0.203 F 
ATOM     71  C   UNL A   1      39.217  34.045  36.348  1.00  0.00     0.198 A 
ATOM     72  C   UNL A   1      37.992  32.203  37.280  1.00  0.00     0.198 A 
ATOM     73  F   UNL A   1      38.114  30.078  36.278  1.00  0.00    -0.203 F 
ATOM     74  F   UNL A   1      39.613  35.323  36.406  1.00  0.00    -0.200 F 
ATOM     75  C   UNL A   1      38.372  33.536  37.321  1.00  0.00     0.200 A 
ATOM     76  F   UNL A   1      37.171  31.711  38.219  1.00  0.00    -0.200 F 
ATOM     77  F   UNL A   1      37.934  34.328  38.311  1.00  0.00    -0.200 F 
ENDBRANCH  53  67
BRANCH  54  78
ATOM     78  C   UNL A   1      42.523  26.041  27.778  1.00  0.00     0.064 A 
ATOM     79  C   UNL A   1      42.140  24.694  27.699  1.00  0.00     0.173 A 
ATOM     80  C   UNL A   1      43.406  26.523  26.799  1.00  0.00     0.173 A 
ATOM     81  F   UNL A   1      41.323  24.176  28.627  1.00  0.00    -0.203 F 
ATOM     82  C   UNL A   1      42.629  23.863  26.692  1.00  0.00     0.198 A 
ATOM     83  C   UNL A   1      43.874  25.697  25.779  1.00  0.00     0.198 A 
ATOM     84  F   UNL A   1      43.813  27.801  26.833  1.00  0.00    -0.203 F 
ATOM     85  F   UNL A   1      42.281  22.568  26.667  1.00  0.00    -0.200 F 
ATOM     86  C   UNL A   1      43.491  24.366  25.730  1.00  0.00     0.200 A 
ATOM     87  F   UNL A   1      44.701  26.190  24.847  1.00  0.00    -0.200 F 
ATOM     88  F   UNL A   1      43.960  23.566  24.763  1.00  0.00    -0.200 F 
ENDBRANCH  54  78
BRANCH  66  89
ATOM     89  C   UNL A   1      44.970  27.538  34.140  1.00  0.00     0.064 A 
ATOM     90  C   UNL A   1      46.209  28.177  34.001  1.00  0.00     0.173 A 
ATOM     91  C   UNL A   1      44.862  26.505  35.085  1.00  0.00     0.173 A 
ATOM     92  F   UNL A   1      46.364  29.161  33.102  1.00  0.00    -0.203 F 
ATOM     93  C   UNL A   1      47.301  27.793  34.775  1.00  0.00     0.198 A 
ATOM     94  C   UNL A   1      45.946  26.144  35.877  1.00  0.00     0.198 A 
ATOM     95  F   UNL A   1      43.693  25.870  35.261  1.00  0.00    -0.203 F 
ATOM     96  F   UNL A   1      48.484  28.397  34.607  1.00  0.00    -0.200 F 
ATOM     97  C   UNL A   1      47.165  26.786  35.720  1.00  0.00     0.200 A 
ATOM     98  F   UNL A   1      45.808  25.182  36.801  1.00  0.00    -0.200 F 
ATOM     99  F   UNL A   1      48.211  26.431  36.479  1.00  0.00    -0.200 F 
ENDBRANCH  66  89
ENDBRANCH  40  41
ENDBRANCH  33  35
ENDBRANCH  32  33
ENDBRANCH  31  32
ENDBRANCH  30  31
ENDBRANCH  29  30
ENDBRANCH  28  29
ENDBRANCH  27  28
ENDBRANCH  26  27
ENDBRANCH  25  26
ENDBRANCH   1  25
TORSDOF 27
ENDMDL
MODEL 2
REMARK VINA RESULT:      -9.2      2.488      4.052
REMARK SMILES C#CCN(CC(=O)OCCOCCOCCOCCOC(=O)c1ccc(-c2c3nc(c(-c4c(F)c(F)c(F)c(F)c4F)c4ccc([nH]4)c(-c4c(F)c(F)c(F)c(F)c4F)c4nc(c(-c5c(F)c(F)c(F)c(F)c5F)c5ccc2[nH]5)C=C4)C=C3)cc1)C(=O)CCc1ccc(Cl)cc1Cl
REMARK SMILES IDX 12 1 11 2 10 3 9 4 8 5 6 6 7 7 5 8 4 9 3 10 2 11 1 12 86 13
REMARK SMILES IDX 87 14 88 15 89 16 90 17 91 18 96 19 92 20 95 21 97 22 93 23
REMARK SMILES IDX 94 24 13 25 14 26 15 27 16 28 17 29 18 30 19 31 20 32 21 33
REMARK SMILES IDX 22 34 23 35 24 36 85 37 25 38 84 39 26 40 27 41 28 42 78 43
REMARK SMILES IDX 29 44 83 45 77 46 79 47 30 48 82 49 76 50 75 51 31 53 63 54
REMARK SMILES IDX 43 55 62 56 44 57 47 58 61 59 80 60 45 61 46 62 60 64 81 65
REMARK SMILES IDX 48 66 32 67 33 68 41 69 34 70 35 71 39 72 42 73 36 74 37 75
REMARK SMILES IDX 40 76 38 77 64 78 65 79 73 80 66 81 67 82 71 83 74 84 68 85
REMARK SMILES IDX 69 86 72 87 70 88 49 89 50 90 58 91 51 92 52 93 56 94 59 95
REMARK SMILES IDX 53 96 54 97 57 98 55 99
REMARK H PARENT 79 52 47 63
REMARK Flexibility Score: inf
ROOT
ATOM      1  C   UNL A   1      30.748  26.095  25.378  1.00  0.00     0.188 C 
ENDROOT
BRANCH   1   2
ATOM      2  O   UNL A   1      31.018  24.725  25.634  1.00  0.00    -0.376 OA
BRANCH   2   3
ATOM      3  C   UNL A   1      31.764  24.072  24.614  1.00  0.00     0.202 C 
BRANCH   3   4
ATOM      4  C   UNL A   1      32.814  24.975  23.954  1.00  0.00     0.261 C 
BRANCH   4   5
ATOM      5  O   UNL A   1      34.176  24.724  24.387  1.00  0.00    -0.462 OA
BRANCH   5   6
ATOM      6  C   UNL A   1      34.876  23.790  23.706  1.00  0.00     0.325 C 
ATOM      7  O   UNL A   1      34.609  23.448  22.559  1.00  0.00    -0.250 OA
BRANCH   6   8
ATOM      8  C   UNL A   1      36.012  23.128  24.515  1.00  0.00     0.243 C 
BRANCH   8   9
ATOM      9  N   UNL A   1      35.912  21.843  25.239  1.00  0.00    -0.320 N 
BRANCH   9  10
ATOM     10  C   UNL A   1      34.808  21.709  26.212  1.00  0.00     0.210 C 
BRANCH  10  11
ATOM     11  C   UNL A   1      33.631  21.026  25.536  1.00  0.00    -0.085 C 
ATOM     12  C   UNL A   1      32.621  20.440  24.955  1.00  0.00     0.006 C 
ENDBRANCH  10  11
ENDBRANCH   9  10
BRANCH   9  13
ATOM     13  C   UNL A   1      36.733  20.723  25.038  1.00  0.00     0.224 C 
ATOM     14  O   UNL A   1      36.285  19.572  25.003  1.00  0.00    -0.275 OA
BRANCH  13  15
ATOM     15  C   UNL A   1      38.244  20.863  24.956  1.00  0.00     0.105 C 
BRANCH  15  16
ATOM     16  C   UNL A   1      38.994  21.493  26.131  1.00  0.00     0.047 C 
BRANCH  16  17
ATOM     17  C   UNL A   1      40.451  21.083  26.187  1.00  0.00    -0.029 A 
ATOM     18  C   UNL A   1      40.755  19.714  26.128  1.00  0.00     0.007 A 
ATOM     19  C   UNL A   1      41.517  22.010  26.183  1.00  0.00     0.045 A 
ATOM     20  C   UNL A   1      42.070  19.289  25.940  1.00  0.00     0.021 A 
ATOM     21  C   UNL A   1      42.824  21.585  25.935  1.00  0.00     0.041 A 
ATOM     22  Cl  UNL A   1      41.275  23.706  26.423  1.00  0.00    -0.084 Cl
ATOM     23  C   UNL A   1      43.089  20.228  25.795  1.00  0.00     0.042 A 
ATOM     24  Cl  UNL A   1      44.682  19.704  25.419  1.00  0.00    -0.084 Cl
ENDBRANCH  16  17
ENDBRANCH  15  16
ENDBRANCH  13  15
ENDBRANCH   9  13
ENDBRANCH   8   9
ENDBRANCH   6   8
ENDBRANCH   5   6
ENDBRANCH   4   5
ENDBRANCH   3   4
ENDBRANCH   2   3
ENDBRANCH   1   2
BRANCH   1  25
ATOM     25  C   UNL A   1      29.541  26.367  24.449  1.00  0.00     0.188 C 
BRANCH  25  26
ATOM     26  O   UNL A   1      29.756  26.888  23.145  1.00  0.00    -0.377 OA
BRANCH  26  27
ATOM     27  C   UNL A   1      29.433  28.249  22.933  1.00  0.00     0.188 C 
BRANCH  27  28
ATOM     28  C   UNL A   1      30.539  29.294  23.149  1.00  0.00     0.188 C 
BRANCH  28  29
ATOM     29  O   UNL A   1      30.603  29.822  24.471  1.00  0.00    -0.376 OA
BRANCH  29  30
ATOM     30  C   UNL A   1      31.785  29.519  25.203  1.00  0.00     0.202 C 
BRANCH  30  31
ATOM     31  C   UNL A   1      32.127  30.508  26.329  1.00  0.00     0.261 C 
BRANCH  31  32
ATOM     32  O   UNL A   1      33.478  30.452  26.803  1.00  0.00    -0.460 OA
BRANCH  32  33
ATOM     33  C   UNL A   1      33.911  31.472  27.568  1.00  0.00     0.338 C 
ATOM     34  O   UNL A   1      33.271  32.432  27.962  1.00  0.00    -0.246 OA
BRANCH  33  35
ATOM     35  C   UNL A   1      35.270  31.119  28.023  1.00  0.00     0.060 A 
ATOM     36  C   UNL A   1      35.547  29.785  28.345  1.00  0.00     0.016 A 
ATOM     37  C   UNL A   1      36.275  32.089  28.073  1.00  0.00     0.016 A 
ATOM     38  C   UNL A   1      36.847  29.408  28.679  1.00  0.00     0.010 A 
ATOM     39  C   UNL A   1      37.561  31.723  28.470  1.00  0.00     0.010 A 
ATOM     40  C   UNL A   1      37.845  30.385  28.788  1.00  0.00    -0.014 A 
BRANCH  40  41
ATOM     41  C   UNL A   1      39.092  30.063  29.515  1.00  0.00     0.031 A 
ATOM     42  C   UNL A   1      39.217  30.594  30.914  1.00  0.00     0.074 A 
ATOM     43  C   UNL A   1      40.081  29.346  28.956  1.00  0.00     0.049 A 
ATOM     44  N   UNL A   1      40.213  30.507  31.755  1.00  0.00    -0.248 NA
ATOM     45  C   UNL A   1      38.048  31.324  31.437  1.00  0.00     0.031 C 
ATOM     46  C   UNL A   1      40.045  28.739  27.628  1.00  0.00     0.029 A 
ATOM     47  N   UNL A   1      41.321  29.017  29.444  1.00  0.00    -0.354 N 
ATOM     48  C   UNL A   1      39.788  31.163  32.901  1.00  0.00     0.074 A 
ATOM     49  C   UNL A   1      38.455  31.659  32.649  1.00  0.00     0.031 C 
ATOM     50  C   UNL A   1      41.219  28.121  27.400  1.00  0.00     0.029 A 
ATOM     51  C   UNL A   1      42.098  28.322  28.552  1.00  0.00     0.049 A 
ATOM     52  H   UNL A   1      41.624  29.258  30.350  1.00  0.00     0.167 HD
ATOM     53  C   UNL A   1      40.454  31.344  34.064  1.00  0.00     0.037 A 
ATOM     54  C   UNL A   1      43.381  27.922  28.657  1.00  0.00     0.037 A 
ATOM     55  C   UNL A   1      41.797  30.892  34.290  1.00  0.00     0.049 A 
ATOM     56  C   UNL A   1      44.146  28.240  29.920  1.00  0.00     0.074 A 
ATOM     57  C   UNL A   1      42.573  31.026  35.425  1.00  0.00     0.029 A 
ATOM     58  N   UNL A   1      42.571  30.236  33.343  1.00  0.00    -0.354 N 
ATOM     59  N   UNL A   1      43.730  28.827  31.017  1.00  0.00    -0.248 NA
ATOM     60  C   UNL A   1      45.562  27.847  29.956  1.00  0.00     0.031 C 
ATOM     61  C   UNL A   1      43.839  30.502  35.145  1.00  0.00     0.029 A 
ATOM     62  C   UNL A   1      43.831  29.988  33.857  1.00  0.00     0.049 A 
ATOM     63  H   UNL A   1      42.268  29.986  32.440  1.00  0.00     0.167 HD
ATOM     64  C   UNL A   1      44.815  28.841  31.883  1.00  0.00     0.074 A 
ATOM     65  C   UNL A   1      45.912  28.203  31.184  1.00  0.00     0.031 C 
ATOM     66  C   UNL A   1      44.898  29.330  33.145  1.00  0.00     0.037 A 
BRANCH  53  67
ATOM     67  C   UNL A   1      39.749  32.113  35.140  1.00  0.00     0.064 A 
ATOM     68  C   UNL A   1      38.958  31.472  36.106  1.00  0.00     0.173 A 
ATOM     69  C   UNL A   1      39.845  33.510  35.189  1.00  0.00     0.173 A 
ATOM     70  F   UNL A   1      38.813  30.138  36.083  1.00  0.00    -0.203 F 
ATOM     71  C   UNL A   1      38.264  32.207  37.064  1.00  0.00     0.198 A 
ATOM     72  C   UNL A   1      39.173  34.239  36.165  1.00  0.00     0.198 A 
ATOM     73  F   UNL A   1      40.582  34.170  34.282  1.00  0.00    -0.203 F 
ATOM     74  F   UNL A   1      37.468  31.580  37.939  1.00  0.00    -0.200 F 
ATOM     75  C   UNL A   1      38.377  33.588  37.095  1.00  0.00     0.200 A 
ATOM     76  F   UNL A   1      39.286  35.575  36.198  1.00  0.00    -0.200 F 
ATOM     77  F   UNL A   1      37.705  34.295  38.016  1.00  0.00    -0.200 F 
ENDBRANCH  53  67
BRANCH  54  78
ATOM     78  C   UNL A   1      44.034  27.188  27.541  1.00  0.00     0.064 A 
ATOM     79  C   UNL A   1      44.092  25.786  27.536  1.00  0.00     0.173 A 
ATOM     80  C   UNL A   1      44.640  27.865  26.472  1.00  0.00     0.173 A 
ATOM     81  F   UNL A   1      43.555  25.091  28.550  1.00  0.00    -0.203 F 
ATOM     82  C   UNL A   1      44.738  25.094  26.513  1.00  0.00     0.198 A 
ATOM     83  C   UNL A   1      45.264  27.171  25.437  1.00  0.00     0.198 A 
ATOM     84  F   UNL A   1      44.623  29.206  26.432  1.00  0.00    -0.203 F 
ATOM     85  F   UNL A   1      44.816  23.756  26.556  1.00  0.00    -0.200 F 
ATOM     86  C   UNL A   1      45.319  25.787  25.461  1.00  0.00     0.200 A 
ATOM     87  F   UNL A   1      45.817  27.845  24.419  1.00  0.00    -0.200 F 
ATOM     88  F   UNL A   1      45.939  25.120  24.478  1.00  0.00    -0.200 F 
ENDBRANCH  54  78
BRANCH  66  89
ATOM     89  C   UNL A   1      46.193  29.151  33.880  1.00  0.00     0.064 A 
ATOM     90  C   UNL A   1      46.456  28.009  34.648  1.00  0.00     0.173 A 
ATOM     91  C   UNL A   1      47.219  30.099  33.733  1.00  0.00     0.173 A 
ATOM     92  F   UNL A   1      45.502  27.082  34.826  1.00  0.00    -0.203 F 
ATOM     93  C   UNL A   1      47.696  27.825  35.253  1.00  0.00     0.198 A 
ATOM     94  C   UNL A   1      48.467  29.898  34.315  1.00  0.00     0.198 A 
ATOM     95  F   UNL A   1      47.020  31.204  32.999  1.00  0.00    -0.203 F 
ATOM     96  F   UNL A   1      47.917  26.741  36.007  1.00  0.00    -0.200 F 
ATOM     97  C   UNL A   1      48.703  28.763  35.076  1.00  0.00     0.200 A 
ATOM     98  F   UNL A   1      49.444  30.796  34.128  1.00  0.00    -0.200 F 
ATOM     99  F   UNL A   1      49.904  28.574  35.641  1.00  0.00    -0.200 F 
ENDBRANCH  66  89
ENDBRANCH  40  41
ENDBRANCH  33  35
ENDBRANCH  32  33
ENDBRANCH  31  32
ENDBRANCH  30  31
ENDBRANCH  29  30
ENDBRANCH  28  29
ENDBRANCH  27  28
ENDBRANCH  26  27
ENDBRANCH  25  26
ENDBRANCH   1  25
TORSDOF 27
ENDMDL
MODEL 3
REMARK VINA RESULT:      -9.0      1.535      2.711
REMARK SMILES C#CCN(CC(=O)OCCOCCOCCOCCOC(=O)c1ccc(-c2c3nc(c(-c4c(F)c(F)c(F)c(F)c4F)c4ccc([nH]4)c(-c4c(F)c(F)c(F)c(F)c4F)c4nc(c(-c5c(F)c(F)c(F)c(F)c5F)c5ccc2[nH]5)C=C4)C=C3)cc1)C(=O)CCc1ccc(Cl)cc1Cl
REMARK SMILES IDX 12 1 11 2 10 3 9 4 8 5 6 6 7 7 5 8 4 9 3 10 2 11 1 12 86 13
REMARK SMILES IDX 87 14 88 15 89 16 90 17 91 18 96 19 92 20 95 21 97 22 93 23
REMARK SMILES IDX 94 24 13 25 14 26 15 27 16 28 17 29 18 30 19 31 20 32 21 33
REMARK SMILES IDX 22 34 23 35 24 36 85 37 25 38 84 39 26 40 27 41 28 42 78 43
REMARK SMILES IDX 29 44 83 45 77 46 79 47 30 48 82 49 76 50 75 51 31 53 63 54
REMARK SMILES IDX 43 55 62 56 44 57 47 58 61 59 80 60 45 61 46 62 60 64 81 65
REMARK SMILES IDX 48 66 32 67 33 68 41 69 34 70 35 71 39 72 42 73 36 74 37 75
REMARK SMILES IDX 40 76 38 77 64 78 65 79 73 80 66 81 67 82 71 83 74 84 68 85
REMARK SMILES IDX 69 86 72 87 70 88 49 89 50 90 58 91 51 92 52 93 56 94 59 95
REMARK SMILES IDX 53 96 54 97 57 98 55 99
REMARK H PARENT 79 52 47 63
REMARK Flexibility Score: inf
ROOT
ATOM      1  C   UNL A   1      31.235  26.424  25.414  1.00  0.00     0.188 C 
ENDROOT
BRANCH   1   2
ATOM      2  O   UNL A   1      31.637  25.129  25.836  1.00  0.00    -0.376 OA
BRANCH   2   3
ATOM      3  C   UNL A   1      32.308  24.368  24.838  1.00  0.00     0.202 C 
BRANCH   3   4
ATOM      4  C   UNL A   1      33.222  25.211  23.940  1.00  0.00     0.261 C 
BRANCH   4   5
ATOM      5  O   UNL A   1      34.634  24.897  24.061  1.00  0.00    -0.462 OA
BRANCH   5   6
ATOM      6  C   UNL A   1      35.112  23.902  23.281  1.00  0.00     0.325 C 
ATOM      7  O   UNL A   1      34.473  23.395  22.365  1.00  0.00    -0.250 OA
BRANCH   6   8
ATOM      8  C   UNL A   1      36.517  23.399  23.678  1.00  0.00     0.243 C 
BRANCH   8   9
ATOM      9  N   UNL A   1      36.893  22.865  25.003  1.00  0.00    -0.320 N 
BRANCH   9  10
ATOM     10  C   UNL A   1      37.191  23.852  26.062  1.00  0.00     0.210 C 
BRANCH  10  11
ATOM     11  C   UNL A   1      38.631  23.675  26.514  1.00  0.00    -0.085 C 
ATOM     12  C   UNL A   1      39.867  23.524  26.902  1.00  0.00     0.006 C 
ENDBRANCH  10  11
ENDBRANCH   9  10
BRANCH   9  13
ATOM     13  C   UNL A   1      36.931  21.508  25.360  1.00  0.00     0.224 C 
ATOM     14  O   UNL A   1      37.992  20.888  25.491  1.00  0.00    -0.275 OA
BRANCH  13  15
ATOM     15  C   UNL A   1      35.653  20.700  25.503  1.00  0.00     0.105 C 
BRANCH  15  16
ATOM     16  C   UNL A   1      35.002  20.114  24.248  1.00  0.00     0.047 C 
BRANCH  16  17
ATOM     17  C   UNL A   1      34.195  18.865  24.531  1.00  0.00    -0.029 A 
ATOM     18  C   UNL A   1      34.737  17.628  24.150  1.00  0.00     0.007 A 
ATOM     19  C   UNL A   1      32.982  18.873  25.255  1.00  0.00     0.045 A 
ATOM     20  C   UNL A   1      34.159  16.436  24.590  1.00  0.00     0.021 A 
ATOM     21  C   UNL A   1      32.440  17.683  25.743  1.00  0.00     0.041 A 
ATOM     22  Cl  UNL A   1      32.133  20.334  25.628  1.00  0.00    -0.084 Cl
ATOM     23  C   UNL A   1      33.043  16.472  25.423  1.00  0.00     0.042 A 
ATOM     24  Cl  UNL A   1      32.423  15.010  26.079  1.00  0.00    -0.084 Cl
ENDBRANCH  16  17
ENDBRANCH  15  16
ENDBRANCH  13  15
ENDBRANCH   9  13
ENDBRANCH   8   9
ENDBRANCH   6   8
ENDBRANCH   5   6
ENDBRANCH   4   5
ENDBRANCH   3   4
ENDBRANCH   2   3
ENDBRANCH   1   2
BRANCH   1  25
ATOM     25  C   UNL A   1      29.949  26.466  24.555  1.00  0.00     0.188 C 
BRANCH  25  26
ATOM     26  O   UNL A   1      29.991  27.019  23.247  1.00  0.00    -0.377 OA
BRANCH  26  27
ATOM     27  C   UNL A   1      29.389  28.286  23.062  1.00  0.00     0.188 C 
BRANCH  27  28
ATOM     28  C   UNL A   1      30.253  29.535  23.297  1.00  0.00     0.188 C 
BRANCH  28  29
ATOM     29  O   UNL A   1      30.493  29.839  24.668  1.00  0.00    -0.376 OA
BRANCH  29  30
ATOM     30  C   UNL A   1      31.849  29.762  25.093  1.00  0.00     0.202 C 
BRANCH  30  31
ATOM     31  C   UNL A   1      32.253  30.777  26.173  1.00  0.00     0.261 C 
BRANCH  31  32
ATOM     32  O   UNL A   1      33.621  30.711  26.593  1.00  0.00    -0.460 OA
BRANCH  32  33
ATOM     33  C   UNL A   1      34.007  31.535  27.587  1.00  0.00     0.338 C 
ATOM     34  O   UNL A   1      33.372  32.448  28.086  1.00  0.00    -0.246 OA
BRANCH  33  35
ATOM     35  C   UNL A   1      35.280  31.005  28.112  1.00  0.00     0.060 A 
ATOM     36  C   UNL A   1      35.304  29.708  28.639  1.00  0.00     0.016 A 
ATOM     37  C   UNL A   1      36.452  31.763  28.029  1.00  0.00     0.016 A 
ATOM     38  C   UNL A   1      36.512  29.147  29.048  1.00  0.00     0.010 A 
ATOM     39  C   UNL A   1      37.650  31.225  28.499  1.00  0.00     0.010 A 
ATOM     40  C   UNL A   1      37.679  29.923  29.022  1.00  0.00    -0.014 A 
BRANCH  40  41
ATOM     41  C   UNL A   1      38.852  29.486  29.811  1.00  0.00     0.031 A 
ATOM     42  C   UNL A   1      39.037  30.121  31.158  1.00  0.00     0.074 A 
ATOM     43  C   UNL A   1      39.728  28.579  29.347  1.00  0.00     0.049 A 
ATOM     44  N   UNL A   1      39.997  29.964  32.031  1.00  0.00    -0.248 NA
ATOM     45  C   UNL A   1      37.987  31.065  31.580  1.00  0.00     0.031 C 
ATOM     46  C   UNL A   1      39.617  27.861  28.079  1.00  0.00     0.029 A 
ATOM     47  N   UNL A   1      40.896  28.113  29.898  1.00  0.00    -0.354 N 
ATOM     48  C   UNL A   1      39.661  30.782  33.101  1.00  0.00     0.074 A 
ATOM     49  C   UNL A   1      38.423  31.448  32.768  1.00  0.00     0.031 C 
ATOM     50  C   UNL A   1      40.686  27.055  27.942  1.00  0.00     0.029 A 
ATOM     51  C   UNL A   1      41.569  27.227  29.095  1.00  0.00     0.049 A 
ATOM     52  H   UNL A   1      41.219  28.390  30.786  1.00  0.00     0.167 HD
ATOM     53  C   UNL A   1      40.331  30.969  34.261  1.00  0.00     0.037 A 
ATOM     54  C   UNL A   1      42.774  26.650  29.272  1.00  0.00     0.037 A 
ATOM     55  C   UNL A   1      41.585  30.342  34.565  1.00  0.00     0.049 A 
ATOM     56  C   UNL A   1      43.561  26.966  30.522  1.00  0.00     0.074 A 
ATOM     57  C   UNL A   1      42.357  30.464  35.704  1.00  0.00     0.029 A 
ATOM     58  N   UNL A   1      42.263  29.491  33.703  1.00  0.00    -0.354 N 
ATOM     59  N   UNL A   1      43.225  27.710  31.548  1.00  0.00    -0.248 NA
ATOM     60  C   UNL A   1      44.900  26.369  30.633  1.00  0.00     0.031 C 
ATOM     61  C   UNL A   1      43.532  29.730  35.509  1.00  0.00     0.029 A 
ATOM     62  C   UNL A   1      43.463  29.104  34.273  1.00  0.00     0.049 A 
ATOM     63  H   UNL A   1      41.938  29.205  32.819  1.00  0.00     0.167 HD
ATOM     64  C   UNL A   1      44.287  27.641  32.439  1.00  0.00     0.074 A 
ATOM     65  C   UNL A   1      45.283  26.782  31.833  1.00  0.00     0.031 C 
ATOM     66  C   UNL A   1      44.426  28.229  33.654  1.00  0.00     0.037 A 
BRANCH  53  67
ATOM     67  C   UNL A   1      39.737  31.933  35.242  1.00  0.00     0.064 A 
ATOM     68  C   UNL A   1      40.086  33.293  35.243  1.00  0.00     0.173 A 
ATOM     69  C   UNL A   1      38.827  31.486  36.210  1.00  0.00     0.173 A 
ATOM     70  F   UNL A   1      40.975  33.763  34.354  1.00  0.00    -0.203 F 
ATOM     71  C   UNL A   1      39.568  34.162  36.200  1.00  0.00     0.198 A 
ATOM     72  C   UNL A   1      38.290  32.364  37.146  1.00  0.00     0.198 A 
ATOM     73  F   UNL A   1      38.469  30.194  36.256  1.00  0.00    -0.203 F 
ATOM     74  F   UNL A   1      39.961  35.443  36.220  1.00  0.00    -0.200 F 
ATOM     75  C   UNL A   1      38.667  33.699  37.145  1.00  0.00     0.200 A 
ATOM     76  F   UNL A   1      37.415  31.916  38.057  1.00  0.00    -0.200 F 
ATOM     77  F   UNL A   1      38.172  34.536  38.068  1.00  0.00    -0.200 F 
ENDBRANCH  53  67
BRANCH  54  78
ATOM     78  C   UNL A   1      43.323  25.723  28.246  1.00  0.00     0.064 A 
ATOM     79  C   UNL A   1      44.123  26.201  27.198  1.00  0.00     0.173 A 
ATOM     80  C   UNL A   1      43.038  24.350  28.271  1.00  0.00     0.173 A 
ATOM     81  F   UNL A   1      44.400  27.510  27.112  1.00  0.00    -0.203 F 
ATOM     82  C   UNL A   1      44.608  25.344  26.211  1.00  0.00     0.198 A 
ATOM     83  C   UNL A   1      43.544  23.490  27.297  1.00  0.00     0.198 A 
ATOM     84  F   UNL A   1      42.269  23.841  29.245  1.00  0.00    -0.203 F 
ATOM     85  F   UNL A   1      45.334  25.835  25.197  1.00  0.00    -0.200 F 
ATOM     86  C   UNL A   1      44.322  23.988  26.264  1.00  0.00     0.200 A 
ATOM     87  F   UNL A   1      43.271  22.179  27.357  1.00  0.00    -0.200 F 
ATOM     88  F   UNL A   1      44.788  23.165  25.315  1.00  0.00    -0.200 F 
ENDBRANCH  54  78
BRANCH  66  89
ATOM     89  C   UNL A   1      45.669  27.926  34.438  1.00  0.00     0.064 A 
ATOM     90  C   UNL A   1      45.794  26.759  35.203  1.00  0.00     0.173 A 
ATOM     91  C   UNL A   1      46.782  28.777  34.344  1.00  0.00     0.173 A 
ATOM     92  F   UNL A   1      44.754  25.921  35.331  1.00  0.00    -0.203 F 
ATOM     93  C   UNL A   1      46.987  26.457  35.854  1.00  0.00     0.198 A 
ATOM     94  C   UNL A   1      47.981  28.458  34.973  1.00  0.00     0.198 A 
ATOM     95  F   UNL A   1      46.714  29.902  33.616  1.00  0.00    -0.203 F 
ATOM     96  F   UNL A   1      47.077  25.351  36.604  1.00  0.00    -0.200 F 
ATOM     97  C   UNL A   1      48.081  27.300  35.729  1.00  0.00     0.200 A 
ATOM     98  F   UNL A   1      49.043  29.265  34.836  1.00  0.00    -0.200 F 
ATOM     99  F   UNL A   1      49.236  26.998  36.340  1.00  0.00    -0.200 F 
ENDBRANCH  66  89
ENDBRANCH  40  41
ENDBRANCH  33  35
ENDBRANCH  32  33
ENDBRANCH  31  32
ENDBRANCH  30  31
ENDBRANCH  29  30
ENDBRANCH  28  29
ENDBRANCH  27  28
ENDBRANCH  26  27
ENDBRANCH  25  26
ENDBRANCH   1  25
TORSDOF 27
ENDMDL
