MODEL 1
REMARK VINA RESULT:     -11.3      0.000      0.000
REMARK SMILES O=C(OCCOCCOCCOCCOC(=O)[C@H]1[C@@H](C(=O)NN2CCOCC2)[C@H]2C=C[C@@H]1CC2)c1ccc(-c2c3nc(c(-c4c(F)c(F)c(F)c(F)c4F)c4ccc([nH]4)c(-c4c(F)c(F)c(F)c(F)c4F)c4nc(c(-c5c(F)c(F)c(F)c(F)c5F)c5ccc2[nH]5)C=C4)C=C3)cc1
REMARK SMILES IDX 9 1 8 2 7 3 6 4 5 5 4 6 3 7 2 8 1 9 35 10 36 11 97 12 37 13
REMARK SMILES IDX 96 14 38 15 39 16 40 17 90 18 41 19 95 20 89 21 91 22 42 23
REMARK SMILES IDX 94 24 88 25 87 26 43 28 75 29 55 30 74 31 56 32 59 33 73 34
REMARK SMILES IDX 92 35 57 36 58 37 72 39 93 40 60 41 44 42 45 43 53 44 46 45
REMARK SMILES IDX 47 46 51 47 54 48 48 49 49 50 52 51 50 52 76 53 77 54 85 55
REMARK SMILES IDX 78 56 79 57 83 58 86 59 80 60 81 61 84 62 82 63 61 64 62 65
REMARK SMILES IDX 70 66 63 67 64 68 68 69 71 70 65 71 66 72 69 73 67 74 10 75
REMARK SMILES IDX 11 76 12 77 13 78 14 79 15 80 16 81 17 82 18 83 19 84 32 85
REMARK SMILES IDX 29 86 31 87 33 88 30 89 34 90 20 91 21 92 22 93 23 95 24 96
REMARK SMILES IDX 28 97 25 98 27 99 26 100
REMARK H PARENT 91 27 59 38 22 94
REMARK Flexibility Score: inf
ROOT
ATOM      1  O   UNL A   1      33.413  27.809  24.919  1.00  0.00    -0.377 OA
ENDROOT
BRANCH   1   2
ATOM      2  C   UNL A   1      33.553  29.211  25.098  1.00  0.00     0.188 C 
BRANCH   2   3
ATOM      3  C   UNL A   1      32.732  29.780  26.257  1.00  0.00     0.188 C 
BRANCH   3   4
ATOM      4  O   UNL A   1      31.712  30.668  25.779  1.00  0.00    -0.376 OA
BRANCH   4   5
ATOM      5  C   UNL A   1      31.397  31.774  26.628  1.00  0.00     0.202 C 
BRANCH   5   6
ATOM      6  C   UNL A   1      32.605  32.465  27.260  1.00  0.00     0.261 C 
BRANCH   6   7
ATOM      7  O   UNL A   1      32.334  33.804  27.693  1.00  0.00    -0.460 OA
BRANCH   7   8
ATOM      8  C   UNL A   1      33.042  34.579  28.552  1.00  0.00     0.338 C 
ATOM      9  O   UNL A   1      32.653  35.734  28.725  1.00  0.00    -0.246 OA
BRANCH   8  10
ATOM     10  C   UNL A   1      34.298  34.158  29.265  1.00  0.00     0.060 A 
ATOM     11  C   UNL A   1      35.604  34.347  28.809  1.00  0.00     0.016 A 
ATOM     12  C   UNL A   1      34.137  33.541  30.522  1.00  0.00     0.016 A 
ATOM     13  C   UNL A   1      36.705  33.949  29.548  1.00  0.00     0.010 A 
ATOM     14  C   UNL A   1      35.238  33.096  31.263  1.00  0.00     0.010 A 
ATOM     15  C   UNL A   1      36.523  33.281  30.751  1.00  0.00    -0.014 A 
BRANCH  15  16
ATOM     16  C   UNL A   1      37.702  32.567  31.259  1.00  0.00     0.031 A 
ATOM     17  C   UNL A   1      38.134  32.891  32.658  1.00  0.00     0.074 A 
ATOM     18  C   UNL A   1      38.175  31.502  30.590  1.00  0.00     0.049 A 
ATOM     19  N   UNL A   1      39.100  32.381  33.370  1.00  0.00    -0.248 NA
ATOM     20  C   UNL A   1      37.333  33.906  33.371  1.00  0.00     0.031 C 
ATOM     21  C   UNL A   1      37.654  31.011  29.311  1.00  0.00     0.029 A 
ATOM     22  N   UNL A   1      39.161  30.613  30.915  1.00  0.00    -0.354 N 
ATOM     23  C   UNL A   1      39.029  33.019  34.600  1.00  0.00     0.074 A 
ATOM     24  C   UNL A   1      37.928  33.950  34.551  1.00  0.00     0.031 C 
ATOM     25  C   UNL A   1      38.331  29.904  28.962  1.00  0.00     0.029 A 
ATOM     26  C   UNL A   1      39.366  29.652  29.957  1.00  0.00     0.049 A 
ATOM     27  H   UNL A   1      39.674  30.659  31.755  1.00  0.00     0.167 HD
ATOM     28  C   UNL A   1      39.831  32.840  35.673  1.00  0.00     0.037 A 
ATOM     29  C   UNL A   1      40.325  28.709  29.892  1.00  0.00     0.037 A 
ATOM     30  C   UNL A   1      40.929  31.916  35.674  1.00  0.00     0.049 A 
ATOM     31  C   UNL A   1      41.306  28.639  31.036  1.00  0.00     0.074 A 
ATOM     32  C   UNL A   1      41.897  31.716  36.637  1.00  0.00     0.029 A 
ATOM     33  N   UNL A   1      41.197  31.033  34.635  1.00  0.00    -0.354 N 
ATOM     34  N   UNL A   1      41.314  29.316  32.163  1.00  0.00    -0.248 NA
ATOM     35  C   UNL A   1      42.417  27.692  30.899  1.00  0.00     0.031 C 
ATOM     36  C   UNL A   1      42.780  30.741  36.157  1.00  0.00     0.029 A 
ATOM     37  C   UNL A   1      42.329  30.294  34.924  1.00  0.00     0.049 A 
ATOM     38  H   UNL A   1      40.662  30.946  33.814  1.00  0.00     0.167 HD
ATOM     39  C   UNL A   1      42.417  28.868  32.873  1.00  0.00     0.074 A 
ATOM     40  C   UNL A   1      43.036  27.837  32.061  1.00  0.00     0.031 C 
ATOM     41  C   UNL A   1      42.893  29.271  34.079  1.00  0.00     0.037 A 
BRANCH  28  42
ATOM     42  C   UNL A   1      39.593  33.722  36.861  1.00  0.00     0.064 A 
ATOM     43  C   UNL A   1      38.800  33.316  37.945  1.00  0.00     0.173 A 
ATOM     44  C   UNL A   1      40.133  35.017  36.894  1.00  0.00     0.173 A 
ATOM     45  F   UNL A   1      38.226  32.102  37.944  1.00  0.00    -0.203 F 
ATOM     46  C   UNL A   1      38.540  34.181  39.006  1.00  0.00     0.198 A 
ATOM     47  C   UNL A   1      39.891  35.870  37.967  1.00  0.00     0.198 A 
ATOM     48  F   UNL A   1      40.882  35.462  35.873  1.00  0.00    -0.203 F 
ATOM     49  F   UNL A   1      37.734  33.793  40.004  1.00  0.00    -0.200 F 
ATOM     50  C   UNL A   1      39.090  35.454  39.019  1.00  0.00     0.200 A 
ATOM     51  F   UNL A   1      40.422  37.101  37.974  1.00  0.00    -0.200 F 
ATOM     52  F   UNL A   1      38.833  36.288  40.036  1.00  0.00    -0.200 F 
ENDBRANCH  28  42
BRANCH  29  53
ATOM     53  C   UNL A   1      40.463  27.837  28.692  1.00  0.00     0.064 A 
ATOM     54  C   UNL A   1      41.191  28.242  27.566  1.00  0.00     0.173 A 
ATOM     55  C   UNL A   1      39.810  26.595  28.626  1.00  0.00     0.173 A 
ATOM     56  F   UNL A   1      41.818  29.428  27.565  1.00  0.00    -0.203 F 
ATOM     57  C   UNL A   1      41.233  27.459  26.412  1.00  0.00     0.198 A 
ATOM     58  C   UNL A   1      39.882  25.796  27.486  1.00  0.00     0.198 A 
ATOM     59  F   UNL A   1      39.089  26.155  29.668  1.00  0.00    -0.203 F 
ATOM     60  F   UNL A   1      41.880  27.905  25.326  1.00  0.00    -0.200 F 
ATOM     61  C   UNL A   1      40.581  26.236  26.374  1.00  0.00     0.200 A 
ATOM     62  F   UNL A   1      39.260  24.609  27.461  1.00  0.00    -0.200 F 
ATOM     63  F   UNL A   1      40.612  25.489  25.261  1.00  0.00    -0.200 F 
ENDBRANCH  29  53
BRANCH  41  64
ATOM     64  C   UNL A   1      44.113  28.567  34.588  1.00  0.00     0.064 A 
ATOM     65  C   UNL A   1      45.403  29.049  34.322  1.00  0.00     0.173 A 
ATOM     66  C   UNL A   1      43.984  27.421  35.385  1.00  0.00     0.173 A 
ATOM     67  F   UNL A   1      45.574  30.134  33.552  1.00  0.00    -0.203 F 
ATOM     68  C   UNL A   1      46.524  28.387  34.811  1.00  0.00     0.198 A 
ATOM     69  C   UNL A   1      45.106  26.784  35.903  1.00  0.00     0.198 A 
ATOM     70  F   UNL A   1      42.769  26.931  35.674  1.00  0.00    -0.203 F 
ATOM     71  F   UNL A   1      47.749  28.830  34.500  1.00  0.00    -0.200 F 
ATOM     72  C   UNL A   1      46.374  27.261  35.608  1.00  0.00     0.200 A 
ATOM     73  F   UNL A   1      44.959  25.706  36.687  1.00  0.00    -0.200 F 
ATOM     74  F   UNL A   1      47.455  26.630  36.085  1.00  0.00    -0.200 F 
ENDBRANCH  41  64
ENDBRANCH  15  16
ENDBRANCH   8  10
ENDBRANCH   7   8
ENDBRANCH   6   7
ENDBRANCH   5   6
ENDBRANCH   4   5
ENDBRANCH   3   4
ENDBRANCH   2   3
ENDBRANCH   1   2
BRANCH   1  75
ATOM     75  C   UNL A   1      32.437  27.420  23.966  1.00  0.00     0.188 C 
BRANCH  75  76
ATOM     76  C   UNL A   1      32.667  27.819  22.490  1.00  0.00     0.188 C 
BRANCH  76  77
ATOM     77  O   UNL A   1      33.431  26.867  21.771  1.00  0.00    -0.376 OA
BRANCH  77  78
ATOM     78  C   UNL A   1      33.729  25.630  22.413  1.00  0.00     0.202 C 
BRANCH  78  79
ATOM     79  C   UNL A   1      33.030  24.324  21.983  1.00  0.00     0.261 C 
BRANCH  79  80
ATOM     80  O   UNL A   1      33.530  23.185  22.715  1.00  0.00    -0.463 OA
BRANCH  80  81
ATOM     81  C   UNL A   1      32.730  22.265  23.267  1.00  0.00     0.310 C 
ATOM     82  O   UNL A   1      32.203  21.345  22.647  1.00  0.00    -0.252 OA
BRANCH  81  83
ATOM     83  C   UNL A   1      32.546  22.475  24.780  1.00  0.00     0.119 C 
ATOM     84  C   UNL A   1      33.126  21.380  25.748  1.00  0.00     0.101 C 
ATOM     85  C   UNL A   1      32.811  23.906  25.389  1.00  0.00     0.026 C 
ATOM     86  C   UNL A   1      33.338  22.053  27.133  1.00  0.00     0.025 C 
ATOM     87  C   UNL A   1      34.153  24.039  26.107  1.00  0.00    -0.027 C 
ATOM     88  C   UNL A   1      31.821  24.045  26.570  1.00  0.00     0.009 C 
ATOM     89  C   UNL A   1      34.423  23.087  27.007  1.00  0.00    -0.027 C 
ATOM     90  C   UNL A   1      32.045  22.844  27.530  1.00  0.00     0.009 C 
BRANCH  84  91
ATOM     91  C   UNL A   1      34.245  20.532  25.103  1.00  0.00     0.238 C 
ATOM     92  O   UNL A   1      35.386  21.001  24.987  1.00  0.00    -0.273 OA
ATOM     93  N   UNL A   1      34.096  19.301  24.531  1.00  0.00    -0.288 N 
ATOM     94  H   UNL A   1      34.910  18.910  24.141  1.00  0.00     0.185 HD
BRANCH  93  95
ATOM     95  N   UNL A   1      32.940  18.525  24.427  1.00  0.00    -0.217 NA
ATOM     96  C   UNL A   1      32.794  17.607  25.588  1.00  0.00     0.136 C 
ATOM     97  C   UNL A   1      32.932  17.725  23.182  1.00  0.00     0.136 C 
ATOM     98  C   UNL A   1      33.721  16.376  25.541  1.00  0.00     0.177 C 
ATOM     99  C   UNL A   1      33.886  16.530  23.205  1.00  0.00     0.177 C 
ATOM    100  O   UNL A   1      33.590  15.667  24.305  1.00  0.00    -0.379 OA
ENDBRANCH  93  95
ENDBRANCH  84  91
ENDBRANCH  81  83
ENDBRANCH  80  81
ENDBRANCH  79  80
ENDBRANCH  78  79
ENDBRANCH  77  78
ENDBRANCH  76  77
ENDBRANCH  75  76
ENDBRANCH   1  75
TORSDOF 22
ENDMDL
MODEL 2
REMARK VINA RESULT:     -11.2      0.549      7.079
REMARK SMILES O=C(OCCOCCOCCOCCOC(=O)[C@H]1[C@@H](C(=O)NN2CCOCC2)[C@H]2C=C[C@@H]1CC2)c1ccc(-c2c3nc(c(-c4c(F)c(F)c(F)c(F)c4F)c4ccc([nH]4)c(-c4c(F)c(F)c(F)c(F)c4F)c4nc(c(-c5c(F)c(F)c(F)c(F)c5F)c5ccc2[nH]5)C=C4)C=C3)cc1
REMARK SMILES IDX 9 1 8 2 7 3 6 4 5 5 4 6 3 7 2 8 1 9 35 10 36 11 97 12 37 13
REMARK SMILES IDX 96 14 38 15 39 16 40 17 90 18 41 19 95 20 89 21 91 22 42 23
REMARK SMILES IDX 94 24 88 25 87 26 43 28 75 29 55 30 74 31 56 32 59 33 73 34
REMARK SMILES IDX 92 35 57 36 58 37 72 39 93 40 60 41 44 42 45 43 53 44 46 45
REMARK SMILES IDX 47 46 51 47 54 48 48 49 49 50 52 51 50 52 76 53 77 54 85 55
REMARK SMILES IDX 78 56 79 57 83 58 86 59 80 60 81 61 84 62 82 63 61 64 62 65
REMARK SMILES IDX 70 66 63 67 64 68 68 69 71 70 65 71 66 72 69 73 67 74 10 75
REMARK SMILES IDX 11 76 12 77 13 78 14 79 15 80 16 81 17 82 18 83 19 84 32 85
REMARK SMILES IDX 29 86 31 87 33 88 30 89 34 90 20 91 21 92 22 93 23 95 24 96
REMARK SMILES IDX 28 97 25 98 27 99 26 100
REMARK H PARENT 91 27 59 38 22 94
REMARK Flexibility Score: inf
ROOT
ATOM      1  O   UNL A   1      33.865  27.529  24.746  1.00  0.00    -0.377 OA
ENDROOT
BRANCH   1   2
ATOM      2  C   UNL A   1      33.393  28.052  25.979  1.00  0.00     0.188 C 
BRANCH   2   3
ATOM      3  C   UNL A   1      33.259  29.576  26.004  1.00  0.00     0.188 C 
BRANCH   3   4
ATOM      4  O   UNL A   1      31.892  29.971  26.191  1.00  0.00    -0.376 OA
BRANCH   4   5
ATOM      5  C   UNL A   1      31.679  31.342  26.536  1.00  0.00     0.202 C 
BRANCH   5   6
ATOM      6  C   UNL A   1      32.840  32.008  27.274  1.00  0.00     0.261 C 
BRANCH   6   7
ATOM      7  O   UNL A   1      32.658  33.416  27.470  1.00  0.00    -0.460 OA
BRANCH   7   8
ATOM      8  C   UNL A   1      33.184  34.215  28.431  1.00  0.00     0.338 C 
ATOM      9  O   UNL A   1      32.718  35.349  28.544  1.00  0.00    -0.246 OA
BRANCH   8  10
ATOM     10  C   UNL A   1      34.333  33.847  29.331  1.00  0.00     0.060 A 
ATOM     11  C   UNL A   1      35.677  34.151  29.113  1.00  0.00     0.016 A 
ATOM     12  C   UNL A   1      34.012  33.155  30.517  1.00  0.00     0.016 A 
ATOM     13  C   UNL A   1      36.667  33.794  30.012  1.00  0.00     0.010 A 
ATOM     14  C   UNL A   1      35.005  32.750  31.416  1.00  0.00     0.010 A 
ATOM     15  C   UNL A   1      36.339  33.053  31.139  1.00  0.00    -0.014 A 
BRANCH  15  16
ATOM     16  C   UNL A   1      37.469  32.398  31.812  1.00  0.00     0.031 A 
ATOM     17  C   UNL A   1      38.195  31.341  31.035  1.00  0.00     0.074 A 
ATOM     18  C   UNL A   1      37.966  32.926  32.943  1.00  0.00     0.049 A 
ATOM     19  N   UNL A   1      39.247  30.645  31.360  1.00  0.00    -0.248 NA
ATOM     20  C   UNL A   1      37.685  31.062  29.677  1.00  0.00     0.031 C 
ATOM     21  C   UNL A   1      37.419  34.092  33.641  1.00  0.00     0.029 A 
ATOM     22  N   UNL A   1      39.068  32.583  33.676  1.00  0.00    -0.354 N 
ATOM     23  C   UNL A   1      39.514  29.841  30.260  1.00  0.00     0.074 A 
ATOM     24  C   UNL A   1      38.523  30.132  29.252  1.00  0.00     0.031 C 
ATOM     25  C   UNL A   1      38.193  34.367  34.704  1.00  0.00     0.029 A 
ATOM     26  C   UNL A   1      39.244  33.360  34.793  1.00  0.00     0.049 A 
ATOM     27  H   UNL A   1      39.675  31.849  33.426  1.00  0.00     0.167 HD
ATOM     28  C   UNL A   1      40.503  28.931  30.119  1.00  0.00     0.037 A 
ATOM     29  C   UNL A   1      40.139  33.225  35.789  1.00  0.00     0.037 A 
ATOM     30  C   UNL A   1      41.457  28.657  31.155  1.00  0.00     0.049 A 
ATOM     31  C   UNL A   1      41.133  32.096  35.678  1.00  0.00     0.074 A 
ATOM     32  C   UNL A   1      42.433  27.683  31.204  1.00  0.00     0.029 A 
ATOM     33  N   UNL A   1      41.540  29.379  32.340  1.00  0.00    -0.354 N 
ATOM     34  N   UNL A   1      41.324  31.256  34.686  1.00  0.00    -0.248 NA
ATOM     35  C   UNL A   1      42.022  31.881  36.825  1.00  0.00     0.031 C 
ATOM     36  C   UNL A   1      43.078  27.787  32.443  1.00  0.00     0.029 A 
ATOM     37  C   UNL A   1      42.542  28.861  33.139  1.00  0.00     0.049 A 
ATOM     38  H   UNL A   1      40.969  30.145  32.577  1.00  0.00     0.167 HD
ATOM     39  C   UNL A   1      42.363  30.425  35.080  1.00  0.00     0.074 A 
ATOM     40  C   UNL A   1      42.780  30.885  36.391  1.00  0.00     0.031 C 
ATOM     41  C   UNL A   1      42.920  29.370  34.433  1.00  0.00     0.037 A 
BRANCH  28  42
ATOM     42  C   UNL A   1      40.520  28.128  28.853  1.00  0.00     0.064 A 
ATOM     43  C   UNL A   1      39.811  26.925  28.724  1.00  0.00     0.173 A 
ATOM     44  C   UNL A   1      41.298  28.551  27.765  1.00  0.00     0.173 A 
ATOM     45  F   UNL A   1      39.084  26.455  29.750  1.00  0.00    -0.203 F 
ATOM     46  C   UNL A   1      39.898  26.163  27.559  1.00  0.00     0.198 A 
ATOM     47  C   UNL A   1      41.363  27.800  26.593  1.00  0.00     0.198 A 
ATOM     48  F   UNL A   1      42.011  29.685  27.844  1.00  0.00    -0.203 F 
ATOM     49  F   UNL A   1      39.258  24.989  27.478  1.00  0.00    -0.200 F 
ATOM     50  C   UNL A   1      40.669  26.605  26.494  1.00  0.00     0.200 A 
ATOM     51  F   UNL A   1      42.112  28.228  25.568  1.00  0.00    -0.200 F 
ATOM     52  F   UNL A   1      40.758  25.869  25.378  1.00  0.00    -0.200 F 
ENDBRANCH  28  42
BRANCH  29  53
ATOM     53  C   UNL A   1      40.083  34.099  36.994  1.00  0.00     0.064 A 
ATOM     54  C   UNL A   1      39.226  33.820  38.068  1.00  0.00     0.173 A 
ATOM     55  C   UNL A   1      40.849  35.275  37.068  1.00  0.00     0.173 A 
ATOM     56  F   UNL A   1      38.456  32.723  38.043  1.00  0.00    -0.203 F 
ATOM     57  C   UNL A   1      39.112  34.698  39.147  1.00  0.00     0.198 A 
ATOM     58  C   UNL A   1      40.761  36.132  38.163  1.00  0.00     0.198 A 
ATOM     59  F   UNL A   1      41.680  35.601  36.068  1.00  0.00    -0.203 F 
ATOM     60  F   UNL A   1      38.233  34.440  40.126  1.00  0.00    -0.200 F 
ATOM     61  C   UNL A   1      39.881  35.851  39.195  1.00  0.00     0.200 A 
ATOM     62  F   UNL A   1      41.516  37.238  38.208  1.00  0.00    -0.200 F 
ATOM     63  F   UNL A   1      39.762  36.698  40.227  1.00  0.00    -0.200 F 
ENDBRANCH  29  53
BRANCH  41  64
ATOM     64  C   UNL A   1      44.053  28.679  35.129  1.00  0.00     0.064 A 
ATOM     65  C   UNL A   1      45.387  29.041  34.895  1.00  0.00     0.173 A 
ATOM     66  C   UNL A   1      43.794  27.673  36.070  1.00  0.00     0.173 A 
ATOM     67  F   UNL A   1      45.682  29.989  33.992  1.00  0.00    -0.203 F 
ATOM     68  C   UNL A   1      46.426  28.395  35.557  1.00  0.00     0.198 A 
ATOM     69  C   UNL A   1      44.833  27.055  36.756  1.00  0.00     0.198 A 
ATOM     70  F   UNL A   1      42.532  27.301  36.333  1.00  0.00    -0.203 F 
ATOM     71  F   UNL A   1      47.696  28.716  35.278  1.00  0.00    -0.200 F 
ATOM     72  C   UNL A   1      46.147  27.410  36.493  1.00  0.00     0.200 A 
ATOM     73  F   UNL A   1      44.561  26.115  37.673  1.00  0.00    -0.200 F 
ATOM     74  F   UNL A   1      47.149  26.795  37.136  1.00  0.00    -0.200 F 
ENDBRANCH  41  64
ENDBRANCH  15  16
ENDBRANCH   8  10
ENDBRANCH   7   8
ENDBRANCH   6   7
ENDBRANCH   5   6
ENDBRANCH   4   5
ENDBRANCH   3   4
ENDBRANCH   2   3
ENDBRANCH   1   2
BRANCH   1  75
ATOM     75  C   UNL A   1      32.868  27.335  23.755  1.00  0.00     0.188 C 
BRANCH  75  76
ATOM     76  C   UNL A   1      33.280  27.487  22.273  1.00  0.00     0.188 C 
BRANCH  76  77
ATOM     77  O   UNL A   1      33.663  26.261  21.676  1.00  0.00    -0.376 OA
BRANCH  77  78
ATOM     78  C   UNL A   1      32.847  25.118  21.919  1.00  0.00     0.202 C 
BRANCH  78  79
ATOM     79  C   UNL A   1      33.327  23.704  21.532  1.00  0.00     0.261 C 
BRANCH  79  80
ATOM     80  O   UNL A   1      33.650  22.912  22.694  1.00  0.00    -0.463 OA
BRANCH  80  81
ATOM     81  C   UNL A   1      32.775  22.088  23.282  1.00  0.00     0.310 C 
ATOM     82  O   UNL A   1      32.195  21.171  22.705  1.00  0.00    -0.252 OA
BRANCH  81  83
ATOM     83  C   UNL A   1      32.577  22.404  24.774  1.00  0.00     0.119 C 
ATOM     84  C   UNL A   1      33.153  21.385  25.822  1.00  0.00     0.101 C 
ATOM     85  C   UNL A   1      32.829  23.877  25.281  1.00  0.00     0.026 C 
ATOM     86  C   UNL A   1      33.350  22.156  27.158  1.00  0.00     0.025 C 
ATOM     87  C   UNL A   1      34.164  24.068  25.999  1.00  0.00    -0.027 C 
ATOM     88  C   UNL A   1      31.829  24.094  26.441  1.00  0.00     0.009 C 
ATOM     89  C   UNL A   1      34.431  23.184  26.967  1.00  0.00    -0.027 C 
ATOM     90  C   UNL A   1      32.050  22.966  27.486  1.00  0.00     0.009 C 
BRANCH  84  91
ATOM     91  C   UNL A   1      34.282  20.498  25.250  1.00  0.00     0.238 C 
ATOM     92  O   UNL A   1      35.434  20.946  25.162  1.00  0.00    -0.273 OA
ATOM     93  N   UNL A   1      34.135  19.251  24.713  1.00  0.00    -0.288 N 
ATOM     94  H   UNL A   1      34.957  18.835  24.367  1.00  0.00     0.185 HD
BRANCH  93  95
ATOM     95  N   UNL A   1      32.972  18.490  24.591  1.00  0.00    -0.217 NA
ATOM     96  C   UNL A   1      32.840  17.514  25.705  1.00  0.00     0.136 C 
ATOM     97  C   UNL A   1      32.934  17.754  23.306  1.00  0.00     0.136 C 
ATOM     98  C   UNL A   1      33.755  16.281  25.578  1.00  0.00     0.177 C 
ATOM     99  C   UNL A   1      33.879  16.554  23.250  1.00  0.00     0.177 C 
ATOM    100  O   UNL A   1      33.597  15.637  24.310  1.00  0.00    -0.379 OA
ENDBRANCH  93  95
ENDBRANCH  84  91
ENDBRANCH  81  83
ENDBRANCH  80  81
ENDBRANCH  79  80
ENDBRANCH  78  79
ENDBRANCH  77  78
ENDBRANCH  76  77
ENDBRANCH  75  76
ENDBRANCH   1  75
TORSDOF 22
ENDMDL
MODEL 3
REMARK VINA RESULT:     -10.6      5.898     11.250
REMARK SMILES O=C(OCCOCCOCCOCCOC(=O)[C@H]1[C@@H](C(=O)NN2CCOCC2)[C@H]2C=C[C@@H]1CC2)c1ccc(-c2c3nc(c(-c4c(F)c(F)c(F)c(F)c4F)c4ccc([nH]4)c(-c4c(F)c(F)c(F)c(F)c4F)c4nc(c(-c5c(F)c(F)c(F)c(F)c5F)c5ccc2[nH]5)C=C4)C=C3)cc1
REMARK SMILES IDX 9 1 8 2 7 3 6 4 5 5 4 6 3 7 2 8 1 9 35 10 36 11 97 12 37 13
REMARK SMILES IDX 96 14 38 15 39 16 40 17 90 18 41 19 95 20 89 21 91 22 42 23
REMARK SMILES IDX 94 24 88 25 87 26 43 28 75 29 55 30 74 31 56 32 59 33 73 34
REMARK SMILES IDX 92 35 57 36 58 37 72 39 93 40 60 41 44 42 45 43 53 44 46 45
REMARK SMILES IDX 47 46 51 47 54 48 48 49 49 50 52 51 50 52 76 53 77 54 85 55
REMARK SMILES IDX 78 56 79 57 83 58 86 59 80 60 81 61 84 62 82 63 61 64 62 65
REMARK SMILES IDX 70 66 63 67 64 68 68 69 71 70 65 71 66 72 69 73 67 74 10 75
REMARK SMILES IDX 11 76 12 77 13 78 14 79 15 80 16 81 17 82 18 83 19 84 32 85
REMARK SMILES IDX 29 86 31 87 33 88 30 89 34 90 20 91 21 92 22 93 23 95 24 96
REMARK SMILES IDX 28 97 25 98 27 99 26 100
REMARK H PARENT 91 27 59 38 22 94
REMARK Flexibility Score: inf
ROOT
ATOM      1  O   UNL A   1      41.452  21.186  25.982  1.00  0.00    -0.377 OA
ENDROOT
BRANCH   1   2
ATOM      2  C   UNL A   1      41.491  19.773  26.128  1.00  0.00     0.188 C 
BRANCH   2   3
ATOM      3  C   UNL A   1      42.100  19.296  27.448  1.00  0.00     0.188 C 
BRANCH   3   4
ATOM      4  O   UNL A   1      43.038  18.232  27.227  1.00  0.00    -0.376 OA
BRANCH   4   5
ATOM      5  C   UNL A   1      43.504  18.077  25.885  1.00  0.00     0.202 C 
BRANCH   5   6
ATOM      6  C   UNL A   1      45.023  18.129  25.720  1.00  0.00     0.261 C 
BRANCH   6   7
ATOM      7  O   UNL A   1      45.444  18.786  24.519  1.00  0.00    -0.460 OA
BRANCH   7   8
ATOM      8  C   UNL A   1      44.922  19.887  23.924  1.00  0.00     0.338 C 
ATOM      9  O   UNL A   1      44.570  19.784  22.749  1.00  0.00    -0.246 OA
BRANCH   8  10
ATOM     10  C   UNL A   1      44.791  21.241  24.569  1.00  0.00     0.060 A 
ATOM     11  C   UNL A   1      44.358  22.410  23.943  1.00  0.00     0.016 A 
ATOM     12  C   UNL A   1      45.111  21.324  25.940  1.00  0.00     0.016 A 
ATOM     13  C   UNL A   1      44.243  23.610  24.623  1.00  0.00     0.010 A 
ATOM     14  C   UNL A   1      45.041  22.537  26.632  1.00  0.00     0.010 A 
ATOM     15  C   UNL A   1      44.629  23.686  25.955  1.00  0.00    -0.014 A 
BRANCH  15  16
ATOM     16  C   UNL A   1      44.841  25.045  26.471  1.00  0.00     0.031 A 
ATOM     17  C   UNL A   1      46.192  25.651  26.235  1.00  0.00     0.074 A 
ATOM     18  C   UNL A   1      43.789  25.773  26.880  1.00  0.00     0.049 A 
ATOM     19  N   UNL A   1      46.634  26.841  26.533  1.00  0.00    -0.248 NA
ATOM     20  C   UNL A   1      47.170  24.809  25.518  1.00  0.00     0.031 C 
ATOM     21  C   UNL A   1      42.405  25.296  26.937  1.00  0.00     0.029 A 
ATOM     22  N   UNL A   1      43.711  27.079  27.277  1.00  0.00    -0.354 N 
ATOM     23  C   UNL A   1      47.937  26.882  26.056  1.00  0.00     0.074 A 
ATOM     24  C   UNL A   1      48.221  25.608  25.443  1.00  0.00     0.031 C 
ATOM     25  C   UNL A   1      41.614  26.303  27.346  1.00  0.00     0.029 A 
ATOM     26  C   UNL A   1      42.445  27.465  27.638  1.00  0.00     0.049 A 
ATOM     27  H   UNL A   1      44.488  27.683  27.301  1.00  0.00     0.167 HD
ATOM     28  C   UNL A   1      48.817  27.904  26.139  1.00  0.00     0.037 A 
ATOM     29  C   UNL A   1      42.034  28.623  28.187  1.00  0.00     0.037 A 
ATOM     30  C   UNL A   1      48.500  29.150  26.777  1.00  0.00     0.049 A 
ATOM     31  C   UNL A   1      43.076  29.689  28.414  1.00  0.00     0.074 A 
ATOM     32  C   UNL A   1      49.323  30.225  27.044  1.00  0.00     0.029 A 
ATOM     33  N   UNL A   1      47.235  29.475  27.252  1.00  0.00    -0.354 N 
ATOM     34  N   UNL A   1      44.343  29.697  28.064  1.00  0.00    -0.248 NA
ATOM     35  C   UNL A   1      42.644  30.898  29.124  1.00  0.00     0.031 C 
ATOM     36  C   UNL A   1      48.563  31.185  27.725  1.00  0.00     0.029 A 
ATOM     37  C   UNL A   1      47.256  30.731  27.829  1.00  0.00     0.049 A 
ATOM     38  H   UNL A   1      46.441  28.897  27.188  1.00  0.00     0.167 HD
ATOM     39  C   UNL A   1      44.854  30.912  28.495  1.00  0.00     0.074 A 
ATOM     40  C   UNL A   1      43.749  31.628  29.105  1.00  0.00     0.031 C 
ATOM     41  C   UNL A   1      46.119  31.398  28.412  1.00  0.00     0.037 A 
BRANCH  28  42
ATOM     42  C   UNL A   1      50.200  27.661  25.616  1.00  0.00     0.064 A 
ATOM     43  C   UNL A   1      51.286  27.406  26.467  1.00  0.00     0.173 A 
ATOM     44  C   UNL A   1      50.451  27.730  24.237  1.00  0.00     0.173 A 
ATOM     45  F   UNL A   1      51.108  27.371  27.797  1.00  0.00    -0.203 F 
ATOM     46  C   UNL A   1      52.574  27.250  25.958  1.00  0.00     0.198 A 
ATOM     47  C   UNL A   1      51.735  27.550  23.730  1.00  0.00     0.198 A 
ATOM     48  F   UNL A   1      49.451  27.991  23.381  1.00  0.00    -0.203 F 
ATOM     49  F   UNL A   1      53.606  27.064  26.793  1.00  0.00    -0.200 F 
ATOM     50  C   UNL A   1      52.796  27.317  24.591  1.00  0.00     0.200 A 
ATOM     51  F   UNL A   1      51.946  27.618  22.408  1.00  0.00    -0.200 F 
ATOM     52  F   UNL A   1      54.036  27.174  24.103  1.00  0.00    -0.200 F 
ENDBRANCH  28  42
BRANCH  29  53
ATOM     53  C   UNL A   1      40.625  28.801  28.637  1.00  0.00     0.064 A 
ATOM     54  C   UNL A   1      40.226  28.501  29.946  1.00  0.00     0.173 A 
ATOM     55  C   UNL A   1      39.630  29.222  27.739  1.00  0.00     0.173 A 
ATOM     56  F   UNL A   1      41.129  28.074  30.841  1.00  0.00    -0.203 F 
ATOM     57  C   UNL A   1      38.885  28.579  30.329  1.00  0.00     0.198 A 
ATOM     58  C   UNL A   1      38.298  29.335  28.132  1.00  0.00     0.198 A 
ATOM     59  F   UNL A   1      39.947  29.516  26.470  1.00  0.00    -0.203 F 
ATOM     60  F   UNL A   1      38.524  28.218  31.568  1.00  0.00    -0.200 F 
ATOM     61  C   UNL A   1      37.924  28.999  29.423  1.00  0.00     0.200 A 
ATOM     62  F   UNL A   1      37.375  29.754  27.255  1.00  0.00    -0.200 F 
ATOM     63  F   UNL A   1      36.636  29.064  29.788  1.00  0.00    -0.200 F 
ENDBRANCH  29  53
BRANCH  41  64
ATOM     64  C   UNL A   1      46.348  32.772  28.964  1.00  0.00     0.064 A 
ATOM     65  C   UNL A   1      46.750  32.971  30.292  1.00  0.00     0.173 A 
ATOM     66  C   UNL A   1      46.201  33.896  28.140  1.00  0.00     0.173 A 
ATOM     67  F   UNL A   1      46.889  31.924  31.121  1.00  0.00    -0.203 F 
ATOM     68  C   UNL A   1      46.967  34.253  30.785  1.00  0.00     0.198 A 
ATOM     69  C   UNL A   1      46.454  35.173  28.625  1.00  0.00     0.198 A 
ATOM     70  F   UNL A   1      45.828  33.751  26.859  1.00  0.00    -0.203 F 
ATOM     71  F   UNL A   1      47.296  34.427  32.072  1.00  0.00    -0.200 F 
ATOM     72  C   UNL A   1      46.827  35.352  29.949  1.00  0.00     0.200 A 
ATOM     73  F   UNL A   1      46.336  36.232  27.812  1.00  0.00    -0.200 F 
ATOM     74  F   UNL A   1      47.045  36.585  30.423  1.00  0.00    -0.200 F 
ENDBRANCH  41  64
ENDBRANCH  15  16
ENDBRANCH   8  10
ENDBRANCH   7   8
ENDBRANCH   6   7
ENDBRANCH   5   6
ENDBRANCH   4   5
ENDBRANCH   3   4
ENDBRANCH   2   3
ENDBRANCH   1   2
BRANCH   1  75
ATOM     75  C   UNL A   1      40.174  21.773  26.160  1.00  0.00     0.188 C 
BRANCH  75  76
ATOM     76  C   UNL A   1      39.989  22.767  27.331  1.00  0.00     0.188 C 
BRANCH  76  77
ATOM     77  O   UNL A   1      39.081  23.812  27.033  1.00  0.00    -0.376 OA
BRANCH  77  78
ATOM     78  C   UNL A   1      38.124  23.589  26.002  1.00  0.00     0.202 C 
BRANCH  78  79
ATOM     79  C   UNL A   1      36.682  23.154  26.337  1.00  0.00     0.261 C 
BRANCH  79  80
ATOM     80  O   UNL A   1      35.789  23.358  25.222  1.00  0.00    -0.463 OA
BRANCH  80  81
ATOM     81  C   UNL A   1      35.049  22.377  24.691  1.00  0.00     0.310 C 
ATOM     82  O   UNL A   1      35.504  21.312  24.283  1.00  0.00    -0.252 OA
BRANCH  81  83
ATOM     83  C   UNL A   1      33.551  22.723  24.654  1.00  0.00     0.119 C 
ATOM     84  C   UNL A   1      32.539  21.657  25.213  1.00  0.00     0.101 C 
ATOM     85  C   UNL A   1      33.089  24.166  25.096  1.00  0.00     0.026 C 
ATOM     86  C   UNL A   1      31.237  22.414  25.600  1.00  0.00     0.025 C 
ATOM     87  C   UNL A   1      32.490  24.225  26.500  1.00  0.00    -0.027 C 
ATOM     88  C   UNL A   1      31.852  24.492  24.226  1.00  0.00     0.009 C 
ATOM     89  C   UNL A   1      31.534  23.325  26.759  1.00  0.00    -0.027 C 
ATOM     90  C   UNL A   1      30.813  23.354  24.421  1.00  0.00     0.009 C 
BRANCH  84  91
ATOM     91  C   UNL A   1      33.191  20.657  26.194  1.00  0.00     0.238 C 
ATOM     92  O   UNL A   1      33.897  21.074  27.123  1.00  0.00    -0.273 OA
ATOM     93  N   UNL A   1      33.160  19.295  26.096  1.00  0.00    -0.288 N 
ATOM     94  H   UNL A   1      33.652  18.805  26.794  1.00  0.00     0.185 HD
BRANCH  93  95
ATOM     95  N   UNL A   1      32.520  18.507  25.139  1.00  0.00    -0.217 NA
ATOM     96  C   UNL A   1      32.274  17.129  25.643  1.00  0.00     0.136 C 
ATOM     97  C   UNL A   1      33.308  18.423  23.888  1.00  0.00     0.136 C 
ATOM     98  C   UNL A   1      33.525  16.230  25.663  1.00  0.00     0.177 C 
ATOM     99  C   UNL A   1      34.541  17.525  23.990  1.00  0.00     0.177 C 
ATOM    100  O   UNL A   1      34.173  16.202  24.388  1.00  0.00    -0.379 OA
ENDBRANCH  93  95
ENDBRANCH  84  91
ENDBRANCH  81  83
ENDBRANCH  80  81
ENDBRANCH  79  80
ENDBRANCH  78  79
ENDBRANCH  77  78
ENDBRANCH  76  77
ENDBRANCH  75  76
ENDBRANCH   1  75
TORSDOF 22
ENDMDL
