MODEL 1
REMARK VINA RESULT:     -10.8      0.000      0.000
REMARK SMILES C#Cc1cc(Cl)cc2c1O[C@H](C(F)(F)F)C(C(=O)OCCOCCOCCOCCOC(=O)c1ccc(-c3c4nc(c(-c5c(F)c(F)c(F)c(F)c5F)c5ccc([nH]5)c(-c5c(F)c(F)c(F)c(F)c5F)c5nc(c(-c6c(F)c(F)c(F)c(F)c6F)c6ccc3[nH]6)C=C5)C=C4)cc1)=C2
REMARK SMILES IDX 26 1 25 2 24 3 23 4 22 5 21 6 20 7 19 8 17 9 18 10 16 11
REMARK SMILES IDX 3 12 4 13 9 14 5 15 8 16 10 17 6 18 7 19 97 20 11 21 2 22
REMARK SMILES IDX 1 23 12 24 13 25 14 26 15 27 27 28 28 29 29 30 30 31 31 32
REMARK SMILES IDX 32 33 33 34 34 35 35 36 96 37 36 38 95 39 37 40 38 41 39 42
REMARK SMILES IDX 89 43 40 44 94 45 88 46 90 47 41 48 93 49 87 50 86 51 42 53
REMARK SMILES IDX 74 54 54 55 73 56 55 57 58 58 72 59 91 60 56 61 57 62 71 64
REMARK SMILES IDX 92 65 59 66 43 67 44 68 52 69 45 70 46 71 50 72 53 73 47 74
REMARK SMILES IDX 48 75 51 76 49 77 75 78 76 79 84 80 77 81 78 82 82 83 85 84
REMARK SMILES IDX 79 85 80 86 83 87 81 88 60 89 61 90 69 91 62 92 63 93 67 94
REMARK SMILES IDX 70 95 64 96 65 97 68 98 66 99
REMARK H PARENT 90 52 58 63
REMARK Flexibility Score: inf
ROOT
ATOM      1  C   UNL A   1      33.878  29.191  26.252  1.00  0.00     0.188 C 
ENDROOT
BRANCH   1   2
ATOM      2  O   UNL A   1      33.802  28.476  25.019  1.00  0.00    -0.377 OA
BRANCH   2   3
ATOM      3  C   UNL A   1      33.169  29.086  23.908  1.00  0.00     0.188 C 
BRANCH   3   4
ATOM      4  C   UNL A   1      31.637  29.250  24.013  1.00  0.00     0.188 C 
BRANCH   4   5
ATOM      5  O   UNL A   1      30.875  28.078  23.809  1.00  0.00    -0.376 OA
BRANCH   5   6
ATOM      6  C   UNL A   1      30.573  27.150  24.834  1.00  0.00     0.202 C 
BRANCH   6   7
ATOM      7  C   UNL A   1      31.525  26.084  25.404  1.00  0.00     0.261 C 
BRANCH   7   8
ATOM      8  O   UNL A   1      31.710  24.892  24.649  1.00  0.00    -0.460 OA
BRANCH   8   9
ATOM      9  C   UNL A   1      32.819  24.836  23.888  1.00  0.00     0.338 C 
ATOM     10  O   UNL A   1      33.242  25.705  23.146  1.00  0.00    -0.246 OA
BRANCH   9  11
ATOM     11  C   UNL A   1      33.552  23.602  24.241  1.00  0.00     0.087 C 
ATOM     12  C   UNL A   1      35.784  20.141  24.886  1.00  0.00     0.068 A 
ATOM     13  C   UNL A   1      37.146  20.251  25.182  1.00  0.00     0.041 A 
ATOM     14  C   UNL A   1      34.992  21.294  24.777  1.00  0.00     0.143 A 
ATOM     15  C   UNL A   1      37.709  21.506  25.396  1.00  0.00     0.043 A 
ATOM     16  C   UNL A   1      35.582  22.553  24.936  1.00  0.00     0.020 A 
ATOM     17  O   UNL A   1      33.662  21.127  24.502  1.00  0.00    -0.474 OA
ATOM     18  Cl  UNL A   1      39.386  21.644  25.754  1.00  0.00    -0.084 Cl
ATOM     19  C   UNL A   1      36.933  22.657  25.282  1.00  0.00     0.032 A 
ATOM     20  C   UNL A   1      34.819  23.752  24.641  1.00  0.00     0.027 C 
ATOM     21  C   UNL A   1      32.838  22.278  24.186  1.00  0.00     0.316 C 
BRANCH  12  22
ATOM     22  C   UNL A   1      35.238  18.838  24.625  1.00  0.00    -0.067 C 
ATOM     23  C   UNL A   1      34.820  17.736  24.412  1.00  0.00     0.010 C 
ENDBRANCH  12  22
BRANCH  21  24
ATOM     24  C   UNL A   1      32.183  22.037  22.819  1.00  0.00     0.430 C 
ATOM     25  F   UNL A   1      32.062  20.715  22.554  1.00  0.00    -0.167 F 
ATOM     26  F   UNL A   1      30.936  22.561  22.756  1.00  0.00    -0.167 F 
ATOM     27  F   UNL A   1      32.904  22.590  21.817  1.00  0.00    -0.167 F 
ENDBRANCH  21  24
ENDBRANCH   9  11
ENDBRANCH   8   9
ENDBRANCH   7   8
ENDBRANCH   6   7
ENDBRANCH   5   6
ENDBRANCH   4   5
ENDBRANCH   3   4
ENDBRANCH   2   3
ENDBRANCH   1   2
BRANCH   1  28
ATOM     28  C   UNL A   1      32.701  29.270  27.262  1.00  0.00     0.188 C 
BRANCH  28  29
ATOM     29  O   UNL A   1      31.966  30.474  27.233  1.00  0.00    -0.376 OA
BRANCH  29  30
ATOM     30  C   UNL A   1      32.570  31.691  26.854  1.00  0.00     0.202 C 
BRANCH  30  31
ATOM     31  C   UNL A   1      32.910  32.753  27.910  1.00  0.00     0.261 C 
BRANCH  31  32
ATOM     32  O   UNL A   1      32.513  34.100  27.629  1.00  0.00    -0.460 OA
BRANCH  32  33
ATOM     33  C   UNL A   1      32.907  35.055  28.502  1.00  0.00     0.338 C 
ATOM     34  O   UNL A   1      32.337  36.097  28.761  1.00  0.00    -0.246 OA
BRANCH  33  35
ATOM     35  C   UNL A   1      34.073  34.522  29.239  1.00  0.00     0.060 A 
ATOM     36  C   UNL A   1      35.321  34.465  28.600  1.00  0.00     0.016 A 
ATOM     37  C   UNL A   1      33.937  34.103  30.564  1.00  0.00     0.016 A 
ATOM     38  C   UNL A   1      36.432  33.965  29.279  1.00  0.00     0.010 A 
ATOM     39  C   UNL A   1      35.044  33.570  31.231  1.00  0.00     0.010 A 
ATOM     40  C   UNL A   1      36.287  33.469  30.581  1.00  0.00    -0.014 A 
BRANCH  40  41
ATOM     41  C   UNL A   1      37.370  32.649  31.174  1.00  0.00     0.031 A 
ATOM     42  C   UNL A   1      37.843  33.000  32.558  1.00  0.00     0.074 A 
ATOM     43  C   UNL A   1      37.896  31.596  30.524  1.00  0.00     0.049 A 
ATOM     44  N   UNL A   1      38.808  32.474  33.266  1.00  0.00    -0.248 NA
ATOM     45  C   UNL A   1      37.125  34.093  33.237  1.00  0.00     0.031 C 
ATOM     46  C   UNL A   1      37.477  31.120  29.208  1.00  0.00     0.029 A 
ATOM     47  N   UNL A   1      38.904  30.737  30.889  1.00  0.00    -0.354 N 
ATOM     48  C   UNL A   1      38.814  33.170  34.467  1.00  0.00     0.074 A 
ATOM     49  C   UNL A   1      37.785  34.183  34.383  1.00  0.00     0.031 C 
ATOM     50  C   UNL A   1      38.226  30.055  28.872  1.00  0.00     0.029 A 
ATOM     51  C   UNL A   1      39.203  29.799  29.930  1.00  0.00     0.049 A 
ATOM     52  H   UNL A   1      39.368  30.789  31.756  1.00  0.00     0.167 HD
ATOM     53  C   UNL A   1      39.595  32.969  35.552  1.00  0.00     0.037 A 
ATOM     54  C   UNL A   1      40.171  28.860  29.906  1.00  0.00     0.037 A 
ATOM     55  C   UNL A   1      40.614  31.957  35.636  1.00  0.00     0.049 A 
ATOM     56  C   UNL A   1      41.102  28.730  31.089  1.00  0.00     0.074 A 
ATOM     57  C   UNL A   1      41.461  31.677  36.692  1.00  0.00     0.029 A 
ATOM     58  N   UNL A   1      40.924  31.063  34.623  1.00  0.00    -0.354 N 
ATOM     59  N   UNL A   1      41.094  29.382  32.227  1.00  0.00    -0.248 NA
ATOM     60  C   UNL A   1      42.176  27.731  30.983  1.00  0.00     0.031 C 
ATOM     61  C   UNL A   1      42.325  30.655  36.298  1.00  0.00     0.029 A 
ATOM     62  C   UNL A   1      41.971  30.248  35.022  1.00  0.00     0.049 A 
ATOM     63  H   UNL A   1      40.469  31.013  33.752  1.00  0.00     0.167 HD
ATOM     64  C   UNL A   1      42.134  28.851  32.980  1.00  0.00     0.074 A 
ATOM     65  C   UNL A   1      42.741  27.810  32.181  1.00  0.00     0.031 C 
ATOM     66  C   UNL A   1      42.553  29.199  34.223  1.00  0.00     0.037 A 
BRANCH  53  67
ATOM     67  C   UNL A   1      39.391  33.855  36.745  1.00  0.00     0.064 A 
ATOM     68  C   UNL A   1      38.622  33.441  37.842  1.00  0.00     0.173 A 
ATOM     69  C   UNL A   1      40.053  35.090  36.834  1.00  0.00     0.173 A 
ATOM     70  F   UNL A   1      37.957  32.277  37.800  1.00  0.00    -0.203 F 
ATOM     71  C   UNL A   1      38.522  34.231  38.985  1.00  0.00     0.198 A 
ATOM     72  C   UNL A   1      39.976  35.862  37.990  1.00  0.00     0.198 A 
ATOM     73  F   UNL A   1      40.801  35.531  35.813  1.00  0.00    -0.203 F 
ATOM     74  F   UNL A   1      37.762  33.827  40.012  1.00  0.00    -0.200 F 
ATOM     75  C   UNL A   1      39.211  35.432  39.063  1.00  0.00     0.200 A 
ATOM     76  F   UNL A   1      40.657  37.013  38.070  1.00  0.00    -0.200 F 
ATOM     77  F   UNL A   1      39.139  36.175  40.175  1.00  0.00    -0.200 F 
ENDBRANCH  53  67
BRANCH  54  78
ATOM     78  C   UNL A   1      40.317  27.964  28.727  1.00  0.00     0.064 A 
ATOM     79  C   UNL A   1      41.093  28.346  27.623  1.00  0.00     0.173 A 
ATOM     80  C   UNL A   1      39.666  26.723  28.663  1.00  0.00     0.173 A 
ATOM     81  F   UNL A   1      41.714  29.536  27.620  1.00  0.00    -0.203 F 
ATOM     82  C   UNL A   1      41.197  27.532  26.496  1.00  0.00     0.198 A 
ATOM     83  C   UNL A   1      39.799  25.893  27.550  1.00  0.00     0.198 A 
ATOM     84  F   UNL A   1      38.904  26.310  29.686  1.00  0.00    -0.203 F 
ATOM     85  F   UNL A   1      41.901  27.949  25.434  1.00  0.00    -0.200 F 
ATOM     86  C   UNL A   1      40.557  26.303  26.464  1.00  0.00     0.200 A 
ATOM     87  F   UNL A   1      39.189  24.701  27.529  1.00  0.00    -0.200 F 
ATOM     88  F   UNL A   1      40.661  25.518  25.382  1.00  0.00    -0.200 F 
ENDBRANCH  54  78
BRANCH  66  89
ATOM     89  C   UNL A   1      43.699  28.434  34.823  1.00  0.00     0.064 A 
ATOM     90  C   UNL A   1      43.488  27.304  35.627  1.00  0.00     0.173 A 
ATOM     91  C   UNL A   1      45.025  28.779  34.512  1.00  0.00     0.173 A 
ATOM     92  F   UNL A   1      42.243  26.934  35.960  1.00  0.00    -0.203 F 
ATOM     93  C   UNL A   1      44.561  26.560  36.112  1.00  0.00     0.198 A 
ATOM     94  C   UNL A   1      46.093  28.011  34.968  1.00  0.00     0.198 A 
ATOM     95  F   UNL A   1      45.283  29.842  33.737  1.00  0.00    -0.203 F 
ATOM     96  F   UNL A   1      44.337  25.507  36.910  1.00  0.00    -0.200 F 
ATOM     97  C   UNL A   1      45.861  26.906  35.771  1.00  0.00     0.200 A 
ATOM     98  F   UNL A   1      47.346  28.333  34.617  1.00  0.00    -0.200 F 
ATOM     99  F   UNL A   1      46.890  26.173  36.219  1.00  0.00    -0.200 F 
ENDBRANCH  66  89
ENDBRANCH  40  41
ENDBRANCH  33  35
ENDBRANCH  32  33
ENDBRANCH  31  32
ENDBRANCH  30  31
ENDBRANCH  29  30
ENDBRANCH  28  29
ENDBRANCH   1  28
TORSDOF 22
ENDMDL
MODEL 2
REMARK VINA RESULT:     -10.6      1.574      7.359
REMARK SMILES C#Cc1cc(Cl)cc2c1O[C@H](C(F)(F)F)C(C(=O)OCCOCCOCCOCCOC(=O)c1ccc(-c3c4nc(c(-c5c(F)c(F)c(F)c(F)c5F)c5ccc([nH]5)c(-c5c(F)c(F)c(F)c(F)c5F)c5nc(c(-c6c(F)c(F)c(F)c(F)c6F)c6ccc3[nH]6)C=C5)C=C4)cc1)=C2
REMARK SMILES IDX 26 1 25 2 24 3 23 4 22 5 21 6 20 7 19 8 17 9 18 10 16 11
REMARK SMILES IDX 3 12 4 13 9 14 5 15 8 16 10 17 6 18 7 19 97 20 11 21 2 22
REMARK SMILES IDX 1 23 12 24 13 25 14 26 15 27 27 28 28 29 29 30 30 31 31 32
REMARK SMILES IDX 32 33 33 34 34 35 35 36 96 37 36 38 95 39 37 40 38 41 39 42
REMARK SMILES IDX 89 43 40 44 94 45 88 46 90 47 41 48 93 49 87 50 86 51 42 53
REMARK SMILES IDX 74 54 54 55 73 56 55 57 58 58 72 59 91 60 56 61 57 62 71 64
REMARK SMILES IDX 92 65 59 66 43 67 44 68 52 69 45 70 46 71 50 72 53 73 47 74
REMARK SMILES IDX 48 75 51 76 49 77 75 78 76 79 84 80 77 81 78 82 82 83 85 84
REMARK SMILES IDX 79 85 80 86 83 87 81 88 60 89 61 90 69 91 62 92 63 93 67 94
REMARK SMILES IDX 70 95 64 96 65 97 68 98 66 99
REMARK H PARENT 90 52 58 63
REMARK Flexibility Score: inf
ROOT
ATOM      1  C   UNL A   1      33.054  28.206  26.519  1.00  0.00     0.188 C 
ENDROOT
BRANCH   1   2
ATOM      2  O   UNL A   1      33.054  27.791  25.153  1.00  0.00    -0.377 OA
BRANCH   2   3
ATOM      3  C   UNL A   1      33.007  28.774  24.134  1.00  0.00     0.188 C 
BRANCH   3   4
ATOM      4  C   UNL A   1      32.217  28.388  22.865  1.00  0.00     0.188 C 
BRANCH   4   5
ATOM      5  O   UNL A   1      32.464  27.094  22.353  1.00  0.00    -0.376 OA
BRANCH   5   6
ATOM      6  C   UNL A   1      31.458  26.115  22.177  1.00  0.00     0.202 C 
BRANCH   6   7
ATOM      7  C   UNL A   1      31.057  25.031  23.191  1.00  0.00     0.261 C 
BRANCH   7   8
ATOM      8  O   UNL A   1      32.002  24.687  24.198  1.00  0.00    -0.460 OA
BRANCH   8   9
ATOM      9  C   UNL A   1      31.659  23.672  25.014  1.00  0.00     0.338 C 
ATOM     10  O   UNL A   1      30.645  23.581  25.682  1.00  0.00    -0.246 OA
BRANCH   9  11
ATOM     11  C   UNL A   1      32.643  22.585  24.826  1.00  0.00     0.087 C 
ATOM     12  C   UNL A   1      35.365  19.431  24.671  1.00  0.00     0.068 A 
ATOM     13  C   UNL A   1      34.888  18.117  24.629  1.00  0.00     0.041 A 
ATOM     14  C   UNL A   1      34.467  20.508  24.609  1.00  0.00     0.143 A 
ATOM     15  C   UNL A   1      33.522  17.881  24.499  1.00  0.00     0.043 A 
ATOM     16  C   UNL A   1      33.093  20.257  24.539  1.00  0.00     0.020 A 
ATOM     17  O   UNL A   1      34.990  21.772  24.638  1.00  0.00    -0.474 OA
ATOM     18  Cl  UNL A   1      32.933  16.265  24.455  1.00  0.00    -0.084 Cl
ATOM     19  C   UNL A   1      32.623  18.943  24.446  1.00  0.00     0.032 A 
ATOM     20  C   UNL A   1      32.150  21.352  24.665  1.00  0.00     0.027 C 
ATOM     21  C   UNL A   1      34.110  22.917  24.773  1.00  0.00     0.316 C 
BRANCH  12  22
ATOM     22  C   UNL A   1      36.774  19.648  24.851  1.00  0.00    -0.067 C 
ATOM     23  C   UNL A   1      37.953  19.789  24.999  1.00  0.00     0.010 C 
ENDBRANCH  12  22
BRANCH  21  24
ATOM     24  C   UNL A   1      34.560  23.723  26.000  1.00  0.00     0.430 C 
ATOM     25  F   UNL A   1      35.659  23.181  26.574  1.00  0.00    -0.167 F 
ATOM     26  F   UNL A   1      34.879  24.998  25.678  1.00  0.00    -0.167 F 
ATOM     27  F   UNL A   1      33.591  23.776  26.942  1.00  0.00    -0.167 F 
ENDBRANCH  21  24
ENDBRANCH   9  11
ENDBRANCH   8   9
ENDBRANCH   7   8
ENDBRANCH   6   7
ENDBRANCH   5   6
ENDBRANCH   4   5
ENDBRANCH   3   4
ENDBRANCH   2   3
ENDBRANCH   1   2
BRANCH   1  28
ATOM     28  C   UNL A   1      31.860  28.941  27.183  1.00  0.00     0.188 C 
BRANCH  28  29
ATOM     29  O   UNL A   1      31.981  30.346  27.248  1.00  0.00    -0.376 OA
BRANCH  29  30
ATOM     30  C   UNL A   1      33.222  30.983  27.037  1.00  0.00     0.202 C 
BRANCH  30  31
ATOM     31  C   UNL A   1      33.645  32.173  27.910  1.00  0.00     0.261 C 
BRANCH  31  32
ATOM     32  O   UNL A   1      32.990  33.423  27.670  1.00  0.00    -0.460 OA
BRANCH  32  33
ATOM     33  C   UNL A   1      33.220  34.421  28.553  1.00  0.00     0.338 C 
ATOM     34  O   UNL A   1      32.528  35.401  28.754  1.00  0.00    -0.246 OA
BRANCH  33  35
ATOM     35  C   UNL A   1      34.378  34.018  29.380  1.00  0.00     0.060 A 
ATOM     36  C   UNL A   1      35.676  34.234  28.894  1.00  0.00     0.016 A 
ATOM     37  C   UNL A   1      34.180  33.450  30.640  1.00  0.00     0.016 A 
ATOM     38  C   UNL A   1      36.780  33.861  29.659  1.00  0.00     0.010 A 
ATOM     39  C   UNL A   1      35.287  33.045  31.390  1.00  0.00     0.010 A 
ATOM     40  C   UNL A   1      36.589  33.219  30.889  1.00  0.00    -0.014 A 
BRANCH  40  41
ATOM     41  C   UNL A   1      37.733  32.535  31.540  1.00  0.00     0.031 A 
ATOM     42  C   UNL A   1      38.391  31.403  30.801  1.00  0.00     0.074 A 
ATOM     43  C   UNL A   1      38.205  32.931  32.735  1.00  0.00     0.049 A 
ATOM     44  N   UNL A   1      39.364  30.616  31.179  1.00  0.00    -0.248 NA
ATOM     45  C   UNL A   1      37.881  31.121  29.448  1.00  0.00     0.031 C 
ATOM     46  C   UNL A   1      37.694  34.054  33.517  1.00  0.00     0.029 A 
ATOM     47  N   UNL A   1      39.225  32.423  33.502  1.00  0.00    -0.354 N 
ATOM     48  C   UNL A   1      39.581  29.750  30.116  1.00  0.00     0.074 A 
ATOM     49  C   UNL A   1      38.615  30.077  29.091  1.00  0.00     0.031 C 
ATOM     50  C   UNL A   1      38.401  34.148  34.657  1.00  0.00     0.029 A 
ATOM     51  C   UNL A   1      39.387  33.069  34.704  1.00  0.00     0.049 A 
ATOM     52  H   UNL A   1      39.788  31.667  33.216  1.00  0.00     0.167 HD
ATOM     53  C   UNL A   1      40.517  28.781  29.998  1.00  0.00     0.037 A 
ATOM     54  C   UNL A   1      40.221  32.801  35.729  1.00  0.00     0.037 A 
ATOM     55  C   UNL A   1      41.480  28.462  31.017  1.00  0.00     0.049 A 
ATOM     56  C   UNL A   1      41.182  31.641  35.614  1.00  0.00     0.074 A 
ATOM     57  C   UNL A   1      42.467  27.494  30.992  1.00  0.00     0.029 A 
ATOM     58  N   UNL A   1      41.575  29.103  32.243  1.00  0.00    -0.354 N 
ATOM     59  N   UNL A   1      41.392  30.835  34.602  1.00  0.00    -0.248 NA
ATOM     60  C   UNL A   1      42.025  31.357  36.786  1.00  0.00     0.031 C 
ATOM     61  C   UNL A   1      43.120  27.506  32.226  1.00  0.00     0.029 A 
ATOM     62  C   UNL A   1      42.588  28.530  32.994  1.00  0.00     0.049 A 
ATOM     63  H   UNL A   1      41.009  29.853  32.536  1.00  0.00     0.167 HD
ATOM     64  C   UNL A   1      42.407  29.974  35.000  1.00  0.00     0.074 A 
ATOM     65  C   UNL A   1      42.787  30.367  36.339  1.00  0.00     0.031 C 
ATOM     66  C   UNL A   1      42.971  28.945  34.319  1.00  0.00     0.037 A 
BRANCH  53  67
ATOM     67  C   UNL A   1      40.554  27.986  28.727  1.00  0.00     0.064 A 
ATOM     68  C   UNL A   1      41.414  28.329  27.674  1.00  0.00     0.173 A 
ATOM     69  C   UNL A   1      39.795  26.812  28.601  1.00  0.00     0.173 A 
ATOM     70  F   UNL A   1      42.149  29.449  27.739  1.00  0.00    -0.203 F 
ATOM     71  C   UNL A   1      41.513  27.526  26.540  1.00  0.00     0.198 A 
ATOM     72  C   UNL A   1      39.919  25.996  27.480  1.00  0.00     0.198 A 
ATOM     73  F   UNL A   1      38.958  26.440  29.580  1.00  0.00    -0.203 F 
ATOM     74  F   UNL A   1      42.323  27.885  25.535  1.00  0.00    -0.200 F 
ATOM     75  C   UNL A   1      40.777  26.353  26.452  1.00  0.00     0.200 A 
ATOM     76  F   UNL A   1      39.222  24.854  27.405  1.00  0.00    -0.200 F 
ATOM     77  F   UNL A   1      40.897  25.565  25.375  1.00  0.00    -0.200 F 
ENDBRANCH  53  67
BRANCH  54  78
ATOM     78  C   UNL A   1      40.191  33.639  36.959  1.00  0.00     0.064 A 
ATOM     79  C   UNL A   1      41.044  34.743  37.100  1.00  0.00     0.173 A 
ATOM     80  C   UNL A   1      39.333  33.343  38.028  1.00  0.00     0.173 A 
ATOM     81  F   UNL A   1      41.905  35.055  36.119  1.00  0.00    -0.203 F 
ATOM     82  C   UNL A   1      41.053  35.505  38.268  1.00  0.00     0.198 A 
ATOM     83  C   UNL A   1      39.317  34.126  39.181  1.00  0.00     0.198 A 
ATOM     84  F   UNL A   1      38.501  32.293  37.952  1.00  0.00    -0.203 F 
ATOM     85  F   UNL A   1      41.918  36.521  38.395  1.00  0.00    -0.200 F 
ATOM     86  C   UNL A   1      40.184  35.201  39.303  1.00  0.00     0.200 A 
ATOM     87  F   UNL A   1      38.466  33.836  40.175  1.00  0.00    -0.200 F 
ATOM     88  F   UNL A   1      40.189  35.937  40.423  1.00  0.00    -0.200 F 
ENDBRANCH  54  78
BRANCH  66  89
ATOM     89  C   UNL A   1      44.085  28.185  34.982  1.00  0.00     0.064 A 
ATOM     90  C   UNL A   1      45.394  28.688  35.029  1.00  0.00     0.173 A 
ATOM     91  C   UNL A   1      43.820  26.984  35.661  1.00  0.00     0.173 A 
ATOM     92  F   UNL A   1      45.703  29.827  34.392  1.00  0.00    -0.203 F 
ATOM     93  C   UNL A   1      46.398  28.009  35.714  1.00  0.00     0.198 A 
ATOM     94  C   UNL A   1      44.819  26.328  36.377  1.00  0.00     0.198 A 
ATOM     95  F   UNL A   1      42.584  26.465  35.661  1.00  0.00    -0.203 F 
ATOM     96  F   UNL A   1      47.650  28.488  35.712  1.00  0.00    -0.200 F 
ATOM     97  C   UNL A   1      46.107  26.838  36.398  1.00  0.00     0.200 A 
ATOM     98  F   UNL A   1      44.529  25.209  37.057  1.00  0.00    -0.200 F 
ATOM     99  F   UNL A   1      47.071  26.199  37.078  1.00  0.00    -0.200 F 
ENDBRANCH  66  89
ENDBRANCH  40  41
ENDBRANCH  33  35
ENDBRANCH  32  33
ENDBRANCH  31  32
ENDBRANCH  30  31
ENDBRANCH  29  30
ENDBRANCH  28  29
ENDBRANCH   1  28
TORSDOF 22
ENDMDL
MODEL 3
REMARK VINA RESULT:     -10.3      5.748     10.412
REMARK SMILES C#Cc1cc(Cl)cc2c1O[C@H](C(F)(F)F)C(C(=O)OCCOCCOCCOCCOC(=O)c1ccc(-c3c4nc(c(-c5c(F)c(F)c(F)c(F)c5F)c5ccc([nH]5)c(-c5c(F)c(F)c(F)c(F)c5F)c5nc(c(-c6c(F)c(F)c(F)c(F)c6F)c6ccc3[nH]6)C=C5)C=C4)cc1)=C2
REMARK SMILES IDX 26 1 25 2 24 3 23 4 22 5 21 6 20 7 19 8 17 9 18 10 16 11
REMARK SMILES IDX 3 12 4 13 9 14 5 15 8 16 10 17 6 18 7 19 97 20 11 21 2 22
REMARK SMILES IDX 1 23 12 24 13 25 14 26 15 27 27 28 28 29 29 30 30 31 31 32
REMARK SMILES IDX 32 33 33 34 34 35 35 36 96 37 36 38 95 39 37 40 38 41 39 42
REMARK SMILES IDX 89 43 40 44 94 45 88 46 90 47 41 48 93 49 87 50 86 51 42 53
REMARK SMILES IDX 74 54 54 55 73 56 55 57 58 58 72 59 91 60 56 61 57 62 71 64
REMARK SMILES IDX 92 65 59 66 43 67 44 68 52 69 45 70 46 71 50 72 53 73 47 74
REMARK SMILES IDX 48 75 51 76 49 77 75 78 76 79 84 80 77 81 78 82 82 83 85 84
REMARK SMILES IDX 79 85 80 86 83 87 81 88 60 89 61 90 69 91 62 92 63 93 67 94
REMARK SMILES IDX 70 95 64 96 65 97 68 98 66 99
REMARK H PARENT 90 52 58 63
REMARK Flexibility Score: inf
ROOT
ATOM      1  C   UNL A   1      39.450  23.284  26.977  1.00  0.00     0.188 C 
ENDROOT
BRANCH   1   2
ATOM      2  O   UNL A   1      38.314  23.957  26.435  1.00  0.00    -0.377 OA
BRANCH   2   3
ATOM      3  C   UNL A   1      37.614  23.367  25.354  1.00  0.00     0.188 C 
BRANCH   3   4
ATOM      4  C   UNL A   1      36.260  22.715  25.706  1.00  0.00     0.188 C 
BRANCH   4   5
ATOM      5  O   UNL A   1      36.183  21.315  25.530  1.00  0.00    -0.376 OA
BRANCH   5   6
ATOM      6  C   UNL A   1      35.089  20.660  24.918  1.00  0.00     0.202 C 
BRANCH   6   7
ATOM      7  C   UNL A   1      33.617  21.105  24.969  1.00  0.00     0.261 C 
BRANCH   7   8
ATOM      8  O   UNL A   1      33.331  22.471  24.688  1.00  0.00    -0.460 OA
BRANCH   8   9
ATOM      9  C   UNL A   1      32.850  23.200  25.713  1.00  0.00     0.338 C 
ATOM     10  O   UNL A   1      32.669  22.824  26.857  1.00  0.00    -0.246 OA
BRANCH   9  11
ATOM     11  C   UNL A   1      32.744  24.604  25.262  1.00  0.00     0.087 C 
ATOM     12  C   UNL A   1      32.168  28.609  24.257  1.00  0.00     0.068 A 
ATOM     13  C   UNL A   1      32.677  29.604  25.096  1.00  0.00     0.041 A 
ATOM     14  C   UNL A   1      32.449  27.258  24.517  1.00  0.00     0.143 A 
ATOM     15  C   UNL A   1      33.484  29.254  26.175  1.00  0.00     0.043 A 
ATOM     16  C   UNL A   1      33.212  26.916  25.639  1.00  0.00     0.020 A 
ATOM     17  O   UNL A   1      31.939  26.327  23.654  1.00  0.00    -0.474 OA
ATOM     18  Cl  UNL A   1      34.105  30.478  27.213  1.00  0.00    -0.084 Cl
ATOM     19  C   UNL A   1      33.761  27.917  26.446  1.00  0.00     0.032 A 
ATOM     20  C   UNL A   1      33.349  25.523  26.023  1.00  0.00     0.027 C 
ATOM     21  C   UNL A   1      32.028  24.916  23.976  1.00  0.00     0.316 C 
BRANCH  12  22
ATOM     22  C   UNL A   1      31.301  28.992  23.178  1.00  0.00    -0.067 C 
ATOM     23  C   UNL A   1      30.569  29.273  22.273  1.00  0.00     0.010 C 
ENDBRANCH  12  22
BRANCH  21  24
ATOM     24  C   UNL A   1      30.610  24.329  23.953  1.00  0.00     0.430 C 
ATOM     25  F   UNL A   1      29.696  25.255  23.579  1.00  0.00    -0.167 F 
ATOM     26  F   UNL A   1      30.501  23.301  23.079  1.00  0.00    -0.167 F 
ATOM     27  F   UNL A   1      30.245  23.863  25.170  1.00  0.00    -0.167 F 
ENDBRANCH  21  24
ENDBRANCH   9  11
ENDBRANCH   8   9
ENDBRANCH   7   8
ENDBRANCH   6   7
ENDBRANCH   5   6
ENDBRANCH   4   5
ENDBRANCH   3   4
ENDBRANCH   2   3
ENDBRANCH   1   2
BRANCH   1  28
ATOM     28  C   UNL A   1      39.844  21.834  26.587  1.00  0.00     0.188 C 
BRANCH  28  29
ATOM     29  O   UNL A   1      40.569  21.125  27.568  1.00  0.00    -0.376 OA
BRANCH  29  30
ATOM     30  C   UNL A   1      41.087  19.839  27.307  1.00  0.00     0.202 C 
BRANCH  30  31
ATOM     31  C   UNL A   1      41.719  19.516  25.946  1.00  0.00     0.261 C 
BRANCH  31  32
ATOM     32  O   UNL A   1      43.119  19.213  25.932  1.00  0.00    -0.460 OA
BRANCH  32  33
ATOM     33  C   UNL A   1      43.887  19.887  25.048  1.00  0.00     0.338 C 
ATOM     34  O   UNL A   1      44.318  19.480  23.985  1.00  0.00    -0.246 OA
BRANCH  33  35
ATOM     35  C   UNL A   1      43.963  21.290  25.509  1.00  0.00     0.060 A 
ATOM     36  C   UNL A   1      43.827  22.327  24.574  1.00  0.00     0.016 A 
ATOM     37  C   UNL A   1      44.144  21.577  26.863  1.00  0.00     0.016 A 
ATOM     38  C   UNL A   1      43.895  23.657  24.990  1.00  0.00     0.010 A 
ATOM     39  C   UNL A   1      44.248  22.910  27.273  1.00  0.00     0.010 A 
ATOM     40  C   UNL A   1      44.156  23.953  26.334  1.00  0.00    -0.014 A 
BRANCH  40  41
ATOM     41  C   UNL A   1      44.552  25.330  26.714  1.00  0.00     0.031 A 
ATOM     42  C   UNL A   1      43.485  26.252  27.237  1.00  0.00     0.074 A 
ATOM     43  C   UNL A   1      45.829  25.744  26.639  1.00  0.00     0.049 A 
ATOM     44  N   UNL A   1      43.567  27.511  27.579  1.00  0.00    -0.248 NA
ATOM     45  C   UNL A   1      42.139  25.672  27.396  1.00  0.00     0.031 C 
ATOM     46  C   UNL A   1      46.960  24.924  26.210  1.00  0.00     0.029 A 
ATOM     47  N   UNL A   1      46.386  26.967  26.920  1.00  0.00    -0.354 N 
ATOM     48  C   UNL A   1      42.292  27.871  27.991  1.00  0.00     0.074 A 
ATOM     49  C   UNL A   1      41.441  26.714  27.821  1.00  0.00     0.031 C 
ATOM     50  C   UNL A   1      48.079  25.670  26.253  1.00  0.00     0.029 A 
ATOM     51  C   UNL A   1      47.737  27.029  26.672  1.00  0.00     0.049 A 
ATOM     52  H   UNL A   1      45.867  27.729  27.267  1.00  0.00     0.167 HD
ATOM     53  C   UNL A   1      41.872  29.057  28.487  1.00  0.00     0.037 A 
ATOM     54  C   UNL A   1      48.589  28.072  26.755  1.00  0.00     0.037 A 
ATOM     55  C   UNL A   1      42.721  30.205  28.661  1.00  0.00     0.049 A 
ATOM     56  C   UNL A   1      48.068  29.415  27.207  1.00  0.00     0.074 A 
ATOM     57  C   UNL A   1      42.387  31.453  29.153  1.00  0.00     0.029 A 
ATOM     58  N   UNL A   1      44.070  30.244  28.346  1.00  0.00    -0.354 N 
ATOM     59  N   UNL A   1      46.864  29.747  27.609  1.00  0.00    -0.248 NA
ATOM     60  C   UNL A   1      49.027  30.530  27.220  1.00  0.00     0.031 C 
ATOM     61  C   UNL A   1      43.518  32.267  29.079  1.00  0.00     0.029 A 
ATOM     62  C   UNL A   1      44.576  31.506  28.608  1.00  0.00     0.049 A 
ATOM     63  H   UNL A   1      44.592  29.488  27.991  1.00  0.00     0.167 HD
ATOM     64  C   UNL A   1      46.930  31.092  27.951  1.00  0.00     0.074 A 
ATOM     65  C   UNL A   1      48.296  31.513  27.730  1.00  0.00     0.031 C 
ATOM     66  C   UNL A   1      45.945  31.907  28.403  1.00  0.00     0.037 A 
BRANCH  53  67
ATOM     67  C   UNL A   1      40.430  29.188  28.880  1.00  0.00     0.064 A 
ATOM     68  C   UNL A   1      39.424  29.381  27.922  1.00  0.00     0.173 A 
ATOM     69  C   UNL A   1      40.040  29.020  30.219  1.00  0.00     0.173 A 
ATOM     70  F   UNL A   1      39.746  29.562  26.633  1.00  0.00    -0.203 F 
ATOM     71  C   UNL A   1      38.081  29.401  28.289  1.00  0.00     0.198 A 
ATOM     72  C   UNL A   1      38.695  29.010  30.577  1.00  0.00     0.198 A 
ATOM     73  F   UNL A   1      40.963  28.833  31.173  1.00  0.00    -0.203 F 
ATOM     74  F   UNL A   1      37.138  29.611  27.360  1.00  0.00    -0.200 F 
ATOM     75  C   UNL A   1      37.718  29.200  29.613  1.00  0.00     0.200 A 
ATOM     76  F   UNL A   1      38.346  28.798  31.853  1.00  0.00    -0.200 F 
ATOM     77  F   UNL A   1      36.423  29.188  29.959  1.00  0.00    -0.200 F 
ENDBRANCH  53  67
BRANCH  54  78
ATOM     78  C   UNL A   1      50.024  27.896  26.402  1.00  0.00     0.064 A 
ATOM     79  C   UNL A   1      51.004  27.793  27.400  1.00  0.00     0.173 A 
ATOM     80  C   UNL A   1      50.452  27.855  25.067  1.00  0.00     0.173 A 
ATOM     81  F   UNL A   1      50.653  27.854  28.693  1.00  0.00    -0.203 F 
ATOM     82  C   UNL A   1      52.355  27.674  27.076  1.00  0.00     0.198 A 
ATOM     83  C   UNL A   1      51.799  27.701  24.743  1.00  0.00     0.198 A 
ATOM     84  F   UNL A   1      49.559  27.958  24.071  1.00  0.00    -0.203 F 
ATOM     85  F   UNL A   1      53.274  27.633  28.051  1.00  0.00    -0.200 F 
ATOM     86  C   UNL A   1      52.750  27.620  25.749  1.00  0.00     0.200 A 
ATOM     87  F   UNL A   1      52.175  27.636  23.459  1.00  0.00    -0.200 F 
ATOM     88  F   UNL A   1      54.048  27.500  25.438  1.00  0.00    -0.200 F 
ENDBRANCH  54  78
BRANCH  66  89
ATOM     89  C   UNL A   1      46.299  33.331  28.728  1.00  0.00     0.064 A 
ATOM     90  C   UNL A   1      46.190  34.353  27.774  1.00  0.00     0.173 A 
ATOM     91  C   UNL A   1      46.662  33.693  30.037  1.00  0.00     0.173 A 
ATOM     92  F   UNL A   1      45.855  34.063  26.508  1.00  0.00    -0.203 F 
ATOM     93  C   UNL A   1      46.448  35.680  28.112  1.00  0.00     0.198 A 
ATOM     94  C   UNL A   1      46.881  35.024  30.380  1.00  0.00     0.198 A 
ATOM     95  F   UNL A   1      46.768  32.758  30.992  1.00  0.00    -0.203 F 
ATOM     96  F   UNL A   1      46.376  36.634  27.173  1.00  0.00    -0.200 F 
ATOM     97  C   UNL A   1      46.780  36.015  29.416  1.00  0.00     0.200 A 
ATOM     98  F   UNL A   1      47.178  35.348  31.646  1.00  0.00    -0.200 F 
ATOM     99  F   UNL A   1      47.003  37.296  29.744  1.00  0.00    -0.200 F 
ENDBRANCH  66  89
ENDBRANCH  40  41
ENDBRANCH  33  35
ENDBRANCH  32  33
ENDBRANCH  31  32
ENDBRANCH  30  31
ENDBRANCH  29  30
ENDBRANCH  28  29
ENDBRANCH   1  28
TORSDOF 22
ENDMDL
