MODEL 1
REMARK VINA RESULT:      -9.6      0.000      0.000
REMARK SMILES CNC(=O)c1ccc(N(CCC(=O)OCCOCCOCCOCCOC(=O)c2ccc(-c3c4nc(c(-c5c(F)c(F)c(F)c(F)c5F)c5ccc([nH]5)c(-c5c(F)c(F)c(F)c(F)c5F)c5nc(c(-c6c(F)c(F)c(F)c(F)c6F)c6ccc3[nH]6)C=C5)C=C4)cc2)C2CC2)nn1
REMARK SMILES IDX 19 1 18 2 17 3 16 4 15 5 14 6 12 7 13 8 11 9 10 10 9 11 8 12
REMARK SMILES IDX 5 13 6 14 96 15 7 16 95 17 3 18 1 19 2 20 4 22 92 23 93 24
REMARK SMILES IDX 94 25 20 26 21 27 22 28 23 29 24 30 25 31 26 32 27 33 28 34
REMARK SMILES IDX 29 35 30 36 91 37 31 38 90 39 32 40 33 41 34 42 84 43 35 44
REMARK SMILES IDX 89 45 83 46 85 47 36 48 88 49 82 50 81 51 37 53 69 54 49 55
REMARK SMILES IDX 68 56 50 57 53 58 67 59 86 60 51 61 52 62 66 64 87 65 54 66
REMARK SMILES IDX 38 67 39 68 47 69 40 70 41 71 45 72 48 73 42 74 43 75 46 76
REMARK SMILES IDX 44 77 70 78 71 79 79 80 72 81 73 82 77 83 80 84 74 85 75 86
REMARK SMILES IDX 78 87 76 88 55 89 56 90 64 91 57 92 58 93 62 94 65 95 59 96
REMARK SMILES IDX 60 97 63 98 61 99
REMARK H PARENT 2 21 85 52 53 63
REMARK Flexibility Score: inf
ROOT
ATOM      1  C   UNL A   1      36.384  23.104  25.585  1.00  0.00     0.188 C 
ENDROOT
BRANCH   1   2
ATOM      2  C   UNL A   1      35.159  22.489  26.278  1.00  0.00     0.188 C 
BRANCH   2   3
ATOM      3  O   UNL A   1      34.289  21.676  25.527  1.00  0.00    -0.376 OA
BRANCH   3   4
ATOM      4  C   UNL A   1      34.486  20.275  25.431  1.00  0.00     0.202 C 
BRANCH   4   5
ATOM      5  C   UNL A   1      33.337  19.290  25.195  1.00  0.00     0.261 C 
BRANCH   5   6
ATOM      6  O   UNL A   1      32.159  19.858  24.591  1.00  0.00    -0.463 OA
BRANCH   6   7
ATOM      7  C   UNL A   1      32.221  20.081  23.257  1.00  0.00     0.307 C 
ATOM      8  O   UNL A   1      32.311  19.177  22.429  1.00  0.00    -0.252 OA
BRANCH   7   9
ATOM      9  C   UNL A   1      32.199  21.531  22.811  1.00  0.00     0.144 C 
BRANCH   9  10
ATOM     10  C   UNL A   1      31.073  22.506  23.149  1.00  0.00     0.130 C 
BRANCH  10  11
ATOM     11  N   UNL A   1      31.375  23.525  24.182  1.00  0.00    -0.352 N 
BRANCH  11  12
ATOM     12  C   UNL A   1      32.052  24.677  23.720  1.00  0.00     0.151 A 
ATOM     13  C   UNL A   1      33.394  26.957  22.906  1.00  0.00     0.150 A 
ATOM     14  C   UNL A   1      32.288  26.558  22.196  1.00  0.00     0.040 A 
ATOM     15  N   UNL A   1      33.859  26.254  23.951  1.00  0.00    -0.143 NA
ATOM     16  C   UNL A   1      31.605  25.430  22.640  1.00  0.00     0.051 A 
ATOM     17  N   UNL A   1      33.184  25.102  24.338  1.00  0.00    -0.132 NA
BRANCH  13  18
ATOM     18  C   UNL A   1      33.943  28.310  22.677  1.00  0.00     0.271 C 
ATOM     19  C   UNL A   1      32.455  29.268  24.501  1.00  0.00     0.143 C 
ATOM     20  N   UNL A   1      33.409  29.351  23.411  1.00  0.00    -0.354 N 
ATOM     21  H   UNL A   1      33.712  30.256  23.167  1.00  0.00     0.163 HD
ATOM     22  O   UNL A   1      34.809  28.510  21.833  1.00  0.00    -0.267 OA
ENDBRANCH  13  18
ENDBRANCH  11  12
BRANCH  11  23
ATOM     23  C   UNL A   1      30.701  23.332  25.483  1.00  0.00     0.084 C 
ATOM     24  C   UNL A   1      31.385  22.709  26.664  1.00  0.00     0.027 C 
ATOM     25  C   UNL A   1      30.819  24.104  26.757  1.00  0.00     0.027 C 
ENDBRANCH  11  23
ENDBRANCH  10  11
ENDBRANCH   9  10
ENDBRANCH   7   9
ENDBRANCH   6   7
ENDBRANCH   5   6
ENDBRANCH   4   5
ENDBRANCH   3   4
ENDBRANCH   2   3
ENDBRANCH   1   2
BRANCH   1  26
ATOM     26  O   UNL A   1      37.364  22.392  24.852  1.00  0.00    -0.377 OA
BRANCH  26  27
ATOM     27  C   UNL A   1      38.058  21.276  25.380  1.00  0.00     0.188 C 
BRANCH  27  28
ATOM     28  C   UNL A   1      39.387  21.499  26.111  1.00  0.00     0.188 C 
BRANCH  28  29
ATOM     29  O   UNL A   1      40.294  20.401  26.142  1.00  0.00    -0.376 OA
BRANCH  29  30
ATOM     30  C   UNL A   1      41.488  20.598  26.883  1.00  0.00     0.202 C 
BRANCH  30  31
ATOM     31  C   UNL A   1      42.651  21.083  26.005  1.00  0.00     0.261 C 
BRANCH  31  32
ATOM     32  O   UNL A   1      43.237  22.322  26.437  1.00  0.00    -0.460 OA
BRANCH  32  33
ATOM     33  C   UNL A   1      43.082  23.358  25.580  1.00  0.00     0.338 C 
ATOM     34  O   UNL A   1      43.336  23.392  24.381  1.00  0.00    -0.246 OA
BRANCH  33  35
ATOM     35  C   UNL A   1      42.501  24.502  26.302  1.00  0.00     0.060 A 
ATOM     36  C   UNL A   1      43.096  25.765  26.194  1.00  0.00     0.016 A 
ATOM     37  C   UNL A   1      41.426  24.294  27.166  1.00  0.00     0.016 A 
ATOM     38  C   UNL A   1      42.645  26.817  26.998  1.00  0.00     0.010 A 
ATOM     39  C   UNL A   1      40.984  25.342  27.976  1.00  0.00     0.010 A 
ATOM     40  C   UNL A   1      41.617  26.597  27.927  1.00  0.00    -0.014 A 
BRANCH  40  41
ATOM     41  C   UNL A   1      41.319  27.603  28.980  1.00  0.00     0.031 A 
ATOM     42  C   UNL A   1      42.173  27.625  30.220  1.00  0.00     0.074 A 
ATOM     43  C   UNL A   1      40.302  28.474  28.852  1.00  0.00     0.049 A 
ATOM     44  N   UNL A   1      42.038  28.331  31.315  1.00  0.00    -0.248 NA
ATOM     45  C   UNL A   1      43.335  26.721  30.226  1.00  0.00     0.031 C 
ATOM     46  C   UNL A   1      39.430  28.590  27.688  1.00  0.00     0.029 A 
ATOM     47  N   UNL A   1      39.825  29.417  29.730  1.00  0.00    -0.354 N 
ATOM     48  C   UNL A   1      43.088  27.947  32.142  1.00  0.00     0.074 A 
ATOM     49  C   UNL A   1      43.832  26.926  31.436  1.00  0.00     0.031 C 
ATOM     50  C   UNL A   1      38.512  29.543  27.927  1.00  0.00     0.029 A 
ATOM     51  C   UNL A   1      38.704  30.071  29.278  1.00  0.00     0.049 A 
ATOM     52  H   UNL A   1      40.245  29.607  30.600  1.00  0.00     0.167 HD
ATOM     53  C   UNL A   1      43.406  28.407  33.376  1.00  0.00     0.037 A 
ATOM     54  C   UNL A   1      37.909  30.967  29.897  1.00  0.00     0.037 A 
ATOM     55  C   UNL A   1      42.666  29.424  34.077  1.00  0.00     0.049 A 
ATOM     56  C   UNL A   1      38.235  31.405  31.305  1.00  0.00     0.074 A 
ATOM     57  C   UNL A   1      42.918  29.969  35.324  1.00  0.00     0.029 A 
ATOM     58  N   UNL A   1      41.522  30.042  33.596  1.00  0.00    -0.354 N 
ATOM     59  N   UNL A   1      39.235  31.050  32.075  1.00  0.00    -0.248 NA
ATOM     60  C   UNL A   1      37.317  32.369  31.931  1.00  0.00     0.031 C 
ATOM     61  C   UNL A   1      41.892  30.869  35.625  1.00  0.00     0.029 A 
ATOM     62  C   UNL A   1      41.040  30.942  34.534  1.00  0.00     0.049 A 
ATOM     63  H   UNL A   1      41.112  29.869  32.718  1.00  0.00     0.167 HD
ATOM     64  C   UNL A   1      39.091  31.776  33.252  1.00  0.00     0.074 A 
ATOM     65  C   UNL A   1      37.909  32.595  33.094  1.00  0.00     0.031 C 
ATOM     66  C   UNL A   1      39.872  31.767  34.361  1.00  0.00     0.037 A 
BRANCH  53  67
ATOM     67  C   UNL A   1      44.590  27.792  34.065  1.00  0.00     0.064 A 
ATOM     68  C   UNL A   1      44.450  26.728  34.971  1.00  0.00     0.173 A 
ATOM     69  C   UNL A   1      45.887  28.247  33.787  1.00  0.00     0.173 A 
ATOM     70  F   UNL A   1      43.232  26.259  35.280  1.00  0.00    -0.203 F 
ATOM     71  C   UNL A   1      45.563  26.165  35.592  1.00  0.00     0.198 A 
ATOM     72  C   UNL A   1      46.999  27.659  34.384  1.00  0.00     0.198 A 
ATOM     73  F   UNL A   1      46.079  29.256  32.924  1.00  0.00    -0.203 F 
ATOM     74  F   UNL A   1      45.401  25.185  36.492  1.00  0.00    -0.200 F 
ATOM     75  C   UNL A   1      46.836  26.626  35.292  1.00  0.00     0.200 A 
ATOM     76  F   UNL A   1      48.230  28.095  34.078  1.00  0.00    -0.200 F 
ATOM     77  F   UNL A   1      47.906  26.076  35.883  1.00  0.00    -0.200 F 
ENDBRANCH  53  67
BRANCH  54  78
ATOM     78  C   UNL A   1      36.709  31.504  29.201  1.00  0.00     0.064 A 
ATOM     79  C   UNL A   1      35.597  30.693  28.939  1.00  0.00     0.173 A 
ATOM     80  C   UNL A   1      36.661  32.835  28.755  1.00  0.00     0.173 A 
ATOM     81  F   UNL A   1      35.603  29.407  29.321  1.00  0.00    -0.203 F 
ATOM     82  C   UNL A   1      34.494  31.182  28.240  1.00  0.00     0.198 A 
ATOM     83  C   UNL A   1      35.545  33.332  28.087  1.00  0.00     0.198 A 
ATOM     84  F   UNL A   1      37.697  33.657  28.977  1.00  0.00    -0.203 F 
ATOM     85  F   UNL A   1      33.468  30.366  27.958  1.00  0.00    -0.200 F 
ATOM     86  C   UNL A   1      34.467  32.502  27.820  1.00  0.00     0.200 A 
ATOM     87  F   UNL A   1      35.516  34.615  27.698  1.00  0.00    -0.200 F 
ATOM     88  F   UNL A   1      33.404  32.974  27.153  1.00  0.00    -0.200 F 
ENDBRANCH  54  78
BRANCH  66  89
ATOM     89  C   UNL A   1      39.519  32.714  35.475  1.00  0.00     0.064 A 
ATOM     90  C   UNL A   1      38.637  32.357  36.506  1.00  0.00     0.173 A 
ATOM     91  C   UNL A   1      40.120  33.982  35.539  1.00  0.00     0.173 A 
ATOM     92  F   UNL A   1      38.024  31.164  36.487  1.00  0.00    -0.203 F 
ATOM     93  C   UNL A   1      38.353  33.241  37.544  1.00  0.00     0.198 A 
ATOM     94  C   UNL A   1      39.861  34.849  36.597  1.00  0.00     0.198 A 
ATOM     95  F   UNL A   1      40.979  34.372  34.585  1.00  0.00    -0.203 F 
ATOM     96  F   UNL A   1      37.470  32.896  38.493  1.00  0.00    -0.200 F 
ATOM     97  C   UNL A   1      38.972  34.482  37.595  1.00  0.00     0.200 A 
ATOM     98  F   UNL A   1      40.475  36.039  36.652  1.00  0.00    -0.200 F 
ATOM     99  F   UNL A   1      38.707  35.325  38.602  1.00  0.00    -0.200 F 
ENDBRANCH  66  89
ENDBRANCH  40  41
ENDBRANCH  33  35
ENDBRANCH  32  33
ENDBRANCH  31  32
ENDBRANCH  30  31
ENDBRANCH  29  30
ENDBRANCH  28  29
ENDBRANCH  27  28
ENDBRANCH  26  27
ENDBRANCH   1  26
TORSDOF 25
ENDMDL
MODEL 2
REMARK VINA RESULT:      -9.5      4.602      7.554
REMARK SMILES CNC(=O)c1ccc(N(CCC(=O)OCCOCCOCCOCCOC(=O)c2ccc(-c3c4nc(c(-c5c(F)c(F)c(F)c(F)c5F)c5ccc([nH]5)c(-c5c(F)c(F)c(F)c(F)c5F)c5nc(c(-c6c(F)c(F)c(F)c(F)c6F)c6ccc3[nH]6)C=C5)C=C4)cc2)C2CC2)nn1
REMARK SMILES IDX 19 1 18 2 17 3 16 4 15 5 14 6 12 7 13 8 11 9 10 10 9 11 8 12
REMARK SMILES IDX 5 13 6 14 96 15 7 16 95 17 3 18 1 19 2 20 4 22 92 23 93 24
REMARK SMILES IDX 94 25 20 26 21 27 22 28 23 29 24 30 25 31 26 32 27 33 28 34
REMARK SMILES IDX 29 35 30 36 91 37 31 38 90 39 32 40 33 41 34 42 84 43 35 44
REMARK SMILES IDX 89 45 83 46 85 47 36 48 88 49 82 50 81 51 37 53 69 54 49 55
REMARK SMILES IDX 68 56 50 57 53 58 67 59 86 60 51 61 52 62 66 64 87 65 54 66
REMARK SMILES IDX 38 67 39 68 47 69 40 70 41 71 45 72 48 73 42 74 43 75 46 76
REMARK SMILES IDX 44 77 70 78 71 79 79 80 72 81 73 82 77 83 80 84 74 85 75 86
REMARK SMILES IDX 78 87 76 88 55 89 56 90 64 91 57 92 58 93 62 94 65 95 59 96
REMARK SMILES IDX 60 97 63 98 61 99
REMARK H PARENT 2 21 85 52 53 63
REMARK Flexibility Score: inf
ROOT
ATOM      1  C   UNL A   1      32.382  24.515  26.042  1.00  0.00     0.188 C 
ENDROOT
BRANCH   1   2
ATOM      2  C   UNL A   1      30.913  24.919  26.238  1.00  0.00     0.188 C 
BRANCH   2   3
ATOM      3  O   UNL A   1      30.618  26.219  26.690  1.00  0.00    -0.376 OA
BRANCH   3   4
ATOM      4  C   UNL A   1      31.323  27.348  26.200  1.00  0.00     0.202 C 
BRANCH   4   5
ATOM      5  C   UNL A   1      31.051  27.963  24.823  1.00  0.00     0.261 C 
BRANCH   5   6
ATOM      6  O   UNL A   1      31.467  29.334  24.673  1.00  0.00    -0.463 OA
BRANCH   6   7
ATOM      7  C   UNL A   1      32.657  29.660  25.228  1.00  0.00     0.307 C 
ATOM      8  O   UNL A   1      33.698  29.049  24.992  1.00  0.00    -0.252 OA
BRANCH   7   9
ATOM      9  C   UNL A   1      32.656  30.826  26.199  1.00  0.00     0.144 C 
BRANCH   9  10
ATOM     10  C   UNL A   1      33.078  30.713  27.663  1.00  0.00     0.130 C 
BRANCH  10  11
ATOM     11  N   UNL A   1      34.320  31.426  28.045  1.00  0.00    -0.352 N 
BRANCH  11  12
ATOM     12  C   UNL A   1      34.157  32.784  28.397  1.00  0.00     0.151 A 
ATOM     13  C   UNL A   1      33.745  35.437  29.075  1.00  0.00     0.150 A 
ATOM     14  C   UNL A   1      34.858  35.113  28.339  1.00  0.00     0.040 A 
ATOM     15  N   UNL A   1      32.880  34.503  29.503  1.00  0.00    -0.143 NA
ATOM     16  C   UNL A   1      35.032  33.781  27.977  1.00  0.00     0.051 A 
ATOM     17  N   UNL A   1      33.109  33.173  29.169  1.00  0.00    -0.132 NA
BRANCH  13  18
ATOM     18  C   UNL A   1      33.352  36.856  29.195  1.00  0.00     0.271 C 
ATOM     19  C   UNL A   1      33.752  36.799  31.703  1.00  0.00     0.143 C 
ATOM     20  N   UNL A   1      33.314  37.407  30.462  1.00  0.00    -0.354 N 
ATOM     21  H   UNL A   1      32.946  38.317  30.529  1.00  0.00     0.163 HD
ATOM     22  O   UNL A   1      33.025  37.510  28.212  1.00  0.00    -0.267 OA
ENDBRANCH  13  18
ENDBRANCH  11  12
BRANCH  11  23
ATOM     23  C   UNL A   1      35.503  30.568  28.266  1.00  0.00     0.084 C 
ATOM     24  C   UNL A   1      35.657  29.221  27.623  1.00  0.00     0.027 C 
ATOM     25  C   UNL A   1      36.681  30.302  27.386  1.00  0.00     0.027 C 
ENDBRANCH  11  23
ENDBRANCH  10  11
ENDBRANCH   9  10
ENDBRANCH   7   9
ENDBRANCH   6   7
ENDBRANCH   5   6
ENDBRANCH   4   5
ENDBRANCH   3   4
ENDBRANCH   2   3
ENDBRANCH   1   2
BRANCH   1  26
ATOM     26  O   UNL A   1      32.854  23.516  25.158  1.00  0.00    -0.377 OA
BRANCH  26  27
ATOM     27  C   UNL A   1      33.889  23.746  24.219  1.00  0.00     0.188 C 
BRANCH  27  28
ATOM     28  C   UNL A   1      35.343  23.782  24.703  1.00  0.00     0.188 C 
BRANCH  28  29
ATOM     29  O   UNL A   1      35.912  22.542  25.115  1.00  0.00    -0.376 OA
BRANCH  29  30
ATOM     30  C   UNL A   1      36.661  21.842  24.133  1.00  0.00     0.202 C 
BRANCH  30  31
ATOM     31  C   UNL A   1      37.786  20.995  24.745  1.00  0.00     0.261 C 
BRANCH  31  32
ATOM     32  O   UNL A   1      38.157  21.386  26.078  1.00  0.00    -0.460 OA
BRANCH  32  33
ATOM     33  C   UNL A   1      39.490  21.479  26.297  1.00  0.00     0.338 C 
ATOM     34  O   UNL A   1      40.355  20.646  26.054  1.00  0.00    -0.246 OA
BRANCH  33  35
ATOM     35  C   UNL A   1      39.796  22.801  26.866  1.00  0.00     0.060 A 
ATOM     36  C   UNL A   1      39.225  23.949  26.303  1.00  0.00     0.016 A 
ATOM     37  C   UNL A   1      40.732  22.905  27.896  1.00  0.00     0.016 A 
ATOM     38  C   UNL A   1      39.634  25.214  26.737  1.00  0.00     0.010 A 
ATOM     39  C   UNL A   1      41.146  24.168  28.321  1.00  0.00     0.010 A 
ATOM     40  C   UNL A   1      40.631  25.329  27.717  1.00  0.00    -0.014 A 
BRANCH  40  41
ATOM     41  C   UNL A   1      41.281  26.639  27.986  1.00  0.00     0.031 A 
ATOM     42  C   UNL A   1      42.692  26.856  27.508  1.00  0.00     0.074 A 
ATOM     43  C   UNL A   1      40.644  27.616  28.656  1.00  0.00     0.049 A 
ATOM     44  N   UNL A   1      43.500  27.865  27.719  1.00  0.00    -0.248 NA
ATOM     45  C   UNL A   1      43.272  25.784  26.683  1.00  0.00     0.031 C 
ATOM     46  C   UNL A   1      39.266  27.553  29.132  1.00  0.00     0.029 A 
ATOM     47  N   UNL A   1      41.088  28.850  29.064  1.00  0.00    -0.354 N 
ATOM     48  C   UNL A   1      44.684  27.543  27.065  1.00  0.00     0.074 A 
ATOM     49  C   UNL A   1      44.500  26.234  26.477  1.00  0.00     0.031 C 
ATOM     50  C   UNL A   1      38.979  28.695  29.782  1.00  0.00     0.029 A 
ATOM     51  C   UNL A   1      40.167  29.548  29.805  1.00  0.00     0.049 A 
ATOM     52  H   UNL A   1      41.982  29.201  28.845  1.00  0.00     0.167 HD
ATOM     53  C   UNL A   1      45.820  28.274  26.961  1.00  0.00     0.037 A 
ATOM     54  C   UNL A   1      40.283  30.725  30.454  1.00  0.00     0.037 A 
ATOM     55  C   UNL A   1      46.002  29.577  27.546  1.00  0.00     0.049 A 
ATOM     56  C   UNL A   1      41.586  31.484  30.394  1.00  0.00     0.074 A 
ATOM     57  C   UNL A   1      47.110  30.404  27.484  1.00  0.00     0.029 A 
ATOM     58  N   UNL A   1      45.054  30.238  28.313  1.00  0.00    -0.354 N 
ATOM     59  N   UNL A   1      42.695  31.183  29.763  1.00  0.00    -0.248 NA
ATOM     60  C   UNL A   1      41.653  32.751  31.139  1.00  0.00     0.031 C 
ATOM     61  C   UNL A   1      46.857  31.535  28.264  1.00  0.00     0.029 A 
ATOM     62  C   UNL A   1      45.563  31.450  28.752  1.00  0.00     0.049 A 
ATOM     63  H   UNL A   1      44.153  29.898  28.514  1.00  0.00     0.167 HD
ATOM     64  C   UNL A   1      43.571  32.236  29.998  1.00  0.00     0.074 A 
ATOM     65  C   UNL A   1      42.864  33.189  30.828  1.00  0.00     0.031 C 
ATOM     66  C   UNL A   1      44.845  32.401  29.563  1.00  0.00     0.037 A 
BRANCH  53  67
ATOM     67  C   UNL A   1      46.972  27.668  26.212  1.00  0.00     0.064 A 
ATOM     68  C   UNL A   1      47.124  27.832  24.826  1.00  0.00     0.173 A 
ATOM     69  C   UNL A   1      47.960  26.946  26.897  1.00  0.00     0.173 A 
ATOM     70  F   UNL A   1      46.204  28.506  24.120  1.00  0.00    -0.203 F 
ATOM     71  C   UNL A   1      48.206  27.269  24.152  1.00  0.00     0.198 A 
ATOM     72  C   UNL A   1      49.058  26.414  26.225  1.00  0.00     0.198 A 
ATOM     73  F   UNL A   1      47.869  26.765  28.223  1.00  0.00    -0.203 F 
ATOM     74  F   UNL A   1      48.303  27.394  22.821  1.00  0.00    -0.200 F 
ATOM     75  C   UNL A   1      49.175  26.568  24.854  1.00  0.00     0.200 A 
ATOM     76  F   UNL A   1      50.003  25.753  26.909  1.00  0.00    -0.200 F 
ATOM     77  F   UNL A   1      50.221  26.036  24.205  1.00  0.00    -0.200 F 
ENDBRANCH  53  67
BRANCH  54  78
ATOM     78  C   UNL A   1      39.137  31.258  31.238  1.00  0.00     0.064 A 
ATOM     79  C   UNL A   1      38.951  30.909  32.584  1.00  0.00     0.173 A 
ATOM     80  C   UNL A   1      38.184  32.106  30.652  1.00  0.00     0.173 A 
ATOM     81  F   UNL A   1      39.819  30.080  33.184  1.00  0.00    -0.203 F 
ATOM     82  C   UNL A   1      37.849  31.367  33.303  1.00  0.00     0.198 A 
ATOM     83  C   UNL A   1      37.101  32.590  31.381  1.00  0.00     0.198 A 
ATOM     84  F   UNL A   1      38.310  32.474  29.368  1.00  0.00    -0.203 F 
ATOM     85  F   UNL A   1      37.670  30.972  34.572  1.00  0.00    -0.200 F 
ATOM     86  C   UNL A   1      36.929  32.212  32.704  1.00  0.00     0.200 A 
ATOM     87  F   UNL A   1      36.224  33.422  30.802  1.00  0.00    -0.200 F 
ATOM     88  F   UNL A   1      35.872  32.656  33.397  1.00  0.00    -0.200 F 
ENDBRANCH  54  78
BRANCH  66  89
ATOM     89  C   UNL A   1      45.546  33.684  29.915  1.00  0.00     0.064 A 
ATOM     90  C   UNL A   1      46.271  33.834  31.107  1.00  0.00     0.173 A 
ATOM     91  C   UNL A   1      45.539  34.761  29.014  1.00  0.00     0.173 A 
ATOM     92  F   UNL A   1      46.300  32.843  32.009  1.00  0.00    -0.203 F 
ATOM     93  C   UNL A   1      46.939  35.022  31.393  1.00  0.00     0.198 A 
ATOM     94  C   UNL A   1      46.238  35.934  29.288  1.00  0.00     0.198 A 
ATOM     95  F   UNL A   1      44.870  34.669  27.854  1.00  0.00    -0.203 F 
ATOM     96  F   UNL A   1      47.585  35.161  32.561  1.00  0.00    -0.200 F 
ATOM     97  C   UNL A   1      46.931  36.067  30.481  1.00  0.00     0.200 A 
ATOM     98  F   UNL A   1      46.243  36.933  28.396  1.00  0.00    -0.200 F 
ATOM     99  F   UNL A   1      47.587  37.204  30.753  1.00  0.00    -0.200 F 
ENDBRANCH  66  89
ENDBRANCH  40  41
ENDBRANCH  33  35
ENDBRANCH  32  33
ENDBRANCH  31  32
ENDBRANCH  30  31
ENDBRANCH  29  30
ENDBRANCH  28  29
ENDBRANCH  27  28
ENDBRANCH  26  27
ENDBRANCH   1  26
TORSDOF 25
ENDMDL
MODEL 3
REMARK VINA RESULT:      -9.4      4.384      8.903
REMARK SMILES CNC(=O)c1ccc(N(CCC(=O)OCCOCCOCCOCCOC(=O)c2ccc(-c3c4nc(c(-c5c(F)c(F)c(F)c(F)c5F)c5ccc([nH]5)c(-c5c(F)c(F)c(F)c(F)c5F)c5nc(c(-c6c(F)c(F)c(F)c(F)c6F)c6ccc3[nH]6)C=C5)C=C4)cc2)C2CC2)nn1
REMARK SMILES IDX 19 1 18 2 17 3 16 4 15 5 14 6 12 7 13 8 11 9 10 10 9 11 8 12
REMARK SMILES IDX 5 13 6 14 96 15 7 16 95 17 3 18 1 19 2 20 4 22 92 23 93 24
REMARK SMILES IDX 94 25 20 26 21 27 22 28 23 29 24 30 25 31 26 32 27 33 28 34
REMARK SMILES IDX 29 35 30 36 91 37 31 38 90 39 32 40 33 41 34 42 84 43 35 44
REMARK SMILES IDX 89 45 83 46 85 47 36 48 88 49 82 50 81 51 37 53 69 54 49 55
REMARK SMILES IDX 68 56 50 57 53 58 67 59 86 60 51 61 52 62 66 64 87 65 54 66
REMARK SMILES IDX 38 67 39 68 47 69 40 70 41 71 45 72 48 73 42 74 43 75 46 76
REMARK SMILES IDX 44 77 70 78 71 79 79 80 72 81 73 82 77 83 80 84 74 85 75 86
REMARK SMILES IDX 78 87 76 88 55 89 56 90 64 91 57 92 58 93 62 94 65 95 59 96
REMARK SMILES IDX 60 97 63 98 61 99
REMARK H PARENT 2 21 85 52 53 63
REMARK Flexibility Score: inf
ROOT
ATOM      1  C   UNL A   1      32.726  23.042  26.533  1.00  0.00     0.188 C 
ENDROOT
BRANCH   1   2
ATOM      2  C   UNL A   1      31.532  22.308  25.904  1.00  0.00     0.188 C 
BRANCH   2   3
ATOM      3  O   UNL A   1      31.503  22.126  24.508  1.00  0.00    -0.376 OA
BRANCH   3   4
ATOM      4  C   UNL A   1      32.696  22.103  23.742  1.00  0.00     0.202 C 
BRANCH   4   5
ATOM      5  C   UNL A   1      32.737  22.484  22.258  1.00  0.00     0.261 C 
BRANCH   5   6
ATOM      6  O   UNL A   1      33.278  23.789  21.977  1.00  0.00    -0.463 OA
BRANCH   6   7
ATOM      7  C   UNL A   1      34.231  24.236  22.827  1.00  0.00     0.307 C 
ATOM      8  O   UNL A   1      35.314  23.672  22.977  1.00  0.00    -0.252 OA
BRANCH   7   9
ATOM      9  C   UNL A   1      33.896  25.480  23.628  1.00  0.00     0.144 C 
BRANCH   9  10
ATOM     10  C   UNL A   1      32.584  25.674  24.387  1.00  0.00     0.130 C 
BRANCH  10  11
ATOM     11  N   UNL A   1      32.286  27.053  24.840  1.00  0.00    -0.352 N 
BRANCH  11  12
ATOM     12  C   UNL A   1      31.150  27.653  24.253  1.00  0.00     0.151 A 
ATOM     13  C   UNL A   1      28.925  28.896  23.171  1.00  0.00     0.150 A 
ATOM     14  C   UNL A   1      28.973  27.523  23.175  1.00  0.00     0.040 A 
ATOM     15  N   UNL A   1      29.937  29.643  23.639  1.00  0.00    -0.143 NA
ATOM     16  C   UNL A   1      30.081  26.915  23.755  1.00  0.00     0.051 A 
ATOM     17  N   UNL A   1      31.055  29.005  24.164  1.00  0.00    -0.132 NA
BRANCH  13  18
ATOM     18  C   UNL A   1      27.643  29.568  22.875  1.00  0.00     0.271 C 
ATOM     19  C   UNL A   1      28.775  31.068  21.165  1.00  0.00     0.143 C 
ATOM     20  N   UNL A   1      27.661  30.618  21.978  1.00  0.00    -0.354 N 
ATOM     21  H   UNL A   1      26.820  31.120  21.878  1.00  0.00     0.163 HD
ATOM     22  O   UNL A   1      26.607  29.238  23.441  1.00  0.00    -0.267 OA
ENDBRANCH  13  18
ENDBRANCH  11  12
BRANCH  11  23
ATOM     23  C   UNL A   1      33.043  27.511  26.024  1.00  0.00     0.084 C 
ATOM     24  C   UNL A   1      34.069  28.603  25.956  1.00  0.00     0.027 C 
ATOM     25  C   UNL A   1      32.873  28.735  26.865  1.00  0.00     0.027 C 
ENDBRANCH  11  23
ENDBRANCH  10  11
ENDBRANCH   9  10
ENDBRANCH   7   9
ENDBRANCH   6   7
ENDBRANCH   5   6
ENDBRANCH   4   5
ENDBRANCH   3   4
ENDBRANCH   2   3
ENDBRANCH   1   2
BRANCH   1  26
ATOM     26  O   UNL A   1      33.814  22.430  27.200  1.00  0.00    -0.377 OA
BRANCH  26  27
ATOM     27  C   UNL A   1      34.651  21.466  26.585  1.00  0.00     0.188 C 
BRANCH  27  28
ATOM     28  C   UNL A   1      35.853  21.939  25.761  1.00  0.00     0.188 C 
BRANCH  28  29
ATOM     29  O   UNL A   1      37.076  21.232  25.948  1.00  0.00    -0.376 OA
BRANCH  29  30
ATOM     30  C   UNL A   1      37.491  20.405  24.872  1.00  0.00     0.202 C 
BRANCH  30  31
ATOM     31  C   UNL A   1      38.812  19.679  25.163  1.00  0.00     0.261 C 
BRANCH  31  32
ATOM     32  O   UNL A   1      39.681  20.381  26.068  1.00  0.00    -0.460 OA
BRANCH  32  33
ATOM     33  C   UNL A   1      40.972  19.976  26.052  1.00  0.00     0.338 C 
ATOM     34  O   UNL A   1      41.419  18.889  25.705  1.00  0.00    -0.246 OA
BRANCH  33  35
ATOM     35  C   UNL A   1      41.833  21.083  26.498  1.00  0.00     0.060 A 
ATOM     36  C   UNL A   1      42.040  21.293  27.867  1.00  0.00     0.016 A 
ATOM     37  C   UNL A   1      42.352  21.972  25.556  1.00  0.00     0.016 A 
ATOM     38  C   UNL A   1      42.726  22.433  28.300  1.00  0.00     0.010 A 
ATOM     39  C   UNL A   1      43.027  23.114  25.990  1.00  0.00     0.010 A 
ATOM     40  C   UNL A   1      43.182  23.373  27.365  1.00  0.00    -0.014 A 
BRANCH  40  41
ATOM     41  C   UNL A   1      43.652  24.713  27.804  1.00  0.00     0.031 A 
ATOM     42  C   UNL A   1      42.625  25.763  28.139  1.00  0.00     0.074 A 
ATOM     43  C   UNL A   1      44.961  25.006  27.891  1.00  0.00     0.049 A 
ATOM     44  N   UNL A   1      42.790  27.027  28.436  1.00  0.00    -0.248 NA
ATOM     45  C   UNL A   1      41.220  25.325  28.133  1.00  0.00     0.031 C 
ATOM     46  C   UNL A   1      46.054  24.072  27.641  1.00  0.00     0.029 A 
ATOM     47  N   UNL A   1      45.589  26.188  28.201  1.00  0.00    -0.354 N 
ATOM     48  C   UNL A   1      41.512  27.537  28.639  1.00  0.00     0.074 A 
ATOM     49  C   UNL A   1      40.582  26.454  28.401  1.00  0.00     0.031 C 
ATOM     50  C   UNL A   1      47.222  24.720  27.793  1.00  0.00     0.029 A 
ATOM     51  C   UNL A   1      46.958  26.124  28.108  1.00  0.00     0.049 A 
ATOM     52  H   UNL A   1      45.104  27.003  28.465  1.00  0.00     0.167 HD
ATOM     53  C   UNL A   1      41.147  28.792  28.994  1.00  0.00     0.037 A 
ATOM     54  C   UNL A   1      47.885  27.095  28.230  1.00  0.00     0.037 A 
ATOM     55  C   UNL A   1      42.073  29.869  29.231  1.00  0.00     0.049 A 
ATOM     56  C   UNL A   1      47.450  28.507  28.545  1.00  0.00     0.074 A 
ATOM     57  C   UNL A   1      41.802  31.172  29.611  1.00  0.00     0.029 A 
ATOM     58  N   UNL A   1      43.450  29.771  29.100  1.00  0.00    -0.354 N 
ATOM     59  N   UNL A   1      46.244  28.978  28.749  1.00  0.00    -0.248 NA
ATOM     60  C   UNL A   1      48.510  29.522  28.646  1.00  0.00     0.031 C 
ATOM     61  C   UNL A   1      43.008  31.878  29.647  1.00  0.00     0.029 A 
ATOM     62  C   UNL A   1      44.039  30.998  29.363  1.00  0.00     0.049 A 
ATOM     63  H   UNL A   1      43.937  28.951  28.856  1.00  0.00     0.167 HD
ATOM     64  C   UNL A   1      46.403  30.327  29.043  1.00  0.00     0.074 A 
ATOM     65  C   UNL A   1      47.823  30.600  28.995  1.00  0.00     0.031 C 
ATOM     66  C   UNL A   1      45.457  31.255  29.331  1.00  0.00     0.037 A 
BRANCH  53  67
ATOM     67  C   UNL A   1      39.679  29.082  29.117  1.00  0.00     0.064 A 
ATOM     68  C   UNL A   1      38.894  29.426  28.005  1.00  0.00     0.173 A 
ATOM     69  C   UNL A   1      39.039  28.977  30.362  1.00  0.00     0.173 A 
ATOM     70  F   UNL A   1      39.456  29.550  26.794  1.00  0.00    -0.203 F 
ATOM     71  C   UNL A   1      37.531  29.681  28.141  1.00  0.00     0.198 A 
ATOM     72  C   UNL A   1      37.670  29.199  30.487  1.00  0.00     0.198 A 
ATOM     73  F   UNL A   1      39.739  28.645  31.457  1.00  0.00    -0.203 F 
ATOM     74  F   UNL A   1      36.813  30.058  27.074  1.00  0.00    -0.200 F 
ATOM     75  C   UNL A   1      36.920  29.560  29.380  1.00  0.00     0.200 A 
ATOM     76  F   UNL A   1      37.078  29.064  31.683  1.00  0.00    -0.200 F 
ATOM     77  F   UNL A   1      35.606  29.797  29.506  1.00  0.00    -0.200 F 
ENDBRANCH  53  67
BRANCH  54  78
ATOM     78  C   UNL A   1      49.326  26.777  28.036  1.00  0.00     0.064 A 
ATOM     79  C   UNL A   1      49.892  26.721  26.755  1.00  0.00     0.173 A 
ATOM     80  C   UNL A   1      50.162  26.494  29.128  1.00  0.00     0.173 A 
ATOM     81  F   UNL A   1      49.130  26.957  25.677  1.00  0.00    -0.203 F 
ATOM     82  C   UNL A   1      51.228  26.372  26.570  1.00  0.00     0.198 A 
ATOM     83  C   UNL A   1      51.506  26.179  28.945  1.00  0.00     0.198 A 
ATOM     84  F   UNL A   1      49.675  26.533  30.377  1.00  0.00    -0.203 F 
ATOM     85  F   UNL A   1      51.727  26.273  25.330  1.00  0.00    -0.200 F 
ATOM     86  C   UNL A   1      52.036  26.107  27.665  1.00  0.00     0.200 A 
ATOM     87  F   UNL A   1      52.287  25.941  30.008  1.00  0.00    -0.200 F 
ATOM     88  F   UNL A   1      53.322  25.777  27.489  1.00  0.00    -0.200 F 
ENDBRANCH  54  78
BRANCH  66  89
ATOM     89  C   UNL A   1      45.919  32.643  29.682  1.00  0.00     0.064 A 
ATOM     90  C   UNL A   1      46.035  33.656  28.717  1.00  0.00     0.173 A 
ATOM     91  C   UNL A   1      46.194  32.978  31.018  1.00  0.00     0.173 A 
ATOM     92  F   UNL A   1      45.798  33.388  27.425  1.00  0.00    -0.203 F 
ATOM     93  C   UNL A   1      46.433  34.942  29.075  1.00  0.00     0.198 A 
ATOM     94  C   UNL A   1      46.557  34.273  31.375  1.00  0.00     0.198 A 
ATOM     95  F   UNL A   1      46.089  32.051  31.983  1.00  0.00    -0.203 F 
ATOM     96  F   UNL A   1      46.584  35.881  28.130  1.00  0.00    -0.200 F 
ATOM     97  C   UNL A   1      46.684  35.253  30.403  1.00  0.00     0.200 A 
ATOM     98  F   UNL A   1      46.780  34.574  32.662  1.00  0.00    -0.200 F 
ATOM     99  F   UNL A   1      47.054  36.494  30.745  1.00  0.00    -0.200 F 
ENDBRANCH  66  89
ENDBRANCH  40  41
ENDBRANCH  33  35
ENDBRANCH  32  33
ENDBRANCH  31  32
ENDBRANCH  30  31
ENDBRANCH  29  30
ENDBRANCH  28  29
ENDBRANCH  27  28
ENDBRANCH  26  27
ENDBRANCH   1  26
TORSDOF 25
ENDMDL
