MODEL 1
REMARK VINA RESULT:      -9.9      0.000      0.000
REMARK SMILES O=C(Cn1cc(S(=O)(=O)NC2COC2)cn1)OCCOCCOCCOCCOC(=O)c1ccc(-c2c3nc(c(-c4c(F)c(F)c(F)c(F)c4F)c4ccc([nH]4)c(-c4c(F)c(F)c(F)c(F)c4F)c4nc(c(-c5c(F)c(F)c(F)c(F)c5F)c5ccc2[nH]5)C=C4)C=C3)cc1
REMARK SMILES IDX 22 1 21 2 20 3 19 4 18 5 17 6 2 7 1 8 3 9 4 10 5 11 16 12
REMARK SMILES IDX 6 13 15 14 7 15 8 16 9 17 10 18 11 20 12 21 14 22 13 23
REMARK SMILES IDX 23 24 24 25 25 26 26 27 27 28 28 29 29 30 30 31 31 32 32 33
REMARK SMILES IDX 33 34 94 35 34 36 93 37 35 38 36 39 37 40 87 41 38 42 92 43
REMARK SMILES IDX 86 44 88 45 39 46 91 47 85 48 84 49 40 51 72 52 52 53 71 54
REMARK SMILES IDX 53 55 56 56 70 57 89 58 54 59 55 60 69 62 90 63 57 64 41 65
REMARK SMILES IDX 42 66 50 67 43 68 44 69 48 70 51 71 45 72 46 73 49 74 47 75
REMARK SMILES IDX 73 76 74 77 82 78 75 79 76 80 80 81 83 82 77 83 78 84 81 85
REMARK SMILES IDX 79 86 58 87 59 88 67 89 60 90 61 91 65 92 68 93 62 94 63 95
REMARK SMILES IDX 66 96 64 97
REMARK H PARENT 10 19 88 50 56 61
REMARK Flexibility Score: inf
ROOT
ATOM      1  C   UNL A   1      36.871  22.242  25.585  1.00  0.00     0.188 C 
ENDROOT
BRANCH   1   2
ATOM      2  C   UNL A   1      36.216  23.411  24.855  1.00  0.00     0.188 C 
BRANCH   2   3
ATOM      3  O   UNL A   1      35.521  24.304  25.723  1.00  0.00    -0.376 OA
BRANCH   3   4
ATOM      4  C   UNL A   1      34.272  24.866  25.300  1.00  0.00     0.202 C 
BRANCH   4   5
ATOM      5  C   UNL A   1      34.285  26.333  24.894  1.00  0.00     0.261 C 
BRANCH   5   6
ATOM      6  O   UNL A   1      33.293  26.766  23.935  1.00  0.00    -0.462 OA
BRANCH   6   7
ATOM      7  C   UNL A   1      33.040  26.228  22.722  1.00  0.00     0.327 C 
ATOM      8  O   UNL A   1      33.989  25.968  21.979  1.00  0.00    -0.250 OA
BRANCH   7   9
ATOM      9  C   UNL A   1      31.637  25.866  22.317  1.00  0.00     0.266 C 
BRANCH   9  10
ATOM     10  N   UNL A   1      30.900  25.351  23.446  1.00  0.00    -0.260 N 
ATOM     11  C   UNL A   1      31.016  24.081  23.922  1.00  0.00     0.131 A 
ATOM     12  N   UNL A   1      30.228  26.173  24.281  1.00  0.00    -0.180 NA
ATOM     13  C   UNL A   1      30.660  24.179  25.248  1.00  0.00     0.120 A 
ATOM     14  C   UNL A   1      30.132  25.462  25.412  1.00  0.00     0.156 A 
BRANCH  13  15
ATOM     15  S   UNL A   1      30.981  23.031  26.459  1.00  0.00     0.244 S 
ATOM     16  O   UNL A   1      31.451  23.796  27.585  1.00  0.00    -0.207 OA
ATOM     17  O   UNL A   1      29.800  22.200  26.501  1.00  0.00    -0.207 OA
BRANCH  15  18
ATOM     18  N   UNL A   1      32.247  22.080  25.890  1.00  0.00    -0.203 NA
ATOM     19  H   UNL A   1      32.812  21.878  26.715  1.00  0.00     0.141 HD
BRANCH  18  20
ATOM     20  C   UNL A   1      32.150  20.771  25.161  1.00  0.00     0.121 C 
ATOM     21  C   UNL A   1      32.554  20.612  23.682  1.00  0.00     0.182 C 
ATOM     22  C   UNL A   1      33.228  19.703  25.387  1.00  0.00     0.182 C 
ATOM     23  O   UNL A   1      33.207  19.348  23.979  1.00  0.00    -0.378 OA
ENDBRANCH  18  20
ENDBRANCH  15  18
ENDBRANCH  13  15
ENDBRANCH   9  10
ENDBRANCH   7   9
ENDBRANCH   6   7
ENDBRANCH   5   6
ENDBRANCH   4   5
ENDBRANCH   3   4
ENDBRANCH   2   3
ENDBRANCH   1   2
BRANCH   1  24
ATOM     24  O   UNL A   1      38.172  21.843  25.185  1.00  0.00    -0.377 OA
BRANCH  24  25
ATOM     25  C   UNL A   1      39.215  21.823  26.135  1.00  0.00     0.188 C 
BRANCH  25  26
ATOM     26  C   UNL A   1      40.031  20.529  26.402  1.00  0.00     0.188 C 
BRANCH  26  27
ATOM     27  O   UNL A   1      41.343  20.447  26.931  1.00  0.00    -0.376 OA
BRANCH  27  28
ATOM     28  C   UNL A   1      42.532  20.248  26.182  1.00  0.00     0.202 C 
BRANCH  28  29
ATOM     29  C   UNL A   1      43.411  21.399  25.690  1.00  0.00     0.261 C 
BRANCH  29  30
ATOM     30  O   UNL A   1      42.674  22.381  24.995  1.00  0.00    -0.460 OA
BRANCH  30  31
ATOM     31  C   UNL A   1      43.075  23.638  25.263  1.00  0.00     0.338 C 
ATOM     32  O   UNL A   1      44.003  24.244  24.754  1.00  0.00    -0.246 OA
BRANCH  31  33
ATOM     33  C   UNL A   1      42.180  24.223  26.267  1.00  0.00     0.060 A 
ATOM     34  C   UNL A   1      41.176  25.062  25.780  1.00  0.00     0.016 A 
ATOM     35  C   UNL A   1      42.459  24.104  27.637  1.00  0.00     0.016 A 
ATOM     36  C   UNL A   1      40.692  26.027  26.624  1.00  0.00     0.010 A 
ATOM     37  C   UNL A   1      41.940  25.035  28.494  1.00  0.00     0.010 A 
ATOM     38  C   UNL A   1      41.220  26.074  27.915  1.00  0.00    -0.014 A 
BRANCH  38  39
ATOM     39  C   UNL A   1      41.313  27.385  28.514  1.00  0.00     0.031 A 
ATOM     40  C   UNL A   1      42.490  28.176  28.134  1.00  0.00     0.074 A 
ATOM     41  C   UNL A   1      40.306  27.807  29.309  1.00  0.00     0.049 A 
ATOM     42  N   UNL A   1      43.380  28.708  28.905  1.00  0.00    -0.248 NA
ATOM     43  C   UNL A   1      42.754  28.321  26.696  1.00  0.00     0.031 C 
ATOM     44  C   UNL A   1      38.987  27.188  29.509  1.00  0.00     0.029 A 
ATOM     45  N   UNL A   1      40.207  28.960  30.018  1.00  0.00    -0.354 N 
ATOM     46  C   UNL A   1      44.226  29.404  28.054  1.00  0.00     0.074 A 
ATOM     47  C   UNL A   1      43.882  29.027  26.707  1.00  0.00     0.031 C 
ATOM     48  C   UNL A   1      38.155  28.085  30.078  1.00  0.00     0.029 A 
ATOM     49  C   UNL A   1      38.912  29.282  30.387  1.00  0.00     0.049 A 
ATOM     50  H   UNL A   1      40.985  29.516  30.249  1.00  0.00     0.167 HD
ATOM     51  C   UNL A   1      44.991  30.432  28.500  1.00  0.00     0.037 A 
ATOM     52  C   UNL A   1      38.486  30.498  30.801  1.00  0.00     0.037 A 
ATOM     53  C   UNL A   1      45.222  30.374  29.915  1.00  0.00     0.049 A 
ATOM     54  C   UNL A   1      39.685  31.272  31.217  1.00  0.00     0.074 A 
ATOM     55  C   UNL A   1      45.822  29.453  30.751  1.00  0.00     0.029 A 
ATOM     56  N   UNL A   1      44.504  31.206  30.737  1.00  0.00    -0.354 N 
ATOM     57  N   UNL A   1      40.415  30.993  32.262  1.00  0.00    -0.248 NA
ATOM     58  C   UNL A   1      40.333  32.104  30.211  1.00  0.00     0.031 C 
ATOM     59  C   UNL A   1      45.070  29.495  31.961  1.00  0.00     0.029 A 
ATOM     60  C   UNL A   1      44.067  30.450  31.797  1.00  0.00     0.049 A 
ATOM     61  H   UNL A   1      44.334  32.166  30.594  1.00  0.00     0.167 HD
ATOM     62  C   UNL A   1      41.720  31.272  31.874  1.00  0.00     0.074 A 
ATOM     63  C   UNL A   1      41.596  32.042  30.642  1.00  0.00     0.031 C 
ATOM     64  C   UNL A   1      42.780  30.615  32.430  1.00  0.00     0.037 A 
BRANCH  51  65
ATOM     65  C   UNL A   1      45.240  31.648  27.662  1.00  0.00     0.064 A 
ATOM     66  C   UNL A   1      46.541  31.961  27.244  1.00  0.00     0.173 A 
ATOM     67  C   UNL A   1      44.265  32.653  27.471  1.00  0.00     0.173 A 
ATOM     68  F   UNL A   1      47.545  31.091  27.433  1.00  0.00    -0.203 F 
ATOM     69  C   UNL A   1      46.847  33.205  26.687  1.00  0.00     0.198 A 
ATOM     70  C   UNL A   1      44.559  33.868  26.862  1.00  0.00     0.198 A 
ATOM     71  F   UNL A   1      43.023  32.534  27.961  1.00  0.00    -0.203 F 
ATOM     72  F   UNL A   1      48.118  33.504  26.389  1.00  0.00    -0.200 F 
ATOM     73  C   UNL A   1      45.857  34.153  26.490  1.00  0.00     0.200 A 
ATOM     74  F   UNL A   1      43.591  34.780  26.705  1.00  0.00    -0.200 F 
ATOM     75  F   UNL A   1      46.157  35.359  25.992  1.00  0.00    -0.200 F 
ENDBRANCH  51  65
BRANCH  52  76
ATOM     76  C   UNL A   1      37.175  31.120  30.503  1.00  0.00     0.064 A 
ATOM     77  C   UNL A   1      36.322  31.541  31.532  1.00  0.00     0.173 A 
ATOM     78  C   UNL A   1      36.830  31.528  29.196  1.00  0.00     0.173 A 
ATOM     79  F   UNL A   1      36.610  31.243  32.808  1.00  0.00    -0.203 F 
ATOM     80  C   UNL A   1      35.193  32.325  31.272  1.00  0.00     0.198 A 
ATOM     81  C   UNL A   1      35.694  32.295  28.936  1.00  0.00     0.198 A 
ATOM     82  F   UNL A   1      37.631  31.269  28.154  1.00  0.00    -0.203 F 
ATOM     83  F   UNL A   1      34.430  32.755  32.287  1.00  0.00    -0.200 F 
ATOM     84  C   UNL A   1      34.882  32.702  29.975  1.00  0.00     0.200 A 
ATOM     85  F   UNL A   1      35.428  32.681  27.680  1.00  0.00    -0.200 F 
ATOM     86  F   UNL A   1      33.825  33.491  29.731  1.00  0.00    -0.200 F 
ENDBRANCH  52  76
BRANCH  64  87
ATOM     87  C   UNL A   1      42.507  29.763  33.638  1.00  0.00     0.064 A 
ATOM     88  C   UNL A   1      42.085  28.424  33.554  1.00  0.00     0.173 A 
ATOM     89  C   UNL A   1      42.825  30.260  34.908  1.00  0.00     0.173 A 
ATOM     90  F   UNL A   1      41.873  27.846  32.366  1.00  0.00    -0.203 F 
ATOM     91  C   UNL A   1      41.938  27.637  34.694  1.00  0.00     0.198 A 
ATOM     92  C   UNL A   1      42.711  29.461  36.043  1.00  0.00     0.198 A 
ATOM     93  F   UNL A   1      43.298  31.508  35.042  1.00  0.00    -0.203 F 
ATOM     94  F   UNL A   1      41.523  26.367  34.586  1.00  0.00    -0.200 F 
ATOM     95  C   UNL A   1      42.257  28.154  35.938  1.00  0.00     0.200 A 
ATOM     96  F   UNL A   1      43.071  29.947  37.239  1.00  0.00    -0.200 F 
ATOM     97  F   UNL A   1      42.157  27.386  37.032  1.00  0.00    -0.200 F 
ENDBRANCH  64  87
ENDBRANCH  38  39
ENDBRANCH  31  33
ENDBRANCH  30  31
ENDBRANCH  29  30
ENDBRANCH  28  29
ENDBRANCH  27  28
ENDBRANCH  26  27
ENDBRANCH  25  26
ENDBRANCH  24  25
ENDBRANCH   1  24
TORSDOF 24
ENDMDL
MODEL 2
REMARK VINA RESULT:      -9.7      3.490      9.125
REMARK SMILES O=C(Cn1cc(S(=O)(=O)NC2COC2)cn1)OCCOCCOCCOCCOC(=O)c1ccc(-c2c3nc(c(-c4c(F)c(F)c(F)c(F)c4F)c4ccc([nH]4)c(-c4c(F)c(F)c(F)c(F)c4F)c4nc(c(-c5c(F)c(F)c(F)c(F)c5F)c5ccc2[nH]5)C=C4)C=C3)cc1
REMARK SMILES IDX 22 1 21 2 20 3 19 4 18 5 17 6 2 7 1 8 3 9 4 10 5 11 16 12
REMARK SMILES IDX 6 13 15 14 7 15 8 16 9 17 10 18 11 20 12 21 14 22 13 23
REMARK SMILES IDX 23 24 24 25 25 26 26 27 27 28 28 29 29 30 30 31 31 32 32 33
REMARK SMILES IDX 33 34 94 35 34 36 93 37 35 38 36 39 37 40 87 41 38 42 92 43
REMARK SMILES IDX 86 44 88 45 39 46 91 47 85 48 84 49 40 51 72 52 52 53 71 54
REMARK SMILES IDX 53 55 56 56 70 57 89 58 54 59 55 60 69 62 90 63 57 64 41 65
REMARK SMILES IDX 42 66 50 67 43 68 44 69 48 70 51 71 45 72 46 73 49 74 47 75
REMARK SMILES IDX 73 76 74 77 82 78 75 79 76 80 80 81 83 82 77 83 78 84 81 85
REMARK SMILES IDX 79 86 58 87 59 88 67 89 60 90 61 91 65 92 68 93 62 94 63 95
REMARK SMILES IDX 66 96 64 97
REMARK H PARENT 10 19 88 50 56 61
REMARK Flexibility Score: inf
ROOT
ATOM      1  C   UNL A   1      33.936  33.736  28.471  1.00  0.00     0.188 C 
ENDROOT
BRANCH   1   2
ATOM      2  C   UNL A   1      33.718  32.316  27.954  1.00  0.00     0.188 C 
BRANCH   2   3
ATOM      3  O   UNL A   1      34.918  31.681  27.518  1.00  0.00    -0.376 OA
BRANCH   3   4
ATOM      4  C   UNL A   1      35.024  30.254  27.592  1.00  0.00     0.202 C 
BRANCH   4   5
ATOM      5  C   UNL A   1      34.027  29.450  26.769  1.00  0.00     0.261 C 
BRANCH   5   6
ATOM      6  O   UNL A   1      32.911  28.855  27.473  1.00  0.00    -0.462 OA
BRANCH   6   7
ATOM      7  C   UNL A   1      32.113  27.855  27.040  1.00  0.00     0.327 C 
ATOM      8  O   UNL A   1      31.185  27.482  27.762  1.00  0.00    -0.250 OA
BRANCH   7   9
ATOM      9  C   UNL A   1      32.292  27.265  25.668  1.00  0.00     0.266 C 
BRANCH   9  10
ATOM     10  N   UNL A   1      32.085  25.837  25.698  1.00  0.00    -0.260 N 
ATOM     11  C   UNL A   1      33.083  24.921  25.824  1.00  0.00     0.131 A 
ATOM     12  N   UNL A   1      30.853  25.309  25.866  1.00  0.00    -0.180 NA
ATOM     13  C   UNL A   1      32.471  23.825  26.390  1.00  0.00     0.120 A 
ATOM     14  C   UNL A   1      31.099  24.083  26.346  1.00  0.00     0.156 A 
BRANCH  13  15
ATOM     15  S   UNL A   1      33.254  22.522  27.150  1.00  0.00     0.244 S 
ATOM     16  O   UNL A   1      34.650  22.687  26.831  1.00  0.00    -0.207 OA
ATOM     17  O   UNL A   1      32.743  22.521  28.500  1.00  0.00    -0.207 OA
BRANCH  15  18
ATOM     18  N   UNL A   1      32.694  21.126  26.397  1.00  0.00    -0.203 NA
ATOM     19  H   UNL A   1      31.685  21.260  26.316  1.00  0.00     0.141 HD
BRANCH  18  20
ATOM     20  C   UNL A   1      33.115  20.575  25.065  1.00  0.00     0.121 C 
ATOM     21  C   UNL A   1      34.427  19.790  24.868  1.00  0.00     0.182 C 
ATOM     22  C   UNL A   1      32.471  19.281  24.549  1.00  0.00     0.182 C 
ATOM     23  O   UNL A   1      33.746  18.830  24.018  1.00  0.00    -0.378 OA
ENDBRANCH  18  20
ENDBRANCH  15  18
ENDBRANCH  13  15
ENDBRANCH   9  10
ENDBRANCH   7   9
ENDBRANCH   6   7
ENDBRANCH   5   6
ENDBRANCH   4   5
ENDBRANCH   3   4
ENDBRANCH   2   3
ENDBRANCH   1   2
BRANCH   1  24
ATOM     24  O   UNL A   1      32.839  34.413  29.061  1.00  0.00    -0.377 OA
BRANCH  24  25
ATOM     25  C   UNL A   1      33.020  35.716  29.570  1.00  0.00     0.188 C 
BRANCH  25  26
ATOM     26  C   UNL A   1      32.853  36.015  31.085  1.00  0.00     0.188 C 
BRANCH  26  27
ATOM     27  O   UNL A   1      33.248  35.184  32.163  1.00  0.00    -0.376 OA
BRANCH  27  28
ATOM     28  C   UNL A   1      34.378  34.326  32.182  1.00  0.00     0.202 C 
BRANCH  28  29
ATOM     29  C   UNL A   1      34.269  32.803  32.260  1.00  0.00     0.261 C 
BRANCH  29  30
ATOM     30  O   UNL A   1      35.098  32.155  31.320  1.00  0.00    -0.460 OA
BRANCH  30  31
ATOM     31  C   UNL A   1      36.103  31.460  31.887  1.00  0.00     0.338 C 
ATOM     32  O   UNL A   1      36.328  31.321  33.077  1.00  0.00    -0.246 OA
BRANCH  31  33
ATOM     33  C   UNL A   1      36.903  30.829  30.832  1.00  0.00     0.060 A 
ATOM     34  C   UNL A   1      36.771  29.445  30.705  1.00  0.00     0.016 A 
ATOM     35  C   UNL A   1      37.890  31.554  30.146  1.00  0.00     0.016 A 
ATOM     36  C   UNL A   1      37.827  28.754  30.170  1.00  0.00     0.010 A 
ATOM     37  C   UNL A   1      38.923  30.869  29.568  1.00  0.00     0.010 A 
ATOM     38  C   UNL A   1      38.939  29.493  29.766  1.00  0.00    -0.014 A 
BRANCH  38  39
ATOM     39  C   UNL A   1      40.220  28.839  29.911  1.00  0.00     0.031 A 
ATOM     40  C   UNL A   1      40.759  28.792  31.276  1.00  0.00     0.074 A 
ATOM     41  C   UNL A   1      40.786  28.277  28.823  1.00  0.00     0.049 A 
ATOM     42  N   UNL A   1      41.900  29.223  31.701  1.00  0.00    -0.248 NA
ATOM     43  C   UNL A   1      39.869  28.268  32.322  1.00  0.00     0.031 C 
ATOM     44  C   UNL A   1      40.183  28.049  27.501  1.00  0.00     0.029 A 
ATOM     45  N   UNL A   1      41.995  27.672  28.709  1.00  0.00    -0.354 N 
ATOM     46  C   UNL A   1      41.945  28.867  33.042  1.00  0.00     0.074 A 
ATOM     47  C   UNL A   1      40.628  28.409  33.405  1.00  0.00     0.031 C 
ATOM     48  C   UNL A   1      40.928  27.154  26.819  1.00  0.00     0.029 A 
ATOM     49  C   UNL A   1      42.109  26.847  27.602  1.00  0.00     0.049 A 
ATOM     50  H   UNL A   1      42.726  27.807  29.354  1.00  0.00     0.167 HD
ATOM     51  C   UNL A   1      43.122  28.741  33.703  1.00  0.00     0.037 A 
ATOM     52  C   UNL A   1      43.051  25.893  27.419  1.00  0.00     0.037 A 
ATOM     53  C   UNL A   1      44.186  29.475  33.080  1.00  0.00     0.049 A 
ATOM     54  C   UNL A   1      44.168  26.185  28.354  1.00  0.00     0.074 A 
ATOM     55  C   UNL A   1      44.390  30.811  32.796  1.00  0.00     0.029 A 
ATOM     56  N   UNL A   1      45.108  28.793  32.326  1.00  0.00    -0.354 N 
ATOM     57  N   UNL A   1      44.962  27.217  28.254  1.00  0.00    -0.248 NA
ATOM     58  C   UNL A   1      44.129  25.558  29.668  1.00  0.00     0.031 C 
ATOM     59  C   UNL A   1      45.095  30.832  31.558  1.00  0.00     0.029 A 
ATOM     60  C   UNL A   1      45.292  29.507  31.168  1.00  0.00     0.049 A 
ATOM     61  H   UNL A   1      45.553  27.948  32.570  1.00  0.00     0.167 HD
ATOM     62  C   UNL A   1      45.211  27.607  29.563  1.00  0.00     0.074 A 
ATOM     63  C   UNL A   1      44.754  26.494  30.388  1.00  0.00     0.031 C 
ATOM     64  C   UNL A   1      45.502  28.905  29.873  1.00  0.00     0.037 A 
BRANCH  51  65
ATOM     65  C   UNL A   1      43.334  27.677  34.735  1.00  0.00     0.064 A 
ATOM     66  C   UNL A   1      43.645  28.028  36.056  1.00  0.00     0.173 A 
ATOM     67  C   UNL A   1      43.488  26.312  34.400  1.00  0.00     0.173 A 
ATOM     68  F   UNL A   1      43.581  29.308  36.453  1.00  0.00    -0.203 F 
ATOM     69  C   UNL A   1      44.096  27.078  36.975  1.00  0.00     0.198 A 
ATOM     70  C   UNL A   1      43.880  25.358  35.332  1.00  0.00     0.198 A 
ATOM     71  F   UNL A   1      43.366  25.876  33.138  1.00  0.00    -0.203 F 
ATOM     72  F   UNL A   1      44.476  27.466  38.199  1.00  0.00    -0.200 F 
ATOM     73  C   UNL A   1      44.207  25.745  36.616  1.00  0.00     0.200 A 
ATOM     74  F   UNL A   1      44.004  24.078  34.956  1.00  0.00    -0.200 F 
ATOM     75  F   UNL A   1      44.676  24.840  37.484  1.00  0.00    -0.200 F 
ENDBRANCH  51  65
BRANCH  52  76
ATOM     76  C   UNL A   1      42.857  24.580  26.762  1.00  0.00     0.064 A 
ATOM     77  C   UNL A   1      43.620  24.208  25.646  1.00  0.00     0.173 A 
ATOM     78  C   UNL A   1      42.080  23.562  27.356  1.00  0.00     0.173 A 
ATOM     79  F   UNL A   1      44.429  25.101  25.057  1.00  0.00    -0.203 F 
ATOM     80  C   UNL A   1      43.608  22.898  25.155  1.00  0.00     0.198 A 
ATOM     81  C   UNL A   1      42.055  22.261  26.855  1.00  0.00     0.198 A 
ATOM     82  F   UNL A   1      41.395  23.783  28.488  1.00  0.00    -0.203 F 
ATOM     83  F   UNL A   1      44.392  22.566  24.120  1.00  0.00    -0.200 F 
ATOM     84  C   UNL A   1      42.828  21.926  25.762  1.00  0.00     0.200 A 
ATOM     85  F   UNL A   1      41.323  21.325  27.475  1.00  0.00    -0.200 F 
ATOM     86  F   UNL A   1      42.852  20.661  25.319  1.00  0.00    -0.200 F 
ENDBRANCH  52  76
BRANCH  64  87
ATOM     87  C   UNL A   1      45.782  29.840  28.730  1.00  0.00     0.064 A 
ATOM     88  C   UNL A   1      44.771  30.537  28.044  1.00  0.00     0.173 A 
ATOM     89  C   UNL A   1      47.109  30.159  28.419  1.00  0.00     0.173 A 
ATOM     90  F   UNL A   1      43.483  30.370  28.366  1.00  0.00    -0.203 F 
ATOM     91  C   UNL A   1      45.077  31.471  27.056  1.00  0.00     0.198 A 
ATOM     92  C   UNL A   1      47.413  31.118  27.455  1.00  0.00     0.198 A 
ATOM     93  F   UNL A   1      48.115  29.575  29.088  1.00  0.00    -0.203 F 
ATOM     94  F   UNL A   1      44.093  32.113  26.410  1.00  0.00    -0.200 F 
ATOM     95  C   UNL A   1      46.398  31.765  26.767  1.00  0.00     0.200 A 
ATOM     96  F   UNL A   1      48.692  31.439  27.214  1.00  0.00    -0.200 F 
ATOM     97  F   UNL A   1      46.694  32.693  25.846  1.00  0.00    -0.200 F 
ENDBRANCH  64  87
ENDBRANCH  38  39
ENDBRANCH  31  33
ENDBRANCH  30  31
ENDBRANCH  29  30
ENDBRANCH  28  29
ENDBRANCH  27  28
ENDBRANCH  26  27
ENDBRANCH  25  26
ENDBRANCH  24  25
ENDBRANCH   1  24
TORSDOF 24
ENDMDL
MODEL 3
REMARK VINA RESULT:      -9.7      2.701      4.179
REMARK SMILES O=C(Cn1cc(S(=O)(=O)NC2COC2)cn1)OCCOCCOCCOCCOC(=O)c1ccc(-c2c3nc(c(-c4c(F)c(F)c(F)c(F)c4F)c4ccc([nH]4)c(-c4c(F)c(F)c(F)c(F)c4F)c4nc(c(-c5c(F)c(F)c(F)c(F)c5F)c5ccc2[nH]5)C=C4)C=C3)cc1
REMARK SMILES IDX 22 1 21 2 20 3 19 4 18 5 17 6 2 7 1 8 3 9 4 10 5 11 16 12
REMARK SMILES IDX 6 13 15 14 7 15 8 16 9 17 10 18 11 20 12 21 14 22 13 23
REMARK SMILES IDX 23 24 24 25 25 26 26 27 27 28 28 29 29 30 30 31 31 32 32 33
REMARK SMILES IDX 33 34 94 35 34 36 93 37 35 38 36 39 37 40 87 41 38 42 92 43
REMARK SMILES IDX 86 44 88 45 39 46 91 47 85 48 84 49 40 51 72 52 52 53 71 54
REMARK SMILES IDX 53 55 56 56 70 57 89 58 54 59 55 60 69 62 90 63 57 64 41 65
REMARK SMILES IDX 42 66 50 67 43 68 44 69 48 70 51 71 45 72 46 73 49 74 47 75
REMARK SMILES IDX 73 76 74 77 82 78 75 79 76 80 80 81 83 82 77 83 78 84 81 85
REMARK SMILES IDX 79 86 58 87 59 88 67 89 60 90 61 91 65 92 68 93 62 94 63 95
REMARK SMILES IDX 66 96 64 97
REMARK H PARENT 10 19 88 50 56 61
REMARK Flexibility Score: inf
ROOT
ATOM      1  C   UNL A   1      38.121  22.519  26.014  1.00  0.00     0.188 C 
ENDROOT
BRANCH   1   2
ATOM      2  C   UNL A   1      37.216  22.808  24.820  1.00  0.00     0.188 C 
BRANCH   2   3
ATOM      3  O   UNL A   1      36.474  21.671  24.384  1.00  0.00    -0.376 OA
BRANCH   3   4
ATOM      4  C   UNL A   1      35.503  21.087  25.260  1.00  0.00     0.202 C 
BRANCH   4   5
ATOM      5  C   UNL A   1      34.173  21.818  25.392  1.00  0.00     0.261 C 
BRANCH   5   6
ATOM      6  O   UNL A   1      33.170  21.560  24.382  1.00  0.00    -0.462 OA
BRANCH   6   7
ATOM      7  C   UNL A   1      32.910  22.300  23.282  1.00  0.00     0.327 C 
ATOM      8  O   UNL A   1      31.799  22.211  22.756  1.00  0.00    -0.250 OA
BRANCH   7   9
ATOM      9  C   UNL A   1      33.922  23.284  22.759  1.00  0.00     0.266 C 
BRANCH   9  10
ATOM     10  N   UNL A   1      33.364  24.615  22.724  1.00  0.00    -0.260 N 
ATOM     11  C   UNL A   1      33.091  25.360  23.829  1.00  0.00     0.131 A 
ATOM     12  N   UNL A   1      33.313  25.325  21.576  1.00  0.00    -0.180 NA
ATOM     13  C   UNL A   1      33.162  26.662  23.389  1.00  0.00     0.120 A 
ATOM     14  C   UNL A   1      33.243  26.595  21.996  1.00  0.00     0.156 A 
BRANCH  13  15
ATOM     15  S   UNL A   1      33.308  28.044  24.368  1.00  0.00     0.244 S 
ATOM     16  O   UNL A   1      34.026  27.600  25.536  1.00  0.00    -0.207 OA
ATOM     17  O   UNL A   1      33.796  29.074  23.480  1.00  0.00    -0.207 OA
BRANCH  15  18
ATOM     18  N   UNL A   1      31.747  28.470  24.827  1.00  0.00    -0.203 NA
ATOM     19  H   UNL A   1      31.860  29.323  25.374  1.00  0.00     0.141 HD
BRANCH  18  20
ATOM     20  C   UNL A   1      30.575  28.742  23.930  1.00  0.00     0.121 C 
ATOM     21  C   UNL A   1      30.731  29.327  22.512  1.00  0.00     0.182 C 
ATOM     22  C   UNL A   1      29.914  27.576  23.182  1.00  0.00     0.182 C 
ATOM     23  O   UNL A   1      29.736  28.401  22.000  1.00  0.00    -0.378 OA
ENDBRANCH  18  20
ENDBRANCH  15  18
ENDBRANCH  13  15
ENDBRANCH   9  10
ENDBRANCH   7   9
ENDBRANCH   6   7
ENDBRANCH   5   6
ENDBRANCH   4   5
ENDBRANCH   3   4
ENDBRANCH   2   3
ENDBRANCH   1   2
BRANCH   1  24
ATOM     24  O   UNL A   1      38.999  21.408  25.939  1.00  0.00    -0.377 OA
BRANCH  24  25
ATOM     25  C   UNL A   1      40.302  21.515  26.471  1.00  0.00     0.188 C 
BRANCH  25  26
ATOM     26  C   UNL A   1      40.946  20.339  27.254  1.00  0.00     0.188 C 
BRANCH  26  27
ATOM     27  O   UNL A   1      42.266  19.843  27.107  1.00  0.00    -0.376 OA
BRANCH  27  28
ATOM     28  C   UNL A   1      42.661  18.760  26.280  1.00  0.00     0.202 C 
BRANCH  28  29
ATOM     29  C   UNL A   1      43.859  18.827  25.332  1.00  0.00     0.261 C 
BRANCH  29  30
ATOM     30  O   UNL A   1      43.919  20.048  24.626  1.00  0.00    -0.460 OA
BRANCH  30  31
ATOM     31  C   UNL A   1      44.953  20.827  24.997  1.00  0.00     0.338 C 
ATOM     32  O   UNL A   1      46.040  20.466  25.415  1.00  0.00    -0.246 OA
BRANCH  31  33
ATOM     33  C   UNL A   1      44.595  22.233  24.781  1.00  0.00     0.060 A 
ATOM     34  C   UNL A   1      45.660  23.126  24.658  1.00  0.00     0.016 A 
ATOM     35  C   UNL A   1      43.266  22.664  24.906  1.00  0.00     0.016 A 
ATOM     36  C   UNL A   1      45.435  24.434  25.001  1.00  0.00     0.010 A 
ATOM     37  C   UNL A   1      43.028  23.978  25.200  1.00  0.00     0.010 A 
ATOM     38  C   UNL A   1      44.147  24.775  25.417  1.00  0.00    -0.014 A 
BRANCH  38  39
ATOM     39  C   UNL A   1      44.060  25.819  26.412  1.00  0.00     0.031 A 
ATOM     40  C   UNL A   1      45.126  26.828  26.371  1.00  0.00     0.074 A 
ATOM     41  C   UNL A   1      42.998  25.832  27.245  1.00  0.00     0.049 A 
ATOM     42  N   UNL A   1      45.929  27.181  27.319  1.00  0.00    -0.248 NA
ATOM     43  C   UNL A   1      45.383  27.467  25.073  1.00  0.00     0.031 C 
ATOM     44  C   UNL A   1      41.770  25.025  27.164  1.00  0.00     0.029 A 
ATOM     45  N   UNL A   1      42.740  26.667  28.283  1.00  0.00    -0.354 N 
ATOM     46  C   UNL A   1      46.685  28.216  26.785  1.00  0.00     0.074 A 
ATOM     47  C   UNL A   1      46.409  28.261  25.372  1.00  0.00     0.031 C 
ATOM     48  C   UNL A   1      40.821  25.579  27.947  1.00  0.00     0.029 A 
ATOM     49  C   UNL A   1      41.409  26.691  28.666  1.00  0.00     0.049 A 
ATOM     50  H   UNL A   1      43.435  27.208  28.722  1.00  0.00     0.167 HD
ATOM     51  C   UNL A   1      47.302  29.126  27.579  1.00  0.00     0.037 A 
ATOM     52  C   UNL A   1      40.822  27.644  29.428  1.00  0.00     0.037 A 
ATOM     53  C   UNL A   1      47.523  28.637  28.909  1.00  0.00     0.049 A 
ATOM     54  C   UNL A   1      41.903  28.378  30.135  1.00  0.00     0.074 A 
ATOM     55  C   UNL A   1      48.231  27.572  29.434  1.00  0.00     0.029 A 
ATOM     56  N   UNL A   1      46.694  29.059  29.917  1.00  0.00    -0.354 N 
ATOM     57  N   UNL A   1      42.653  27.864  31.071  1.00  0.00    -0.248 NA
ATOM     58  C   UNL A   1      42.446  29.566  29.488  1.00  0.00     0.031 C 
ATOM     59  C   UNL A   1      47.468  27.124  30.551  1.00  0.00     0.029 A 
ATOM     60  C   UNL A   1      46.349  27.951  30.650  1.00  0.00     0.049 A 
ATOM     61  H   UNL A   1      46.399  29.985  30.083  1.00  0.00     0.167 HD
ATOM     62  C   UNL A   1      43.913  28.410  30.864  1.00  0.00     0.074 A 
ATOM     63  C   UNL A   1      43.702  29.520  29.942  1.00  0.00     0.031 C 
ATOM     64  C   UNL A   1      45.045  27.741  31.233  1.00  0.00     0.037 A 
BRANCH  51  65
ATOM     65  C   UNL A   1      47.397  30.570  27.194  1.00  0.00     0.064 A 
ATOM     66  C   UNL A   1      48.635  31.228  27.224  1.00  0.00     0.173 A 
ATOM     67  C   UNL A   1      46.258  31.392  27.037  1.00  0.00     0.173 A 
ATOM     68  F   UNL A   1      49.768  30.537  27.424  1.00  0.00    -0.203 F 
ATOM     69  C   UNL A   1      48.723  32.618  27.122  1.00  0.00     0.198 A 
ATOM     70  C   UNL A   1      46.353  32.769  26.875  1.00  0.00     0.198 A 
ATOM     71  F   UNL A   1      45.014  30.902  27.139  1.00  0.00    -0.203 F 
ATOM     72  F   UNL A   1      49.913  33.219  27.253  1.00  0.00    -0.200 F 
ATOM     73  C   UNL A   1      47.585  33.386  26.941  1.00  0.00     0.200 A 
ATOM     74  F   UNL A   1      45.237  33.496  26.726  1.00  0.00    -0.200 F 
ATOM     75  F   UNL A   1      47.666  34.721  26.881  1.00  0.00    -0.200 F 
ENDBRANCH  51  65
BRANCH  52  76
ATOM     76  C   UNL A   1      39.444  28.164  29.277  1.00  0.00     0.064 A 
ATOM     77  C   UNL A   1      38.582  28.262  30.379  1.00  0.00     0.173 A 
ATOM     78  C   UNL A   1      39.017  28.796  28.089  1.00  0.00     0.173 A 
ATOM     79  F   UNL A   1      38.938  27.738  31.560  1.00  0.00    -0.203 F 
ATOM     80  C   UNL A   1      37.368  28.953  30.298  1.00  0.00     0.198 A 
ATOM     81  C   UNL A   1      37.798  29.469  28.005  1.00  0.00     0.198 A 
ATOM     82  F   UNL A   1      39.809  28.852  27.010  1.00  0.00    -0.203 F 
ATOM     83  F   UNL A   1      36.595  29.074  31.386  1.00  0.00    -0.200 F 
ATOM     84  C   UNL A   1      36.979  29.557  29.112  1.00  0.00     0.200 A 
ATOM     85  F   UNL A   1      37.454  30.078  26.861  1.00  0.00    -0.200 F 
ATOM     86  F   UNL A   1      35.837  30.257  29.049  1.00  0.00    -0.200 F 
ENDBRANCH  52  76
BRANCH  64  87
ATOM     87  C   UNL A   1      44.875  26.515  32.085  1.00  0.00     0.064 A 
ATOM     88  C   UNL A   1      44.579  25.247  31.554  1.00  0.00     0.173 A 
ATOM     89  C   UNL A   1      45.166  26.589  33.452  1.00  0.00     0.173 A 
ATOM     90  F   UNL A   1      44.401  25.079  30.238  1.00  0.00    -0.203 F 
ATOM     91  C   UNL A   1      44.526  24.115  32.365  1.00  0.00     0.198 A 
ATOM     92  C   UNL A   1      45.148  25.451  34.255  1.00  0.00     0.198 A 
ATOM     93  F   UNL A   1      45.521  27.760  34.001  1.00  0.00    -0.203 F 
ATOM     94  F   UNL A   1      44.231  22.920  31.834  1.00  0.00    -0.200 F 
ATOM     95  C   UNL A   1      44.817  24.217  33.714  1.00  0.00     0.200 A 
ATOM     96  F   UNL A   1      45.481  25.543  35.550  1.00  0.00    -0.200 F 
ATOM     97  F   UNL A   1      44.808  23.123  34.489  1.00  0.00    -0.200 F 
ENDBRANCH  64  87
ENDBRANCH  38  39
ENDBRANCH  31  33
ENDBRANCH  30  31
ENDBRANCH  29  30
ENDBRANCH  28  29
ENDBRANCH  27  28
ENDBRANCH  26  27
ENDBRANCH  25  26
ENDBRANCH  24  25
ENDBRANCH   1  24
TORSDOF 24
ENDMDL
