MODEL 1
REMARK VINA RESULT:     -10.2      0.000      0.000
REMARK SMILES O=CN1CCN(S(=O)(=O)c2ccc(C(=O)OCCOCCOCCOCCOC(=O)c3ccc(-c4c5nc(c(-c6c(F)c(F)c(F)c(F)c6F)c6ccc([nH]6)c(-c6c(F)c(F)c(F)c(F)c6F)c6nc(c(-c7c(F)c(F)c(F)c(F)c7F)c7ccc4[nH]7)C=C6)C=C5)cc3)cc2)CC1
REMARK SMILES IDX 22 1 21 2 20 3 19 4 18 5 17 6 16 7 14 8 15 9 13 10 10 11
REMARK SMILES IDX 11 12 95 13 12 14 94 15 7 16 8 17 9 18 6 19 1 20 2 21 3 22
REMARK SMILES IDX 4 23 97 24 5 25 96 26 23 27 24 28 25 29 26 30 27 31 28 32
REMARK SMILES IDX 29 33 30 34 31 35 32 36 93 37 33 38 92 39 34 40 35 41 36 42
REMARK SMILES IDX 86 43 37 44 91 45 85 46 87 47 38 48 90 49 84 50 83 51 39 53
REMARK SMILES IDX 71 54 51 55 70 56 52 57 55 58 69 59 88 60 53 61 54 62 68 64
REMARK SMILES IDX 89 65 56 66 40 67 41 68 49 69 42 70 43 71 47 72 50 73 44 74
REMARK SMILES IDX 45 75 48 76 46 77 72 78 73 79 81 80 74 81 75 82 79 83 82 84
REMARK SMILES IDX 76 85 77 86 80 87 78 88 57 89 58 90 66 91 59 92 60 93 64 94
REMARK SMILES IDX 67 95 61 96 62 97 65 98 63 99
REMARK H PARENT 87 52 55 63
REMARK Flexibility Score: inf
ROOT
ATOM      1  O   UNL A   1      32.882  27.829  27.332  1.00  0.00    -0.377 OA
ENDROOT
BRANCH   1   2
ATOM      2  C   UNL A   1      31.642  28.240  26.777  1.00  0.00     0.188 C 
BRANCH   2   3
ATOM      3  C   UNL A   1      31.404  29.759  26.653  1.00  0.00     0.188 C 
BRANCH   3   4
ATOM      4  O   UNL A   1      31.533  30.239  25.324  1.00  0.00    -0.376 OA
BRANCH   4   5
ATOM      5  C   UNL A   1      31.455  29.332  24.240  1.00  0.00     0.202 C 
BRANCH   5   6
ATOM      6  C   UNL A   1      30.191  29.293  23.367  1.00  0.00     0.261 C 
BRANCH   6   7
ATOM      7  O   UNL A   1      29.976  28.086  22.634  1.00  0.00    -0.460 OA
BRANCH   7   8
ATOM      8  C   UNL A   1      29.556  27.011  23.332  1.00  0.00     0.338 C 
ATOM      9  O   UNL A   1      28.411  26.762  23.666  1.00  0.00    -0.246 OA
BRANCH   8  10
ATOM     10  C   UNL A   1      30.698  26.072  23.471  1.00  0.00     0.060 A 
ATOM     11  C   UNL A   1      32.814  24.278  23.620  1.00  0.00     0.082 A 
ATOM     12  C   UNL A   1      32.677  25.081  22.486  1.00  0.00     0.022 A 
ATOM     13  C   UNL A   1      31.990  24.468  24.735  1.00  0.00     0.022 A 
ATOM     14  C   UNL A   1      31.617  25.984  22.416  1.00  0.00     0.017 A 
ATOM     15  C   UNL A   1      30.906  25.338  24.647  1.00  0.00     0.017 A 
BRANCH  11  16
ATOM     16  S   UNL A   1      34.004  22.961  23.642  1.00  0.00     0.243 S 
ATOM     17  O   UNL A   1      35.084  23.325  22.763  1.00  0.00    -0.207 OA
ATOM     18  O   UNL A   1      33.286  21.711  23.452  1.00  0.00    -0.207 OA
BRANCH  16  19
ATOM     19  N   UNL A   1      34.563  22.972  25.263  1.00  0.00    -0.194 NA
ATOM     20  O   UNL A   1      39.504  22.491  26.061  1.00  0.00    -0.279 OA
ATOM     21  C   UNL A   1      38.563  21.723  25.914  1.00  0.00     0.340 C 
ATOM     22  N   UNL A   1      37.305  22.076  25.486  1.00  0.00    -0.343 N 
ATOM     23  C   UNL A   1      36.236  21.093  25.295  1.00  0.00     0.136 C 
ATOM     24  C   UNL A   1      37.025  23.452  25.083  1.00  0.00     0.136 C 
ATOM     25  C   UNL A   1      34.879  21.608  25.809  1.00  0.00     0.124 C 
ATOM     26  C   UNL A   1      35.674  23.913  25.636  1.00  0.00     0.124 C 
ENDBRANCH  16  19
ENDBRANCH  11  16
ENDBRANCH   8  10
ENDBRANCH   7   8
ENDBRANCH   6   7
ENDBRANCH   5   6
ENDBRANCH   4   5
ENDBRANCH   3   4
ENDBRANCH   2   3
ENDBRANCH   1   2
BRANCH   1  27
ATOM     27  C   UNL A   1      34.092  28.091  26.618  1.00  0.00     0.188 C 
BRANCH  27  28
ATOM     28  C   UNL A   1      34.853  29.439  26.708  1.00  0.00     0.188 C 
BRANCH  28  29
ATOM     29  O   UNL A   1      34.478  30.265  27.795  1.00  0.00    -0.376 OA
BRANCH  29  30
ATOM     30  C   UNL A   1      34.568  31.668  27.628  1.00  0.00     0.202 C 
BRANCH  30  31
ATOM     31  C   UNL A   1      33.275  32.467  27.833  1.00  0.00     0.261 C 
BRANCH  31  32
ATOM     32  O   UNL A   1      33.377  33.888  27.650  1.00  0.00    -0.460 OA
BRANCH  32  33
ATOM     33  C   UNL A   1      33.406  34.656  28.760  1.00  0.00     0.338 C 
ATOM     34  O   UNL A   1      32.568  35.460  29.125  1.00  0.00    -0.246 OA
BRANCH  33  35
ATOM     35  C   UNL A   1      34.560  34.217  29.573  1.00  0.00     0.060 A 
ATOM     36  C   UNL A   1      35.860  34.489  29.124  1.00  0.00     0.016 A 
ATOM     37  C   UNL A   1      34.354  33.555  30.785  1.00  0.00     0.016 A 
ATOM     38  C   UNL A   1      36.959  34.075  29.878  1.00  0.00     0.010 A 
ATOM     39  C   UNL A   1      35.456  33.122  31.528  1.00  0.00     0.010 A 
ATOM     40  C   UNL A   1      36.763  33.355  31.065  1.00  0.00    -0.014 A 
BRANCH  40  41
ATOM     41  C   UNL A   1      37.910  32.695  31.733  1.00  0.00     0.031 A 
ATOM     42  C   UNL A   1      38.548  31.513  31.054  1.00  0.00     0.074 A 
ATOM     43  C   UNL A   1      38.380  33.130  32.915  1.00  0.00     0.049 A 
ATOM     44  N   UNL A   1      39.502  30.724  31.476  1.00  0.00    -0.248 NA
ATOM     45  C   UNL A   1      38.034  31.172  29.717  1.00  0.00     0.031 C 
ATOM     46  C   UNL A   1      37.873  34.285  33.653  1.00  0.00     0.029 A 
ATOM     47  N   UNL A   1      39.383  32.634  33.714  1.00  0.00    -0.354 N 
ATOM     48  C   UNL A   1      39.692  29.790  30.468  1.00  0.00     0.074 A 
ATOM     49  C   UNL A   1      38.742  30.093  29.420  1.00  0.00     0.031 C 
ATOM     50  C   UNL A   1      38.552  34.395  34.808  1.00  0.00     0.029 A 
ATOM     51  C   UNL A   1      39.514  33.298  34.908  1.00  0.00     0.049 A 
ATOM     52  H   UNL A   1      39.952  31.874  33.453  1.00  0.00     0.167 HD
ATOM     53  C   UNL A   1      40.583  28.772  30.418  1.00  0.00     0.037 A 
ATOM     54  C   UNL A   1      40.297  33.026  35.972  1.00  0.00     0.037 A 
ATOM     55  C   UNL A   1      41.533  28.478  31.459  1.00  0.00     0.049 A 
ATOM     56  C   UNL A   1      41.232  31.841  35.918  1.00  0.00     0.074 A 
ATOM     57  C   UNL A   1      42.502  27.490  31.485  1.00  0.00     0.029 A 
ATOM     58  N   UNL A   1      41.624  29.161  32.661  1.00  0.00    -0.354 N 
ATOM     59  N   UNL A   1      41.436  30.988  34.945  1.00  0.00    -0.248 NA
ATOM     60  C   UNL A   1      42.049  31.585  37.115  1.00  0.00     0.031 C 
ATOM     61  C   UNL A   1      43.133  27.531  32.731  1.00  0.00     0.029 A 
ATOM     62  C   UNL A   1      42.609  28.592  33.453  1.00  0.00     0.049 A 
ATOM     63  H   UNL A   1      41.072  29.935  32.916  1.00  0.00     0.167 HD
ATOM     64  C   UNL A   1      42.423  30.118  35.396  1.00  0.00     0.074 A 
ATOM     65  C   UNL A   1      42.790  30.558  36.724  1.00  0.00     0.031 C 
ATOM     66  C   UNL A   1      42.974  29.050  34.769  1.00  0.00     0.037 A 
BRANCH  53  67
ATOM     67  C   UNL A   1      40.561  27.876  29.215  1.00  0.00     0.064 A 
ATOM     68  C   UNL A   1      39.698  26.773  29.129  1.00  0.00     0.173 A 
ATOM     69  C   UNL A   1      41.368  28.168  28.105  1.00  0.00     0.173 A 
ATOM     70  F   UNL A   1      38.916  26.443  30.168  1.00  0.00    -0.203 F 
ATOM     71  C   UNL A   1      39.654  25.989  27.978  1.00  0.00     0.198 A 
ATOM     72  C   UNL A   1      41.298  27.400  26.946  1.00  0.00     0.198 A 
ATOM     73  F   UNL A   1      42.209  29.212  28.136  1.00  0.00    -0.203 F 
ATOM     74  F   UNL A   1      38.847  24.920  27.929  1.00  0.00    -0.200 F 
ATOM     75  C   UNL A   1      40.444  26.309  26.885  1.00  0.00     0.200 A 
ATOM     76  F   UNL A   1      42.052  27.720  25.885  1.00  0.00    -0.200 F 
ATOM     77  F   UNL A   1      40.386  25.566  25.772  1.00  0.00    -0.200 F 
ENDBRANCH  53  67
BRANCH  54  78
ATOM     78  C   UNL A   1      40.211  33.861  37.203  1.00  0.00     0.064 A 
ATOM     79  C   UNL A   1      39.260  33.596  38.199  1.00  0.00     0.173 A 
ATOM     80  C   UNL A   1      41.040  34.980  37.380  1.00  0.00     0.173 A 
ATOM     81  F   UNL A   1      38.423  32.555  38.066  1.00  0.00    -0.203 F 
ATOM     82  C   UNL A   1      39.119  34.434  39.304  1.00  0.00     0.198 A 
ATOM     83  C   UNL A   1      40.924  35.795  38.504  1.00  0.00     0.198 A 
ATOM     84  F   UNL A   1      41.965  35.284  36.458  1.00  0.00    -0.203 F 
ATOM     85  F   UNL A   1      38.154  34.194  40.204  1.00  0.00    -0.200 F 
ATOM     86  C   UNL A   1      39.953  35.530  39.458  1.00  0.00     0.200 A 
ATOM     87  F   UNL A   1      41.742  36.845  38.655  1.00  0.00    -0.200 F 
ATOM     88  F   UNL A   1      39.815  36.338  40.518  1.00  0.00    -0.200 F 
ENDBRANCH  54  78
BRANCH  66  89
ATOM     89  C   UNL A   1      44.067  28.308  35.486  1.00  0.00     0.064 A 
ATOM     90  C   UNL A   1      45.418  28.659  35.346  1.00  0.00     0.173 A 
ATOM     91  C   UNL A   1      43.752  27.259  36.366  1.00  0.00     0.173 A 
ATOM     92  F   UNL A   1      45.776  29.646  34.510  1.00  0.00    -0.203 F 
ATOM     93  C   UNL A   1      46.412  27.971  36.036  1.00  0.00     0.198 A 
ATOM     94  C   UNL A   1      44.745  26.598  37.081  1.00  0.00     0.198 A 
ATOM     95  F   UNL A   1      42.475  26.889  36.546  1.00  0.00    -0.203 F 
ATOM     96  F   UNL A   1      47.701  28.290  35.845  1.00  0.00    -0.200 F 
ATOM     97  C   UNL A   1      46.075  26.948  36.909  1.00  0.00     0.200 A 
ATOM     98  F   UNL A   1      44.414  25.623  37.939  1.00  0.00    -0.200 F 
ATOM     99  F   UNL A   1      47.034  26.293  37.580  1.00  0.00    -0.200 F 
ENDBRANCH  66  89
ENDBRANCH  40  41
ENDBRANCH  33  35
ENDBRANCH  32  33
ENDBRANCH  31  32
ENDBRANCH  30  31
ENDBRANCH  29  30
ENDBRANCH  28  29
ENDBRANCH  27  28
ENDBRANCH   1  27
TORSDOF 22
ENDMDL
MODEL 2
REMARK VINA RESULT:     -10.0      1.521      7.238
REMARK SMILES O=CN1CCN(S(=O)(=O)c2ccc(C(=O)OCCOCCOCCOCCOC(=O)c3ccc(-c4c5nc(c(-c6c(F)c(F)c(F)c(F)c6F)c6ccc([nH]6)c(-c6c(F)c(F)c(F)c(F)c6F)c6nc(c(-c7c(F)c(F)c(F)c(F)c7F)c7ccc4[nH]7)C=C6)C=C5)cc3)cc2)CC1
REMARK SMILES IDX 22 1 21 2 20 3 19 4 18 5 17 6 16 7 14 8 15 9 13 10 10 11
REMARK SMILES IDX 11 12 95 13 12 14 94 15 7 16 8 17 9 18 6 19 1 20 2 21 3 22
REMARK SMILES IDX 4 23 97 24 5 25 96 26 23 27 24 28 25 29 26 30 27 31 28 32
REMARK SMILES IDX 29 33 30 34 31 35 32 36 93 37 33 38 92 39 34 40 35 41 36 42
REMARK SMILES IDX 86 43 37 44 91 45 85 46 87 47 38 48 90 49 84 50 83 51 39 53
REMARK SMILES IDX 71 54 51 55 70 56 52 57 55 58 69 59 88 60 53 61 54 62 68 64
REMARK SMILES IDX 89 65 56 66 40 67 41 68 49 69 42 70 43 71 47 72 50 73 44 74
REMARK SMILES IDX 45 75 48 76 46 77 72 78 73 79 81 80 74 81 75 82 79 83 82 84
REMARK SMILES IDX 76 85 77 86 80 87 78 88 57 89 58 90 66 91 59 92 60 93 64 94
REMARK SMILES IDX 67 95 61 96 62 97 65 98 63 99
REMARK H PARENT 87 52 55 63
REMARK Flexibility Score: inf
ROOT
ATOM      1  O   UNL A   1      33.654  28.609  25.149  1.00  0.00    -0.377 OA
ENDROOT
BRANCH   1   2
ATOM      2  C   UNL A   1      33.969  28.918  23.799  1.00  0.00     0.188 C 
BRANCH   2   3
ATOM      3  C   UNL A   1      33.005  28.384  22.721  1.00  0.00     0.188 C 
BRANCH   3   4
ATOM      4  O   UNL A   1      31.982  29.306  22.377  1.00  0.00    -0.376 OA
BRANCH   4   5
ATOM      5  C   UNL A   1      30.693  28.830  22.034  1.00  0.00     0.202 C 
BRANCH   5   6
ATOM      6  C   UNL A   1      29.642  28.616  23.133  1.00  0.00     0.261 C 
BRANCH   6   7
ATOM      7  O   UNL A   1      29.971  27.652  24.133  1.00  0.00    -0.460 OA
BRANCH   7   8
ATOM      8  C   UNL A   1      29.180  26.562  24.217  1.00  0.00     0.338 C 
ATOM      9  O   UNL A   1      28.006  26.488  23.900  1.00  0.00    -0.246 OA
BRANCH   8  10
ATOM     10  C   UNL A   1      30.029  25.400  24.588  1.00  0.00     0.060 A 
ATOM     11  C   UNL A   1      31.679  23.300  25.352  1.00  0.00     0.082 A 
ATOM     12  C   UNL A   1      31.167  24.157  26.328  1.00  0.00     0.022 A 
ATOM     13  C   UNL A   1      31.257  23.398  24.021  1.00  0.00     0.022 A 
ATOM     14  C   UNL A   1      30.335  25.207  25.942  1.00  0.00     0.017 A 
ATOM     15  C   UNL A   1      30.463  24.473  23.630  1.00  0.00     0.017 A 
BRANCH  11  16
ATOM     16  S   UNL A   1      32.921  22.105  25.777  1.00  0.00     0.243 S 
ATOM     17  O   UNL A   1      32.355  20.795  25.596  1.00  0.00    -0.207 OA
ATOM     18  O   UNL A   1      33.491  22.494  27.057  1.00  0.00    -0.207 OA
BRANCH  16  19
ATOM     19  N   UNL A   1      34.133  22.369  24.593  1.00  0.00    -0.194 NA
ATOM     20  O   UNL A   1      38.929  21.660  25.926  1.00  0.00    -0.279 OA
ATOM     21  C   UNL A   1      38.137  22.591  25.974  1.00  0.00     0.340 C 
ATOM     22  N   UNL A   1      36.784  22.499  25.746  1.00  0.00    -0.343 N 
ATOM     23  C   UNL A   1      35.889  23.652  25.860  1.00  0.00     0.136 C 
ATOM     24  C   UNL A   1      36.168  21.198  25.496  1.00  0.00     0.136 C 
ATOM     25  C   UNL A   1      34.843  23.686  24.730  1.00  0.00     0.124 C 
ATOM     26  C   UNL A   1      35.153  21.292  24.353  1.00  0.00     0.124 C 
ENDBRANCH  16  19
ENDBRANCH  11  16
ENDBRANCH   8  10
ENDBRANCH   7   8
ENDBRANCH   6   7
ENDBRANCH   5   6
ENDBRANCH   4   5
ENDBRANCH   3   4
ENDBRANCH   2   3
ENDBRANCH   1   2
BRANCH   1  27
ATOM     27  C   UNL A   1      33.080  29.616  25.984  1.00  0.00     0.188 C 
BRANCH  27  28
ATOM     28  C   UNL A   1      31.691  30.250  25.711  1.00  0.00     0.188 C 
BRANCH  28  29
ATOM     29  O   UNL A   1      31.392  31.393  26.493  1.00  0.00    -0.376 OA
BRANCH  29  30
ATOM     30  C   UNL A   1      32.461  32.054  27.143  1.00  0.00     0.202 C 
BRANCH  30  31
ATOM     31  C   UNL A   1      32.395  33.586  27.184  1.00  0.00     0.261 C 
BRANCH  31  32
ATOM     32  O   UNL A   1      32.570  34.189  28.476  1.00  0.00    -0.460 OA
BRANCH  32  33
ATOM     33  C   UNL A   1      33.685  34.926  28.671  1.00  0.00     0.338 C 
ATOM     34  O   UNL A   1      33.781  36.139  28.659  1.00  0.00    -0.246 OA
BRANCH  33  35
ATOM     35  C   UNL A   1      34.758  34.001  29.092  1.00  0.00     0.060 A 
ATOM     36  C   UNL A   1      34.432  32.873  29.858  1.00  0.00     0.016 A 
ATOM     37  C   UNL A   1      36.080  34.241  28.713  1.00  0.00     0.016 A 
ATOM     38  C   UNL A   1      35.436  31.994  30.267  1.00  0.00     0.010 A 
ATOM     39  C   UNL A   1      37.087  33.372  29.142  1.00  0.00     0.010 A 
ATOM     40  C   UNL A   1      36.774  32.259  29.944  1.00  0.00    -0.014 A 
BRANCH  40  41
ATOM     41  C   UNL A   1      37.863  31.482  30.584  1.00  0.00     0.031 A 
ATOM     42  C   UNL A   1      38.227  31.804  32.008  1.00  0.00     0.074 A 
ATOM     43  C   UNL A   1      38.516  30.512  29.921  1.00  0.00     0.049 A 
ATOM     44  N   UNL A   1      39.193  31.324  32.750  1.00  0.00    -0.248 NA
ATOM     45  C   UNL A   1      37.392  32.809  32.686  1.00  0.00     0.031 C 
ATOM     46  C   UNL A   1      38.230  30.082  28.554  1.00  0.00     0.029 A 
ATOM     47  N   UNL A   1      39.572  29.723  30.308  1.00  0.00    -0.354 N 
ATOM     48  C   UNL A   1      39.088  31.975  33.971  1.00  0.00     0.074 A 
ATOM     49  C   UNL A   1      37.981  32.901  33.867  1.00  0.00     0.031 C 
ATOM     50  C   UNL A   1      39.106  29.122  28.208  1.00  0.00     0.029 A 
ATOM     51  C   UNL A   1      40.037  28.898  29.313  1.00  0.00     0.049 A 
ATOM     52  H   UNL A   1      39.959  29.748  31.213  1.00  0.00     0.167 HD
ATOM     53  C   UNL A   1      39.846  31.813  35.080  1.00  0.00     0.037 A 
ATOM     54  C   UNL A   1      41.112  28.084  29.291  1.00  0.00     0.037 A 
ATOM     55  C   UNL A   1      40.941  30.885  35.182  1.00  0.00     0.049 A 
ATOM     56  C   UNL A   1      41.982  27.975  30.520  1.00  0.00     0.074 A 
ATOM     57  C   UNL A   1      41.746  30.621  36.277  1.00  0.00     0.029 A 
ATOM     58  N   UNL A   1      41.393  30.079  34.149  1.00  0.00    -0.354 N 
ATOM     59  N   UNL A   1      41.853  28.562  31.685  1.00  0.00    -0.248 NA
ATOM     60  C   UNL A   1      43.150  27.083  30.431  1.00  0.00     0.031 C 
ATOM     61  C   UNL A   1      42.728  29.707  35.886  1.00  0.00     0.029 A 
ATOM     62  C   UNL A   1      42.490  29.345  34.569  1.00  0.00     0.049 A 
ATOM     63  H   UNL A   1      40.995  30.036  33.250  1.00  0.00     0.167 HD
ATOM     64  C   UNL A   1      42.897  28.089  32.473  1.00  0.00     0.074 A 
ATOM     65  C   UNL A   1      43.640  27.152  31.660  1.00  0.00     0.031 C 
ATOM     66  C   UNL A   1      43.213  28.403  33.753  1.00  0.00     0.037 A 
BRANCH  53  67
ATOM     67  C   UNL A   1      39.544  32.674  36.271  1.00  0.00     0.064 A 
ATOM     68  C   UNL A   1      38.590  32.303  37.231  1.00  0.00     0.173 A 
ATOM     69  C   UNL A   1      40.271  33.854  36.489  1.00  0.00     0.173 A 
ATOM     70  F   UNL A   1      37.858  31.192  37.063  1.00  0.00    -0.203 F 
ATOM     71  C   UNL A   1      38.368  33.090  38.359  1.00  0.00     0.198 A 
ATOM     72  C   UNL A   1      40.068  34.621  37.633  1.00  0.00     0.198 A 
ATOM     73  F   UNL A   1      41.195  34.252  35.603  1.00  0.00    -0.203 F 
ATOM     74  F   UNL A   1      37.428  32.735  39.246  1.00  0.00    -0.200 F 
ATOM     75  C   UNL A   1      39.114  34.241  38.564  1.00  0.00     0.200 A 
ATOM     76  F   UNL A   1      40.800  35.725  37.836  1.00  0.00    -0.200 F 
ATOM     77  F   UNL A   1      38.913  34.986  39.660  1.00  0.00    -0.200 F 
ENDBRANCH  53  67
BRANCH  54  78
ATOM     78  C   UNL A   1      41.460  27.331  28.053  1.00  0.00     0.064 A 
ATOM     79  C   UNL A   1      40.962  26.040  27.821  1.00  0.00     0.173 A 
ATOM     80  C   UNL A   1      42.346  27.864  27.104  1.00  0.00     0.173 A 
ATOM     81  F   UNL A   1      40.133  25.472  28.711  1.00  0.00    -0.203 F 
ATOM     82  C   UNL A   1      41.364  25.302  26.710  1.00  0.00     0.198 A 
ATOM     83  C   UNL A   1      42.717  27.139  25.974  1.00  0.00     0.198 A 
ATOM     84  F   UNL A   1      42.856  29.093  27.277  1.00  0.00    -0.203 F 
ATOM     85  F   UNL A   1      40.926  24.044  26.552  1.00  0.00    -0.200 F 
ATOM     86  C   UNL A   1      42.236  25.852  25.785  1.00  0.00     0.200 A 
ATOM     87  F   UNL A   1      43.549  27.682  25.076  1.00  0.00    -0.200 F 
ATOM     88  F   UNL A   1      42.626  25.140  24.719  1.00  0.00    -0.200 F 
ENDBRANCH  54  78
BRANCH  66  89
ATOM     89  C   UNL A   1      44.384  27.696  34.375  1.00  0.00     0.064 A 
ATOM     90  C   UNL A   1      44.248  26.452  35.008  1.00  0.00     0.173 A 
ATOM     91  C   UNL A   1      45.672  28.252  34.294  1.00  0.00     0.173 A 
ATOM     92  F   UNL A   1      43.039  25.882  35.124  1.00  0.00    -0.203 F 
ATOM     93  C   UNL A   1      45.351  25.805  35.561  1.00  0.00     0.198 A 
ATOM     94  C   UNL A   1      46.776  27.585  34.815  1.00  0.00     0.198 A 
ATOM     95  F   UNL A   1      45.861  29.435  33.689  1.00  0.00    -0.203 F 
ATOM     96  F   UNL A   1      45.188  24.642  36.208  1.00  0.00    -0.200 F 
ATOM     97  C   UNL A   1      46.614  26.367  35.456  1.00  0.00     0.200 A 
ATOM     98  F   UNL A   1      47.999  28.122  34.694  1.00  0.00    -0.200 F 
ATOM     99  F   UNL A   1      47.675  25.738  35.979  1.00  0.00    -0.200 F 
ENDBRANCH  66  89
ENDBRANCH  40  41
ENDBRANCH  33  35
ENDBRANCH  32  33
ENDBRANCH  31  32
ENDBRANCH  30  31
ENDBRANCH  29  30
ENDBRANCH  28  29
ENDBRANCH  27  28
ENDBRANCH   1  27
TORSDOF 22
ENDMDL
MODEL 3
REMARK VINA RESULT:      -9.8      1.832      2.751
REMARK SMILES O=CN1CCN(S(=O)(=O)c2ccc(C(=O)OCCOCCOCCOCCOC(=O)c3ccc(-c4c5nc(c(-c6c(F)c(F)c(F)c(F)c6F)c6ccc([nH]6)c(-c6c(F)c(F)c(F)c(F)c6F)c6nc(c(-c7c(F)c(F)c(F)c(F)c7F)c7ccc4[nH]7)C=C6)C=C5)cc3)cc2)CC1
REMARK SMILES IDX 22 1 21 2 20 3 19 4 18 5 17 6 16 7 14 8 15 9 13 10 10 11
REMARK SMILES IDX 11 12 95 13 12 14 94 15 7 16 8 17 9 18 6 19 1 20 2 21 3 22
REMARK SMILES IDX 4 23 97 24 5 25 96 26 23 27 24 28 25 29 26 30 27 31 28 32
REMARK SMILES IDX 29 33 30 34 31 35 32 36 93 37 33 38 92 39 34 40 35 41 36 42
REMARK SMILES IDX 86 43 37 44 91 45 85 46 87 47 38 48 90 49 84 50 83 51 39 53
REMARK SMILES IDX 71 54 51 55 70 56 52 57 55 58 69 59 88 60 53 61 54 62 68 64
REMARK SMILES IDX 89 65 56 66 40 67 41 68 49 69 42 70 43 71 47 72 50 73 44 74
REMARK SMILES IDX 45 75 48 76 46 77 72 78 73 79 81 80 74 81 75 82 79 83 82 84
REMARK SMILES IDX 76 85 77 86 80 87 78 88 57 89 58 90 66 91 59 92 60 93 64 94
REMARK SMILES IDX 67 95 61 96 62 97 65 98 63 99
REMARK H PARENT 87 52 55 63
REMARK Flexibility Score: inf
ROOT
ATOM      1  O   UNL A   1      33.599  28.104  25.298  1.00  0.00    -0.377 OA
ENDROOT
BRANCH   1   2
ATOM      2  C   UNL A   1      33.966  28.203  23.930  1.00  0.00     0.188 C 
BRANCH   2   3
ATOM      3  C   UNL A   1      33.133  27.382  22.925  1.00  0.00     0.188 C 
BRANCH   3   4
ATOM      4  O   UNL A   1      31.830  27.904  22.720  1.00  0.00    -0.376 OA
BRANCH   4   5
ATOM      5  C   UNL A   1      30.710  27.039  22.771  1.00  0.00     0.202 C 
BRANCH   5   6
ATOM      6  C   UNL A   1      29.747  27.106  23.965  1.00  0.00     0.261 C 
BRANCH   6   7
ATOM      7  O   UNL A   1      29.804  26.008  24.876  1.00  0.00    -0.460 OA
BRANCH   7   8
ATOM      8  C   UNL A   1      30.723  26.076  25.861  1.00  0.00     0.338 C 
ATOM      9  O   UNL A   1      30.769  26.899  26.759  1.00  0.00    -0.246 OA
BRANCH   8  10
ATOM     10  C   UNL A   1      31.576  24.863  25.785  1.00  0.00     0.060 A 
ATOM     11  C   UNL A   1      33.080  22.529  25.685  1.00  0.00     0.082 A 
ATOM     12  C   UNL A   1      31.772  22.520  25.198  1.00  0.00     0.022 A 
ATOM     13  C   UNL A   1      33.686  23.724  26.085  1.00  0.00     0.022 A 
ATOM     14  C   UNL A   1      31.021  23.694  25.245  1.00  0.00     0.017 A 
ATOM     15  C   UNL A   1      32.923  24.886  26.173  1.00  0.00     0.017 A 
BRANCH  11  16
ATOM     16  S   UNL A   1      33.978  21.006  25.858  1.00  0.00     0.243 S 
ATOM     17  O   UNL A   1      33.651  20.442  27.140  1.00  0.00    -0.207 OA
ATOM     18  O   UNL A   1      35.362  21.265  25.495  1.00  0.00    -0.207 OA
BRANCH  16  19
ATOM     19  N   UNL A   1      33.314  20.024  24.618  1.00  0.00    -0.194 NA
ATOM     20  O   UNL A   1      32.816  15.103  25.521  1.00  0.00    -0.279 OA
ATOM     21  C   UNL A   1      33.704  15.828  25.093  1.00  0.00     0.340 C 
ATOM     22  N   UNL A   1      33.698  17.202  25.131  1.00  0.00    -0.343 N 
ATOM     23  C   UNL A   1      34.817  18.006  24.634  1.00  0.00     0.136 C 
ATOM     24  C   UNL A   1      32.607  17.915  25.792  1.00  0.00     0.136 C 
ATOM     25  C   UNL A   1      34.338  19.240  23.848  1.00  0.00     0.124 C 
ATOM     26  C   UNL A   1      32.163  19.119  24.956  1.00  0.00     0.124 C 
ENDBRANCH  16  19
ENDBRANCH  11  16
ENDBRANCH   8  10
ENDBRANCH   7   8
ENDBRANCH   6   7
ENDBRANCH   5   6
ENDBRANCH   4   5
ENDBRANCH   3   4
ENDBRANCH   2   3
ENDBRANCH   1   2
BRANCH   1  27
ATOM     27  C   UNL A   1      33.274  29.290  26.026  1.00  0.00     0.188 C 
BRANCH  27  28
ATOM     28  C   UNL A   1      31.997  30.126  25.754  1.00  0.00     0.188 C 
BRANCH  28  29
ATOM     29  O   UNL A   1      31.681  31.078  26.753  1.00  0.00    -0.376 OA
BRANCH  29  30
ATOM     30  C   UNL A   1      32.719  31.914  27.229  1.00  0.00     0.202 C 
BRANCH  30  31
ATOM     31  C   UNL A   1      32.485  33.426  27.122  1.00  0.00     0.261 C 
BRANCH  31  32
ATOM     32  O   UNL A   1      32.315  34.126  28.365  1.00  0.00    -0.460 OA
BRANCH  32  33
ATOM     33  C   UNL A   1      33.272  35.012  28.713  1.00  0.00     0.338 C 
ATOM     34  O   UNL A   1      33.179  36.225  28.754  1.00  0.00    -0.246 OA
BRANCH  33  35
ATOM     35  C   UNL A   1      34.424  34.240  29.226  1.00  0.00     0.060 A 
ATOM     36  C   UNL A   1      34.217  33.280  30.227  1.00  0.00     0.016 A 
ATOM     37  C   UNL A   1      35.701  34.452  28.703  1.00  0.00     0.016 A 
ATOM     38  C   UNL A   1      35.295  32.547  30.725  1.00  0.00     0.010 A 
ATOM     39  C   UNL A   1      36.783  33.733  29.218  1.00  0.00     0.010 A 
ATOM     40  C   UNL A   1      36.590  32.797  30.251  1.00  0.00    -0.014 A 
BRANCH  40  41
ATOM     41  C   UNL A   1      37.763  32.214  30.946  1.00  0.00     0.031 A 
ATOM     42  C   UNL A   1      38.535  31.125  30.253  1.00  0.00     0.074 A 
ATOM     43  C   UNL A   1      38.139  32.639  32.165  1.00  0.00     0.049 A 
ATOM     44  N   UNL A   1      39.538  30.407  30.689  1.00  0.00    -0.248 NA
ATOM     45  C   UNL A   1      38.113  30.796  28.881  1.00  0.00     0.031 C 
ATOM     46  C   UNL A   1      37.498  33.712  32.921  1.00  0.00     0.029 A 
ATOM     47  N   UNL A   1      39.148  32.202  32.989  1.00  0.00    -0.354 N 
ATOM     48  C   UNL A   1      39.857  29.538  29.655  1.00  0.00     0.074 A 
ATOM     49  C   UNL A   1      38.928  29.798  28.577  1.00  0.00     0.031 C 
ATOM     50  C   UNL A   1      38.113  33.834  34.111  1.00  0.00     0.029 A 
ATOM     51  C   UNL A   1      39.166  32.824  34.214  1.00  0.00     0.049 A 
ATOM     52  H   UNL A   1      39.796  31.509  32.727  1.00  0.00     0.167 HD
ATOM     53  C   UNL A   1      40.839  28.607  29.609  1.00  0.00     0.037 A 
ATOM     54  C   UNL A   1      39.924  32.579  35.302  1.00  0.00     0.037 A 
ATOM     55  C   UNL A   1      41.766  28.356  30.680  1.00  0.00     0.049 A 
ATOM     56  C   UNL A   1      40.966  31.487  35.246  1.00  0.00     0.074 A 
ATOM     57  C   UNL A   1      42.819  27.459  30.714  1.00  0.00     0.029 A 
ATOM     58  N   UNL A   1      41.742  28.993  31.911  1.00  0.00    -0.354 N 
ATOM     59  N   UNL A   1      41.289  30.697  34.251  1.00  0.00    -0.248 NA
ATOM     60  C   UNL A   1      41.751  31.254  36.469  1.00  0.00     0.031 C 
ATOM     61  C   UNL A   1      43.390  27.504  31.989  1.00  0.00     0.029 A 
ATOM     62  C   UNL A   1      42.740  28.482  32.725  1.00  0.00     0.049 A 
ATOM     63  H   UNL A   1      41.110  29.703  32.168  1.00  0.00     0.167 HD
ATOM     64  C   UNL A   1      42.331  29.901  34.714  1.00  0.00     0.074 A 
ATOM     65  C   UNL A   1      42.599  30.316  36.074  1.00  0.00     0.031 C 
ATOM     66  C   UNL A   1      43.005  28.915  34.073  1.00  0.00     0.037 A 
BRANCH  53  67
ATOM     67  C   UNL A   1      40.951  27.764  28.372  1.00  0.00     0.064 A 
ATOM     68  C   UNL A   1      41.797  28.116  27.309  1.00  0.00     0.173 A 
ATOM     69  C   UNL A   1      40.254  26.550  28.283  1.00  0.00     0.173 A 
ATOM     70  F   UNL A   1      42.475  29.273  27.340  1.00  0.00    -0.203 F 
ATOM     71  C   UNL A   1      41.928  27.288  26.197  1.00  0.00     0.198 A 
ATOM     72  C   UNL A   1      40.412  25.711  27.184  1.00  0.00     0.198 A 
ATOM     73  F   UNL A   1      39.434  26.166  29.273  1.00  0.00    -0.203 F 
ATOM     74  F   UNL A   1      42.715  27.660  25.178  1.00  0.00    -0.200 F 
ATOM     75  C   UNL A   1      41.246  26.082  26.140  1.00  0.00     0.200 A 
ATOM     76  F   UNL A   1      39.763  24.539  27.138  1.00  0.00    -0.200 F 
ATOM     77  F   UNL A   1      41.390  25.278  25.078  1.00  0.00    -0.200 F 
ENDBRANCH  53  67
BRANCH  54  78
ATOM     78  C   UNL A   1      39.710  33.350  36.558  1.00  0.00     0.064 A 
ATOM     79  C   UNL A   1      38.775  32.934  37.518  1.00  0.00     0.173 A 
ATOM     80  C   UNL A   1      40.391  34.554  36.797  1.00  0.00     0.173 A 
ATOM     81  F   UNL A   1      38.076  31.805  37.326  1.00  0.00    -0.203 F 
ATOM     82  C   UNL A   1      38.509  33.706  38.647  1.00  0.00     0.198 A 
ATOM     83  C   UNL A   1      40.151  35.305  37.945  1.00  0.00     0.198 A 
ATOM     84  F   UNL A   1      41.293  35.003  35.911  1.00  0.00    -0.203 F 
ATOM     85  F   UNL A   1      37.560  33.317  39.512  1.00  0.00    -0.200 F 
ATOM     86  C   UNL A   1      39.199  34.888  38.862  1.00  0.00     0.200 A 
ATOM     87  F   UNL A   1      40.831  36.440  38.155  1.00  0.00    -0.200 F 
ATOM     88  F   UNL A   1      38.938  35.633  39.946  1.00  0.00    -0.200 F 
ENDBRANCH  54  78
BRANCH  66  89
ATOM     89  C   UNL A   1      44.129  28.245  34.812  1.00  0.00     0.064 A 
ATOM     90  C   UNL A   1      45.433  28.762  34.808  1.00  0.00     0.173 A 
ATOM     91  C   UNL A   1      43.886  27.091  35.577  1.00  0.00     0.173 A 
ATOM     92  F   UNL A   1      45.722  29.855  34.085  1.00  0.00    -0.203 F 
ATOM     93  C   UNL A   1      46.455  28.136  35.515  1.00  0.00     0.198 A 
ATOM     94  C   UNL A   1      44.903  26.489  36.312  1.00  0.00     0.198 A 
ATOM     95  F   UNL A   1      42.656  26.559  35.626  1.00  0.00    -0.203 F 
ATOM     96  F   UNL A   1      47.705  28.619  35.452  1.00  0.00    -0.200 F 
ATOM     97  C   UNL A   1      46.188  27.006  36.273  1.00  0.00     0.200 A 
ATOM     98  F   UNL A   1      44.637  25.409  37.060  1.00  0.00    -0.200 F 
ATOM     99  F   UNL A   1      47.172  26.411  36.963  1.00  0.00    -0.200 F 
ENDBRANCH  66  89
ENDBRANCH  40  41
ENDBRANCH  33  35
ENDBRANCH  32  33
ENDBRANCH  31  32
ENDBRANCH  30  31
ENDBRANCH  29  30
ENDBRANCH  28  29
ENDBRANCH  27  28
ENDBRANCH   1  27
TORSDOF 22
ENDMDL
