MODEL 1
REMARK VINA RESULT:      -8.7      0.000      0.000
REMARK SMILES O=C(OCCOCCOCCOCCOC(=O)[C@@H]1CC=CC[C@@H]1C(=O)N1CCN(C(=O)c2sc3cc([N+](=O)[O-])ccc3c2Cl)CC1)c1ccc(-c2c3nc(c(-c4c(F)c(F)c(F)c(F)c4F)c4ccc([nH]4)c(-c4c(F)c(F)c(F)c(F)c4F)c4nc(c(-c5c(F)c(F)c(F)c(F)c5F)c5ccc2[nH]5)C=C4)C=C3)cc1
REMARK SMILES IDX 10 1 9 2 8 3 7 4 6 5 5 6 4 7 3 8 2 9 1 10 47 11 48 12 109 13
REMARK SMILES IDX 49 14 108 15 50 16 51 17 52 18 102 19 53 20 107 21 101 22
REMARK SMILES IDX 103 23 54 24 106 25 100 26 99 27 55 29 87 30 67 31 86 32
REMARK SMILES IDX 68 33 71 34 85 35 104 36 69 37 70 38 84 40 105 41 72 42
REMARK SMILES IDX 56 43 57 44 65 45 58 46 59 47 63 48 66 49 60 50 61 51 64 52
REMARK SMILES IDX 62 53 88 54 89 55 97 56 90 57 91 58 95 59 98 60 92 61 93 62
REMARK SMILES IDX 96 63 94 64 73 65 74 66 82 67 75 68 76 69 80 70 83 71 77 72
REMARK SMILES IDX 78 73 81 74 79 75 11 76 12 77 13 78 14 79 15 80 16 81 17 82
REMARK SMILES IDX 18 83 19 84 23 85 20 86 22 87 21 88 24 89 25 90 26 91 27 92
REMARK SMILES IDX 46 93 28 94 45 95 29 96 30 97 31 98 32 99 33 100 43 101
REMARK SMILES IDX 34 102 42 103 44 104 35 105 41 106 36 107 40 108 37 109
REMARK SMILES IDX 38 110 39 111
REMARK H PARENT 103 28 71 39
REMARK Flexibility Score: inf
ROOT
ATOM      1  C   UNL A   1      33.609  27.832  24.884  1.00  0.00     0.188 C 
ENDROOT
BRANCH   1   2
ATOM      2  O   UNL A   1      33.971  26.584  24.309  1.00  0.00    -0.377 OA
BRANCH   2   3
ATOM      3  C   UNL A   1      34.166  25.499  25.228  1.00  0.00     0.188 C 
BRANCH   3   4
ATOM      4  C   UNL A   1      35.083  24.354  24.754  1.00  0.00     0.188 C 
BRANCH   4   5
ATOM      5  O   UNL A   1      35.770  23.812  25.873  1.00  0.00    -0.376 OA
BRANCH   5   6
ATOM      6  C   UNL A   1      36.418  22.574  25.678  1.00  0.00     0.202 C 
BRANCH   6   7
ATOM      7  C   UNL A   1      37.944  22.672  25.608  1.00  0.00     0.261 C 
BRANCH   7   8
ATOM      8  O   UNL A   1      38.709  21.930  26.578  1.00  0.00    -0.460 OA
BRANCH   8   9
ATOM      9  C   UNL A   1      40.016  21.579  26.539  1.00  0.00     0.338 C 
ATOM     10  O   UNL A   1      40.352  20.479  26.110  1.00  0.00    -0.246 OA
BRANCH   9  11
ATOM     11  C   UNL A   1      41.058  22.454  27.121  1.00  0.00     0.060 A 
ATOM     12  C   UNL A   1      42.361  21.954  27.075  1.00  0.00     0.016 A 
ATOM     13  C   UNL A   1      40.811  23.706  27.702  1.00  0.00     0.016 A 
ATOM     14  C   UNL A   1      43.384  22.661  27.683  1.00  0.00     0.010 A 
ATOM     15  C   UNL A   1      41.846  24.413  28.335  1.00  0.00     0.010 A 
ATOM     16  C   UNL A   1      43.135  23.884  28.342  1.00  0.00    -0.014 A 
BRANCH  16  17
ATOM     17  C   UNL A   1      44.337  24.631  28.765  1.00  0.00     0.031 A 
ATOM     18  C   UNL A   1      44.356  24.827  30.229  1.00  0.00     0.074 A 
ATOM     19  C   UNL A   1      45.337  25.153  28.021  1.00  0.00     0.049 A 
ATOM     20  N   UNL A   1      44.345  25.951  30.868  1.00  0.00    -0.248 NA
ATOM     21  C   UNL A   1      44.219  23.624  31.070  1.00  0.00     0.031 C 
ATOM     22  C   UNL A   1      45.529  24.968  26.590  1.00  0.00     0.029 A 
ATOM     23  N   UNL A   1      46.403  25.961  28.387  1.00  0.00    -0.354 N 
ATOM     24  C   UNL A   1      44.407  25.590  32.202  1.00  0.00     0.074 A 
ATOM     25  C   UNL A   1      44.183  24.166  32.284  1.00  0.00     0.031 C 
ATOM     26  C   UNL A   1      46.692  25.545  26.229  1.00  0.00     0.029 A 
ATOM     27  C   UNL A   1      47.336  26.158  27.376  1.00  0.00     0.049 A 
ATOM     28  H   UNL A   1      46.490  26.361  29.282  1.00  0.00     0.167 HD
ATOM     29  C   UNL A   1      45.069  26.373  33.084  1.00  0.00     0.037 A 
ATOM     30  C   UNL A   1      48.557  26.762  27.397  1.00  0.00     0.037 A 
ATOM     31  C   UNL A   1      45.114  27.758  32.743  1.00  0.00     0.049 A 
ATOM     32  C   UNL A   1      48.602  27.724  28.527  1.00  0.00     0.074 A 
ATOM     33  C   UNL A   1      44.269  28.837  32.868  1.00  0.00     0.029 A 
ATOM     34  N   UNL A   1      46.106  28.122  31.878  1.00  0.00    -0.354 N 
ATOM     35  N   UNL A   1      48.039  28.902  28.514  1.00  0.00    -0.248 NA
ATOM     36  C   UNL A   1      49.147  27.306  29.816  1.00  0.00     0.031 C 
ATOM     37  C   UNL A   1      44.781  29.866  32.027  1.00  0.00     0.029 A 
ATOM     38  C   UNL A   1      45.923  29.392  31.391  1.00  0.00     0.049 A 
ATOM     39  H   UNL A   1      46.863  27.542  31.634  1.00  0.00     0.167 HD
ATOM     40  C   UNL A   1      47.810  29.183  29.844  1.00  0.00     0.074 A 
ATOM     41  C   UNL A   1      48.651  28.266  30.597  1.00  0.00     0.031 C 
ATOM     42  C   UNL A   1      46.688  29.840  30.247  1.00  0.00     0.037 A 
BRANCH  29  43
ATOM     43  C   UNL A   1      46.140  25.709  33.885  1.00  0.00     0.064 A 
ATOM     44  C   UNL A   1      47.314  25.243  33.295  1.00  0.00     0.173 A 
ATOM     45  C   UNL A   1      45.920  25.370  35.242  1.00  0.00     0.173 A 
ATOM     46  F   UNL A   1      47.542  25.448  31.990  1.00  0.00    -0.203 F 
ATOM     47  C   UNL A   1      48.249  24.526  34.045  1.00  0.00     0.198 A 
ATOM     48  C   UNL A   1      46.875  24.712  35.999  1.00  0.00     0.198 A 
ATOM     49  F   UNL A   1      44.742  25.622  35.836  1.00  0.00    -0.203 F 
ATOM     50  F   UNL A   1      49.348  24.046  33.451  1.00  0.00    -0.200 F 
ATOM     51  C   UNL A   1      48.040  24.284  35.398  1.00  0.00     0.200 A 
ATOM     52  F   UNL A   1      46.639  24.462  37.294  1.00  0.00    -0.200 F 
ATOM     53  F   UNL A   1      48.944  23.603  36.113  1.00  0.00    -0.200 F 
ENDBRANCH  29  43
BRANCH  30  54
ATOM     54  C   UNL A   1      49.705  26.626  26.442  1.00  0.00     0.064 A 
ATOM     55  C   UNL A   1      50.052  27.658  25.546  1.00  0.00     0.173 A 
ATOM     56  C   UNL A   1      50.614  25.547  26.487  1.00  0.00     0.173 A 
ATOM     57  F   UNL A   1      49.327  28.784  25.484  1.00  0.00    -0.203 F 
ATOM     58  C   UNL A   1      51.193  27.590  24.732  1.00  0.00     0.198 A 
ATOM     59  C   UNL A   1      51.724  25.458  25.642  1.00  0.00     0.198 A 
ATOM     60  F   UNL A   1      50.504  24.581  27.407  1.00  0.00    -0.203 F 
ATOM     61  F   UNL A   1      51.510  28.623  23.939  1.00  0.00    -0.200 F 
ATOM     62  C   UNL A   1      52.019  26.482  24.769  1.00  0.00     0.200 A 
ATOM     63  F   UNL A   1      52.530  24.388  25.720  1.00  0.00    -0.200 F 
ATOM     64  F   UNL A   1      53.115  26.420  24.001  1.00  0.00    -0.200 F 
ENDBRANCH  30  54
BRANCH  42  65
ATOM     65  C   UNL A   1      46.146  30.942  29.396  1.00  0.00     0.064 A 
ATOM     66  C   UNL A   1      46.560  32.281  29.443  1.00  0.00     0.173 A 
ATOM     67  C   UNL A   1      45.188  30.594  28.427  1.00  0.00     0.173 A 
ATOM     68  F   UNL A   1      47.509  32.689  30.299  1.00  0.00    -0.203 F 
ATOM     69  C   UNL A   1      46.015  33.223  28.567  1.00  0.00     0.198 A 
ATOM     70  C   UNL A   1      44.686  31.526  27.526  1.00  0.00     0.198 A 
ATOM     71  F   UNL A   1      44.755  29.325  28.333  1.00  0.00    -0.203 F 
ATOM     72  F   UNL A   1      46.382  34.509  28.645  1.00  0.00    -0.200 F 
ATOM     73  C   UNL A   1      45.097  32.844  27.600  1.00  0.00     0.200 A 
ATOM     74  F   UNL A   1      43.816  31.144  26.581  1.00  0.00    -0.200 F 
ATOM     75  F   UNL A   1      44.616  33.748  26.736  1.00  0.00    -0.200 F 
ENDBRANCH  42  65
ENDBRANCH  16  17
ENDBRANCH   9  11
ENDBRANCH   8   9
ENDBRANCH   7   8
ENDBRANCH   6   7
ENDBRANCH   5   6
ENDBRANCH   4   5
ENDBRANCH   3   4
ENDBRANCH   2   3
ENDBRANCH   1   2
BRANCH   1  76
ATOM     76  C   UNL A   1      33.980  28.031  26.361  1.00  0.00     0.188 C 
BRANCH  76  77
ATOM     77  O   UNL A   1      33.425  29.127  27.062  1.00  0.00    -0.376 OA
BRANCH  77  78
ATOM     78  C   UNL A   1      34.355  30.076  27.564  1.00  0.00     0.202 C 
BRANCH  78  79
ATOM     79  C   UNL A   1      35.825  29.694  27.401  1.00  0.00     0.261 C 
BRANCH  79  80
ATOM     80  O   UNL A   1      36.746  30.768  27.703  1.00  0.00    -0.463 OA
BRANCH  80  81
ATOM     81  C   UNL A   1      37.339  30.615  28.913  1.00  0.00     0.310 C 
ATOM     82  O   UNL A   1      37.353  31.497  29.767  1.00  0.00    -0.252 OA
BRANCH  81  83
ATOM     83  C   UNL A   1      37.873  29.217  29.181  1.00  0.00     0.115 C 
ATOM     84  C   UNL A   1      37.535  28.830  30.636  1.00  0.00     0.043 C 
ATOM     85  C   UNL A   1      39.265  28.765  28.698  1.00  0.00     0.097 C 
ATOM     86  C   UNL A   1      38.183  27.575  31.121  1.00  0.00    -0.030 C 
ATOM     87  C   UNL A   1      39.453  27.252  29.006  1.00  0.00     0.041 C 
ATOM     88  C   UNL A   1      39.033  26.854  30.384  1.00  0.00    -0.030 C 
BRANCH  85  89
ATOM     89  C   UNL A   1      40.642  29.434  28.872  1.00  0.00     0.227 C 
ATOM     90  O   UNL A   1      41.336  29.547  27.846  1.00  0.00    -0.275 OA
ATOM     91  N   UNL A   1      41.078  30.050  30.007  1.00  0.00    -0.339 N 
ATOM     92  C   UNL A   1      42.040  31.144  29.884  1.00  0.00     0.141 C 
ATOM     93  C   UNL A   1      40.836  29.705  31.390  1.00  0.00     0.141 C 
ATOM     94  C   UNL A   1      41.445  32.395  30.517  1.00  0.00     0.141 C 
ATOM     95  C   UNL A   1      40.308  30.895  32.198  1.00  0.00     0.141 C 
ATOM     96  N   UNL A   1      40.871  32.213  31.842  1.00  0.00    -0.334 N 
ATOM     97  C   UNL A   1      40.414  33.391  32.462  1.00  0.00     0.265 C 
ATOM     98  O   UNL A   1      40.406  34.471  31.882  1.00  0.00    -0.268 OA
BRANCH  97  99
ATOM     99  C   UNL A   1      40.006  33.247  33.837  1.00  0.00     0.112 A 
ATOM    100  S   UNL A   1      41.162  33.129  35.077  1.00  0.00    -0.128 S 
ATOM    101  C   UNL A   1      38.721  33.166  34.314  1.00  0.00     0.072 A 
ATOM    102  C   UNL A   1      39.945  33.128  36.302  1.00  0.00     0.043 A 
ATOM    103  C   UNL A   1      38.663  33.198  35.742  1.00  0.00     0.012 A 
ATOM    104  Cl  UNL A   1      37.306  33.099  33.335  1.00  0.00    -0.082 Cl
ATOM    105  C   UNL A   1      40.141  33.068  37.696  1.00  0.00     0.105 A 
ATOM    106  C   UNL A   1      37.550  33.275  36.611  1.00  0.00     0.018 A 
ATOM    107  C   UNL A   1      39.007  33.117  38.523  1.00  0.00     0.270 A 
ATOM    108  C   UNL A   1      37.723  33.244  37.992  1.00  0.00     0.086 A 
BRANCH 107 109
ATOM    109  N   UNL A   1      39.169  33.022  39.978  1.00  0.00     0.062 N 
ATOM    110  O   UNL A   1      39.771  33.939  40.551  1.00  0.00    -0.258 OA
ATOM    111  O   UNL A   1      38.701  32.023  40.543  1.00  0.00    -0.258 OA
ENDBRANCH 107 109
ENDBRANCH  97  99
ENDBRANCH  85  89
ENDBRANCH  81  83
ENDBRANCH  80  81
ENDBRANCH  79  80
ENDBRANCH  78  79
ENDBRANCH  77  78
ENDBRANCH  76  77
ENDBRANCH   1  76
TORSDOF 23
ENDMDL
MODEL 2
REMARK VINA RESULT:      -8.5      4.292      9.034
REMARK SMILES O=C(OCCOCCOCCOCCOC(=O)[C@@H]1CC=CC[C@@H]1C(=O)N1CCN(C(=O)c2sc3cc([N+](=O)[O-])ccc3c2Cl)CC1)c1ccc(-c2c3nc(c(-c4c(F)c(F)c(F)c(F)c4F)c4ccc([nH]4)c(-c4c(F)c(F)c(F)c(F)c4F)c4nc(c(-c5c(F)c(F)c(F)c(F)c5F)c5ccc2[nH]5)C=C4)C=C3)cc1
REMARK SMILES IDX 10 1 9 2 8 3 7 4 6 5 5 6 4 7 3 8 2 9 1 10 47 11 48 12 109 13
REMARK SMILES IDX 49 14 108 15 50 16 51 17 52 18 102 19 53 20 107 21 101 22
REMARK SMILES IDX 103 23 54 24 106 25 100 26 99 27 55 29 87 30 67 31 86 32
REMARK SMILES IDX 68 33 71 34 85 35 104 36 69 37 70 38 84 40 105 41 72 42
REMARK SMILES IDX 56 43 57 44 65 45 58 46 59 47 63 48 66 49 60 50 61 51 64 52
REMARK SMILES IDX 62 53 88 54 89 55 97 56 90 57 91 58 95 59 98 60 92 61 93 62
REMARK SMILES IDX 96 63 94 64 73 65 74 66 82 67 75 68 76 69 80 70 83 71 77 72
REMARK SMILES IDX 78 73 81 74 79 75 11 76 12 77 13 78 14 79 15 80 16 81 17 82
REMARK SMILES IDX 18 83 19 84 23 85 20 86 22 87 21 88 24 89 25 90 26 91 27 92
REMARK SMILES IDX 46 93 28 94 45 95 29 96 30 97 31 98 32 99 33 100 43 101
REMARK SMILES IDX 34 102 42 103 44 104 35 105 41 106 36 107 40 108 37 109
REMARK SMILES IDX 38 110 39 111
REMARK H PARENT 103 28 71 39
REMARK Flexibility Score: inf
ROOT
ATOM      1  C   UNL A   1      35.111  32.341  30.804  1.00  0.00     0.188 C 
ENDROOT
BRANCH   1   2
ATOM      2  O   UNL A   1      35.258  33.730  31.067  1.00  0.00    -0.377 OA
BRANCH   2   3
ATOM      3  C   UNL A   1      34.324  34.299  31.995  1.00  0.00     0.188 C 
BRANCH   3   4
ATOM      4  C   UNL A   1      34.759  35.601  32.696  1.00  0.00     0.188 C 
BRANCH   4   5
ATOM      5  O   UNL A   1      35.870  35.328  33.539  1.00  0.00    -0.376 OA
BRANCH   5   6
ATOM      6  C   UNL A   1      35.756  34.208  34.391  1.00  0.00     0.202 C 
BRANCH   6   7
ATOM      7  C   UNL A   1      37.092  33.699  34.937  1.00  0.00     0.261 C 
BRANCH   7   8
ATOM      8  O   UNL A   1      37.107  32.408  35.576  1.00  0.00    -0.460 OA
BRANCH   8   9
ATOM      9  C   UNL A   1      38.114  31.808  36.252  1.00  0.00     0.338 C 
ATOM     10  O   UNL A   1      38.198  31.919  37.472  1.00  0.00    -0.246 OA
BRANCH   9  11
ATOM     11  C   UNL A   1      39.204  31.110  35.534  1.00  0.00     0.060 A 
ATOM     12  C   UNL A   1      40.380  30.917  36.263  1.00  0.00     0.016 A 
ATOM     13  C   UNL A   1      39.122  30.658  34.210  1.00  0.00     0.016 A 
ATOM     14  C   UNL A   1      41.484  30.360  35.640  1.00  0.00     0.010 A 
ATOM     15  C   UNL A   1      40.247  30.111  33.573  1.00  0.00     0.010 A 
ATOM     16  C   UNL A   1      41.439  29.976  34.282  1.00  0.00    -0.014 A 
BRANCH  16  17
ATOM     17  C   UNL A   1      42.609  29.212  33.803  1.00  0.00     0.031 A 
ATOM     18  C   UNL A   1      43.506  30.062  32.992  1.00  0.00     0.074 A 
ATOM     19  C   UNL A   1      42.919  27.908  33.974  1.00  0.00     0.049 A 
ATOM     20  N   UNL A   1      43.827  29.898  31.751  1.00  0.00    -0.248 NA
ATOM     21  C   UNL A   1      43.972  31.320  33.602  1.00  0.00     0.031 C 
ATOM     22  C   UNL A   1      42.210  26.960  34.821  1.00  0.00     0.029 A 
ATOM     23  N   UNL A   1      43.944  27.148  33.429  1.00  0.00    -0.354 N 
ATOM     24  C   UNL A   1      44.707  30.930  31.483  1.00  0.00     0.074 A 
ATOM     25  C   UNL A   1      44.655  31.853  32.593  1.00  0.00     0.031 C 
ATOM     26  C   UNL A   1      42.880  25.792  34.822  1.00  0.00     0.029 A 
ATOM     27  C   UNL A   1      44.056  25.875  33.976  1.00  0.00     0.049 A 
ATOM     28  H   UNL A   1      44.537  27.480  32.717  1.00  0.00     0.167 HD
ATOM     29  C   UNL A   1      45.728  30.742  30.616  1.00  0.00     0.037 A 
ATOM     30  C   UNL A   1      45.004  24.913  33.802  1.00  0.00     0.037 A 
ATOM     31  C   UNL A   1      45.483  29.767  29.602  1.00  0.00     0.049 A 
ATOM     32  C   UNL A   1      45.677  25.126  32.496  1.00  0.00     0.074 A 
ATOM     33  C   UNL A   1      44.834  29.740  28.390  1.00  0.00     0.029 A 
ATOM     34  N   UNL A   1      45.722  28.471  29.960  1.00  0.00    -0.354 N 
ATOM     35  N   UNL A   1      45.162  24.804  31.340  1.00  0.00    -0.248 NA
ATOM     36  C   UNL A   1      46.915  25.899  32.435  1.00  0.00     0.031 C 
ATOM     37  C   UNL A   1      44.673  28.370  28.034  1.00  0.00     0.029 A 
ATOM     38  C   UNL A   1      45.214  27.583  29.045  1.00  0.00     0.049 A 
ATOM     39  H   UNL A   1      46.202  28.205  30.777  1.00  0.00     0.167 HD
ATOM     40  C   UNL A   1      45.776  25.655  30.446  1.00  0.00     0.074 A 
ATOM     41  C   UNL A   1      46.948  26.176  31.131  1.00  0.00     0.031 C 
ATOM     42  C   UNL A   1      45.099  26.182  29.390  1.00  0.00     0.037 A 
BRANCH  29  43
ATOM     43  C   UNL A   1      47.098  31.037  31.130  1.00  0.00     0.064 A 
ATOM     44  C   UNL A   1      47.937  31.952  30.497  1.00  0.00     0.173 A 
ATOM     45  C   UNL A   1      47.658  30.262  32.174  1.00  0.00     0.173 A 
ATOM     46  F   UNL A   1      47.500  32.652  29.441  1.00  0.00    -0.203 F 
ATOM     47  C   UNL A   1      49.253  32.127  30.931  1.00  0.00     0.198 A 
ATOM     48  C   UNL A   1      48.944  30.478  32.642  1.00  0.00     0.198 A 
ATOM     49  F   UNL A   1      46.980  29.237  32.716  1.00  0.00    -0.203 F 
ATOM     50  F   UNL A   1      50.059  32.976  30.282  1.00  0.00    -0.200 F 
ATOM     51  C   UNL A   1      49.745  31.409  32.015  1.00  0.00     0.200 A 
ATOM     52  F   UNL A   1      49.408  29.754  33.669  1.00  0.00    -0.200 F 
ATOM     53  F   UNL A   1      51.006  31.587  32.431  1.00  0.00    -0.200 F 
ENDBRANCH  29  43
BRANCH  30  54
ATOM     54  C   UNL A   1      45.337  23.735  34.668  1.00  0.00     0.064 A 
ATOM     55  C   UNL A   1      45.966  23.889  35.922  1.00  0.00     0.173 A 
ATOM     56  C   UNL A   1      44.900  22.425  34.379  1.00  0.00     0.173 A 
ATOM     57  F   UNL A   1      46.334  25.101  36.359  1.00  0.00    -0.203 F 
ATOM     58  C   UNL A   1      46.175  22.808  36.791  1.00  0.00     0.198 A 
ATOM     59  C   UNL A   1      45.151  21.340  35.224  1.00  0.00     0.198 A 
ATOM     60  F   UNL A   1      44.142  22.163  33.308  1.00  0.00    -0.203 F 
ATOM     61  F   UNL A   1      46.725  23.016  37.995  1.00  0.00    -0.200 F 
ATOM     62  C   UNL A   1      45.783  21.531  36.434  1.00  0.00     0.200 A 
ATOM     63  F   UNL A   1      44.732  20.115  34.871  1.00  0.00    -0.200 F 
ATOM     64  F   UNL A   1      45.972  20.499  37.267  1.00  0.00    -0.200 F 
ENDBRANCH  30  54
BRANCH  42  65
ATOM     65  C   UNL A   1      44.094  25.337  28.676  1.00  0.00     0.064 A 
ATOM     66  C   UNL A   1      44.394  24.257  27.835  1.00  0.00     0.173 A 
ATOM     67  C   UNL A   1      42.736  25.612  28.919  1.00  0.00     0.173 A 
ATOM     68  F   UNL A   1      45.663  23.892  27.593  1.00  0.00    -0.203 F 
ATOM     69  C   UNL A   1      43.371  23.505  27.252  1.00  0.00     0.198 A 
ATOM     70  C   UNL A   1      41.723  24.830  28.375  1.00  0.00     0.198 A 
ATOM     71  F   UNL A   1      42.388  26.633  29.719  1.00  0.00    -0.203 F 
ATOM     72  F   UNL A   1      43.663  22.501  26.415  1.00  0.00    -0.200 F 
ATOM     73  C   UNL A   1      42.042  23.778  27.536  1.00  0.00     0.200 A 
ATOM     74  F   UNL A   1      40.443  25.088  28.675  1.00  0.00    -0.200 F 
ATOM     75  F   UNL A   1      41.071  23.021  27.009  1.00  0.00    -0.200 F 
ENDBRANCH  42  65
ENDBRANCH  16  17
ENDBRANCH   9  11
ENDBRANCH   8   9
ENDBRANCH   7   8
ENDBRANCH   6   7
ENDBRANCH   5   6
ENDBRANCH   4   5
ENDBRANCH   3   4
ENDBRANCH   2   3
ENDBRANCH   1   2
BRANCH   1  76
ATOM     76  C   UNL A   1      35.970  31.395  31.657  1.00  0.00     0.188 C 
BRANCH  76  77
ATOM     77  O   UNL A   1      35.910  30.005  31.405  1.00  0.00    -0.376 OA
BRANCH  77  78
ATOM     78  C   UNL A   1      37.160  29.340  31.299  1.00  0.00     0.202 C 
BRANCH  78  79
ATOM     79  C   UNL A   1      37.612  29.029  29.873  1.00  0.00     0.261 C 
BRANCH  79  80
ATOM     80  O   UNL A   1      38.375  30.092  29.255  1.00  0.00    -0.463 OA
BRANCH  80  81
ATOM     81  C   UNL A   1      39.435  30.473  30.010  1.00  0.00     0.310 C 
ATOM     82  O   UNL A   1      40.337  29.706  30.334  1.00  0.00    -0.252 OA
BRANCH  81  83
ATOM     83  C   UNL A   1      39.489  31.962  30.313  1.00  0.00     0.115 C 
ATOM     84  C   UNL A   1      38.549  32.701  29.338  1.00  0.00     0.043 C 
ATOM     85  C   UNL A   1      40.815  32.689  30.609  1.00  0.00     0.097 C 
ATOM     86  C   UNL A   1      38.658  34.190  29.363  1.00  0.00    -0.030 C 
ATOM     87  C   UNL A   1      40.518  34.162  31.015  1.00  0.00     0.041 C 
ATOM     88  C   UNL A   1      39.531  34.850  30.129  1.00  0.00    -0.030 C 
BRANCH  85  89
ATOM     89  C   UNL A   1      42.140  32.698  29.823  1.00  0.00     0.227 C 
ATOM     90  O   UNL A   1      42.394  31.680  29.155  1.00  0.00    -0.275 OA
ATOM     91  N   UNL A   1      42.957  33.779  29.672  1.00  0.00    -0.339 N 
ATOM     92  C   UNL A   1      43.776  33.874  28.465  1.00  0.00     0.141 C 
ATOM     93  C   UNL A   1      43.262  34.837  30.609  1.00  0.00     0.141 C 
ATOM     94  C   UNL A   1      43.433  35.169  27.740  1.00  0.00     0.141 C 
ATOM     95  C   UNL A   1      43.048  36.226  29.999  1.00  0.00     0.141 C 
ATOM     96  N   UNL A   1      43.405  36.363  28.573  1.00  0.00    -0.334 N 
ATOM     97  C   UNL A   1      43.187  37.569  27.880  1.00  0.00     0.265 C 
ATOM     98  O   UNL A   1      42.936  37.594  26.681  1.00  0.00    -0.268 OA
BRANCH  97  99
ATOM     99  C   UNL A   1      43.330  38.767  28.668  1.00  0.00     0.112 A 
ATOM    100  S   UNL A   1      42.023  39.836  28.868  1.00  0.00    -0.128 S 
ATOM    101  C   UNL A   1      44.464  39.207  29.306  1.00  0.00     0.072 A 
ATOM    102  C   UNL A   1      42.919  40.831  29.957  1.00  0.00     0.043 A 
ATOM    103  C   UNL A   1      44.218  40.343  30.138  1.00  0.00     0.012 A 
ATOM    104  Cl  UNL A   1      46.011  38.459  29.196  1.00  0.00    -0.082 Cl
ATOM    105  C   UNL A   1      42.468  41.994  30.614  1.00  0.00     0.105 A 
ATOM    106  C   UNL A   1      45.068  41.005  31.054  1.00  0.00     0.018 A 
ATOM    107  C   UNL A   1      43.352  42.638  31.493  1.00  0.00     0.270 A 
ATOM    108  C   UNL A   1      44.632  42.140  31.734  1.00  0.00     0.086 A 
BRANCH 107 109
ATOM    109  N   UNL A   1      42.930  43.871  32.168  1.00  0.00     0.062 N 
ATOM    110  O   UNL A   1      42.153  43.766  33.125  1.00  0.00    -0.258 OA
ATOM    111  O   UNL A   1      43.371  44.945  31.731  1.00  0.00    -0.258 OA
ENDBRANCH 107 109
ENDBRANCH  97  99
ENDBRANCH  85  89
ENDBRANCH  81  83
ENDBRANCH  80  81
ENDBRANCH  79  80
ENDBRANCH  78  79
ENDBRANCH  77  78
ENDBRANCH  76  77
ENDBRANCH   1  76
TORSDOF 23
ENDMDL
MODEL 3
REMARK VINA RESULT:      -8.5      8.502     14.528
REMARK SMILES O=C(OCCOCCOCCOCCOC(=O)[C@@H]1CC=CC[C@@H]1C(=O)N1CCN(C(=O)c2sc3cc([N+](=O)[O-])ccc3c2Cl)CC1)c1ccc(-c2c3nc(c(-c4c(F)c(F)c(F)c(F)c4F)c4ccc([nH]4)c(-c4c(F)c(F)c(F)c(F)c4F)c4nc(c(-c5c(F)c(F)c(F)c(F)c5F)c5ccc2[nH]5)C=C4)C=C3)cc1
REMARK SMILES IDX 10 1 9 2 8 3 7 4 6 5 5 6 4 7 3 8 2 9 1 10 47 11 48 12 109 13
REMARK SMILES IDX 49 14 108 15 50 16 51 17 52 18 102 19 53 20 107 21 101 22
REMARK SMILES IDX 103 23 54 24 106 25 100 26 99 27 55 29 87 30 67 31 86 32
REMARK SMILES IDX 68 33 71 34 85 35 104 36 69 37 70 38 84 40 105 41 72 42
REMARK SMILES IDX 56 43 57 44 65 45 58 46 59 47 63 48 66 49 60 50 61 51 64 52
REMARK SMILES IDX 62 53 88 54 89 55 97 56 90 57 91 58 95 59 98 60 92 61 93 62
REMARK SMILES IDX 96 63 94 64 73 65 74 66 82 67 75 68 76 69 80 70 83 71 77 72
REMARK SMILES IDX 78 73 81 74 79 75 11 76 12 77 13 78 14 79 15 80 16 81 17 82
REMARK SMILES IDX 18 83 19 84 23 85 20 86 22 87 21 88 24 89 25 90 26 91 27 92
REMARK SMILES IDX 46 93 28 94 45 95 29 96 30 97 31 98 32 99 33 100 43 101
REMARK SMILES IDX 34 102 42 103 44 104 35 105 41 106 36 107 40 108 37 109
REMARK SMILES IDX 38 110 39 111
REMARK H PARENT 103 28 71 39
REMARK Flexibility Score: inf
ROOT
ATOM      1  C   UNL A   1      50.452  42.817  32.303  1.00  0.00     0.188 C 
ENDROOT
BRANCH   1   2
ATOM      2  O   UNL A   1      50.880  42.657  30.957  1.00  0.00    -0.377 OA
BRANCH   2   3
ATOM      3  C   UNL A   1      50.732  41.343  30.399  1.00  0.00     0.188 C 
BRANCH   3   4
ATOM      4  C   UNL A   1      49.929  41.241  29.087  1.00  0.00     0.188 C 
BRANCH   4   5
ATOM      5  O   UNL A   1      49.898  39.885  28.664  1.00  0.00    -0.376 OA
BRANCH   5   6
ATOM      6  C   UNL A   1      48.670  39.206  28.810  1.00  0.00     0.202 C 
BRANCH   6   7
ATOM      7  C   UNL A   1      48.390  38.177  27.712  1.00  0.00     0.261 C 
BRANCH   7   8
ATOM      8  O   UNL A   1      47.026  37.753  27.523  1.00  0.00    -0.460 OA
BRANCH   8   9
ATOM      9  C   UNL A   1      46.561  36.632  26.924  1.00  0.00     0.338 C 
ATOM     10  O   UNL A   1      46.811  36.408  25.743  1.00  0.00    -0.246 OA
BRANCH   9  11
ATOM     11  C   UNL A   1      45.645  35.712  27.634  1.00  0.00     0.060 A 
ATOM     12  C   UNL A   1      44.828  34.926  26.819  1.00  0.00     0.016 A 
ATOM     13  C   UNL A   1      45.553  35.601  29.028  1.00  0.00     0.016 A 
ATOM     14  C   UNL A   1      43.872  34.108  27.398  1.00  0.00     0.010 A 
ATOM     15  C   UNL A   1      44.571  34.786  29.615  1.00  0.00     0.010 A 
ATOM     16  C   UNL A   1      43.715  34.049  28.799  1.00  0.00    -0.014 A 
BRANCH  16  17
ATOM     17  C   UNL A   1      42.808  32.991  29.289  1.00  0.00     0.031 A 
ATOM     18  C   UNL A   1      41.649  33.569  30.001  1.00  0.00     0.074 A 
ATOM     19  C   UNL A   1      42.919  31.648  29.202  1.00  0.00     0.049 A 
ATOM     20  N   UNL A   1      41.321  33.386  31.239  1.00  0.00    -0.248 NA
ATOM     21  C   UNL A   1      40.858  34.585  29.284  1.00  0.00     0.031 C 
ATOM     22  C   UNL A   1      43.931  30.916  28.454  1.00  0.00     0.029 A 
ATOM     23  N   UNL A   1      42.145  30.642  29.763  1.00  0.00    -0.354 N 
ATOM     24  C   UNL A   1      40.155  34.112  31.397  1.00  0.00     0.074 A 
ATOM     25  C   UNL A   1      39.988  34.940  30.225  1.00  0.00     0.031 C 
ATOM     26  C   UNL A   1      43.650  29.600  28.513  1.00  0.00     0.029 A 
ATOM     27  C   UNL A   1      42.457  29.367  29.306  1.00  0.00     0.049 A 
ATOM     28  H   UNL A   1      41.438  30.816  30.425  1.00  0.00     0.167 HD
ATOM     29  C   UNL A   1      39.191  33.670  32.237  1.00  0.00     0.037 A 
ATOM     30  C   UNL A   1      41.840  28.171  29.515  1.00  0.00     0.037 A 
ATOM     31  C   UNL A   1      39.663  32.877  33.327  1.00  0.00     0.049 A 
ATOM     32  C   UNL A   1      41.059  28.242  30.775  1.00  0.00     0.074 A 
ATOM     33  C   UNL A   1      40.217  33.123  34.562  1.00  0.00     0.029 A 
ATOM     34  N   UNL A   1      39.851  31.553  33.057  1.00  0.00    -0.354 N 
ATOM     35  N   UNL A   1      41.580  28.162  31.970  1.00  0.00    -0.248 NA
ATOM     36  C   UNL A   1      39.643  28.599  30.733  1.00  0.00     0.031 C 
ATOM     37  C   UNL A   1      40.767  31.892  35.022  1.00  0.00     0.029 A 
ATOM     38  C   UNL A   1      40.551  30.919  34.053  1.00  0.00     0.049 A 
ATOM     39  H   UNL A   1      39.522  31.105  32.244  1.00  0.00     0.167 HD
ATOM     40  C   UNL A   1      40.685  28.833  32.776  1.00  0.00     0.074 A 
ATOM     41  C   UNL A   1      39.452  28.928  32.011  1.00  0.00     0.031 C 
ATOM     42  C   UNL A   1      41.107  29.604  33.816  1.00  0.00     0.037 A 
BRANCH  29  43
ATOM     43  C   UNL A   1      37.829  33.498  31.652  1.00  0.00     0.064 A 
ATOM     44  C   UNL A   1      36.710  34.121  32.204  1.00  0.00     0.173 A 
ATOM     45  C   UNL A   1      37.600  32.552  30.624  1.00  0.00     0.173 A 
ATOM     46  F   UNL A   1      36.846  34.957  33.242  1.00  0.00    -0.203 F 
ATOM     47  C   UNL A   1      35.433  33.855  31.707  1.00  0.00     0.198 A 
ATOM     48  C   UNL A   1      36.339  32.334  30.093  1.00  0.00     0.198 A 
ATOM     49  F   UNL A   1      38.595  31.777  30.162  1.00  0.00    -0.203 F 
ATOM     50  F   UNL A   1      34.366  34.426  32.279  1.00  0.00    -0.200 F 
ATOM     51  C   UNL A   1      35.252  32.983  30.639  1.00  0.00     0.200 A 
ATOM     52  F   UNL A   1      36.185  31.467  29.083  1.00  0.00    -0.200 F 
ATOM     53  F   UNL A   1      34.025  32.739  30.163  1.00  0.00    -0.200 F 
ENDBRANCH  29  43
BRANCH  30  54
ATOM     54  C   UNL A   1      41.931  26.900  28.725  1.00  0.00     0.064 A 
ATOM     55  C   UNL A   1      41.073  26.637  27.637  1.00  0.00     0.173 A 
ATOM     56  C   UNL A   1      42.976  25.966  28.896  1.00  0.00     0.173 A 
ATOM     57  F   UNL A   1      40.104  27.502  27.305  1.00  0.00    -0.203 F 
ATOM     58  C   UNL A   1      41.226  25.507  26.819  1.00  0.00     0.198 A 
ATOM     59  C   UNL A   1      43.099  24.817  28.111  1.00  0.00     0.198 A 
ATOM     60  F   UNL A   1      43.961  26.177  29.777  1.00  0.00    -0.203 F 
ATOM     61  F   UNL A   1      40.418  25.334  25.763  1.00  0.00    -0.200 F 
ATOM     62  C   UNL A   1      42.228  24.589  27.067  1.00  0.00     0.200 A 
ATOM     63  F   UNL A   1      44.101  23.957  28.350  1.00  0.00    -0.200 F 
ATOM     64  F   UNL A   1      42.383  23.515  26.280  1.00  0.00    -0.200 F 
ENDBRANCH  30  54
BRANCH  42  65
ATOM     65  C   UNL A   1      42.278  29.152  34.626  1.00  0.00     0.064 A 
ATOM     66  C   UNL A   1      42.221  28.263  35.709  1.00  0.00     0.173 A 
ATOM     67  C   UNL A   1      43.548  29.608  34.229  1.00  0.00     0.173 A 
ATOM     68  F   UNL A   1      41.056  27.736  36.119  1.00  0.00    -0.203 F 
ATOM     69  C   UNL A   1      43.388  27.873  36.370  1.00  0.00     0.198 A 
ATOM     70  C   UNL A   1      44.710  29.178  34.860  1.00  0.00     0.198 A 
ATOM     71  F   UNL A   1      43.665  30.460  33.196  1.00  0.00    -0.203 F 
ATOM     72  F   UNL A   1      43.323  27.058  37.431  1.00  0.00    -0.200 F 
ATOM     73  C   UNL A   1      44.629  28.313  35.935  1.00  0.00     0.200 A 
ATOM     74  F   UNL A   1      45.905  29.592  34.417  1.00  0.00    -0.200 F 
ATOM     75  F   UNL A   1      45.744  27.895  36.548  1.00  0.00    -0.200 F 
ENDBRANCH  42  65
ENDBRANCH  16  17
ENDBRANCH   9  11
ENDBRANCH   8   9
ENDBRANCH   7   8
ENDBRANCH   6   7
ENDBRANCH   5   6
ENDBRANCH   4   5
ENDBRANCH   3   4
ENDBRANCH   2   3
ENDBRANCH   1   2
BRANCH   1  76
ATOM     76  C   UNL A   1      49.030  43.363  32.500  1.00  0.00     0.188 C 
BRANCH  76  77
ATOM     77  O   UNL A   1      48.015  42.480  32.939  1.00  0.00    -0.376 OA
BRANCH  77  78
ATOM     78  C   UNL A   1      46.714  42.728  32.428  1.00  0.00     0.202 C 
BRANCH  78  79
ATOM     79  C   UNL A   1      46.479  42.256  30.994  1.00  0.00     0.261 C 
BRANCH  79  80
ATOM     80  O   UNL A   1      45.246  41.521  30.814  1.00  0.00    -0.463 OA
BRANCH  80  81
ATOM     81  C   UNL A   1      44.361  42.180  30.027  1.00  0.00     0.310 C 
ATOM     82  O   UNL A   1      44.038  43.349  30.216  1.00  0.00    -0.252 OA
BRANCH  81  83
ATOM     83  C   UNL A   1      43.898  41.398  28.808  1.00  0.00     0.115 C 
ATOM     84  C   UNL A   1      44.007  39.890  29.116  1.00  0.00     0.043 C 
ATOM     85  C   UNL A   1      44.305  41.797  27.376  1.00  0.00     0.097 C 
ATOM     86  C   UNL A   1      43.797  38.990  27.943  1.00  0.00    -0.030 C 
ATOM     87  C   UNL A   1      43.559  40.890  26.355  1.00  0.00     0.041 C 
ATOM     88  C   UNL A   1      43.579  39.437  26.703  1.00  0.00    -0.030 C 
BRANCH  85  89
ATOM     89  C   UNL A   1      45.698  42.090  26.785  1.00  0.00     0.227 C 
ATOM     90  O   UNL A   1      46.665  41.558  27.357  1.00  0.00    -0.275 OA
ATOM     91  N   UNL A   1      45.931  42.738  25.609  1.00  0.00    -0.339 N 
ATOM     92  C   UNL A   1      47.143  42.412  24.859  1.00  0.00     0.141 C 
ATOM     93  C   UNL A   1      45.212  43.840  25.009  1.00  0.00     0.141 C 
ATOM     94  C   UNL A   1      46.747  41.930  23.470  1.00  0.00     0.141 C 
ATOM     95  C   UNL A   1      44.809  43.544  23.560  1.00  0.00     0.141 C 
ATOM     96  N   UNL A   1      45.783  42.766  22.769  1.00  0.00    -0.334 N 
ATOM     97  C   UNL A   1      45.497  42.370  21.449  1.00  0.00     0.265 C 
ATOM     98  O   UNL A   1      45.949  41.337  20.968  1.00  0.00    -0.268 OA
BRANCH  97  99
ATOM     99  C   UNL A   1      44.682  43.286  20.692  1.00  0.00     0.112 A 
ATOM    100  S   UNL A   1      45.374  44.639  19.931  1.00  0.00    -0.128 S 
ATOM    101  C   UNL A   1      43.323  43.223  20.505  1.00  0.00     0.072 A 
ATOM    102  C   UNL A   1      43.874  45.078  19.198  1.00  0.00     0.043 A 
ATOM    103  C   UNL A   1      42.854  44.191  19.563  1.00  0.00     0.012 A 
ATOM    104  Cl  UNL A   1      42.275  42.078  21.251  1.00  0.00    -0.082 Cl
ATOM    105  C   UNL A   1      43.634  46.167  18.337  1.00  0.00     0.105 A 
ATOM    106  C   UNL A   1      41.571  44.367  18.996  1.00  0.00     0.018 A 
ATOM    107  C   UNL A   1      42.339  46.324  17.819  1.00  0.00     0.270 A 
ATOM    108  C   UNL A   1      41.319  45.422  18.122  1.00  0.00     0.086 A 
BRANCH 107 109
ATOM    109  N   UNL A   1      42.043  47.466  16.948  1.00  0.00     0.062 N 
ATOM    110  O   UNL A   1      42.810  47.682  16.001  1.00  0.00    -0.258 OA
ATOM    111  O   UNL A   1      41.046  48.152  17.219  1.00  0.00    -0.258 OA
ENDBRANCH 107 109
ENDBRANCH  97  99
ENDBRANCH  85  89
ENDBRANCH  81  83
ENDBRANCH  80  81
ENDBRANCH  79  80
ENDBRANCH  78  79
ENDBRANCH  77  78
ENDBRANCH  76  77
ENDBRANCH   1  76
TORSDOF 23
ENDMDL
