MODEL 1
REMARK VINA RESULT:      -9.3      0.000      0.000
REMARK SMILES Cc1c(CC(=O)N[C@H](CO)C(=O)OCCOCCOCCOCCOC(=O)c2ccc(-c3c4nc(c(-c5c(F)c(F)c(F)c(F)c5F)c5ccc([nH]5)c(-c5c(F)c(F)c(F)c(F)c5F)c5nc(c(-c6c(F)c(F)c(F)c(F)c6F)c6ccc3[nH]6)C=C5)C=C4)cc2)cc(-c2ccc(S(C)(=O)=O)cc2)n1-c1cccc(F)c1
REMARK SMILES IDX 17 1 16 2 15 3 14 4 13 5 11 6 12 7 8 8 7 9 5 10 6 11 4 13
REMARK SMILES IDX 3 14 1 15 2 16 103 17 91 18 92 19 104 20 105 21 110 22
REMARK SMILES IDX 106 23 108 24 107 25 109 26 93 27 94 28 102 29 95 30 101 31
REMARK SMILES IDX 96 32 97 33 98 34 99 35 100 36 9 37 10 38 18 40 19 41 20 42
REMARK SMILES IDX 21 43 22 44 23 45 24 46 25 47 26 48 27 49 28 50 29 51 90 52
REMARK SMILES IDX 30 53 89 54 31 55 32 56 33 57 83 58 34 59 88 60 82 61 84 62
REMARK SMILES IDX 35 63 87 64 81 65 80 66 36 68 68 69 48 70 67 71 49 72 52 73
REMARK SMILES IDX 66 74 85 75 50 76 51 77 65 79 86 80 53 81 37 82 38 83 46 84
REMARK SMILES IDX 39 85 40 86 44 87 47 88 41 89 42 90 45 91 43 92 69 93 70 94
REMARK SMILES IDX 78 95 71 96 72 97 76 98 79 99 73 100 74 101 77 102 75 103
REMARK SMILES IDX 54 104 55 105 63 106 56 107 57 108 61 109 64 110 58 111
REMARK SMILES IDX 59 112 62 113 60 114
REMARK H PARENT 7 12 10 39 84 67 52 78
REMARK Flexibility Score: inf
ROOT
ATOM      1  C   UNL A   1      36.561  22.964  23.104  1.00  0.00     0.188 C 
ENDROOT
BRANCH   1   2
ATOM      2  O   UNL A   1      35.194  23.102  22.786  1.00  0.00    -0.376 OA
BRANCH   2   3
ATOM      3  C   UNL A   1      34.404  24.178  23.258  1.00  0.00     0.202 C 
BRANCH   3   4
ATOM      4  C   UNL A   1      33.116  24.638  22.580  1.00  0.00     0.261 C 
BRANCH   4   5
ATOM      5  O   UNL A   1      32.528  25.855  23.068  1.00  0.00    -0.462 OA
BRANCH   5   6
ATOM      6  C   UNL A   1      31.764  25.757  24.190  1.00  0.00     0.331 C 
ATOM      7  O   UNL A   1      31.333  24.687  24.614  1.00  0.00    -0.250 OA
BRANCH   6   8
ATOM      8  C   UNL A   1      31.287  27.109  24.764  1.00  0.00     0.218 C 
BRANCH   8   9
ATOM      9  N   UNL A   1      32.160  28.118  24.186  1.00  0.00    -0.341 N 
ATOM     10  C   UNL A   1      33.270  28.684  24.741  1.00  0.00     0.225 C 
ATOM     11  O   UNL A   1      33.763  29.625  24.109  1.00  0.00    -0.275 OA
ATOM     12  H   UNL A   1      31.919  28.432  23.285  1.00  0.00     0.164 HD
BRANCH  10  13
ATOM     13  C   UNL A   1      33.956  28.128  26.016  1.00  0.00     0.137 C 
BRANCH  13  14
ATOM     14  C   UNL A   1      34.644  29.135  26.954  1.00  0.00    -0.017 A 
ATOM     15  C   UNL A   1      32.511  30.506  27.291  1.00  0.00     0.065 C 
ATOM     16  C   UNL A   1      33.955  30.185  27.519  1.00  0.00     0.024 A 
ATOM     17  N   UNL A   1      34.850  30.974  28.215  1.00  0.00    -0.313 N 
ATOM     18  C   UNL A   1      36.040  29.379  27.368  1.00  0.00     0.033 A 
ATOM     19  C   UNL A   1      36.126  30.428  28.326  1.00  0.00     0.053 A 
BRANCH  17  20
ATOM     20  C   UNL A   1      34.572  32.241  28.689  1.00  0.00     0.049 A 
ATOM     21  C   UNL A   1      34.597  33.289  27.768  1.00  0.00     0.027 A 
ATOM     22  C   UNL A   1      34.508  32.407  30.062  1.00  0.00     0.065 A 
ATOM     23  C   UNL A   1      34.599  34.575  28.261  1.00  0.00     0.005 A 
ATOM     24  C   UNL A   1      34.569  33.698  30.526  1.00  0.00     0.125 A 
ATOM     25  C   UNL A   1      34.633  34.777  29.644  1.00  0.00     0.039 A 
ATOM     26  F   UNL A   1      34.623  33.909  31.845  1.00  0.00    -0.207 F 
ENDBRANCH  17  20
BRANCH  19  27
ATOM     27  C   UNL A   1      37.238  31.103  29.290  1.00  0.00    -0.001 A 
ATOM     28  C   UNL A   1      37.876  32.775  28.966  1.00  0.00     0.011 A 
ATOM     29  C   UNL A   1      37.608  30.347  30.874  1.00  0.00     0.011 A 
ATOM     30  C   UNL A   1      38.666  33.779  30.324  1.00  0.00     0.021 A 
ATOM     31  C   UNL A   1      38.559  31.212  32.179  1.00  0.00     0.021 A 
ATOM     32  C   UNL A   1      39.025  32.958  31.936  1.00  0.00     0.067 A 
BRANCH  32  33
ATOM     33  S   UNL A   1      39.287  33.898  33.410  1.00  0.00     0.175 S 
ATOM     34  C   UNL A   1      40.856  34.615  33.043  1.00  0.00     0.163 C 
ATOM     35  O   UNL A   1      38.279  34.937  33.441  1.00  0.00    -0.224 OA
ATOM     36  O   UNL A   1      39.464  32.974  34.514  1.00  0.00    -0.224 OA
ENDBRANCH  32  33
ENDBRANCH  19  27
ENDBRANCH  13  14
ENDBRANCH  10  13
ENDBRANCH   8   9
BRANCH   8  37
ATOM     37  C   UNL A   1      31.015  27.414  26.246  1.00  0.00     0.193 C 
BRANCH  37  38
ATOM     38  O   UNL A   1      31.325  26.283  27.074  1.00  0.00    -0.394 OA
ATOM     39  H   UNL A   1      31.900  26.564  27.803  1.00  0.00     0.210 HD
ENDBRANCH  37  38
ENDBRANCH   8  37
ENDBRANCH   6   8
ENDBRANCH   5   6
ENDBRANCH   4   5
ENDBRANCH   3   4
ENDBRANCH   2   3
ENDBRANCH   1   2
BRANCH   1  40
ATOM     40  C   UNL A   1      36.978  22.559  24.525  1.00  0.00     0.188 C 
BRANCH  40  41
ATOM     41  O   UNL A   1      37.879  21.525  24.838  1.00  0.00    -0.377 OA
BRANCH  41  42
ATOM     42  C   UNL A   1      38.514  21.453  26.093  1.00  0.00     0.188 C 
BRANCH  42  43
ATOM     43  C   UNL A   1      39.983  21.825  26.207  1.00  0.00     0.188 C 
BRANCH  43  44
ATOM     44  O   UNL A   1      40.718  21.165  27.208  1.00  0.00    -0.376 OA
BRANCH  44  45
ATOM     45  C   UNL A   1      42.132  21.240  27.165  1.00  0.00     0.202 C 
BRANCH  45  46
ATOM     46  C   UNL A   1      42.984  21.820  25.999  1.00  0.00     0.261 C 
BRANCH  46  47
ATOM     47  O   UNL A   1      44.282  21.283  25.532  1.00  0.00    -0.460 OA
BRANCH  47  48
ATOM     48  C   UNL A   1      45.607  22.075  25.786  1.00  0.00     0.338 C 
ATOM     49  O   UNL A   1      46.405  21.162  25.454  1.00  0.00    -0.246 OA
BRANCH  48  50
ATOM     50  C   UNL A   1      45.850  24.037  26.694  1.00  0.00     0.060 A 
ATOM     51  C   UNL A   1      45.591  25.438  26.332  1.00  0.00     0.016 A 
ATOM     52  C   UNL A   1      46.782  24.576  27.925  1.00  0.00     0.016 A 
ATOM     53  C   UNL A   1      45.985  26.865  27.085  1.00  0.00     0.010 A 
ATOM     54  C   UNL A   1      47.190  25.993  28.667  1.00  0.00     0.010 A 
ATOM     55  C   UNL A   1      46.719  27.247  28.324  1.00  0.00    -0.014 A 
BRANCH  55  56
ATOM     56  C   UNL A   1      47.060  28.955  28.870  1.00  0.00     0.031 A 
ATOM     57  C   UNL A   1      46.165  28.892  30.056  1.00  0.00     0.074 A 
ATOM     58  C   UNL A   1      47.578  30.368  28.675  1.00  0.00     0.049 A 
ATOM     59  N   UNL A   1      44.896  28.747  29.783  1.00  0.00    -0.248 NA
ATOM     60  C   UNL A   1      46.540  28.463  31.403  1.00  0.00     0.031 C 
ATOM     61  C   UNL A   1      48.112  31.064  27.446  1.00  0.00     0.029 A 
ATOM     62  N   UNL A   1      47.728  31.637  29.573  1.00  0.00    -0.354 N 
ATOM     63  C   UNL A   1      44.243  28.478  30.959  1.00  0.00     0.074 A 
ATOM     64  C   UNL A   1      45.325  28.149  31.890  1.00  0.00     0.031 C 
ATOM     65  C   UNL A   1      48.644  32.332  27.638  1.00  0.00     0.029 A 
ATOM     66  C   UNL A   1      48.542  32.839  29.017  1.00  0.00     0.049 A 
ATOM     67  H   UNL A   1      47.319  31.674  30.467  1.00  0.00     0.167 HD
ATOM     68  C   UNL A   1      43.183  29.313  31.148  1.00  0.00     0.037 A 
ATOM     69  C   UNL A   1      48.942  34.149  29.544  1.00  0.00     0.037 A 
ATOM     70  C   UNL A   1      43.644  30.553  31.713  1.00  0.00     0.049 A 
ATOM     71  C   UNL A   1      47.848  34.568  30.414  1.00  0.00     0.074 A 
ATOM     72  C   UNL A   1      44.583  30.801  32.702  1.00  0.00     0.029 A 
ATOM     73  N   UNL A   1      43.596  31.677  30.925  1.00  0.00    -0.354 N 
ATOM     74  N   UNL A   1      46.708  35.007  29.991  1.00  0.00    -0.248 NA
ATOM     75  C   UNL A   1      48.011  34.424  31.844  1.00  0.00     0.031 C 
ATOM     76  C   UNL A   1      45.444  31.727  32.096  1.00  0.00     0.029 A 
ATOM     77  C   UNL A   1      44.683  32.463  31.206  1.00  0.00     0.049 A 
ATOM     78  H   UNL A   1      42.894  31.884  30.265  1.00  0.00     0.167 HD
ATOM     79  C   UNL A   1      45.899  34.463  30.937  1.00  0.00     0.074 A 
ATOM     80  C   UNL A   1      46.721  34.302  32.137  1.00  0.00     0.031 C 
ATOM     81  C   UNL A   1      44.904  33.668  30.475  1.00  0.00     0.037 A 
BRANCH  68  82
ATOM     82  C   UNL A   1      42.197  29.200  30.007  1.00  0.00     0.064 A 
ATOM     83  C   UNL A   1      41.013  28.494  30.235  1.00  0.00     0.173 A 
ATOM     84  C   UNL A   1      42.468  29.587  28.672  1.00  0.00     0.173 A 
ATOM     85  F   UNL A   1      40.686  28.125  31.482  1.00  0.00    -0.203 F 
ATOM     86  C   UNL A   1      40.173  28.137  29.180  1.00  0.00     0.198 A 
ATOM     87  C   UNL A   1      41.666  29.166  27.615  1.00  0.00     0.198 A 
ATOM     88  F   UNL A   1      43.519  30.367  28.372  1.00  0.00    -0.203 F 
ATOM     89  F   UNL A   1      39.043  27.463  29.429  1.00  0.00    -0.200 F 
ATOM     90  C   UNL A   1      40.518  28.442  27.871  1.00  0.00     0.200 A 
ATOM     91  F   UNL A   1      42.022  29.443  26.352  1.00  0.00    -0.200 F 
ATOM     92  F   UNL A   1      39.744  28.034  26.855  1.00  0.00    -0.200 F 
ENDBRANCH  68  82
BRANCH  69  93
ATOM     93  C   UNL A   1      49.936  35.506  29.553  1.00  0.00     0.064 A 
ATOM     94  C   UNL A   1      51.237  35.578  30.244  1.00  0.00     0.173 A 
ATOM     95  C   UNL A   1      49.881  36.447  28.513  1.00  0.00     0.173 A 
ATOM     96  F   UNL A   1      51.518  34.789  31.293  1.00  0.00    -0.203 F 
ATOM     97  C   UNL A   1      52.339  36.404  29.852  1.00  0.00     0.198 A 
ATOM     98  C   UNL A   1      50.989  37.281  28.130  1.00  0.00     0.198 A 
ATOM     99  F   UNL A   1      48.771  36.533  27.775  1.00  0.00    -0.203 F 
ATOM    100  F   UNL A   1      53.527  36.327  30.481  1.00  0.00    -0.200 F 
ATOM    101  C   UNL A   1      52.219  37.236  28.768  1.00  0.00     0.200 A 
ATOM    102  F   UNL A   1      50.869  38.093  27.068  1.00  0.00    -0.200 F 
ATOM    103  F   UNL A   1      53.269  37.951  28.324  1.00  0.00    -0.200 F 
ENDBRANCH  69  93
BRANCH  81 104
ATOM    104  C   UNL A   1      44.198  34.082  29.209  1.00  0.00     0.064 A 
ATOM    105  C   UNL A   1      44.440  33.583  27.911  1.00  0.00     0.173 A 
ATOM    106  C   UNL A   1      43.264  35.121  29.311  1.00  0.00     0.173 A 
ATOM    107  F   UNL A   1      45.208  32.504  27.707  1.00  0.00    -0.203 F 
ATOM    108  C   UNL A   1      43.866  34.175  26.782  1.00  0.00     0.198 A 
ATOM    109  C   UNL A   1      42.652  35.674  28.192  1.00  0.00     0.198 A 
ATOM    110  F   UNL A   1      42.921  35.592  30.520  1.00  0.00    -0.203 F 
ATOM    111  F   UNL A   1      44.159  33.715  25.556  1.00  0.00    -0.200 F 
ATOM    112  C   UNL A   1      42.980  35.229  26.924  1.00  0.00     0.200 A 
ATOM    113  F   UNL A   1      41.731  36.633  28.350  1.00  0.00    -0.200 F 
ATOM    114  F   UNL A   1      42.424  35.798  25.846  1.00  0.00    -0.200 F 
ENDBRANCH  81 104
ENDBRANCH  55  56
ENDBRANCH  48  50
ENDBRANCH  47  48
ENDBRANCH  46  47
ENDBRANCH  45  46
ENDBRANCH  44  45
ENDBRANCH  43  44
ENDBRANCH  42  43
ENDBRANCH  41  42
ENDBRANCH  40  41
ENDBRANCH   1  40
TORSDOF 28
ENDMDL
MODEL 2
REMARK VINA RESULT:      -8.9      4.460      9.398
REMARK SMILES Cc1c(CC(=O)N[C@H](CO)C(=O)OCCOCCOCCOCCOC(=O)c2ccc(-c3c4nc(c(-c5c(F)c(F)c(F)c(F)c5F)c5ccc([nH]5)c(-c5c(F)c(F)c(F)c(F)c5F)c5nc(c(-c6c(F)c(F)c(F)c(F)c6F)c6ccc3[nH]6)C=C5)C=C4)cc2)cc(-c2ccc(S(C)(=O)=O)cc2)n1-c1cccc(F)c1
REMARK SMILES IDX 17 1 16 2 15 3 14 4 13 5 11 6 12 7 8 8 7 9 5 10 6 11 4 13
REMARK SMILES IDX 3 14 1 15 2 16 103 17 91 18 92 19 104 20 105 21 110 22
REMARK SMILES IDX 106 23 108 24 107 25 109 26 93 27 94 28 102 29 95 30 101 31
REMARK SMILES IDX 96 32 97 33 98 34 99 35 100 36 9 37 10 38 18 40 19 41 20 42
REMARK SMILES IDX 21 43 22 44 23 45 24 46 25 47 26 48 27 49 28 50 29 51 90 52
REMARK SMILES IDX 30 53 89 54 31 55 32 56 33 57 83 58 34 59 88 60 82 61 84 62
REMARK SMILES IDX 35 63 87 64 81 65 80 66 36 68 68 69 48 70 67 71 49 72 52 73
REMARK SMILES IDX 66 74 85 75 50 76 51 77 65 79 86 80 53 81 37 82 38 83 46 84
REMARK SMILES IDX 39 85 40 86 44 87 47 88 41 89 42 90 45 91 43 92 69 93 70 94
REMARK SMILES IDX 78 95 71 96 72 97 76 98 79 99 73 100 74 101 77 102 75 103
REMARK SMILES IDX 54 104 55 105 63 106 56 107 57 108 61 109 64 110 58 111
REMARK SMILES IDX 59 112 62 113 60 114
REMARK H PARENT 7 12 10 39 84 67 52 78
REMARK Flexibility Score: inf
ROOT
ATOM      1  C   UNL A   1      31.697  31.604  26.821  1.00  0.00     0.188 C 
ENDROOT
BRANCH   1   2
ATOM      2  O   UNL A   1      32.324  30.343  26.743  1.00  0.00    -0.376 OA
BRANCH   2   3
ATOM      3  C   UNL A   1      33.353  30.057  25.813  1.00  0.00     0.202 C 
BRANCH   3   4
ATOM      4  C   UNL A   1      33.291  28.901  24.819  1.00  0.00     0.261 C 
BRANCH   4   5
ATOM      5  O   UNL A   1      32.883  29.222  23.479  1.00  0.00    -0.462 OA
BRANCH   5   6
ATOM      6  C   UNL A   1      31.546  29.195  23.224  1.00  0.00     0.331 C 
ATOM      7  O   UNL A   1      30.743  29.937  23.786  1.00  0.00    -0.250 OA
BRANCH   6   8
ATOM      8  C   UNL A   1      31.082  28.014  22.344  1.00  0.00     0.218 C 
BRANCH   8   9
ATOM      9  N   UNL A   1      29.828  27.557  22.918  1.00  0.00    -0.341 N 
ATOM     10  C   UNL A   1      29.646  26.758  24.008  1.00  0.00     0.225 C 
ATOM     11  O   UNL A   1      28.484  26.392  24.217  1.00  0.00    -0.275 OA
ATOM     12  H   UNL A   1      29.009  27.861  22.465  1.00  0.00     0.164 HD
BRANCH  10  13
ATOM     13  C   UNL A   1      30.785  26.412  25.003  1.00  0.00     0.137 C 
BRANCH  13  14
ATOM     14  C   UNL A   1      31.395  25.001  24.930  1.00  0.00    -0.017 A 
ATOM     15  C   UNL A   1      33.738  25.819  25.550  1.00  0.00     0.065 C 
ATOM     16  C   UNL A   1      32.726  24.774  25.197  1.00  0.00     0.024 A 
ATOM     17  N   UNL A   1      33.004  23.444  24.944  1.00  0.00    -0.313 N 
ATOM     18  C   UNL A   1      30.905  23.683  24.480  1.00  0.00     0.033 A 
ATOM     19  C   UNL A   1      31.879  22.666  24.683  1.00  0.00     0.053 A 
BRANCH  17  20
ATOM     20  C   UNL A   1      34.276  22.915  24.850  1.00  0.00     0.049 A 
ATOM     21  C   UNL A   1      34.949  22.648  26.042  1.00  0.00     0.027 A 
ATOM     22  C   UNL A   1      34.866  22.897  23.597  1.00  0.00     0.065 A 
ATOM     23  C   UNL A   1      36.299  22.388  25.972  1.00  0.00     0.005 A 
ATOM     24  C   UNL A   1      36.223  22.691  23.563  1.00  0.00     0.125 A 
ATOM     25  C   UNL A   1      36.945  22.457  24.733  1.00  0.00     0.039 A 
ATOM     26  F   UNL A   1      36.861  22.774  22.390  1.00  0.00    -0.207 F 
ENDBRANCH  17  20
BRANCH  19  27
ATOM     27  C   UNL A   1      31.989  21.054  24.584  1.00  0.00    -0.001 A 
ATOM     28  C   UNL A   1      32.024  20.210  22.974  1.00  0.00     0.011 A 
ATOM     29  C   UNL A   1      32.414  20.106  26.046  1.00  0.00     0.011 A 
ATOM     30  C   UNL A   1      32.726  18.490  22.808  1.00  0.00     0.021 A 
ATOM     31  C   UNL A   1      32.919  18.348  25.967  1.00  0.00     0.021 A 
ATOM     32  C   UNL A   1      33.150  17.557  24.341  1.00  0.00     0.067 A 
BRANCH  32  33
ATOM     33  S   UNL A   1      34.257  16.179  24.304  1.00  0.00     0.175 S 
ATOM     34  C   UNL A   1      33.298  14.991  25.187  1.00  0.00     0.163 C 
ATOM     35  O   UNL A   1      34.382  15.765  22.923  1.00  0.00    -0.224 OA
ATOM     36  O   UNL A   1      35.417  16.506  25.110  1.00  0.00    -0.224 OA
ENDBRANCH  32  33
ENDBRANCH  19  27
ENDBRANCH  13  14
ENDBRANCH  10  13
ENDBRANCH   8   9
BRANCH   8  37
ATOM     37  C   UNL A   1      31.946  26.819  21.910  1.00  0.00     0.193 C 
BRANCH  37  38
ATOM     38  O   UNL A   1      33.271  27.239  21.552  1.00  0.00    -0.394 OA
ATOM     39  H   UNL A   1      33.914  26.813  22.140  1.00  0.00     0.210 HD
ENDBRANCH  37  38
ENDBRANCH   8  37
ENDBRANCH   6   8
ENDBRANCH   5   6
ENDBRANCH   4   5
ENDBRANCH   3   4
ENDBRANCH   2   3
ENDBRANCH   1   2
BRANCH   1  40
ATOM     40  C   UNL A   1      32.353  32.734  27.627  1.00  0.00     0.188 C 
BRANCH  40  41
ATOM     41  O   UNL A   1      33.467  33.483  27.207  1.00  0.00    -0.377 OA
BRANCH  41  42
ATOM     42  C   UNL A   1      34.546  33.754  28.072  1.00  0.00     0.188 C 
BRANCH  42  43
ATOM     43  C   UNL A   1      34.957  32.711  29.098  1.00  0.00     0.188 C 
BRANCH  43  44
ATOM     44  O   UNL A   1      36.120  31.975  28.807  1.00  0.00    -0.376 OA
BRANCH  44  45
ATOM     45  C   UNL A   1      36.836  31.394  29.882  1.00  0.00     0.202 C 
BRANCH  45  46
ATOM     46  C   UNL A   1      36.216  30.640  31.094  1.00  0.00     0.261 C 
BRANCH  46  47
ATOM     47  O   UNL A   1      36.442  29.216  31.430  1.00  0.00    -0.460 OA
BRANCH  47  48
ATOM     48  C   UNL A   1      37.802  28.752  32.048  1.00  0.00     0.338 C 
ATOM     49  O   UNL A   1      37.350  28.366  33.156  1.00  0.00    -0.246 OA
BRANCH  48  50
ATOM     50  C   UNL A   1      39.805  29.010  31.242  1.00  0.00     0.060 A 
ATOM     51  C   UNL A   1      41.166  28.550  31.553  1.00  0.00     0.016 A 
ATOM     52  C   UNL A   1      40.463  30.140  30.259  1.00  0.00     0.016 A 
ATOM     53  C   UNL A   1      42.645  28.970  30.925  1.00  0.00     0.010 A 
ATOM     54  C   UNL A   1      41.934  30.572  29.645  1.00  0.00     0.010 A 
ATOM     55  C   UNL A   1      43.130  29.923  29.889  1.00  0.00    -0.014 A 
BRANCH  55  56
ATOM     56  C   UNL A   1      44.878  30.220  29.454  1.00  0.00     0.031 A 
ATOM     57  C   UNL A   1      44.903  29.234  28.341  1.00  0.00     0.074 A 
ATOM     58  C   UNL A   1      46.274  30.751  29.719  1.00  0.00     0.049 A 
ATOM     59  N   UNL A   1      44.728  27.991  28.701  1.00  0.00    -0.248 NA
ATOM     60  C   UNL A   1      44.584  29.502  26.939  1.00  0.00     0.031 C 
ATOM     61  C   UNL A   1      46.875  31.380  30.953  1.00  0.00     0.029 A 
ATOM     62  N   UNL A   1      47.611  30.830  28.915  1.00  0.00    -0.354 N 
ATOM     63  C   UNL A   1      44.548  27.247  27.562  1.00  0.00     0.074 A 
ATOM     64  C   UNL A   1      44.302  28.252  26.526  1.00  0.00     0.031 C 
ATOM     65  C   UNL A   1      48.158  31.895  30.821  1.00  0.00     0.029 A 
ATOM     66  C   UNL A   1      48.771  31.685  29.498  1.00  0.00     0.049 A 
ATOM     67  H   UNL A   1      47.716  30.351  28.062  1.00  0.00     0.167 HD
ATOM     68  C   UNL A   1      45.389  26.174  27.524  1.00  0.00     0.037 A 
ATOM     69  C   UNL A   1      50.121  32.041  29.047  1.00  0.00     0.037 A 
ATOM     70  C   UNL A   1      46.673  26.590  27.024  1.00  0.00     0.049 A 
ATOM     71  C   UNL A   1      50.600  30.882  28.302  1.00  0.00     0.074 A 
ATOM     72  C   UNL A   1      47.004  27.447  25.987  1.00  0.00     0.029 A 
ATOM     73  N   UNL A   1      47.731  26.603  27.900  1.00  0.00    -0.354 N 
ATOM     74  N   UNL A   1      50.997  29.779  28.847  1.00  0.00    -0.248 NA
ATOM     75  C   UNL A   1      50.571  30.932  26.856  1.00  0.00     0.031 C 
ATOM     76  C   UNL A   1      47.885  28.353  26.595  1.00  0.00     0.029 A 
ATOM     77  C   UNL A   1      48.544  27.664  27.598  1.00  0.00     0.049 A 
ATOM     78  H   UNL A   1      47.881  25.956  28.628  1.00  0.00     0.167 HD
ATOM     79  C   UNL A   1      50.524  28.898  27.927  1.00  0.00     0.074 A 
ATOM     80  C   UNL A   1      50.464  29.622  26.657  1.00  0.00     0.031 C 
ATOM     81  C   UNL A   1      49.688  27.943  28.402  1.00  0.00     0.037 A 
BRANCH  68  82
ATOM     82  C   UNL A   1      45.180  25.282  28.726  1.00  0.00     0.064 A 
ATOM     83  C   UNL A   1      44.464  24.096  28.542  1.00  0.00     0.173 A 
ATOM     84  C   UNL A   1      45.485  25.649  30.060  1.00  0.00     0.173 A 
ATOM     85  F   UNL A   1      44.170  23.680  27.302  1.00  0.00    -0.203 F 
ATOM     86  C   UNL A   1      44.020  23.347  29.632  1.00  0.00     0.198 A 
ATOM     87  C   UNL A   1      44.979  24.938  31.144  1.00  0.00     0.198 A 
ATOM     88  F   UNL A   1      46.268  26.706  30.330  1.00  0.00    -0.203 F 
ATOM     89  F   UNL A   1      43.339  22.213  29.425  1.00  0.00    -0.200 F 
ATOM     90  C   UNL A   1      44.247  23.786  30.928  1.00  0.00     0.200 A 
ATOM     91  F   UNL A   1      45.181  25.385  32.392  1.00  0.00    -0.200 F 
ATOM     92  F   UNL A   1      43.757  23.101  31.971  1.00  0.00    -0.200 F 
ENDBRANCH  68  82
BRANCH  69  93
ATOM     93  C   UNL A   1      51.481  33.031  29.067  1.00  0.00     0.064 A 
ATOM     94  C   UNL A   1      51.673  34.197  28.184  1.00  0.00     0.173 A 
ATOM     95  C   UNL A   1      52.261  33.161  30.227  1.00  0.00     0.173 A 
ATOM     96  F   UNL A   1      51.049  34.289  27.000  1.00  0.00    -0.203 F 
ATOM     97  C   UNL A   1      52.452  35.356  28.500  1.00  0.00     0.198 A 
ATOM     98  C   UNL A   1      53.049  34.326  30.535  1.00  0.00     0.198 A 
ATOM     99  F   UNL A   1      52.222  32.193  31.146  1.00  0.00    -0.203 F 
ATOM    100  F   UNL A   1      52.486  36.420  27.675  1.00  0.00    -0.200 F 
ATOM    101  C   UNL A   1      53.116  35.429  29.698  1.00  0.00     0.200 A 
ATOM    102  F   UNL A   1      53.697  34.394  31.708  1.00  0.00    -0.200 F 
ATOM    103  F   UNL A   1      53.776  36.545  30.057  1.00  0.00    -0.200 F 
ENDBRANCH  69  93
BRANCH  81 104
ATOM    104  C   UNL A   1      49.997  27.339  29.748  1.00  0.00     0.064 A 
ATOM    105  C   UNL A   1      51.012  26.400  30.034  1.00  0.00     0.173 A 
ATOM    106  C   UNL A   1      49.148  27.678  30.808  1.00  0.00     0.173 A 
ATOM    107  F   UNL A   1      51.964  26.102  29.139  1.00  0.00    -0.203 F 
ATOM    108  C   UNL A   1      51.086  25.760  31.275  1.00  0.00     0.198 A 
ATOM    109  C   UNL A   1      49.257  27.080  32.059  1.00  0.00     0.198 A 
ATOM    110  F   UNL A   1      48.212  28.624  30.636  1.00  0.00    -0.203 F 
ATOM    111  F   UNL A   1      52.026  24.829  31.499  1.00  0.00    -0.200 F 
ATOM    112  C   UNL A   1      50.199  26.093  32.283  1.00  0.00     0.200 A 
ATOM    113  F   UNL A   1      48.449  27.476  33.052  1.00  0.00    -0.200 F 
ATOM    114  F   UNL A   1      50.267  25.486  33.476  1.00  0.00    -0.200 F 
ENDBRANCH  81 104
ENDBRANCH  55  56
ENDBRANCH  48  50
ENDBRANCH  47  48
ENDBRANCH  46  47
ENDBRANCH  45  46
ENDBRANCH  44  45
ENDBRANCH  43  44
ENDBRANCH  42  43
ENDBRANCH  41  42
ENDBRANCH  40  41
ENDBRANCH   1  40
TORSDOF 28
ENDMDL
MODEL 3
REMARK VINA RESULT:      -8.6      4.932     10.336
REMARK SMILES Cc1c(CC(=O)N[C@H](CO)C(=O)OCCOCCOCCOCCOC(=O)c2ccc(-c3c4nc(c(-c5c(F)c(F)c(F)c(F)c5F)c5ccc([nH]5)c(-c5c(F)c(F)c(F)c(F)c5F)c5nc(c(-c6c(F)c(F)c(F)c(F)c6F)c6ccc3[nH]6)C=C5)C=C4)cc2)cc(-c2ccc(S(C)(=O)=O)cc2)n1-c1cccc(F)c1
REMARK SMILES IDX 17 1 16 2 15 3 14 4 13 5 11 6 12 7 8 8 7 9 5 10 6 11 4 13
REMARK SMILES IDX 3 14 1 15 2 16 103 17 91 18 92 19 104 20 105 21 110 22
REMARK SMILES IDX 106 23 108 24 107 25 109 26 93 27 94 28 102 29 95 30 101 31
REMARK SMILES IDX 96 32 97 33 98 34 99 35 100 36 9 37 10 38 18 40 19 41 20 42
REMARK SMILES IDX 21 43 22 44 23 45 24 46 25 47 26 48 27 49 28 50 29 51 90 52
REMARK SMILES IDX 30 53 89 54 31 55 32 56 33 57 83 58 34 59 88 60 82 61 84 62
REMARK SMILES IDX 35 63 87 64 81 65 80 66 36 68 68 69 48 70 67 71 49 72 52 73
REMARK SMILES IDX 66 74 85 75 50 76 51 77 65 79 86 80 53 81 37 82 38 83 46 84
REMARK SMILES IDX 39 85 40 86 44 87 47 88 41 89 42 90 45 91 43 92 69 93 70 94
REMARK SMILES IDX 78 95 71 96 72 97 76 98 79 99 73 100 74 101 77 102 75 103
REMARK SMILES IDX 54 104 55 105 63 106 56 107 57 108 61 109 64 110 58 111
REMARK SMILES IDX 59 112 62 113 60 114
REMARK H PARENT 7 12 10 39 84 67 52 78
REMARK Flexibility Score: inf
ROOT
ATOM      1  C   UNL A   1      31.293  31.765  26.523  1.00  0.00     0.188 C 
ENDROOT
BRANCH   1   2
ATOM      2  O   UNL A   1      31.756  30.439  26.394  1.00  0.00    -0.376 OA
BRANCH   2   3
ATOM      3  C   UNL A   1      32.844  30.087  25.559  1.00  0.00     0.202 C 
BRANCH   3   4
ATOM      4  C   UNL A   1      32.791  28.951  24.541  1.00  0.00     0.261 C 
BRANCH   4   5
ATOM      5  O   UNL A   1      32.358  29.293  23.214  1.00  0.00    -0.462 OA
BRANCH   5   6
ATOM      6  C   UNL A   1      31.016  29.296  22.990  1.00  0.00     0.331 C 
ATOM      7  O   UNL A   1      30.253  30.108  23.509  1.00  0.00    -0.250 OA
BRANCH   6   8
ATOM      8  C   UNL A   1      30.490  28.069  22.214  1.00  0.00     0.218 C 
BRANCH   8   9
ATOM      9  N   UNL A   1      29.281  27.649  22.904  1.00  0.00    -0.341 N 
ATOM     10  C   UNL A   1      29.181  26.895  24.036  1.00  0.00     0.225 C 
ATOM     11  O   UNL A   1      28.037  26.550  24.350  1.00  0.00    -0.275 OA
ATOM     12  H   UNL A   1      28.431  27.944  22.505  1.00  0.00     0.164 HD
BRANCH  10  13
ATOM     13  C   UNL A   1      30.393  26.575  24.950  1.00  0.00     0.137 C 
BRANCH  13  14
ATOM     14  C   UNL A   1      31.051  25.191  24.808  1.00  0.00    -0.017 A 
ATOM     15  C   UNL A   1      33.361  26.053  25.488  1.00  0.00     0.065 C 
ATOM     16  C   UNL A   1      32.387  24.995  25.073  1.00  0.00     0.024 A 
ATOM     17  N   UNL A   1      32.711  23.690  24.753  1.00  0.00    -0.313 N 
ATOM     18  C   UNL A   1      30.608  23.883  24.285  1.00  0.00     0.033 A 
ATOM     19  C   UNL A   1      31.615  22.890  24.442  1.00  0.00     0.053 A 
BRANCH  17  20
ATOM     20  C   UNL A   1      34.001  23.209  24.641  1.00  0.00     0.049 A 
ATOM     21  C   UNL A   1      34.555  23.150  23.362  1.00  0.00     0.027 A 
ATOM     22  C   UNL A   1      34.560  22.623  25.764  1.00  0.00     0.065 A 
ATOM     23  C   UNL A   1      35.714  22.425  23.199  1.00  0.00     0.005 A 
ATOM     24  C   UNL A   1      35.684  21.860  25.561  1.00  0.00     0.125 A 
ATOM     25  C   UNL A   1      36.252  21.740  24.293  1.00  0.00     0.039 A 
ATOM     26  F   UNL A   1      36.200  21.182  26.592  1.00  0.00    -0.207 F 
ENDBRANCH  17  20
BRANCH  19  27
ATOM     27  C   UNL A   1      31.780  21.289  24.260  1.00  0.00    -0.001 A 
ATOM     28  C   UNL A   1      31.990  20.546  22.614  1.00  0.00     0.011 A 
ATOM     29  C   UNL A   1      32.092  20.264  25.698  1.00  0.00     0.011 A 
ATOM     30  C   UNL A   1      32.754  18.857  22.415  1.00  0.00     0.021 A 
ATOM     31  C   UNL A   1      32.652  18.526  25.565  1.00  0.00     0.021 A 
ATOM     32  C   UNL A   1      33.057  17.841  23.924  1.00  0.00     0.067 A 
BRANCH  32  33
ATOM     33  S   UNL A   1      34.202  16.494  23.913  1.00  0.00     0.175 S 
ATOM     34  C   UNL A   1      35.535  17.216  24.815  1.00  0.00     0.163 C 
ATOM     35  O   UNL A   1      33.616  15.426  24.695  1.00  0.00    -0.224 OA
ATOM     36  O   UNL A   1      34.647  16.285  22.549  1.00  0.00    -0.224 OA
ENDBRANCH  32  33
ENDBRANCH  19  27
ENDBRANCH  13  14
ENDBRANCH  10  13
ENDBRANCH   8   9
BRANCH   8  37
ATOM     37  C   UNL A   1      31.320  26.849  21.785  1.00  0.00     0.193 C 
BRANCH  37  38
ATOM     38  O   UNL A   1      32.723  27.153  21.776  1.00  0.00    -0.394 OA
ATOM     39  H   UNL A   1      32.973  27.550  22.625  1.00  0.00     0.210 HD
ENDBRANCH  37  38
ENDBRANCH   8  37
ENDBRANCH   6   8
ENDBRANCH   5   6
ENDBRANCH   4   5
ENDBRANCH   3   4
ENDBRANCH   2   3
ENDBRANCH   1   2
BRANCH   1  40
ATOM     40  C   UNL A   1      31.962  32.713  27.529  1.00  0.00     0.188 C 
BRANCH  40  41
ATOM     41  O   UNL A   1      33.075  33.527  27.252  1.00  0.00    -0.377 OA
BRANCH  41  42
ATOM     42  C   UNL A   1      34.116  33.700  28.186  1.00  0.00     0.188 C 
BRANCH  42  43
ATOM     43  C   UNL A   1      34.435  32.578  29.161  1.00  0.00     0.188 C 
BRANCH  43  44
ATOM     44  O   UNL A   1      35.607  31.844  28.905  1.00  0.00    -0.376 OA
BRANCH  44  45
ATOM     45  C   UNL A   1      36.611  31.809  29.903  1.00  0.00     0.202 C 
BRANCH  45  46
ATOM     46  C   UNL A   1      36.449  31.252  31.347  1.00  0.00     0.261 C 
BRANCH  46  47
ATOM     47  O   UNL A   1      37.556  30.857  32.247  1.00  0.00    -0.460 OA
BRANCH  47  48
ATOM     48  C   UNL A   1      38.660  31.890  32.649  1.00  0.00     0.338 C 
ATOM     49  O   UNL A   1      38.426  31.900  33.885  1.00  0.00    -0.246 OA
BRANCH  48  50
ATOM     50  C   UNL A   1      39.940  33.069  31.345  1.00  0.00     0.060 A 
ATOM     51  C   UNL A   1      41.279  33.676  31.400  1.00  0.00     0.016 A 
ATOM     52  C   UNL A   1      39.629  33.988  30.029  1.00  0.00     0.016 A 
ATOM     53  C   UNL A   1      42.070  34.702  30.361  1.00  0.00     0.010 A 
ATOM     54  C   UNL A   1      40.408  35.022  29.003  1.00  0.00     0.010 A 
ATOM     55  C   UNL A   1      41.744  35.370  29.071  1.00  0.00    -0.014 A 
BRANCH  55  56
ATOM     56  C   UNL A   1      42.828  36.533  28.174  1.00  0.00     0.031 A 
ATOM     57  C   UNL A   1      43.783  35.490  27.714  1.00  0.00     0.074 A 
ATOM     58  C   UNL A   1      43.351  37.915  27.830  1.00  0.00     0.049 A 
ATOM     59  N   UNL A   1      44.447  34.890  28.666  1.00  0.00    -0.248 NA
ATOM     60  C   UNL A   1      43.696  34.724  26.471  1.00  0.00     0.031 C 
ATOM     61  C   UNL A   1      43.044  39.266  28.430  1.00  0.00     0.029 A 
ATOM     62  N   UNL A   1      44.391  38.497  26.820  1.00  0.00    -0.354 N 
ATOM     63  C   UNL A   1      45.099  33.819  28.110  1.00  0.00     0.074 A 
ATOM     64  C   UNL A   1      44.466  33.670  26.797  1.00  0.00     0.031 C 
ATOM     65  C   UNL A   1      43.591  40.366  27.784  1.00  0.00     0.029 A 
ATOM     66  C   UNL A   1      44.456  40.039  26.637  1.00  0.00     0.049 A 
ATOM     67  H   UNL A   1      44.989  37.902  26.312  1.00  0.00     0.167 HD
ATOM     68  C   UNL A   1      46.427  33.823  28.419  1.00  0.00     0.037 A 
ATOM     69  C   UNL A   1      45.230  40.947  25.785  1.00  0.00     0.037 A 
ATOM     70  C   UNL A   1      47.127  34.693  27.511  1.00  0.00     0.049 A 
ATOM     71  C   UNL A   1      46.532  40.310  25.620  1.00  0.00     0.074 A 
ATOM     72  C   UNL A   1      46.991  34.869  26.143  1.00  0.00     0.029 A 
ATOM     73  N   UNL A   1      47.641  35.865  28.011  1.00  0.00    -0.354 N 
ATOM     74  N   UNL A   1      47.447  40.273  26.533  1.00  0.00    -0.248 NA
ATOM     75  C   UNL A   1      46.805  39.610  24.382  1.00  0.00     0.031 C 
ATOM     76  C   UNL A   1      46.824  36.255  26.017  1.00  0.00     0.029 A 
ATOM     77  C   UNL A   1      47.526  36.842  27.056  1.00  0.00     0.049 A 
ATOM     78  H   UNL A   1      48.028  35.984  28.908  1.00  0.00     0.167 HD
ATOM     79  C   UNL A   1      47.944  39.031  26.293  1.00  0.00     0.074 A 
ATOM     80  C   UNL A   1      47.687  38.751  24.880  1.00  0.00     0.031 C 
ATOM     81  C   UNL A   1      47.931  38.178  27.346  1.00  0.00     0.037 A 
BRANCH  68  82
ATOM     82  C   UNL A   1      46.633  33.795  29.916  1.00  0.00     0.064 A 
ATOM     83  C   UNL A   1      47.092  32.606  30.489  1.00  0.00     0.173 A 
ATOM     84  C   UNL A   1      46.211  34.815  30.803  1.00  0.00     0.173 A 
ATOM     85  F   UNL A   1      47.532  31.613  29.703  1.00  0.00    -0.203 F 
ATOM     86  C   UNL A   1      47.074  32.420  31.872  1.00  0.00     0.198 A 
ATOM     87  C   UNL A   1      46.127  34.598  32.175  1.00  0.00     0.198 A 
ATOM     88  F   UNL A   1      45.865  36.032  30.352  1.00  0.00    -0.203 F 
ATOM     89  F   UNL A   1      47.524  31.271  32.393  1.00  0.00    -0.200 F 
ATOM     90  C   UNL A   1      46.560  33.400  32.708  1.00  0.00     0.200 A 
ATOM     91  F   UNL A   1      45.603  35.541  32.972  1.00  0.00    -0.200 F 
ATOM     92  F   UNL A   1      46.478  33.188  34.029  1.00  0.00    -0.200 F 
ENDBRANCH  68  82
BRANCH  69  93
ATOM     93  C   UNL A   1      45.465  42.426  25.017  1.00  0.00     0.064 A 
ATOM     94  C   UNL A   1      45.041  42.721  23.635  1.00  0.00     0.173 A 
ATOM     95  C   UNL A   1      45.582  43.613  25.758  1.00  0.00     0.173 A 
ATOM     96  F   UNL A   1      44.884  41.745  22.727  1.00  0.00    -0.203 F 
ATOM     97  C   UNL A   1      44.686  44.015  23.136  1.00  0.00     0.198 A 
ATOM     98  C   UNL A   1      45.232  44.912  25.247  1.00  0.00     0.198 A 
ATOM     99  F   UNL A   1      45.964  43.544  27.035  1.00  0.00    -0.203 F 
ATOM    100  F   UNL A   1      44.209  44.175  21.886  1.00  0.00    -0.200 F 
ATOM    101  C   UNL A   1      44.753  45.109  23.961  1.00  0.00     0.200 A 
ATOM    102  F   UNL A   1      45.298  45.980  26.057  1.00  0.00    -0.200 F 
ATOM    103  F   UNL A   1      44.336  46.318  23.543  1.00  0.00    -0.200 F 
ENDBRANCH  69  93
BRANCH  81 104
ATOM    104  C   UNL A   1      48.257  38.733  28.709  1.00  0.00     0.064 A 
ATOM    105  C   UNL A   1      49.529  39.132  29.170  1.00  0.00     0.173 A 
ATOM    106  C   UNL A   1      47.214  38.785  29.641  1.00  0.00     0.173 A 
ATOM    107  F   UNL A   1      50.572  39.253  28.336  1.00  0.00    -0.203 F 
ATOM    108  C   UNL A   1      49.753  39.449  30.514  1.00  0.00     0.198 A 
ATOM    109  C   UNL A   1      47.426  39.153  30.966  1.00  0.00     0.198 A 
ATOM    110  F   UNL A   1      45.960  38.499  29.256  1.00  0.00    -0.203 F 
ATOM    111  F   UNL A   1      50.986  39.770  30.935  1.00  0.00    -0.200 F 
ATOM    112  C   UNL A   1      48.702  39.446  31.413  1.00  0.00     0.200 A 
ATOM    113  F   UNL A   1      46.385  39.232  31.804  1.00  0.00    -0.200 F 
ATOM    114  F   UNL A   1      48.909  39.752  32.701  1.00  0.00    -0.200 F 
ENDBRANCH  81 104
ENDBRANCH  55  56
ENDBRANCH  48  50
ENDBRANCH  47  48
ENDBRANCH  46  47
ENDBRANCH  45  46
ENDBRANCH  44  45
ENDBRANCH  43  44
ENDBRANCH  42  43
ENDBRANCH  41  42
ENDBRANCH  40  41
ENDBRANCH   1  40
TORSDOF 28
ENDMDL
