MODEL 1
REMARK VINA RESULT:      -8.5      0.000      0.000
REMARK SMILES CSCC[C@@H](C(=O)OCCOCCOCCOCCOC(=O)c1ccc(-c2c3nc(c(-c4c(F)c(F)c(F)c(F)c4F)c4ccc([nH]4)c(-c4c(F)c(F)c(F)c(F)c4F)c4nc(c(-c5c(F)c(F)c(F)c(F)c5F)c5ccc2[nH]5)C=C4)C=C3)cc1)N1C(=O)/C(=C/c2ccccc2F)SC1=S
REMARK SMILES IDX 13 1 12 2 11 3 10 4 9 5 8 6 6 7 7 8 5 9 4 10 3 11 2 12 1 13
REMARK SMILES IDX 86 14 87 15 99 16 88 17 89 18 98 19 100 20 90 21 91 22 92 23
REMARK SMILES IDX 96 24 93 25 95 26 97 27 94 28 14 29 15 30 16 31 17 32 18 33
REMARK SMILES IDX 19 34 20 35 21 36 22 37 23 38 24 39 85 40 25 41 84 42 26 43
REMARK SMILES IDX 27 44 28 45 78 46 29 47 83 48 77 49 79 50 30 51 82 52 76 53
REMARK SMILES IDX 75 54 31 56 63 57 43 58 62 59 44 60 47 61 61 62 80 63 45 64
REMARK SMILES IDX 46 65 60 67 81 68 48 69 32 70 33 71 41 72 34 73 35 74 39 75
REMARK SMILES IDX 42 76 36 77 37 78 40 79 38 80 64 81 65 82 73 83 66 84 67 85
REMARK SMILES IDX 71 86 74 87 68 88 69 89 72 90 70 91 49 92 50 93 58 94 51 95
REMARK SMILES IDX 52 96 56 97 59 98 53 99 54 100 57 101 55 102
REMARK H PARENT 79 55 47 66
REMARK Flexibility Score: inf
ROOT
ATOM      1  C   UNL A   1      35.712  29.981  28.715  1.00  0.00     0.188 C 
ENDROOT
BRANCH   1   2
ATOM      2  C   UNL A   1      34.837  30.686  27.662  1.00  0.00     0.188 C 
BRANCH   2   3
ATOM      3  O   UNL A   1      33.654  29.969  27.346  1.00  0.00    -0.376 OA
BRANCH   3   4
ATOM      4  C   UNL A   1      32.454  30.715  27.199  1.00  0.00     0.202 C 
BRANCH   4   5
ATOM      5  C   UNL A   1      31.766  30.744  25.826  1.00  0.00     0.261 C 
BRANCH   5   6
ATOM      6  O   UNL A   1      31.514  29.435  25.292  1.00  0.00    -0.462 OA
BRANCH   6   7
ATOM      7  C   UNL A   1      32.379  28.900  24.405  1.00  0.00     0.329 C 
ATOM      8  O   UNL A   1      33.511  29.320  24.202  1.00  0.00    -0.250 OA
BRANCH   7   9
ATOM      9  C   UNL A   1      31.758  27.692  23.655  1.00  0.00     0.202 C 
BRANCH   9  10
ATOM     10  C   UNL A   1      30.203  27.810  23.594  1.00  0.00     0.048 C 
BRANCH  10  11
ATOM     11  C   UNL A   1      29.496  28.546  22.450  1.00  0.00     0.072 C 
BRANCH  11  12
ATOM     12  S   UNL A   1      29.142  30.303  22.776  1.00  0.00    -0.165 SA
ATOM     13  C   UNL A   1      27.351  30.255  22.977  1.00  0.00     0.085 C 
ENDBRANCH  11  12
ENDBRANCH  10  11
ENDBRANCH   9  10
BRANCH   9  14
ATOM     14  N   UNL A   1      32.269  26.336  24.120  1.00  0.00    -0.278 N 
ATOM     15  C   UNL A   1      32.631  25.389  23.164  1.00  0.00     0.266 C 
ATOM     16  C   UNL A   1      32.141  25.807  25.401  1.00  0.00     0.149 C 
ATOM     17  O   UNL A   1      32.715  25.562  21.956  1.00  0.00    -0.268 OA
ATOM     18  C   UNL A   1      32.898  24.057  23.771  1.00  0.00     0.081 C 
ATOM     19  S   UNL A   1      32.760  24.156  25.464  1.00  0.00    -0.054 SA
ATOM     20  S   UNL A   1      31.499  26.452  26.799  1.00  0.00    -0.052 S 
ATOM     21  C   UNL A   1      33.126  22.968  23.024  1.00  0.00     0.032 C 
BRANCH  21  22
ATOM     22  C   UNL A   1      33.141  21.582  23.513  1.00  0.00     0.012 A 
ATOM     23  C   UNL A   1      34.042  21.170  24.500  1.00  0.00     0.011 A 
ATOM     24  C   UNL A   1      32.298  20.625  22.929  1.00  0.00     0.130 A 
ATOM     25  C   UNL A   1      34.087  19.825  24.891  1.00  0.00     0.001 A 
ATOM     26  C   UNL A   1      32.339  19.289  23.316  1.00  0.00     0.040 A 
ATOM     27  F   UNL A   1      31.447  20.981  21.955  1.00  0.00    -0.206 F 
ATOM     28  C   UNL A   1      33.238  18.887  24.301  1.00  0.00     0.003 A 
ENDBRANCH  21  22
ENDBRANCH   9  14
ENDBRANCH   7   9
ENDBRANCH   6   7
ENDBRANCH   5   6
ENDBRANCH   4   5
ENDBRANCH   3   4
ENDBRANCH   2   3
ENDBRANCH   1   2
BRANCH   1  29
ATOM     29  O   UNL A   1      37.084  30.344  28.780  1.00  0.00    -0.377 OA
BRANCH  29  30
ATOM     30  C   UNL A   1      38.055  29.488  28.173  1.00  0.00     0.188 C 
BRANCH  30  31
ATOM     31  C   UNL A   1      39.208  28.856  28.992  1.00  0.00     0.188 C 
BRANCH  31  32
ATOM     32  O   UNL A   1      39.001  27.510  29.389  1.00  0.00    -0.376 OA
BRANCH  32  33
ATOM     33  C   UNL A   1      39.885  26.531  28.867  1.00  0.00     0.202 C 
BRANCH  33  34
ATOM     34  C   UNL A   1      39.806  26.287  27.353  1.00  0.00     0.261 C 
BRANCH  34  35
ATOM     35  O   UNL A   1      40.770  25.363  26.821  1.00  0.00    -0.460 OA
BRANCH  35  36
ATOM     36  C   UNL A   1      41.728  24.907  27.657  1.00  0.00     0.338 C 
ATOM     37  O   UNL A   1      41.695  23.920  28.363  1.00  0.00    -0.246 OA
BRANCH  36  38
ATOM     38  C   UNL A   1      42.934  25.730  27.438  1.00  0.00     0.060 A 
ATOM     39  C   UNL A   1      43.687  26.145  28.544  1.00  0.00     0.016 A 
ATOM     40  C   UNL A   1      43.299  26.102  26.144  1.00  0.00     0.016 A 
ATOM     41  C   UNL A   1      44.788  26.979  28.361  1.00  0.00     0.010 A 
ATOM     42  C   UNL A   1      44.387  26.956  25.963  1.00  0.00     0.010 A 
ATOM     43  C   UNL A   1      45.108  27.432  27.074  1.00  0.00    -0.014 A 
BRANCH  43  44
ATOM     44  C   UNL A   1      46.020  28.585  26.905  1.00  0.00     0.031 A 
ATOM     45  C   UNL A   1      47.461  28.297  26.586  1.00  0.00     0.074 A 
ATOM     46  C   UNL A   1      45.591  29.852  27.029  1.00  0.00     0.049 A 
ATOM     47  N   UNL A   1      48.474  29.119  26.483  1.00  0.00    -0.248 NA
ATOM     48  C   UNL A   1      47.806  26.884  26.359  1.00  0.00     0.031 C 
ATOM     49  C   UNL A   1      44.212  30.257  27.287  1.00  0.00     0.029 A 
ATOM     50  N   UNL A   1      46.287  31.034  26.968  1.00  0.00    -0.354 N 
ATOM     51  C   UNL A   1      49.574  28.321  26.194  1.00  0.00     0.074 A 
ATOM     52  C   UNL A   1      49.112  26.951  26.166  1.00  0.00     0.031 C 
ATOM     53  C   UNL A   1      44.164  31.597  27.383  1.00  0.00     0.029 A 
ATOM     54  C   UNL A   1      45.515  32.138  27.230  1.00  0.00     0.049 A 
ATOM     55  H   UNL A   1      47.247  31.083  26.758  1.00  0.00     0.167 HD
ATOM     56  C   UNL A   1      50.853  28.699  25.967  1.00  0.00     0.037 A 
ATOM     57  C   UNL A   1      45.871  33.431  27.360  1.00  0.00     0.037 A 
ATOM     58  C   UNL A   1      51.308  30.063  26.002  1.00  0.00     0.049 A 
ATOM     59  C   UNL A   1      47.318  33.821  27.183  1.00  0.00     0.074 A 
ATOM     60  C   UNL A   1      52.580  30.555  25.775  1.00  0.00     0.029 A 
ATOM     61  N   UNL A   1      50.501  31.153  26.295  1.00  0.00    -0.354 N 
ATOM     62  N   UNL A   1      48.352  33.067  26.891  1.00  0.00    -0.248 NA
ATOM     63  C   UNL A   1      47.648  35.244  27.353  1.00  0.00     0.031 C 
ATOM     64  C   UNL A   1      52.556  31.937  25.989  1.00  0.00     0.029 A 
ATOM     65  C   UNL A   1      51.256  32.315  26.282  1.00  0.00     0.049 A 
ATOM     66  H   UNL A   1      49.536  31.109  26.485  1.00  0.00     0.167 HD
ATOM     67  C   UNL A   1      49.442  33.926  26.808  1.00  0.00     0.074 A 
ATOM     68  C   UNL A   1      48.942  35.258  27.072  1.00  0.00     0.031 C 
ATOM     69  C   UNL A   1      50.739  33.637  26.533  1.00  0.00     0.037 A 
BRANCH  56  70
ATOM     70  C   UNL A   1      51.856  27.614  25.700  1.00  0.00     0.064 A 
ATOM     71  C   UNL A   1      52.551  26.975  26.738  1.00  0.00     0.173 A 
ATOM     72  C   UNL A   1      52.116  27.200  24.385  1.00  0.00     0.173 A 
ATOM     73  F   UNL A   1      52.352  27.346  28.013  1.00  0.00    -0.203 F 
ATOM     74  C   UNL A   1      53.492  25.985  26.468  1.00  0.00     0.198 A 
ATOM     75  C   UNL A   1      53.033  26.186  24.121  1.00  0.00     0.198 A 
ATOM     76  F   UNL A   1      51.480  27.778  23.355  1.00  0.00    -0.203 F 
ATOM     77  F   UNL A   1      54.186  25.430  27.471  1.00  0.00    -0.200 F 
ATOM     78  C   UNL A   1      53.728  25.586  25.160  1.00  0.00     0.200 A 
ATOM     79  F   UNL A   1      53.250  25.795  22.857  1.00  0.00    -0.200 F 
ATOM     80  F   UNL A   1      54.630  24.632  24.901  1.00  0.00    -0.200 F 
ENDBRANCH  56  70
BRANCH  57  81
ATOM     81  C   UNL A   1      44.846  34.455  27.691  1.00  0.00     0.064 A 
ATOM     82  C   UNL A   1      44.076  35.059  26.686  1.00  0.00     0.173 A 
ATOM     83  C   UNL A   1      44.627  34.867  29.015  1.00  0.00     0.173 A 
ATOM     84  F   UNL A   1      44.266  34.720  25.403  1.00  0.00    -0.203 F 
ATOM     85  C   UNL A   1      43.141  36.047  26.991  1.00  0.00     0.198 A 
ATOM     86  C   UNL A   1      43.671  35.833  29.321  1.00  0.00     0.198 A 
ATOM     87  F   UNL A   1      45.340  34.325  30.012  1.00  0.00    -0.203 F 
ATOM     88  F   UNL A   1      42.455  36.642  26.006  1.00  0.00    -0.200 F 
ATOM     89  C   UNL A   1      42.935  36.428  28.308  1.00  0.00     0.200 A 
ATOM     90  F   UNL A   1      43.468  36.191  30.595  1.00  0.00    -0.200 F 
ATOM     91  F   UNL A   1      42.034  37.376  28.600  1.00  0.00    -0.200 F 
ENDBRANCH  57  81
BRANCH  69  92
ATOM     92  C   UNL A   1      51.705  34.785  26.451  1.00  0.00     0.064 A 
ATOM     93  C   UNL A   1      52.457  35.204  27.558  1.00  0.00     0.173 A 
ATOM     94  C   UNL A   1      51.919  35.441  25.228  1.00  0.00     0.173 A 
ATOM     95  F   UNL A   1      52.284  34.618  28.753  1.00  0.00    -0.203 F 
ATOM     96  C   UNL A   1      53.369  36.251  27.449  1.00  0.00     0.198 A 
ATOM     97  C   UNL A   1      52.855  36.465  25.115  1.00  0.00     0.198 A 
ATOM     98  F   UNL A   1      51.233  35.075  24.134  1.00  0.00    -0.203 F 
ATOM     99  F   UNL A   1      54.043  36.665  28.532  1.00  0.00    -0.200 F 
ATOM    100  C   UNL A   1      53.574  36.875  26.227  1.00  0.00     0.200 A 
ATOM    101  F   UNL A   1      53.064  37.053  23.928  1.00  0.00    -0.200 F 
ATOM    102  F   UNL A   1      54.459  37.875  26.123  1.00  0.00    -0.200 F 
ENDBRANCH  69  92
ENDBRANCH  43  44
ENDBRANCH  36  38
ENDBRANCH  35  36
ENDBRANCH  34  35
ENDBRANCH  33  34
ENDBRANCH  32  33
ENDBRANCH  31  32
ENDBRANCH  30  31
ENDBRANCH  29  30
ENDBRANCH   1  29
TORSDOF 25
ENDMDL
MODEL 2
REMARK VINA RESULT:      -8.5      5.322      8.217
REMARK SMILES CSCC[C@@H](C(=O)OCCOCCOCCOCCOC(=O)c1ccc(-c2c3nc(c(-c4c(F)c(F)c(F)c(F)c4F)c4ccc([nH]4)c(-c4c(F)c(F)c(F)c(F)c4F)c4nc(c(-c5c(F)c(F)c(F)c(F)c5F)c5ccc2[nH]5)C=C4)C=C3)cc1)N1C(=O)/C(=C/c2ccccc2F)SC1=S
REMARK SMILES IDX 13 1 12 2 11 3 10 4 9 5 8 6 6 7 7 8 5 9 4 10 3 11 2 12 1 13
REMARK SMILES IDX 86 14 87 15 99 16 88 17 89 18 98 19 100 20 90 21 91 22 92 23
REMARK SMILES IDX 96 24 93 25 95 26 97 27 94 28 14 29 15 30 16 31 17 32 18 33
REMARK SMILES IDX 19 34 20 35 21 36 22 37 23 38 24 39 85 40 25 41 84 42 26 43
REMARK SMILES IDX 27 44 28 45 78 46 29 47 83 48 77 49 79 50 30 51 82 52 76 53
REMARK SMILES IDX 75 54 31 56 63 57 43 58 62 59 44 60 47 61 61 62 80 63 45 64
REMARK SMILES IDX 46 65 60 67 81 68 48 69 32 70 33 71 41 72 34 73 35 74 39 75
REMARK SMILES IDX 42 76 36 77 37 78 40 79 38 80 64 81 65 82 73 83 66 84 67 85
REMARK SMILES IDX 71 86 74 87 68 88 69 89 72 90 70 91 49 92 50 93 58 94 51 95
REMARK SMILES IDX 52 96 56 97 59 98 53 99 54 100 57 101 55 102
REMARK H PARENT 79 55 47 66
REMARK Flexibility Score: inf
ROOT
ATOM      1  C   UNL A   1      35.709  30.477  28.878  1.00  0.00     0.188 C 
ENDROOT
BRANCH   1   2
ATOM      2  C   UNL A   1      35.034  31.083  27.634  1.00  0.00     0.188 C 
BRANCH   2   3
ATOM      3  O   UNL A   1      34.217  30.157  26.934  1.00  0.00    -0.376 OA
BRANCH   3   4
ATOM      4  C   UNL A   1      32.809  30.320  27.033  1.00  0.00     0.202 C 
BRANCH   4   5
ATOM      5  C   UNL A   1      31.958  30.179  25.761  1.00  0.00     0.261 C 
BRANCH   5   6
ATOM      6  O   UNL A   1      31.780  28.815  25.348  1.00  0.00    -0.462 OA
BRANCH   6   7
ATOM      7  C   UNL A   1      32.457  28.350  24.278  1.00  0.00     0.329 C 
ATOM      8  O   UNL A   1      33.568  28.737  23.938  1.00  0.00    -0.250 OA
BRANCH   7   9
ATOM      9  C   UNL A   1      31.646  27.272  23.510  1.00  0.00     0.202 C 
BRANCH   9  10
ATOM     10  C   UNL A   1      30.155  27.259  23.973  1.00  0.00     0.048 C 
BRANCH  10  11
ATOM     11  C   UNL A   1      29.060  27.986  23.183  1.00  0.00     0.072 C 
BRANCH  11  12
ATOM     12  S   UNL A   1      29.526  29.641  22.580  1.00  0.00    -0.165 SA
ATOM     13  C   UNL A   1      28.057  30.078  21.630  1.00  0.00     0.085 C 
ENDBRANCH  11  12
ENDBRANCH  10  11
ENDBRANCH   9  10
BRANCH   9  14
ATOM     14  N   UNL A   1      32.306  25.902  23.471  1.00  0.00    -0.278 N 
ATOM     15  C   UNL A   1      32.843  25.379  24.646  1.00  0.00     0.266 C 
ATOM     16  C   UNL A   1      32.710  25.219  22.328  1.00  0.00     0.149 C 
ATOM     17  O   UNL A   1      32.733  25.843  25.772  1.00  0.00    -0.268 OA
ATOM     18  C   UNL A   1      33.636  24.146  24.397  1.00  0.00     0.081 C 
ATOM     19  S   UNL A   1      33.547  23.724  22.750  1.00  0.00    -0.054 SA
ATOM     20  S   UNL A   1      32.556  25.596  20.710  1.00  0.00    -0.052 S 
ATOM     21  C   UNL A   1      34.354  23.555  25.361  1.00  0.00     0.032 C 
BRANCH  21  22
ATOM     22  C   UNL A   1      35.360  22.502  25.157  1.00  0.00     0.012 A 
ATOM     23  C   UNL A   1      34.993  21.156  25.063  1.00  0.00     0.011 A 
ATOM     24  C   UNL A   1      36.723  22.831  25.138  1.00  0.00     0.130 A 
ATOM     25  C   UNL A   1      35.979  20.167  24.946  1.00  0.00     0.001 A 
ATOM     26  C   UNL A   1      37.705  21.851  25.022  1.00  0.00     0.040 A 
ATOM     27  F   UNL A   1      37.110  24.110  25.263  1.00  0.00    -0.206 F 
ATOM     28  C   UNL A   1      37.331  20.513  24.927  1.00  0.00     0.003 A 
ENDBRANCH  21  22
ENDBRANCH   9  14
ENDBRANCH   7   9
ENDBRANCH   6   7
ENDBRANCH   5   6
ENDBRANCH   4   5
ENDBRANCH   3   4
ENDBRANCH   2   3
ENDBRANCH   1   2
BRANCH   1  29
ATOM     29  O   UNL A   1      36.769  31.210  29.474  1.00  0.00    -0.377 OA
BRANCH  29  30
ATOM     30  C   UNL A   1      38.112  30.750  29.300  1.00  0.00     0.188 C 
BRANCH  30  31
ATOM     31  C   UNL A   1      38.758  29.738  30.278  1.00  0.00     0.188 C 
BRANCH  31  32
ATOM     32  O   UNL A   1      38.251  28.415  30.204  1.00  0.00    -0.376 OA
BRANCH  32  33
ATOM     33  C   UNL A   1      39.021  27.458  29.495  1.00  0.00     0.202 C 
BRANCH  33  34
ATOM     34  C   UNL A   1      39.307  27.778  28.021  1.00  0.00     0.261 C 
BRANCH  34  35
ATOM     35  O   UNL A   1      40.171  26.853  27.340  1.00  0.00    -0.460 OA
BRANCH  35  36
ATOM     36  C   UNL A   1      40.478  25.701  27.974  1.00  0.00     0.338 C 
ATOM     37  O   UNL A   1      39.780  24.719  28.118  1.00  0.00    -0.246 OA
BRANCH  36  38
ATOM     38  C   UNL A   1      41.911  25.759  28.326  1.00  0.00     0.060 A 
ATOM     39  C   UNL A   1      42.644  24.568  28.399  1.00  0.00     0.016 A 
ATOM     40  C   UNL A   1      42.514  26.988  28.600  1.00  0.00     0.016 A 
ATOM     41  C   UNL A   1      43.980  24.598  28.797  1.00  0.00     0.010 A 
ATOM     42  C   UNL A   1      43.843  27.015  29.021  1.00  0.00     0.010 A 
ATOM     43  C   UNL A   1      44.566  25.817  29.162  1.00  0.00    -0.014 A 
BRANCH  43  44
ATOM     44  C   UNL A   1      45.836  25.823  29.925  1.00  0.00     0.031 A 
ATOM     45  C   UNL A   1      47.096  26.178  29.184  1.00  0.00     0.074 A 
ATOM     46  C   UNL A   1      45.877  25.525  31.234  1.00  0.00     0.049 A 
ATOM     47  N   UNL A   1      48.338  26.165  29.594  1.00  0.00    -0.248 NA
ATOM     48  C   UNL A   1      46.928  26.599  27.783  1.00  0.00     0.031 C 
ATOM     49  C   UNL A   1      44.719  25.214  32.068  1.00  0.00     0.029 A 
ATOM     50  N   UNL A   1      46.948  25.420  32.085  1.00  0.00    -0.354 N 
ATOM     51  C   UNL A   1      49.097  26.561  28.501  1.00  0.00     0.074 A 
ATOM     52  C   UNL A   1      48.181  26.779  27.403  1.00  0.00     0.031 C 
ATOM     53  C   UNL A   1      45.145  24.933  33.312  1.00  0.00     0.029 A 
ATOM     54  C   UNL A   1      46.606  25.008  33.349  1.00  0.00     0.049 A 
ATOM     55  H   UNL A   1      47.873  25.621  31.814  1.00  0.00     0.167 HD
ATOM     56  C   UNL A   1      50.436  26.732  28.422  1.00  0.00     0.037 A 
ATOM     57  C   UNL A   1      47.390  24.700  34.400  1.00  0.00     0.037 A 
ATOM     58  C   UNL A   1      51.343  26.508  29.516  1.00  0.00     0.049 A 
ATOM     59  C   UNL A   1      48.888  24.820  34.266  1.00  0.00     0.074 A 
ATOM     60  C   UNL A   1      52.716  26.663  29.546  1.00  0.00     0.029 A 
ATOM     61  N   UNL A   1      50.960  26.067  30.775  1.00  0.00    -0.354 N 
ATOM     62  N   UNL A   1      49.601  25.213  33.237  1.00  0.00    -0.248 NA
ATOM     63  C   UNL A   1      49.691  24.454  35.442  1.00  0.00     0.031 C 
ATOM     64  C   UNL A   1      53.173  26.260  30.805  1.00  0.00     0.029 A 
ATOM     65  C   UNL A   1      52.077  25.918  31.581  1.00  0.00     0.049 A 
ATOM     66  H   UNL A   1      50.034  25.886  31.055  1.00  0.00     0.167 HD
ATOM     67  C   UNL A   1      50.928  25.175  33.652  1.00  0.00     0.074 A 
ATOM     68  C   UNL A   1      50.919  24.729  35.029  1.00  0.00     0.031 C 
ATOM     69  C   UNL A   1      52.050  25.486  32.957  1.00  0.00     0.037 A 
BRANCH  56  70
ATOM     70  C   UNL A   1      51.002  27.146  27.095  1.00  0.00     0.064 A 
ATOM     71  C   UNL A   1      51.082  28.494  26.710  1.00  0.00     0.173 A 
ATOM     72  C   UNL A   1      51.482  26.180  26.198  1.00  0.00     0.173 A 
ATOM     73  F   UNL A   1      50.619  29.456  27.524  1.00  0.00    -0.203 F 
ATOM     74  C   UNL A   1      51.591  28.856  25.466  1.00  0.00     0.198 A 
ATOM     75  C   UNL A   1      52.021  26.548  24.968  1.00  0.00     0.198 A 
ATOM     76  F   UNL A   1      51.429  24.877  26.514  1.00  0.00    -0.203 F 
ATOM     77  F   UNL A   1      51.603  30.144  25.097  1.00  0.00    -0.200 F 
ATOM     78  C   UNL A   1      52.066  27.883  24.598  1.00  0.00     0.200 A 
ATOM     79  F   UNL A   1      52.491  25.607  24.137  1.00  0.00    -0.200 F 
ATOM     80  F   UNL A   1      52.559  28.233  23.403  1.00  0.00    -0.200 F 
ENDBRANCH  56  70
BRANCH  57  81
ATOM     81  C   UNL A   1      46.778  24.230  35.671  1.00  0.00     0.064 A 
ATOM     82  C   UNL A   1      46.472  25.131  36.702  1.00  0.00     0.173 A 
ATOM     83  C   UNL A   1      46.505  22.872  35.891  1.00  0.00     0.173 A 
ATOM     84  F   UNL A   1      46.740  26.435  36.553  1.00  0.00    -0.203 F 
ATOM     85  C   UNL A   1      45.935  24.687  37.910  1.00  0.00     0.198 A 
ATOM     86  C   UNL A   1      45.940  22.434  37.087  1.00  0.00     0.198 A 
ATOM     87  F   UNL A   1      46.783  21.969  34.939  1.00  0.00    -0.203 F 
ATOM     88  F   UNL A   1      45.699  25.563  38.896  1.00  0.00    -0.200 F 
ATOM     89  C   UNL A   1      45.663  23.341  38.098  1.00  0.00     0.200 A 
ATOM     90  F   UNL A   1      45.668  21.134  37.261  1.00  0.00    -0.200 F 
ATOM     91  F   UNL A   1      45.143  22.916  39.258  1.00  0.00    -0.200 F 
ENDBRANCH  57  81
BRANCH  69  92
ATOM     92  C   UNL A   1      53.363  25.407  33.683  1.00  0.00     0.064 A 
ATOM     93  C   UNL A   1      53.872  26.488  34.419  1.00  0.00     0.173 A 
ATOM     94  C   UNL A   1      54.097  24.210  33.685  1.00  0.00     0.173 A 
ATOM     95  F   UNL A   1      53.216  27.658  34.442  1.00  0.00    -0.203 F 
ATOM     96  C   UNL A   1      55.077  26.380  35.109  1.00  0.00     0.198 A 
ATOM     97  C   UNL A   1      55.284  24.096  34.402  1.00  0.00     0.198 A 
ATOM     98  F   UNL A   1      53.652  23.142  33.005  1.00  0.00    -0.203 F 
ATOM     99  F   UNL A   1      55.567  27.440  35.766  1.00  0.00    -0.200 F 
ATOM    100  C   UNL A   1      55.777  25.182  35.108  1.00  0.00     0.200 A 
ATOM    101  F   UNL A   1      55.949  22.931  34.415  1.00  0.00    -0.200 F 
ATOM    102  F   UNL A   1      56.931  25.077  35.781  1.00  0.00    -0.200 F 
ENDBRANCH  69  92
ENDBRANCH  43  44
ENDBRANCH  36  38
ENDBRANCH  35  36
ENDBRANCH  34  35
ENDBRANCH  33  34
ENDBRANCH  32  33
ENDBRANCH  31  32
ENDBRANCH  30  31
ENDBRANCH  29  30
ENDBRANCH   1  29
TORSDOF 25
ENDMDL
MODEL 3
REMARK VINA RESULT:      -8.5      8.583     14.021
REMARK SMILES CSCC[C@@H](C(=O)OCCOCCOCCOCCOC(=O)c1ccc(-c2c3nc(c(-c4c(F)c(F)c(F)c(F)c4F)c4ccc([nH]4)c(-c4c(F)c(F)c(F)c(F)c4F)c4nc(c(-c5c(F)c(F)c(F)c(F)c5F)c5ccc2[nH]5)C=C4)C=C3)cc1)N1C(=O)/C(=C/c2ccccc2F)SC1=S
REMARK SMILES IDX 13 1 12 2 11 3 10 4 9 5 8 6 6 7 7 8 5 9 4 10 3 11 2 12 1 13
REMARK SMILES IDX 86 14 87 15 99 16 88 17 89 18 98 19 100 20 90 21 91 22 92 23
REMARK SMILES IDX 96 24 93 25 95 26 97 27 94 28 14 29 15 30 16 31 17 32 18 33
REMARK SMILES IDX 19 34 20 35 21 36 22 37 23 38 24 39 85 40 25 41 84 42 26 43
REMARK SMILES IDX 27 44 28 45 78 46 29 47 83 48 77 49 79 50 30 51 82 52 76 53
REMARK SMILES IDX 75 54 31 56 63 57 43 58 62 59 44 60 47 61 61 62 80 63 45 64
REMARK SMILES IDX 46 65 60 67 81 68 48 69 32 70 33 71 41 72 34 73 35 74 39 75
REMARK SMILES IDX 42 76 36 77 37 78 40 79 38 80 64 81 65 82 73 83 66 84 67 85
REMARK SMILES IDX 71 86 74 87 68 88 69 89 72 90 70 91 49 92 50 93 58 94 51 95
REMARK SMILES IDX 52 96 56 97 59 98 53 99 54 100 57 101 55 102
REMARK H PARENT 79 55 47 66
REMARK Flexibility Score: inf
ROOT
ATOM      1  C   UNL A   1      36.890  32.138  32.964  1.00  0.00     0.188 C 
ENDROOT
BRANCH   1   2
ATOM      2  C   UNL A   1      37.972  31.685  33.962  1.00  0.00     0.188 C 
BRANCH   2   3
ATOM      3  O   UNL A   1      38.835  32.736  34.367  1.00  0.00    -0.376 OA
BRANCH   3   4
ATOM      4  C   UNL A   1      39.411  32.650  35.662  1.00  0.00     0.202 C 
BRANCH   4   5
ATOM      5  C   UNL A   1      38.736  31.753  36.713  1.00  0.00     0.261 C 
BRANCH   5   6
ATOM      6  O   UNL A   1      37.948  32.489  37.662  1.00  0.00    -0.462 OA
BRANCH   6   7
ATOM      7  C   UNL A   1      37.322  31.831  38.659  1.00  0.00     0.329 C 
ATOM      8  O   UNL A   1      37.001  30.650  38.616  1.00  0.00    -0.250 OA
BRANCH   7   9
ATOM      9  C   UNL A   1      37.036  32.761  39.868  1.00  0.00     0.202 C 
BRANCH   9  10
ATOM     10  C   UNL A   1      38.120  33.878  39.984  1.00  0.00     0.048 C 
BRANCH  10  11
ATOM     11  C   UNL A   1      38.125  34.878  41.146  1.00  0.00     0.072 C 
BRANCH  11  12
ATOM     12  S   UNL A   1      39.782  35.371  41.721  1.00  0.00    -0.165 SA
ATOM     13  C   UNL A   1      40.803  34.769  40.362  1.00  0.00     0.085 C 
ENDBRANCH  11  12
ENDBRANCH  10  11
ENDBRANCH   9  10
BRANCH   9  14
ATOM     14  N   UNL A   1      36.746  32.026  41.168  1.00  0.00    -0.278 N 
ATOM     15  C   UNL A   1      35.465  32.101  41.713  1.00  0.00     0.266 C 
ATOM     16  C   UNL A   1      37.693  31.520  42.053  1.00  0.00     0.149 C 
ATOM     17  O   UNL A   1      34.475  32.595  41.192  1.00  0.00    -0.268 OA
ATOM     18  C   UNL A   1      35.405  31.519  43.080  1.00  0.00     0.081 C 
ATOM     19  S   UNL A   1      36.919  30.861  43.495  1.00  0.00    -0.054 SA
ATOM     20  S   UNL A   1      39.359  31.474  41.973  1.00  0.00    -0.052 S 
ATOM     21  C   UNL A   1      34.307  31.608  43.843  1.00  0.00     0.032 C 
BRANCH  21  22
ATOM     22  C   UNL A   1      34.235  31.299  45.279  1.00  0.00     0.012 A 
ATOM     23  C   UNL A   1      34.654  32.223  46.242  1.00  0.00     0.011 A 
ATOM     24  C   UNL A   1      33.819  30.028  45.701  1.00  0.00     0.130 A 
ATOM     25  C   UNL A   1      34.647  31.873  47.599  1.00  0.00     0.001 A 
ATOM     26  C   UNL A   1      33.810  29.678  47.048  1.00  0.00     0.040 A 
ATOM     27  F   UNL A   1      33.445  29.108  44.800  1.00  0.00    -0.206 F 
ATOM     28  C   UNL A   1      34.227  30.604  48.001  1.00  0.00     0.003 A 
ENDBRANCH  21  22
ENDBRANCH   9  14
ENDBRANCH   7   9
ENDBRANCH   6   7
ENDBRANCH   5   6
ENDBRANCH   4   5
ENDBRANCH   3   4
ENDBRANCH   2   3
ENDBRANCH   1   2
BRANCH   1  29
ATOM     29  O   UNL A   1      37.285  32.347  31.616  1.00  0.00    -0.377 OA
BRANCH  29  30
ATOM     30  C   UNL A   1      36.325  32.852  30.685  1.00  0.00     0.188 C 
BRANCH  30  31
ATOM     31  C   UNL A   1      34.802  32.724  30.936  1.00  0.00     0.188 C 
BRANCH  31  32
ATOM     32  O   UNL A   1      33.973  33.325  29.953  1.00  0.00    -0.376 OA
BRANCH  32  33
ATOM     33  C   UNL A   1      34.347  33.161  28.594  1.00  0.00     0.202 C 
BRANCH  33  34
ATOM     34  C   UNL A   1      33.703  31.979  27.855  1.00  0.00     0.261 C 
BRANCH  34  35
ATOM     35  O   UNL A   1      34.616  31.091  27.189  1.00  0.00    -0.460 OA
BRANCH  35  36
ATOM     36  C   UNL A   1      34.755  29.845  27.691  1.00  0.00     0.338 C 
ATOM     37  O   UNL A   1      33.985  28.912  27.596  1.00  0.00    -0.246 OA
BRANCH  36  38
ATOM     38  C   UNL A   1      36.120  29.741  28.245  1.00  0.00     0.060 A 
ATOM     39  C   UNL A   1      37.212  30.082  27.435  1.00  0.00     0.016 A 
ATOM     40  C   UNL A   1      36.312  29.290  29.551  1.00  0.00     0.016 A 
ATOM     41  C   UNL A   1      38.510  29.925  27.918  1.00  0.00     0.010 A 
ATOM     42  C   UNL A   1      37.611  29.109  30.025  1.00  0.00     0.010 A 
ATOM     43  C   UNL A   1      38.713  29.385  29.195  1.00  0.00    -0.014 A 
BRANCH  43  44
ATOM     44  C   UNL A   1      40.050  28.873  29.573  1.00  0.00     0.031 A 
ATOM     45  C   UNL A   1      40.888  29.717  30.494  1.00  0.00     0.074 A 
ATOM     46  C   UNL A   1      40.513  27.697  29.118  1.00  0.00     0.049 A 
ATOM     47  N   UNL A   1      42.120  29.541  30.897  1.00  0.00    -0.248 NA
ATOM     48  C   UNL A   1      40.247  30.931  31.025  1.00  0.00     0.031 C 
ATOM     49  C   UNL A   1      39.775  26.771  28.263  1.00  0.00     0.029 A 
ATOM     50  N   UNL A   1      41.730  27.091  29.305  1.00  0.00    -0.354 N 
ATOM     51  C   UNL A   1      42.403  30.627  31.716  1.00  0.00     0.074 A 
ATOM     52  C   UNL A   1      41.228  31.469  31.730  1.00  0.00     0.031 C 
ATOM     53  C   UNL A   1      40.564  25.719  27.982  1.00  0.00     0.029 A 
ATOM     54  C   UNL A   1      41.872  25.919  28.606  1.00  0.00     0.049 A 
ATOM     55  H   UNL A   1      42.433  27.463  29.885  1.00  0.00     0.167 HD
ATOM     56  C   UNL A   1      43.540  30.894  32.399  1.00  0.00     0.037 A 
ATOM     57  C   UNL A   1      42.948  25.120  28.467  1.00  0.00     0.037 A 
ATOM     58  C   UNL A   1      44.709  30.056  32.377  1.00  0.00     0.049 A 
ATOM     59  C   UNL A   1      44.232  25.479  29.173  1.00  0.00     0.074 A 
ATOM     60  C   UNL A   1      45.908  30.228  33.042  1.00  0.00     0.029 A 
ATOM     61  N   UNL A   1      44.824  28.887  31.637  1.00  0.00    -0.354 N 
ATOM     62  N   UNL A   1      44.491  26.495  29.962  1.00  0.00    -0.248 NA
ATOM     63  C   UNL A   1      45.376  24.577  28.970  1.00  0.00     0.031 C 
ATOM     64  C   UNL A   1      46.771  29.196  32.659  1.00  0.00     0.029 A 
ATOM     65  C   UNL A   1      46.086  28.343  31.809  1.00  0.00     0.049 A 
ATOM     66  H   UNL A   1      44.114  28.502  31.074  1.00  0.00     0.167 HD
ATOM     67  C   UNL A   1      45.809  26.336  30.375  1.00  0.00     0.074 A 
ATOM     68  C   UNL A   1      46.294  25.121  29.756  1.00  0.00     0.031 C 
ATOM     69  C   UNL A   1      46.549  27.122  31.196  1.00  0.00     0.037 A 
BRANCH  56  70
ATOM     70  C   UNL A   1      43.583  32.165  33.196  1.00  0.00     0.064 A 
ATOM     71  C   UNL A   1      43.150  32.220  34.529  1.00  0.00     0.173 A 
ATOM     72  C   UNL A   1      44.077  33.345  32.619  1.00  0.00     0.173 A 
ATOM     73  F   UNL A   1      42.651  31.124  35.123  1.00  0.00    -0.203 F 
ATOM     74  C   UNL A   1      43.179  33.414  35.245  1.00  0.00     0.198 A 
ATOM     75  C   UNL A   1      44.137  34.529  33.347  1.00  0.00     0.198 A 
ATOM     76  F   UNL A   1      44.505  33.349  31.347  1.00  0.00    -0.203 F 
ATOM     77  F   UNL A   1      42.705  33.456  36.497  1.00  0.00    -0.200 F 
ATOM     78  C   UNL A   1      43.679  34.567  34.655  1.00  0.00     0.200 A 
ATOM     79  F   UNL A   1      44.631  35.639  32.780  1.00  0.00    -0.200 F 
ATOM     80  F   UNL A   1      43.710  35.714  35.345  1.00  0.00    -0.200 F 
ENDBRANCH  56  70
BRANCH  57  81
ATOM     81  C   UNL A   1      42.867  23.907  27.611  1.00  0.00     0.064 A 
ATOM     82  C   UNL A   1      42.494  22.666  28.148  1.00  0.00     0.173 A 
ATOM     83  C   UNL A   1      43.181  23.957  26.244  1.00  0.00     0.173 A 
ATOM     84  F   UNL A   1      42.212  22.560  29.454  1.00  0.00    -0.203 F 
ATOM     85  C   UNL A   1      42.456  21.520  27.355  1.00  0.00     0.198 A 
ATOM     86  C   UNL A   1      43.114  22.817  25.447  1.00  0.00     0.198 A 
ATOM     87  F   UNL A   1      43.550  25.117  25.682  1.00  0.00    -0.203 F 
ATOM     88  F   UNL A   1      42.144  20.339  27.905  1.00  0.00    -0.200 F 
ATOM     89  C   UNL A   1      42.759  21.598  26.004  1.00  0.00     0.200 A 
ATOM     90  F   UNL A   1      43.397  22.898  24.140  1.00  0.00    -0.200 F 
ATOM     91  F   UNL A   1      42.718  20.497  25.242  1.00  0.00    -0.200 F 
ENDBRANCH  57  81
BRANCH  69  92
ATOM     92  C   UNL A   1      47.945  26.673  31.519  1.00  0.00     0.064 A 
ATOM     93  C   UNL A   1      49.058  27.127  30.796  1.00  0.00     0.173 A 
ATOM     94  C   UNL A   1      48.176  25.813  32.605  1.00  0.00     0.173 A 
ATOM     95  F   UNL A   1      48.893  27.940  29.742  1.00  0.00    -0.203 F 
ATOM     96  C   UNL A   1      50.346  26.718  31.133  1.00  0.00     0.198 A 
ATOM     97  C   UNL A   1      49.467  25.434  32.960  1.00  0.00     0.198 A 
ATOM     98  F   UNL A   1      47.148  25.356  33.336  1.00  0.00    -0.203 F 
ATOM     99  F   UNL A   1      51.390  27.128  30.399  1.00  0.00    -0.200 F 
ATOM    100  C   UNL A   1      50.551  25.880  32.220  1.00  0.00     0.200 A 
ATOM    101  F   UNL A   1      49.663  24.638  34.021  1.00  0.00    -0.200 F 
ATOM    102  F   UNL A   1      51.792  25.497  32.549  1.00  0.00    -0.200 F 
ENDBRANCH  69  92
ENDBRANCH  43  44
ENDBRANCH  36  38
ENDBRANCH  35  36
ENDBRANCH  34  35
ENDBRANCH  33  34
ENDBRANCH  32  33
ENDBRANCH  31  32
ENDBRANCH  30  31
ENDBRANCH  29  30
ENDBRANCH   1  29
TORSDOF 25
ENDMDL
