MODEL 1
REMARK VINA RESULT:     -11.3      0.000      0.000
REMARK SMILES Cc1cccc([C@@H](CC(=O)OCCOCCOCCOCCOC(=O)c2ccc(-c3c4nc(c(-c5c(F)c(F)c(F)c(F)c5F)c5ccc([nH]5)c(-c5c(F)c(F)c(F)c(F)c5F)c5nc(c(-c6c(F)c(F)c(F)c(F)c6F)c6ccc3[nH]6)C=C5)C=C4)cc2)NC(=O)OC(C)(C)C)c1
REMARK SMILES IDX 16 1 15 2 14 3 13 4 12 5 11 6 9 7 10 8 8 9 7 10 6 11 1 12
REMARK SMILES IDX 2 13 3 14 97 15 4 16 5 17 89 18 90 19 91 21 92 22 93 23
REMARK SMILES IDX 94 24 95 25 96 26 17 27 18 28 19 29 20 30 21 31 22 32 23 33
REMARK SMILES IDX 24 34 25 35 26 36 27 37 88 38 28 39 87 40 29 41 30 42 31 43
REMARK SMILES IDX 81 44 32 45 86 46 80 47 82 48 33 49 85 50 79 51 78 52 34 54
REMARK SMILES IDX 66 55 46 56 65 57 47 58 50 59 64 60 83 61 48 62 49 63 63 65
REMARK SMILES IDX 84 66 51 67 35 68 36 69 44 70 37 71 38 72 42 73 45 74 39 75
REMARK SMILES IDX 40 76 43 77 41 78 67 79 68 80 76 81 69 82 70 83 74 84 77 85
REMARK SMILES IDX 71 86 72 87 75 88 73 89 52 90 53 91 61 92 54 93 55 94 59 95
REMARK SMILES IDX 62 96 56 97 57 98 60 99 58 100
REMARK H PARENT 89 20 82 53 50 64
REMARK Flexibility Score: inf
ROOT
ATOM      1  C   UNL A   1      33.754  28.432  22.433  1.00  0.00     0.188 C 
ENDROOT
BRANCH   1   2
ATOM      2  C   UNL A   1      33.639  26.908  22.485  1.00  0.00     0.188 C 
BRANCH   2   3
ATOM      3  O   UNL A   1      33.602  26.217  21.244  1.00  0.00    -0.376 OA
BRANCH   3   4
ATOM      4  C   UNL A   1      32.888  24.979  21.202  1.00  0.00     0.202 C 
BRANCH   4   5
ATOM      5  C   UNL A   1      33.221  23.909  22.248  1.00  0.00     0.261 C 
BRANCH   5   6
ATOM      6  O   UNL A   1      34.587  23.434  22.021  1.00  0.00    -0.463 OA
BRANCH   6   7
ATOM      7  C   UNL A   1      35.395  23.129  23.055  1.00  0.00     0.308 C 
ATOM      8  O   UNL A   1      36.549  22.740  22.884  1.00  0.00    -0.252 OA
BRANCH   7   9
ATOM      9  C   UNL A   1      34.732  23.108  24.452  1.00  0.00     0.152 C 
BRANCH   9  10
ATOM     10  C   UNL A   1      34.048  21.944  25.279  1.00  0.00     0.127 C 
BRANCH  10  11
ATOM     11  C   UNL A   1      33.551  20.641  24.556  1.00  0.00    -0.025 A 
ATOM     12  C   UNL A   1      34.965  16.562  25.087  1.00  0.00     0.044 C 
ATOM     13  C   UNL A   1      34.559  17.686  24.142  1.00  0.00    -0.051 A 
ATOM     14  C   UNL A   1      33.374  17.416  22.789  1.00  0.00     0.003 A 
ATOM     15  C   UNL A   1      34.720  19.299  24.910  1.00  0.00     0.009 A 
ATOM     16  C   UNL A   1      32.274  18.801  22.242  1.00  0.00     0.001 A 
ATOM     17  C   UNL A   1      32.217  20.338  23.294  1.00  0.00     0.006 A 
ENDBRANCH  10  11
BRANCH  10  18
ATOM     18  N   UNL A   1      33.255  22.264  26.418  1.00  0.00    -0.314 N 
ATOM     19  C   UNL A   1      32.010  22.805  26.527  1.00  0.00     0.408 C 
ATOM     20  H   UNL A   1      33.682  22.057  27.281  1.00  0.00     0.167 HD
ATOM     21  O   UNL A   1      31.488  22.876  27.633  1.00  0.00    -0.225 OA
BRANCH  19  22
ATOM     22  O   UNL A   1      31.455  23.252  25.372  1.00  0.00    -0.444 OA
BRANCH  22  23
ATOM     23  C   UNL A   1      30.997  24.641  25.332  1.00  0.00     0.106 C 
ATOM     24  C   UNL A   1      30.461  25.011  23.941  1.00  0.00     0.056 C 
ATOM     25  C   UNL A   1      29.960  24.925  26.434  1.00  0.00     0.056 C 
ATOM     26  C   UNL A   1      32.225  25.520  25.621  1.00  0.00     0.056 C 
ENDBRANCH  22  23
ENDBRANCH  19  22
ENDBRANCH  10  18
ENDBRANCH   9  10
ENDBRANCH   7   9
ENDBRANCH   6   7
ENDBRANCH   5   6
ENDBRANCH   4   5
ENDBRANCH   3   4
ENDBRANCH   2   3
ENDBRANCH   1   2
BRANCH   1  27
ATOM     27  O   UNL A   1      32.812  29.115  23.241  1.00  0.00    -0.377 OA
BRANCH  27  28
ATOM     28  C   UNL A   1      31.511  28.584  23.147  1.00  0.00     0.188 C 
BRANCH  28  29
ATOM     29  C   UNL A   1      30.617  28.936  24.297  1.00  0.00     0.188 C 
BRANCH  29  30
ATOM     30  O   UNL A   1      31.177  30.114  24.838  1.00  0.00    -0.376 OA
BRANCH  30  31
ATOM     31  C   UNL A   1      31.453  29.986  26.220  1.00  0.00     0.202 C 
BRANCH  31  32
ATOM     32  C   UNL A   1      32.478  31.032  26.667  1.00  0.00     0.261 C 
BRANCH  32  33
ATOM     33  O   UNL A   1      33.707  30.328  26.979  1.00  0.00    -0.460 OA
BRANCH  33  34
ATOM     34  C   UNL A   1      34.646  31.046  27.651  1.00  0.00     0.338 C 
ATOM     35  O   UNL A   1      34.648  32.262  27.747  1.00  0.00    -0.246 OA
BRANCH  34  36
ATOM     36  C   UNL A   1      35.801  30.174  28.056  1.00  0.00     0.060 A 
ATOM     37  C   UNL A   1      35.857  29.658  29.361  1.00  0.00     0.016 A 
ATOM     38  C   UNL A   1      36.922  30.031  27.245  1.00  0.00     0.016 A 
ATOM     39  C   UNL A   1      37.068  29.148  29.886  1.00  0.00     0.010 A 
ATOM     40  C   UNL A   1      38.122  29.543  27.784  1.00  0.00     0.010 A 
ATOM     41  C   UNL A   1      38.250  29.175  29.135  1.00  0.00    -0.014 A 
BRANCH  41  42
ATOM     42  C   UNL A   1      39.618  28.926  29.700  1.00  0.00     0.031 A 
ATOM     43  C   UNL A   1      40.358  27.701  29.333  1.00  0.00     0.074 A 
ATOM     44  C   UNL A   1      40.401  29.904  30.245  1.00  0.00     0.049 A 
ATOM     45  N   UNL A   1      41.485  27.373  29.859  1.00  0.00    -0.248 NA
ATOM     46  C   UNL A   1      40.014  26.833  28.225  1.00  0.00     0.031 C 
ATOM     47  C   UNL A   1      41.771  30.012  30.721  1.00  0.00     0.029 A 
ATOM     48  N   UNL A   1      40.103  31.216  30.430  1.00  0.00    -0.354 N 
ATOM     49  C   UNL A   1      42.222  26.717  28.901  1.00  0.00     0.074 A 
ATOM     50  C   UNL A   1      41.201  26.260  27.983  1.00  0.00     0.031 C 
ATOM     51  C   UNL A   1      41.964  31.096  31.516  1.00  0.00     0.029 A 
ATOM     52  C   UNL A   1      40.653  31.708  31.647  1.00  0.00     0.049 A 
ATOM     53  H   UNL A   1      39.573  31.757  29.801  1.00  0.00     0.167 HD
ATOM     54  C   UNL A   1      43.595  26.826  28.970  1.00  0.00     0.037 A 
ATOM     55  C   UNL A   1      39.894  32.327  32.736  1.00  0.00     0.037 A 
ATOM     56  C   UNL A   1      44.031  27.543  30.240  1.00  0.00     0.049 A 
ATOM     57  C   UNL A   1      40.566  30.960  33.777  1.00  0.00     0.074 A 
ATOM     58  C   UNL A   1      44.923  28.551  30.598  1.00  0.00     0.029 A 
ATOM     59  N   UNL A   1      43.267  27.366  31.423  1.00  0.00    -0.354 N 
ATOM     60  N   UNL A   1      41.085  29.823  33.270  1.00  0.00    -0.248 NA
ATOM     61  C   UNL A   1      40.749  30.837  35.241  1.00  0.00     0.031 C 
ATOM     62  C   UNL A   1      44.647  28.978  31.950  1.00  0.00     0.029 A 
ATOM     63  C   UNL A   1      43.540  28.284  32.432  1.00  0.00     0.049 A 
ATOM     64  H   UNL A   1      42.597  26.651  31.521  1.00  0.00     0.167 HD
ATOM     65  C   UNL A   1      41.885  29.102  34.140  1.00  0.00     0.074 A 
ATOM     66  C   UNL A   1      41.419  29.665  35.399  1.00  0.00     0.031 C 
ATOM     67  C   UNL A   1      42.884  28.179  33.767  1.00  0.00     0.037 A 
BRANCH  54  68
ATOM     68  C   UNL A   1      44.553  26.450  27.802  1.00  0.00     0.064 A 
ATOM     69  C   UNL A   1      44.715  27.276  26.663  1.00  0.00     0.173 A 
ATOM     70  C   UNL A   1      45.347  25.278  27.726  1.00  0.00     0.173 A 
ATOM     71  F   UNL A   1      44.093  28.452  26.555  1.00  0.00    -0.203 F 
ATOM     72  C   UNL A   1      45.547  26.952  25.573  1.00  0.00     0.198 A 
ATOM     73  C   UNL A   1      46.184  24.954  26.644  1.00  0.00     0.198 A 
ATOM     74  F   UNL A   1      45.394  24.377  28.700  1.00  0.00    -0.203 F 
ATOM     75  F   UNL A   1      45.630  27.789  24.528  1.00  0.00    -0.200 F 
ATOM     76  C   UNL A   1      46.286  25.791  25.563  1.00  0.00     0.200 A 
ATOM     77  F   UNL A   1      46.898  23.818  26.678  1.00  0.00    -0.200 F 
ATOM     78  F   UNL A   1      47.098  25.492  24.541  1.00  0.00    -0.200 F 
ENDBRANCH  54  68
BRANCH  55  79
ATOM     79  C   UNL A   1      38.184  33.620  32.794  1.00  0.00     0.064 A 
ATOM     80  C   UNL A   1      37.026  33.812  31.822  1.00  0.00     0.173 A 
ATOM     81  C   UNL A   1      37.399  34.206  34.047  1.00  0.00     0.173 A 
ATOM     82  F   UNL A   1      37.226  34.169  30.536  1.00  0.00    -0.203 F 
ATOM     83  C   UNL A   1      35.627  33.674  32.117  1.00  0.00     0.198 A 
ATOM     84  C   UNL A   1      36.037  33.969  34.374  1.00  0.00     0.198 A 
ATOM     85  F   UNL A   1      38.042  34.853  35.052  1.00  0.00    -0.203 F 
ATOM     86  F   UNL A   1      34.745  33.613  31.109  1.00  0.00    -0.200 F 
ATOM     87  C   UNL A   1      35.168  33.578  33.404  1.00  0.00     0.200 A 
ATOM     88  F   UNL A   1      35.625  34.058  35.650  1.00  0.00    -0.200 F 
ATOM     89  F   UNL A   1      33.895  33.262  33.682  1.00  0.00    -0.200 F 
ENDBRANCH  55  79
BRANCH  67  90
ATOM     90  C   UNL A   1      43.509  27.022  34.600  1.00  0.00     0.064 A 
ATOM     91  C   UNL A   1      44.832  26.947  35.030  1.00  0.00     0.173 A 
ATOM     92  C   UNL A   1      42.707  25.917  35.061  1.00  0.00     0.173 A 
ATOM     93  F   UNL A   1      45.767  27.774  34.563  1.00  0.00    -0.203 F 
ATOM     94  C   UNL A   1      45.276  25.962  35.930  1.00  0.00     0.198 A 
ATOM     95  C   UNL A   1      43.144  24.947  35.957  1.00  0.00     0.198 A 
ATOM     96  F   UNL A   1      41.452  25.688  34.663  1.00  0.00    -0.203 F 
ATOM     97  F   UNL A   1      46.556  25.966  36.324  1.00  0.00    -0.200 F 
ATOM     98  C   UNL A   1      44.429  24.984  36.416  1.00  0.00     0.200 A 
ATOM     99  F   UNL A   1      42.297  23.988  36.360  1.00  0.00    -0.200 F 
ATOM    100  F   UNL A   1      44.855  24.068  37.294  1.00  0.00    -0.200 F 
ENDBRANCH  67  90
ENDBRANCH  41  42
ENDBRANCH  34  36
ENDBRANCH  33  34
ENDBRANCH  32  33
ENDBRANCH  31  32
ENDBRANCH  30  31
ENDBRANCH  29  30
ENDBRANCH  28  29
ENDBRANCH  27  28
ENDBRANCH   1  27
TORSDOF 25
ENDMDL
MODEL 2
REMARK VINA RESULT:     -10.7      1.668      2.530
REMARK SMILES Cc1cccc([C@@H](CC(=O)OCCOCCOCCOCCOC(=O)c2ccc(-c3c4nc(c(-c5c(F)c(F)c(F)c(F)c5F)c5ccc([nH]5)c(-c5c(F)c(F)c(F)c(F)c5F)c5nc(c(-c6c(F)c(F)c(F)c(F)c6F)c6ccc3[nH]6)C=C5)C=C4)cc2)NC(=O)OC(C)(C)C)c1
REMARK SMILES IDX 16 1 15 2 14 3 13 4 12 5 11 6 9 7 10 8 8 9 7 10 6 11 1 12
REMARK SMILES IDX 2 13 3 14 97 15 4 16 5 17 89 18 90 19 91 21 92 22 93 23
REMARK SMILES IDX 94 24 95 25 96 26 17 27 18 28 19 29 20 30 21 31 22 32 23 33
REMARK SMILES IDX 24 34 25 35 26 36 27 37 88 38 28 39 87 40 29 41 30 42 31 43
REMARK SMILES IDX 81 44 32 45 86 46 80 47 82 48 33 49 85 50 79 51 78 52 34 54
REMARK SMILES IDX 66 55 46 56 65 57 47 58 50 59 64 60 83 61 48 62 49 63 63 65
REMARK SMILES IDX 84 66 51 67 35 68 36 69 44 70 37 71 38 72 42 73 45 74 39 75
REMARK SMILES IDX 40 76 43 77 41 78 67 79 68 80 76 81 69 82 70 83 74 84 77 85
REMARK SMILES IDX 71 86 72 87 75 88 73 89 52 90 53 91 61 92 54 93 55 94 59 95
REMARK SMILES IDX 62 96 56 97 57 98 60 99 58 100
REMARK H PARENT 89 20 82 53 50 64
REMARK Flexibility Score: inf
ROOT
ATOM      1  C   UNL A   1      33.773  28.038  22.479  1.00  0.00     0.188 C 
ENDROOT
BRANCH   1   2
ATOM      2  C   UNL A   1      32.594  27.114  22.174  1.00  0.00     0.188 C 
BRANCH   2   3
ATOM      3  O   UNL A   1      32.708  26.267  21.038  1.00  0.00    -0.376 OA
BRANCH   3   4
ATOM      4  C   UNL A   1      32.972  24.883  21.274  1.00  0.00     0.202 C 
BRANCH   4   5
ATOM      5  C   UNL A   1      33.647  24.483  22.591  1.00  0.00     0.261 C 
BRANCH   5   6
ATOM      6  O   UNL A   1      34.799  23.630  22.292  1.00  0.00    -0.463 OA
BRANCH   6   7
ATOM      7  C   UNL A   1      35.512  23.056  23.281  1.00  0.00     0.308 C 
ATOM      8  O   UNL A   1      36.614  22.551  23.079  1.00  0.00    -0.252 OA
BRANCH   7   9
ATOM      9  C   UNL A   1      34.784  22.895  24.637  1.00  0.00     0.152 C 
BRANCH   9  10
ATOM     10  C   UNL A   1      34.369  21.613  25.466  1.00  0.00     0.127 C 
BRANCH  10  11
ATOM     11  C   UNL A   1      33.807  20.339  24.735  1.00  0.00    -0.025 A 
ATOM     12  C   UNL A   1      35.147  16.217  25.100  1.00  0.00     0.044 C 
ATOM     13  C   UNL A   1      34.725  17.375  24.202  1.00  0.00    -0.051 A 
ATOM     14  C   UNL A   1      33.474  17.167  22.899  1.00  0.00     0.003 A 
ATOM     15  C   UNL A   1      34.959  18.963  25.001  1.00  0.00     0.009 A 
ATOM     16  C   UNL A   1      32.384  18.589  22.437  1.00  0.00     0.001 A 
ATOM     17  C   UNL A   1      32.411  20.100  23.529  1.00  0.00     0.006 A 
ENDBRANCH  10  11
BRANCH  10  18
ATOM     18  N   UNL A   1      33.822  21.767  26.773  1.00  0.00    -0.314 N 
ATOM     19  C   UNL A   1      32.928  22.663  27.276  1.00  0.00     0.408 C 
ATOM     20  H   UNL A   1      34.148  21.110  27.429  1.00  0.00     0.167 HD
ATOM     21  O   UNL A   1      32.521  22.515  28.422  1.00  0.00    -0.225 OA
BRANCH  19  22
ATOM     22  O   UNL A   1      32.579  23.681  26.448  1.00  0.00    -0.444 OA
BRANCH  22  23
ATOM     23  C   UNL A   1      31.175  23.780  26.049  1.00  0.00     0.106 C 
ATOM     24  C   UNL A   1      30.292  22.836  26.879  1.00  0.00     0.056 C 
ATOM     25  C   UNL A   1      30.671  25.233  26.116  1.00  0.00     0.056 C 
ATOM     26  C   UNL A   1      31.100  23.336  24.579  1.00  0.00     0.056 C 
ENDBRANCH  22  23
ENDBRANCH  19  22
ENDBRANCH  10  18
ENDBRANCH   9  10
ENDBRANCH   7   9
ENDBRANCH   6   7
ENDBRANCH   5   6
ENDBRANCH   4   5
ENDBRANCH   3   4
ENDBRANCH   2   3
ENDBRANCH   1   2
BRANCH   1  27
ATOM     27  O   UNL A   1      33.537  28.957  23.531  1.00  0.00    -0.377 OA
BRANCH  27  28
ATOM     28  C   UNL A   1      32.168  29.183  23.773  1.00  0.00     0.188 C 
BRANCH  28  29
ATOM     29  C   UNL A   1      31.766  29.047  25.210  1.00  0.00     0.188 C 
BRANCH  29  30
ATOM     30  O   UNL A   1      32.306  30.187  25.843  1.00  0.00    -0.376 OA
BRANCH  30  31
ATOM     31  C   UNL A   1      32.904  29.872  27.087  1.00  0.00     0.202 C 
BRANCH  31  32
ATOM     32  C   UNL A   1      33.831  31.003  27.544  1.00  0.00     0.261 C 
BRANCH  32  33
ATOM     33  O   UNL A   1      35.194  30.556  27.331  1.00  0.00    -0.460 OA
BRANCH  33  34
ATOM     34  C   UNL A   1      36.082  30.885  28.307  1.00  0.00     0.338 C 
ATOM     35  O   UNL A   1      36.137  31.974  28.854  1.00  0.00    -0.246 OA
BRANCH  34  36
ATOM     36  C   UNL A   1      37.132  29.820  28.458  1.00  0.00     0.060 A 
ATOM     37  C   UNL A   1      37.204  29.079  29.649  1.00  0.00     0.016 A 
ATOM     38  C   UNL A   1      38.168  29.686  27.538  1.00  0.00     0.016 A 
ATOM     39  C   UNL A   1      38.367  28.340  29.973  1.00  0.00     0.010 A 
ATOM     40  C   UNL A   1      39.323  28.967  27.881  1.00  0.00     0.010 A 
ATOM     41  C   UNL A   1      39.489  28.355  29.135  1.00  0.00    -0.014 A 
BRANCH  41  42
ATOM     42  C   UNL A   1      40.845  27.844  29.527  1.00  0.00     0.031 A 
ATOM     43  C   UNL A   1      41.318  26.538  29.025  1.00  0.00     0.074 A 
ATOM     44  C   UNL A   1      41.840  28.641  30.021  1.00  0.00     0.049 A 
ATOM     45  N   UNL A   1      42.419  25.992  29.404  1.00  0.00    -0.248 NA
ATOM     46  C   UNL A   1      40.712  25.810  27.928  1.00  0.00     0.031 C 
ATOM     47  C   UNL A   1      43.250  28.487  30.340  1.00  0.00     0.029 A 
ATOM     48  N   UNL A   1      41.795  29.970  30.295  1.00  0.00    -0.354 N 
ATOM     49  C   UNL A   1      42.924  25.283  28.340  1.00  0.00     0.074 A 
ATOM     50  C   UNL A   1      41.748  25.062  27.526  1.00  0.00     0.031 C 
ATOM     51  C   UNL A   1      43.712  29.472  31.153  1.00  0.00     0.029 A 
ATOM     52  C   UNL A   1      42.549  30.286  31.460  1.00  0.00     0.049 A 
ATOM     53  H   UNL A   1      41.305  30.630  29.755  1.00  0.00     0.167 HD
ATOM     54  C   UNL A   1      44.295  25.155  28.255  1.00  0.00     0.037 A 
ATOM     55  C   UNL A   1      42.030  30.955  32.655  1.00  0.00     0.037 A 
ATOM     56  C   UNL A   1      44.981  25.707  29.496  1.00  0.00     0.049 A 
ATOM     57  C   UNL A   1      42.559  29.432  33.552  1.00  0.00     0.074 A 
ATOM     58  C   UNL A   1      46.069  26.527  29.791  1.00  0.00     0.029 A 
ATOM     59  N   UNL A   1      44.328  25.589  30.751  1.00  0.00    -0.354 N 
ATOM     60  N   UNL A   1      42.816  28.258  32.940  1.00  0.00    -0.248 NA
ATOM     61  C   UNL A   1      42.873  29.189  34.979  1.00  0.00     0.031 C 
ATOM     62  C   UNL A   1      46.016  26.909  31.184  1.00  0.00     0.029 A 
ATOM     63  C   UNL A   1      44.863  26.383  31.759  1.00  0.00     0.049 A 
ATOM     64  H   UNL A   1      43.558  24.992  30.894  1.00  0.00     0.167 HD
ATOM     65  C   UNL A   1      43.566  27.360  33.680  1.00  0.00     0.074 A 
ATOM     66  C   UNL A   1      43.342  27.914  35.008  1.00  0.00     0.031 C 
ATOM     67  C   UNL A   1      44.343  26.307  33.155  1.00  0.00     0.037 A 
BRANCH  54  68
ATOM     68  C   UNL A   1      45.043  24.696  26.969  1.00  0.00     0.064 A 
ATOM     69  C   UNL A   1      44.933  23.378  26.463  1.00  0.00     0.173 A 
ATOM     70  C   UNL A   1      45.901  25.500  26.177  1.00  0.00     0.173 A 
ATOM     71  F   UNL A   1      44.137  22.471  27.033  1.00  0.00    -0.203 F 
ATOM     72  C   UNL A   1      45.621  22.918  25.321  1.00  0.00     0.198 A 
ATOM     73  C   UNL A   1      46.583  25.048  25.034  1.00  0.00     0.198 A 
ATOM     74  F   UNL A   1      46.120  26.785  26.432  1.00  0.00    -0.203 F 
ATOM     75  F   UNL A   1      45.468  21.648  24.920  1.00  0.00    -0.200 F 
ATOM     76  C   UNL A   1      46.445  23.754  24.603  1.00  0.00     0.200 A 
ATOM     77  F   UNL A   1      47.368  25.898  24.353  1.00  0.00    -0.200 F 
ATOM     78  F   UNL A   1      47.080  23.328  23.503  1.00  0.00    -0.200 F 
ENDBRANCH  54  68
BRANCH  55  79
ATOM     79  C   UNL A   1      40.586  32.511  32.965  1.00  0.00     0.064 A 
ATOM     80  C   UNL A   1      39.859  33.428  31.989  1.00  0.00     0.173 A 
ATOM     81  C   UNL A   1      39.509  32.678  34.125  1.00  0.00     0.173 A 
ATOM     82  F   UNL A   1      40.526  34.243  31.145  1.00  0.00    -0.203 F 
ATOM     83  C   UNL A   1      38.438  33.572  31.845  1.00  0.00     0.198 A 
ATOM     84  C   UNL A   1      38.098  32.713  33.965  1.00  0.00     0.198 A 
ATOM     85  F   UNL A   1      39.856  32.606  35.435  1.00  0.00    -0.203 F 
ATOM     86  F   UNL A   1      37.946  34.211  30.773  1.00  0.00    -0.200 F 
ATOM     87  C   UNL A   1      37.564  33.051  32.761  1.00  0.00     0.200 A 
ATOM     88  F   UNL A   1      37.297  32.342  34.978  1.00  0.00    -0.200 F 
ATOM     89  F   UNL A   1      36.242  33.015  32.542  1.00  0.00    -0.200 F 
ENDBRANCH  55  79
BRANCH  67  90
ATOM     90  C   UNL A   1      44.843  25.012  33.861  1.00  0.00     0.064 A 
ATOM     91  C   UNL A   1      44.049  23.932  34.243  1.00  0.00     0.173 A 
ATOM     92  C   UNL A   1      46.242  24.802  34.130  1.00  0.00     0.173 A 
ATOM     93  F   UNL A   1      42.719  24.007  34.242  1.00  0.00    -0.203 F 
ATOM     94  C   UNL A   1      44.598  22.724  34.710  1.00  0.00     0.198 A 
ATOM     95  C   UNL A   1      46.786  23.605  34.585  1.00  0.00     0.198 A 
ATOM     96  F   UNL A   1      47.180  25.744  33.989  1.00  0.00    -0.203 F 
ATOM     97  F   UNL A   1      43.778  21.716  35.033  1.00  0.00    -0.200 F 
ATOM     98  C   UNL A   1      45.962  22.550  34.852  1.00  0.00     0.200 A 
ATOM     99  F   UNL A   1      48.113  23.502  34.754  1.00  0.00    -0.200 F 
ATOM    100  F   UNL A   1      46.475  21.387  35.271  1.00  0.00    -0.200 F 
ENDBRANCH  67  90
ENDBRANCH  41  42
ENDBRANCH  34  36
ENDBRANCH  33  34
ENDBRANCH  32  33
ENDBRANCH  31  32
ENDBRANCH  30  31
ENDBRANCH  29  30
ENDBRANCH  28  29
ENDBRANCH  27  28
ENDBRANCH   1  27
TORSDOF 25
ENDMDL
MODEL 3
REMARK VINA RESULT:     -10.4      1.374      3.016
REMARK SMILES Cc1cccc([C@@H](CC(=O)OCCOCCOCCOCCOC(=O)c2ccc(-c3c4nc(c(-c5c(F)c(F)c(F)c(F)c5F)c5ccc([nH]5)c(-c5c(F)c(F)c(F)c(F)c5F)c5nc(c(-c6c(F)c(F)c(F)c(F)c6F)c6ccc3[nH]6)C=C5)C=C4)cc2)NC(=O)OC(C)(C)C)c1
REMARK SMILES IDX 16 1 15 2 14 3 13 4 12 5 11 6 9 7 10 8 8 9 7 10 6 11 1 12
REMARK SMILES IDX 2 13 3 14 97 15 4 16 5 17 89 18 90 19 91 21 92 22 93 23
REMARK SMILES IDX 94 24 95 25 96 26 17 27 18 28 19 29 20 30 21 31 22 32 23 33
REMARK SMILES IDX 24 34 25 35 26 36 27 37 88 38 28 39 87 40 29 41 30 42 31 43
REMARK SMILES IDX 81 44 32 45 86 46 80 47 82 48 33 49 85 50 79 51 78 52 34 54
REMARK SMILES IDX 66 55 46 56 65 57 47 58 50 59 64 60 83 61 48 62 49 63 63 65
REMARK SMILES IDX 84 66 51 67 35 68 36 69 44 70 37 71 38 72 42 73 45 74 39 75
REMARK SMILES IDX 40 76 43 77 41 78 67 79 68 80 76 81 69 82 70 83 74 84 77 85
REMARK SMILES IDX 71 86 72 87 75 88 73 89 52 90 53 91 61 92 54 93 55 94 59 95
REMARK SMILES IDX 62 96 56 97 57 98 60 99 58 100
REMARK H PARENT 89 20 82 53 50 64
REMARK Flexibility Score: inf
ROOT
ATOM      1  C   UNL A   1      34.118  28.045  22.982  1.00  0.00     0.188 C 
ENDROOT
BRANCH   1   2
ATOM      2  C   UNL A   1      33.038  27.456  22.075  1.00  0.00     0.188 C 
BRANCH   2   3
ATOM      3  O   UNL A   1      33.439  26.445  21.160  1.00  0.00    -0.376 OA
BRANCH   3   4
ATOM      4  C   UNL A   1      32.634  25.266  21.089  1.00  0.00     0.202 C 
BRANCH   4   5
ATOM      5  C   UNL A   1      32.916  24.130  22.080  1.00  0.00     0.261 C 
BRANCH   5   6
ATOM      6  O   UNL A   1      34.273  24.289  22.608  1.00  0.00    -0.463 OA
BRANCH   6   7
ATOM      7  C   UNL A   1      34.978  23.224  23.038  1.00  0.00     0.308 C 
ATOM      8  O   UNL A   1      36.098  22.968  22.601  1.00  0.00    -0.252 OA
BRANCH   7   9
ATOM      9  C   UNL A   1      34.223  22.237  23.960  1.00  0.00     0.152 C 
BRANCH   9  10
ATOM     10  C   UNL A   1      34.659  21.484  25.282  1.00  0.00     0.127 C 
BRANCH  10  11
ATOM     11  C   UNL A   1      36.168  21.127  25.535  1.00  0.00    -0.025 A 
ATOM     12  C   UNL A   1      39.241  23.582  27.392  1.00  0.00     0.044 C 
ATOM     13  C   UNL A   1      38.826  22.654  26.257  1.00  0.00    -0.051 A 
ATOM     14  C   UNL A   1      39.840  21.224  25.773  1.00  0.00     0.003 A 
ATOM     15  C   UNL A   1      37.048  22.638  26.018  1.00  0.00     0.009 A 
ATOM     16  C   UNL A   1      39.025  19.709  25.089  1.00  0.00     0.001 A 
ATOM     17  C   UNL A   1      37.167  19.595  25.195  1.00  0.00     0.006 A 
ENDBRANCH  10  11
BRANCH  10  18
ATOM     18  N   UNL A   1      33.776  20.537  25.875  1.00  0.00    -0.314 N 
ATOM     19  C   UNL A   1      33.336  19.322  25.444  1.00  0.00     0.408 C 
ATOM     20  H   UNL A   1      33.419  20.808  26.752  1.00  0.00     0.167 HD
ATOM     21  O   UNL A   1      32.660  18.633  26.200  1.00  0.00    -0.225 OA
BRANCH  19  22
ATOM     22  O   UNL A   1      33.675  18.984  24.174  1.00  0.00    -0.444 OA
BRANCH  22  23
ATOM     23  C   UNL A   1      33.079  17.774  23.611  1.00  0.00     0.106 C 
ATOM     24  C   UNL A   1      32.206  17.049  24.646  1.00  0.00     0.056 C 
ATOM     25  C   UNL A   1      32.295  18.078  22.321  1.00  0.00     0.056 C 
ATOM     26  C   UNL A   1      34.242  16.842  23.231  1.00  0.00     0.056 C 
ENDBRANCH  22  23
ENDBRANCH  19  22
ENDBRANCH  10  18
ENDBRANCH   9  10
ENDBRANCH   7   9
ENDBRANCH   6   7
ENDBRANCH   5   6
ENDBRANCH   4   5
ENDBRANCH   3   4
ENDBRANCH   2   3
ENDBRANCH   1   2
BRANCH   1  27
ATOM     27  O   UNL A   1      33.618  28.690  24.140  1.00  0.00    -0.377 OA
BRANCH  27  28
ATOM     28  C   UNL A   1      32.347  29.267  23.949  1.00  0.00     0.188 C 
BRANCH  28  29
ATOM     29  C   UNL A   1      31.327  28.863  24.969  1.00  0.00     0.188 C 
BRANCH  29  30
ATOM     30  O   UNL A   1      31.084  30.036  25.718  1.00  0.00    -0.376 OA
BRANCH  30  31
ATOM     31  C   UNL A   1      31.778  30.033  26.951  1.00  0.00     0.202 C 
BRANCH  31  32
ATOM     32  C   UNL A   1      32.626  31.300  27.098  1.00  0.00     0.261 C 
BRANCH  32  33
ATOM     33  O   UNL A   1      34.018  30.897  27.043  1.00  0.00    -0.460 OA
BRANCH  33  34
ATOM     34  C   UNL A   1      34.830  31.446  27.985  1.00  0.00     0.338 C 
ATOM     35  O   UNL A   1      34.761  32.602  28.369  1.00  0.00    -0.246 OA
BRANCH  34  36
ATOM     36  C   UNL A   1      35.966  30.520  28.320  1.00  0.00     0.060 A 
ATOM     37  C   UNL A   1      36.014  29.907  29.582  1.00  0.00     0.016 A 
ATOM     38  C   UNL A   1      37.083  30.414  27.495  1.00  0.00     0.016 A 
ATOM     39  C   UNL A   1      37.215  29.333  30.063  1.00  0.00     0.010 A 
ATOM     40  C   UNL A   1      38.272  29.861  27.992  1.00  0.00     0.010 A 
ATOM     41  C   UNL A   1      38.395  29.391  29.311  1.00  0.00    -0.014 A 
BRANCH  41  42
ATOM     42  C   UNL A   1      39.759  29.070  29.851  1.00  0.00     0.031 A 
ATOM     43  C   UNL A   1      40.450  27.835  29.427  1.00  0.00     0.074 A 
ATOM     44  C   UNL A   1      40.582  29.997  30.425  1.00  0.00     0.049 A 
ATOM     45  N   UNL A   1      41.569  27.446  29.927  1.00  0.00    -0.248 NA
ATOM     46  C   UNL A   1      40.064  27.024  28.290  1.00  0.00     0.031 C 
ATOM     47  C   UNL A   1      41.960  30.036  30.890  1.00  0.00     0.029 A 
ATOM     48  N   UNL A   1      40.333  31.310  30.665  1.00  0.00    -0.354 N 
ATOM     49  C   UNL A   1      42.272  26.803  28.936  1.00  0.00     0.074 A 
ATOM     50  C   UNL A   1      41.227  26.420  28.012  1.00  0.00     0.031 C 
ATOM     51  C   UNL A   1      42.199  31.080  31.725  1.00  0.00     0.029 A 
ATOM     52  C   UNL A   1      40.913  31.733  31.895  1.00  0.00     0.049 A 
ATOM     53  H   UNL A   1      39.818  31.894  30.064  1.00  0.00     0.167 HD
ATOM     54  C   UNL A   1      43.649  26.860  28.994  1.00  0.00     0.037 A 
ATOM     55  C   UNL A   1      40.188  32.335  33.016  1.00  0.00     0.037 A 
ATOM     56  C   UNL A   1      44.123  27.508  30.286  1.00  0.00     0.049 A 
ATOM     57  C   UNL A   1      40.819  30.904  33.994  1.00  0.00     0.074 A 
ATOM     58  C   UNL A   1      45.055  28.469  30.674  1.00  0.00     0.029 A 
ATOM     59  N   UNL A   1      43.365  27.312  31.470  1.00  0.00    -0.354 N 
ATOM     60  N   UNL A   1      41.292  29.770  33.437  1.00  0.00    -0.248 NA
ATOM     61  C   UNL A   1      41.013  30.716  35.450  1.00  0.00     0.031 C 
ATOM     62  C   UNL A   1      44.808  28.851  32.045  1.00  0.00     0.029 A 
ATOM     63  C   UNL A   1      43.681  28.179  32.511  1.00  0.00     0.049 A 
ATOM     64  H   UNL A   1      42.670  26.618  31.547  1.00  0.00     0.167 HD
ATOM     65  C   UNL A   1      42.074  28.987  34.269  1.00  0.00     0.074 A 
ATOM     66  C   UNL A   1      41.641  29.516  35.554  1.00  0.00     0.031 C 
ATOM     67  C   UNL A   1      43.034  28.044  33.848  1.00  0.00     0.037 A 
BRANCH  54  68
ATOM     68  C   UNL A   1      44.581  26.496  27.801  1.00  0.00     0.064 A 
ATOM     69  C   UNL A   1      45.386  25.331  27.801  1.00  0.00     0.173 A 
ATOM     70  C   UNL A   1      44.745  27.255  26.615  1.00  0.00     0.173 A 
ATOM     71  F   UNL A   1      45.348  24.451  28.805  1.00  0.00    -0.203 F 
ATOM     72  C   UNL A   1      46.266  24.987  26.755  1.00  0.00     0.198 A 
ATOM     73  C   UNL A   1      45.615  26.912  25.565  1.00  0.00     0.198 A 
ATOM     74  F   UNL A   1      44.057  28.364  26.370  1.00  0.00    -0.203 F 
ATOM     75  F   UNL A   1      47.001  23.869  26.846  1.00  0.00    -0.200 F 
ATOM     76  C   UNL A   1      46.379  25.776  25.633  1.00  0.00     0.200 A 
ATOM     77  F   UNL A   1      45.687  27.701  24.482  1.00  0.00    -0.200 F 
ATOM     78  F   UNL A   1      47.194  25.438  24.625  1.00  0.00    -0.200 F 
ENDBRANCH  54  68
BRANCH  55  79
ATOM     79  C   UNL A   1      38.526  33.685  33.144  1.00  0.00     0.064 A 
ATOM     80  C   UNL A   1      37.439  34.052  32.141  1.00  0.00     0.173 A 
ATOM     81  C   UNL A   1      37.687  34.140  34.416  1.00  0.00     0.173 A 
ATOM     82  F   UNL A   1      37.733  34.561  30.926  1.00  0.00    -0.203 F 
ATOM     83  C   UNL A   1      36.021  33.940  32.335  1.00  0.00     0.198 A 
ATOM     84  C   UNL A   1      36.299  33.925  34.631  1.00  0.00     0.198 A 
ATOM     85  F   UNL A   1      38.289  34.624  35.532  1.00  0.00    -0.203 F 
ATOM     86  F   UNL A   1      35.201  34.048  31.279  1.00  0.00    -0.200 F 
ATOM     87  C   UNL A   1      35.479  33.701  33.570  1.00  0.00     0.200 A 
ATOM     88  F   UNL A   1      35.812  33.869  35.882  1.00  0.00    -0.200 F 
ATOM     89  F   UNL A   1      34.181  33.409  33.732  1.00  0.00    -0.200 F 
ENDBRANCH  55  79
BRANCH  67  90
ATOM     90  C   UNL A   1      43.626  26.833  34.628  1.00  0.00     0.064 A 
ATOM     91  C   UNL A   1      42.952  25.654  34.939  1.00  0.00     0.173 A 
ATOM     92  C   UNL A   1      45.001  26.821  35.056  1.00  0.00     0.173 A 
ATOM     93  F   UNL A   1      41.633  25.541  34.788  1.00  0.00    -0.203 F 
ATOM     94  C   UNL A   1      43.606  24.535  35.486  1.00  0.00     0.198 A 
ATOM     95  C   UNL A   1      45.650  25.713  35.590  1.00  0.00     0.198 A 
ATOM     96  F   UNL A   1      45.809  27.885  35.004  1.00  0.00    -0.203 F 
ATOM     97  F   UNL A   1      42.903  23.423  35.734  1.00  0.00    -0.200 F 
ATOM     98  C   UNL A   1      44.956  24.554  35.783  1.00  0.00     0.200 A 
ATOM     99  F   UNL A   1      46.951  25.797  35.909  1.00  0.00    -0.200 F 
ATOM    100  F   UNL A   1      45.575  23.475  36.277  1.00  0.00    -0.200 F 
ENDBRANCH  67  90
ENDBRANCH  41  42
ENDBRANCH  34  36
ENDBRANCH  33  34
ENDBRANCH  32  33
ENDBRANCH  31  32
ENDBRANCH  30  31
ENDBRANCH  29  30
ENDBRANCH  28  29
ENDBRANCH  27  28
ENDBRANCH   1  27
TORSDOF 25
ENDMDL
