MODEL 1
REMARK VINA RESULT:     -11.3      0.000      0.000
REMARK SMILES Cn1c(=O)c2c(nc(Nc3cccc(Cl)c3Cl)n2CC(=O)OCCOCCOCCOCCOC(=O)c2ccc(-c3c4nc(c(-c5c(F)c(F)c(F)c(F)c5F)c5ccc([nH]5)c(-c5c(F)c(F)c(F)c(F)c5F)c5nc(c(-c6c(F)c(F)c(F)c(F)c6F)c6ccc3[nH]6)C=C5)C=C4)cc2)n(C)c1=O
REMARK SMILES IDX 27 1 26 2 25 3 24 4 23 5 22 6 20 7 21 8 19 9 18 10 1 11 2 12
REMARK SMILES IDX 3 13 102 14 4 15 5 16 100 17 103 18 6 19 101 20 7 21 8 22
REMARK SMILES IDX 9 23 10 25 11 26 16 27 12 28 14 29 17 30 13 31 15 32 28 33
REMARK SMILES IDX 29 34 30 35 31 36 32 37 33 38 34 39 35 40 36 41 37 42 38 43
REMARK SMILES IDX 99 44 39 45 98 46 40 47 41 48 42 49 92 50 43 51 97 52 91 53
REMARK SMILES IDX 93 54 44 55 96 56 90 57 89 58 45 60 77 61 57 62 76 63 58 64
REMARK SMILES IDX 61 65 75 66 94 67 59 68 60 69 74 71 95 72 62 73 46 74 47 75
REMARK SMILES IDX 55 76 48 77 49 78 53 79 56 80 50 81 51 82 54 83 52 84 78 85
REMARK SMILES IDX 79 86 87 87 80 88 81 89 85 90 88 91 82 92 83 93 86 94 84 95
REMARK SMILES IDX 63 96 64 97 72 98 65 99 66 100 70 101 73 102 67 103 68 104
REMARK SMILES IDX 71 105 69 106
REMARK H PARENT 9 24 93 59 61 70
REMARK Flexibility Score: inf
ROOT
ATOM      1  C   UNL A   1      33.598  30.967  27.706  1.00  0.00     0.188 C 
ENDROOT
BRANCH   1   2
ATOM      2  C   UNL A   1      33.916  29.692  26.893  1.00  0.00     0.188 C 
BRANCH   2   3
ATOM      3  O   UNL A   1      33.289  29.474  25.635  1.00  0.00    -0.376 OA
BRANCH   3   4
ATOM      4  C   UNL A   1      33.446  28.210  25.005  1.00  0.00     0.202 C 
BRANCH   4   5
ATOM      5  C   UNL A   1      34.205  27.098  25.766  1.00  0.00     0.261 C 
BRANCH   5   6
ATOM      6  O   UNL A   1      33.535  25.810  25.798  1.00  0.00    -0.462 OA
BRANCH   6   7
ATOM      7  C   UNL A   1      34.273  24.709  25.510  1.00  0.00     0.326 C 
ATOM      8  O   UNL A   1      35.217  24.725  24.723  1.00  0.00    -0.250 OA
BRANCH   7   9
ATOM      9  C   UNL A   1      34.014  23.508  26.406  1.00  0.00     0.248 C 
BRANCH   9  10
ATOM     10  N   UNL A   1      33.416  22.275  25.888  1.00  0.00    -0.293 N 
ATOM     11  C   UNL A   1      37.248  19.238  24.848  1.00  0.00     0.159 C 
ATOM     12  N   UNL A   1      35.838  19.585  24.950  1.00  0.00    -0.261 N 
ATOM     13  C   UNL A   1      35.546  20.895  25.351  1.00  0.00     0.282 A 
ATOM     14  C   UNL A   1      34.890  18.581  24.691  1.00  0.00     0.332 A 
ATOM     15  O   UNL A   1      36.418  21.709  25.642  1.00  0.00    -0.267 OA
ATOM     16  C   UNL A   1      34.146  21.174  25.438  1.00  0.00     0.154 A 
ATOM     17  N   UNL A   1      33.548  18.954  24.738  1.00  0.00    -0.279 N 
ATOM     18  O   UNL A   1      35.228  17.419  24.446  1.00  0.00    -0.247 OA
ATOM     19  C   UNL A   1      33.216  20.238  25.106  1.00  0.00     0.170 A 
ATOM     20  C   UNL A   1      32.509  17.993  24.408  1.00  0.00     0.157 C 
ATOM     21  N   UNL A   1      31.962  20.730  25.191  1.00  0.00    -0.194 NA
ATOM     22  C   UNL A   1      32.091  21.986  25.579  1.00  0.00     0.210 A 
BRANCH  22  23
ATOM     23  N   UNL A   1      31.012  22.790  25.660  1.00  0.00    -0.324 N 
ATOM     24  H   UNL A   1      30.293  22.440  26.234  1.00  0.00     0.170 HD
BRANCH  23  25
ATOM     25  C   UNL A   1      30.726  24.032  25.079  1.00  0.00     0.061 A 
ATOM     26  C   UNL A   1      30.028  24.950  25.879  1.00  0.00     0.028 A 
ATOM     27  C   UNL A   1      31.055  24.392  23.758  1.00  0.00     0.083 A 
ATOM     28  C   UNL A   1      29.775  26.243  25.432  1.00  0.00     0.004 A 
ATOM     29  C   UNL A   1      30.855  25.714  23.333  1.00  0.00     0.061 A 
ATOM     30  Cl  UNL A   1      31.655  23.186  22.655  1.00  0.00    -0.080 Cl
ATOM     31  C   UNL A   1      30.226  26.635  24.176  1.00  0.00     0.022 A 
ATOM     32  Cl  UNL A   1      31.400  26.284  21.794  1.00  0.00    -0.083 Cl
ENDBRANCH  23  25
ENDBRANCH  22  23
ENDBRANCH   9  10
ENDBRANCH   7   9
ENDBRANCH   6   7
ENDBRANCH   5   6
ENDBRANCH   4   5
ENDBRANCH   3   4
ENDBRANCH   2   3
ENDBRANCH   1   2
BRANCH   1  33
ATOM     33  O   UNL A   1      34.608  31.953  27.779  1.00  0.00    -0.377 OA
BRANCH  33  34
ATOM     34  C   UNL A   1      34.361  33.067  28.618  1.00  0.00     0.188 C 
BRANCH  34  35
ATOM     35  C   UNL A   1      34.241  34.450  27.950  1.00  0.00     0.188 C 
BRANCH  35  36
ATOM     36  O   UNL A   1      34.231  35.556  28.850  1.00  0.00    -0.376 OA
BRANCH  36  37
ATOM     37  C   UNL A   1      32.996  36.141  29.233  1.00  0.00     0.202 C 
BRANCH  37  38
ATOM     38  C   UNL A   1      32.638  36.083  30.716  1.00  0.00     0.261 C 
BRANCH  38  39
ATOM     39  O   UNL A   1      33.242  35.036  31.448  1.00  0.00    -0.460 OA
BRANCH  39  40
ATOM     40  C   UNL A   1      33.865  35.432  32.571  1.00  0.00     0.338 C 
ATOM     41  O   UNL A   1      33.732  36.483  33.165  1.00  0.00    -0.246 OA
BRANCH  40  42
ATOM     42  C   UNL A   1      34.891  34.440  32.883  1.00  0.00     0.060 A 
ATOM     43  C   UNL A   1      36.188  34.932  32.972  1.00  0.00     0.016 A 
ATOM     44  C   UNL A   1      34.605  33.067  32.763  1.00  0.00     0.016 A 
ATOM     45  C   UNL A   1      37.211  34.059  32.715  1.00  0.00     0.010 A 
ATOM     46  C   UNL A   1      35.635  32.192  32.515  1.00  0.00     0.010 A 
ATOM     47  C   UNL A   1      36.915  32.717  32.414  1.00  0.00    -0.014 A 
BRANCH  47  48
ATOM     48  C   UNL A   1      38.048  31.870  32.127  1.00  0.00     0.031 A 
ATOM     49  C   UNL A   1      38.846  31.616  33.340  1.00  0.00     0.074 A 
ATOM     50  C   UNL A   1      38.366  31.421  30.903  1.00  0.00     0.049 A 
ATOM     51  N   UNL A   1      39.972  32.168  33.639  1.00  0.00    -0.248 NA
ATOM     52  C   UNL A   1      38.223  30.861  34.435  1.00  0.00     0.031 C 
ATOM     53  C   UNL A   1      37.552  31.409  29.688  1.00  0.00     0.029 A 
ATOM     54  N   UNL A   1      39.519  30.810  30.515  1.00  0.00    -0.354 N 
ATOM     55  C   UNL A   1      40.304  31.674  34.890  1.00  0.00     0.074 A 
ATOM     56  C   UNL A   1      39.126  31.023  35.403  1.00  0.00     0.031 C 
ATOM     57  C   UNL A   1      38.155  30.629  28.760  1.00  0.00     0.029 A 
ATOM     58  C   UNL A   1      39.454  30.214  29.265  1.00  0.00     0.049 A 
ATOM     59  H   UNL A   1      40.329  30.793  31.074  1.00  0.00     0.167 HD
ATOM     60  C   UNL A   1      41.607  31.599  35.257  1.00  0.00     0.037 A 
ATOM     61  C   UNL A   1      40.394  29.398  28.731  1.00  0.00     0.037 A 
ATOM     62  C   UNL A   1      42.421  32.485  34.461  1.00  0.00     0.049 A 
ATOM     63  C   UNL A   1      41.675  29.697  29.417  1.00  0.00     0.074 A 
ATOM     64  C   UNL A   1      42.509  33.852  34.290  1.00  0.00     0.029 A 
ATOM     65  N   UNL A   1      43.058  31.918  33.388  1.00  0.00    -0.354 N 
ATOM     66  N   UNL A   1      42.334  30.812  29.274  1.00  0.00    -0.248 NA
ATOM     67  C   UNL A   1      42.040  28.904  30.583  1.00  0.00     0.031 C 
ATOM     68  C   UNL A   1      42.875  34.043  32.924  1.00  0.00     0.029 A 
ATOM     69  C   UNL A   1      43.036  32.788  32.333  1.00  0.00     0.049 A 
ATOM     70  H   UNL A   1      43.467  31.023  33.378  1.00  0.00     0.167 HD
ATOM     71  C   UNL A   1      42.860  31.071  30.530  1.00  0.00     0.074 A 
ATOM     72  C   UNL A   1      42.775  29.802  31.244  1.00  0.00     0.031 C 
ATOM     73  C   UNL A   1      43.039  32.357  30.951  1.00  0.00     0.037 A 
BRANCH  60  74
ATOM     74  C   UNL A   1      42.184  30.388  35.952  1.00  0.00     0.064 A 
ATOM     75  C   UNL A   1      43.144  30.582  36.962  1.00  0.00     0.173 A 
ATOM     76  C   UNL A   1      42.086  29.071  35.448  1.00  0.00     0.173 A 
ATOM     77  F   UNL A   1      43.345  31.801  37.488  1.00  0.00    -0.203 F 
ATOM     78  C   UNL A   1      43.993  29.553  37.376  1.00  0.00     0.198 A 
ATOM     79  C   UNL A   1      42.898  28.036  35.902  1.00  0.00     0.198 A 
ATOM     80  F   UNL A   1      41.298  28.751  34.416  1.00  0.00    -0.203 F 
ATOM     81  F   UNL A   1      44.982  29.816  38.241  1.00  0.00    -0.200 F 
ATOM     82  C   UNL A   1      43.873  28.283  36.842  1.00  0.00     0.200 A 
ATOM     83  F   UNL A   1      42.782  26.820  35.349  1.00  0.00    -0.200 F 
ATOM     84  F   UNL A   1      44.727  27.313  37.189  1.00  0.00    -0.200 F 
ENDBRANCH  60  74
BRANCH  61  85
ATOM     85  C   UNL A   1      40.202  28.178  27.911  1.00  0.00     0.064 A 
ATOM     86  C   UNL A   1      40.920  27.993  26.717  1.00  0.00     0.173 A 
ATOM     87  C   UNL A   1      39.547  27.045  28.428  1.00  0.00     0.173 A 
ATOM     88  F   UNL A   1      41.610  29.010  26.179  1.00  0.00    -0.203 F 
ATOM     89  C   UNL A   1      41.012  26.740  26.102  1.00  0.00     0.198 A 
ATOM     90  C   UNL A   1      39.633  25.796  27.809  1.00  0.00     0.198 A 
ATOM     91  F   UNL A   1      38.896  27.099  29.598  1.00  0.00    -0.203 F 
ATOM     92  F   UNL A   1      41.769  26.588  25.006  1.00  0.00    -0.200 F 
ATOM     93  C   UNL A   1      40.379  25.641  26.655  1.00  0.00     0.200 A 
ATOM     94  F   UNL A   1      39.047  24.733  28.375  1.00  0.00    -0.200 F 
ATOM     95  F   UNL A   1      40.522  24.427  26.106  1.00  0.00    -0.200 F 
ENDBRANCH  61  85
BRANCH  73  96
ATOM     96  C   UNL A   1      43.038  33.435  29.905  1.00  0.00     0.064 A 
ATOM     97  C   UNL A   1      44.133  33.748  29.082  1.00  0.00     0.173 A 
ATOM     98  C   UNL A   1      41.826  34.091  29.646  1.00  0.00     0.173 A 
ATOM     99  F   UNL A   1      45.302  33.105  29.211  1.00  0.00    -0.203 F 
ATOM    100  C   UNL A   1      44.023  34.701  28.070  1.00  0.00     0.198 A 
ATOM    101  C   UNL A   1      41.708  35.010  28.609  1.00  0.00     0.198 A 
ATOM    102  F   UNL A   1      40.736  33.798  30.372  1.00  0.00    -0.203 F 
ATOM    103  F   UNL A   1      45.084  34.996  27.303  1.00  0.00    -0.200 F 
ATOM    104  C   UNL A   1      42.807  35.323  27.827  1.00  0.00     0.200 A 
ATOM    105  F   UNL A   1      40.520  35.573  28.351  1.00  0.00    -0.200 F 
ATOM    106  F   UNL A   1      42.689  36.203  26.824  1.00  0.00    -0.200 F 
ENDBRANCH  73  96
ENDBRANCH  47  48
ENDBRANCH  40  42
ENDBRANCH  39  40
ENDBRANCH  38  39
ENDBRANCH  37  38
ENDBRANCH  36  37
ENDBRANCH  35  36
ENDBRANCH  34  35
ENDBRANCH  33  34
ENDBRANCH   1  33
TORSDOF 23
ENDMDL
MODEL 2
REMARK VINA RESULT:      -9.8      4.072      6.162
REMARK SMILES Cn1c(=O)c2c(nc(Nc3cccc(Cl)c3Cl)n2CC(=O)OCCOCCOCCOCCOC(=O)c2ccc(-c3c4nc(c(-c5c(F)c(F)c(F)c(F)c5F)c5ccc([nH]5)c(-c5c(F)c(F)c(F)c(F)c5F)c5nc(c(-c6c(F)c(F)c(F)c(F)c6F)c6ccc3[nH]6)C=C5)C=C4)cc2)n(C)c1=O
REMARK SMILES IDX 27 1 26 2 25 3 24 4 23 5 22 6 20 7 21 8 19 9 18 10 1 11 2 12
REMARK SMILES IDX 3 13 102 14 4 15 5 16 100 17 103 18 6 19 101 20 7 21 8 22
REMARK SMILES IDX 9 23 10 25 11 26 16 27 12 28 14 29 17 30 13 31 15 32 28 33
REMARK SMILES IDX 29 34 30 35 31 36 32 37 33 38 34 39 35 40 36 41 37 42 38 43
REMARK SMILES IDX 99 44 39 45 98 46 40 47 41 48 42 49 92 50 43 51 97 52 91 53
REMARK SMILES IDX 93 54 44 55 96 56 90 57 89 58 45 60 77 61 57 62 76 63 58 64
REMARK SMILES IDX 61 65 75 66 94 67 59 68 60 69 74 71 95 72 62 73 46 74 47 75
REMARK SMILES IDX 55 76 48 77 49 78 53 79 56 80 50 81 51 82 54 83 52 84 78 85
REMARK SMILES IDX 79 86 87 87 80 88 81 89 85 90 88 91 82 92 83 93 86 94 84 95
REMARK SMILES IDX 63 96 64 97 72 98 65 99 66 100 70 101 73 102 67 103 68 104
REMARK SMILES IDX 71 105 69 106
REMARK H PARENT 9 24 93 59 61 70
REMARK Flexibility Score: inf
ROOT
ATOM      1  C   UNL A   1      35.287  31.081  27.646  1.00  0.00     0.188 C 
ENDROOT
BRANCH   1   2
ATOM      2  C   UNL A   1      33.894  30.545  27.248  1.00  0.00     0.188 C 
BRANCH   2   3
ATOM      3  O   UNL A   1      33.545  29.193  27.522  1.00  0.00    -0.376 OA
BRANCH   3   4
ATOM      4  C   UNL A   1      33.802  28.208  26.531  1.00  0.00     0.202 C 
BRANCH   4   5
ATOM      5  C   UNL A   1      33.986  28.669  25.067  1.00  0.00     0.261 C 
BRANCH   5   6
ATOM      6  O   UNL A   1      34.228  27.600  24.114  1.00  0.00    -0.462 OA
BRANCH   6   7
ATOM      7  C   UNL A   1      33.626  27.688  22.902  1.00  0.00     0.326 C 
ATOM      8  O   UNL A   1      34.041  28.415  22.002  1.00  0.00    -0.250 OA
BRANCH   7   9
ATOM      9  C   UNL A   1      32.547  26.649  22.641  1.00  0.00     0.248 C 
BRANCH   9  10
ATOM     10  N   UNL A   1      31.842  25.979  23.736  1.00  0.00    -0.293 N 
ATOM     11  C   UNL A   1      32.629  21.088  23.066  1.00  0.00     0.159 C 
ATOM     12  N   UNL A   1      32.101  22.248  23.768  1.00  0.00    -0.261 N 
ATOM     13  C   UNL A   1      32.311  23.493  23.161  1.00  0.00     0.282 A 
ATOM     14  C   UNL A   1      31.472  22.042  25.008  1.00  0.00     0.332 A 
ATOM     15  O   UNL A   1      32.938  23.621  22.113  1.00  0.00    -0.267 OA
ATOM     16  C   UNL A   1      31.775  24.594  23.899  1.00  0.00     0.154 A 
ATOM     17  N   UNL A   1      30.924  23.161  25.631  1.00  0.00    -0.279 N 
ATOM     18  O   UNL A   1      31.420  20.924  25.528  1.00  0.00    -0.247 OA
ATOM     19  C   UNL A   1      31.088  24.402  25.057  1.00  0.00     0.170 A 
ATOM     20  C   UNL A   1      30.191  23.020  26.878  1.00  0.00     0.157 C 
ATOM     21  N   UNL A   1      30.610  25.563  25.552  1.00  0.00    -0.194 NA
ATOM     22  C   UNL A   1      30.992  26.502  24.705  1.00  0.00     0.210 A 
BRANCH  22  23
ATOM     23  N   UNL A   1      30.581  27.776  24.866  1.00  0.00    -0.324 N 
ATOM     24  H   UNL A   1      30.887  28.193  25.704  1.00  0.00     0.170 HD
BRANCH  23  25
ATOM     25  C   UNL A   1      29.801  28.614  24.061  1.00  0.00     0.061 A 
ATOM     26  C   UNL A   1      28.947  27.982  23.144  1.00  0.00     0.028 A 
ATOM     27  C   UNL A   1      29.848  30.022  24.089  1.00  0.00     0.083 A 
ATOM     28  C   UNL A   1      28.063  28.719  22.362  1.00  0.00     0.004 A 
ATOM     29  C   UNL A   1      28.913  30.758  23.347  1.00  0.00     0.061 A 
ATOM     30  Cl  UNL A   1      31.094  30.828  24.999  1.00  0.00    -0.080 Cl
ATOM     31  C   UNL A   1      28.018  30.103  22.496  1.00  0.00     0.022 A 
ATOM     32  Cl  UNL A   1      28.783  32.478  23.469  1.00  0.00    -0.083 Cl
ENDBRANCH  23  25
ENDBRANCH  22  23
ENDBRANCH   9  10
ENDBRANCH   7   9
ENDBRANCH   6   7
ENDBRANCH   5   6
ENDBRANCH   4   5
ENDBRANCH   3   4
ENDBRANCH   2   3
ENDBRANCH   1   2
BRANCH   1  33
ATOM     33  O   UNL A   1      35.756  30.756  28.940  1.00  0.00    -0.377 OA
BRANCH  33  34
ATOM     34  C   UNL A   1      35.971  31.831  29.836  1.00  0.00     0.188 C 
BRANCH  34  35
ATOM     35  C   UNL A   1      35.726  31.571  31.334  1.00  0.00     0.188 C 
BRANCH  35  36
ATOM     36  O   UNL A   1      36.684  32.155  32.214  1.00  0.00    -0.376 OA
BRANCH  36  37
ATOM     37  C   UNL A   1      37.157  33.471  31.967  1.00  0.00     0.202 C 
BRANCH  37  38
ATOM     38  C   UNL A   1      38.603  33.766  32.356  1.00  0.00     0.261 C 
BRANCH  38  39
ATOM     39  O   UNL A   1      39.562  32.841  31.885  1.00  0.00    -0.460 OA
BRANCH  39  40
ATOM     40  C   UNL A   1      40.129  33.178  30.715  1.00  0.00     0.338 C 
ATOM     41  O   UNL A   1      40.127  34.264  30.172  1.00  0.00    -0.246 OA
BRANCH  40  42
ATOM     42  C   UNL A   1      40.619  31.952  30.089  1.00  0.00     0.060 A 
ATOM     43  C   UNL A   1      39.709  30.903  30.039  1.00  0.00     0.016 A 
ATOM     44  C   UNL A   1      41.999  31.771  29.875  1.00  0.00     0.016 A 
ATOM     45  C   UNL A   1      40.214  29.632  29.993  1.00  0.00     0.010 A 
ATOM     46  C   UNL A   1      42.502  30.494  29.818  1.00  0.00     0.010 A 
ATOM     47  C   UNL A   1      41.608  29.443  29.961  1.00  0.00    -0.014 A 
BRANCH  47  48
ATOM     48  C   UNL A   1      42.059  28.073  29.943  1.00  0.00     0.031 A 
ATOM     49  C   UNL A   1      42.591  27.668  31.256  1.00  0.00     0.074 A 
ATOM     50  C   UNL A   1      42.051  27.288  28.853  1.00  0.00     0.049 A 
ATOM     51  N   UNL A   1      43.836  27.546  31.568  1.00  0.00    -0.248 NA
ATOM     52  C   UNL A   1      41.666  27.624  32.395  1.00  0.00     0.031 C 
ATOM     53  C   UNL A   1      41.356  27.487  27.582  1.00  0.00     0.029 A 
ATOM     54  N   UNL A   1      42.651  26.077  28.697  1.00  0.00    -0.354 N 
ATOM     55  C   UNL A   1      43.848  27.215  32.913  1.00  0.00     0.074 A 
ATOM     56  C   UNL A   1      42.516  27.447  33.408  1.00  0.00     0.031 C 
ATOM     57  C   UNL A   1      41.399  26.336  26.870  1.00  0.00     0.029 A 
ATOM     58  C   UNL A   1      42.244  25.381  27.569  1.00  0.00     0.049 A 
ATOM     59  H   UNL A   1      43.318  25.725  29.330  1.00  0.00     0.167 HD
ATOM     60  C   UNL A   1      44.887  26.503  33.418  1.00  0.00     0.037 A 
ATOM     61  C   UNL A   1      42.551  24.093  27.283  1.00  0.00     0.037 A 
ATOM     62  C   UNL A   1      46.047  26.606  32.568  1.00  0.00     0.049 A 
ATOM     63  C   UNL A   1      43.786  23.760  28.034  1.00  0.00     0.074 A 
ATOM     64  C   UNL A   1      46.890  27.625  32.172  1.00  0.00     0.029 A 
ATOM     65  N   UNL A   1      46.237  25.580  31.680  1.00  0.00    -0.354 N 
ATOM     66  N   UNL A   1      44.958  24.265  27.768  1.00  0.00    -0.248 NA
ATOM     67  C   UNL A   1      43.656  23.151  29.350  1.00  0.00     0.031 C 
ATOM     68  C   UNL A   1      47.281  27.302  30.839  1.00  0.00     0.029 A 
ATOM     69  C   UNL A   1      46.697  26.082  30.494  1.00  0.00     0.049 A 
ATOM     70  H   UNL A   1      46.069  24.628  31.868  1.00  0.00     0.167 HD
ATOM     71  C   UNL A   1      45.556  24.433  29.007  1.00  0.00     0.074 A 
ATOM     72  C   UNL A   1      44.778  23.599  29.917  1.00  0.00     0.031 C 
ATOM     73  C   UNL A   1      46.436  25.455  29.215  1.00  0.00     0.037 A 
BRANCH  60  74
ATOM     74  C   UNL A   1      44.688  25.346  34.368  1.00  0.00     0.064 A 
ATOM     75  C   UNL A   1      45.281  25.407  35.642  1.00  0.00     0.173 A 
ATOM     76  C   UNL A   1      44.235  24.068  33.967  1.00  0.00     0.173 A 
ATOM     77  F   UNL A   1      45.777  26.564  36.109  1.00  0.00    -0.203 F 
ATOM     78  C   UNL A   1      45.478  24.261  36.417  1.00  0.00     0.198 A 
ATOM     79  C   UNL A   1      44.385  22.938  34.765  1.00  0.00     0.198 A 
ATOM     80  F   UNL A   1      43.746  23.827  32.745  1.00  0.00    -0.203 F 
ATOM     81  F   UNL A   1      46.169  24.345  37.562  1.00  0.00    -0.200 F 
ATOM     82  C   UNL A   1      45.034  23.028  35.976  1.00  0.00     0.200 A 
ATOM     83  F   UNL A   1      43.972  21.749  34.305  1.00  0.00    -0.200 F 
ATOM     84  F   UNL A   1      45.278  21.920  36.686  1.00  0.00    -0.200 F 
ENDBRANCH  60  74
BRANCH  61  85
ATOM     85  C   UNL A   1      41.692  23.052  26.672  1.00  0.00     0.064 A 
ATOM     86  C   UNL A   1      42.224  21.803  26.306  1.00  0.00     0.173 A 
ATOM     87  C   UNL A   1      40.288  23.144  26.713  1.00  0.00     0.173 A 
ATOM     88  F   UNL A   1      43.552  21.615  26.285  1.00  0.00    -0.203 F 
ATOM     89  C   UNL A   1      41.402  20.703  26.040  1.00  0.00     0.198 A 
ATOM     90  C   UNL A   1      39.468  22.047  26.439  1.00  0.00     0.198 A 
ATOM     91  F   UNL A   1      39.682  24.269  27.119  1.00  0.00    -0.203 F 
ATOM     92  F   UNL A   1      41.949  19.510  25.769  1.00  0.00    -0.200 F 
ATOM     93  C   UNL A   1      40.025  20.823  26.119  1.00  0.00     0.200 A 
ATOM     94  F   UNL A   1      38.139  22.167  26.556  1.00  0.00    -0.200 F 
ATOM     95  F   UNL A   1      39.239  19.755  25.932  1.00  0.00    -0.200 F 
ENDBRANCH  61  85
BRANCH  73  96
ATOM     96  C   UNL A   1      47.030  26.116  28.004  1.00  0.00     0.064 A 
ATOM     97  C   UNL A   1      48.136  25.625  27.290  1.00  0.00     0.173 A 
ATOM     98  C   UNL A   1      46.360  27.229  27.474  1.00  0.00     0.173 A 
ATOM     99  F   UNL A   1      48.777  24.516  27.684  1.00  0.00    -0.203 F 
ATOM    100  C   UNL A   1      48.569  26.247  26.119  1.00  0.00     0.198 A 
ATOM    101  C   UNL A   1      46.770  27.821  26.284  1.00  0.00     0.198 A 
ATOM    102  F   UNL A   1      45.270  27.712  28.091  1.00  0.00    -0.203 F 
ATOM    103  F   UNL A   1      49.636  25.770  25.459  1.00  0.00    -0.200 F 
ATOM    104  C   UNL A   1      47.879  27.337  25.612  1.00  0.00     0.200 A 
ATOM    105  F   UNL A   1      46.072  28.845  25.776  1.00  0.00    -0.200 F 
ATOM    106  F   UNL A   1      48.267  27.904  24.461  1.00  0.00    -0.200 F 
ENDBRANCH  73  96
ENDBRANCH  47  48
ENDBRANCH  40  42
ENDBRANCH  39  40
ENDBRANCH  38  39
ENDBRANCH  37  38
ENDBRANCH  36  37
ENDBRANCH  35  36
ENDBRANCH  34  35
ENDBRANCH  33  34
ENDBRANCH   1  33
TORSDOF 23
ENDMDL
MODEL 3
REMARK VINA RESULT:      -9.7      3.385      5.016
REMARK SMILES Cn1c(=O)c2c(nc(Nc3cccc(Cl)c3Cl)n2CC(=O)OCCOCCOCCOCCOC(=O)c2ccc(-c3c4nc(c(-c5c(F)c(F)c(F)c(F)c5F)c5ccc([nH]5)c(-c5c(F)c(F)c(F)c(F)c5F)c5nc(c(-c6c(F)c(F)c(F)c(F)c6F)c6ccc3[nH]6)C=C5)C=C4)cc2)n(C)c1=O
REMARK SMILES IDX 27 1 26 2 25 3 24 4 23 5 22 6 20 7 21 8 19 9 18 10 1 11 2 12
REMARK SMILES IDX 3 13 102 14 4 15 5 16 100 17 103 18 6 19 101 20 7 21 8 22
REMARK SMILES IDX 9 23 10 25 11 26 16 27 12 28 14 29 17 30 13 31 15 32 28 33
REMARK SMILES IDX 29 34 30 35 31 36 32 37 33 38 34 39 35 40 36 41 37 42 38 43
REMARK SMILES IDX 99 44 39 45 98 46 40 47 41 48 42 49 92 50 43 51 97 52 91 53
REMARK SMILES IDX 93 54 44 55 96 56 90 57 89 58 45 60 77 61 57 62 76 63 58 64
REMARK SMILES IDX 61 65 75 66 94 67 59 68 60 69 74 71 95 72 62 73 46 74 47 75
REMARK SMILES IDX 55 76 48 77 49 78 53 79 56 80 50 81 51 82 54 83 52 84 78 85
REMARK SMILES IDX 79 86 87 87 80 88 81 89 85 90 88 91 82 92 83 93 86 94 84 95
REMARK SMILES IDX 63 96 64 97 72 98 65 99 66 100 70 101 73 102 67 103 68 104
REMARK SMILES IDX 71 105 69 106
REMARK H PARENT 9 24 93 59 61 70
REMARK Flexibility Score: inf
ROOT
ATOM      1  C   UNL A   1      33.893  33.312  28.862  1.00  0.00     0.188 C 
ENDROOT
BRANCH   1   2
ATOM      2  C   UNL A   1      34.529  32.061  28.214  1.00  0.00     0.188 C 
BRANCH   2   3
ATOM      3  O   UNL A   1      33.726  31.167  27.454  1.00  0.00    -0.376 OA
BRANCH   3   4
ATOM      4  C   UNL A   1      34.202  29.847  27.227  1.00  0.00     0.202 C 
BRANCH   4   5
ATOM      5  C   UNL A   1      33.339  28.891  26.372  1.00  0.00     0.261 C 
BRANCH   5   6
ATOM      6  O   UNL A   1      32.370  28.108  27.117  1.00  0.00    -0.462 OA
BRANCH   6   7
ATOM      7  C   UNL A   1      31.867  26.997  26.524  1.00  0.00     0.326 C 
ATOM      8  O   UNL A   1      30.787  26.503  26.839  1.00  0.00    -0.250 OA
BRANCH   7   9
ATOM      9  C   UNL A   1      32.606  26.541  25.276  1.00  0.00     0.248 C 
BRANCH   9  10
ATOM     10  N   UNL A   1      32.366  25.226  24.676  1.00  0.00    -0.293 N 
ATOM     11  C   UNL A   1      36.369  22.460  25.822  1.00  0.00     0.159 C 
ATOM     12  N   UNL A   1      35.059  22.691  25.234  1.00  0.00    -0.261 N 
ATOM     13  C   UNL A   1      34.560  23.998  25.317  1.00  0.00     0.282 A 
ATOM     14  C   UNL A   1      34.380  21.593  24.679  1.00  0.00     0.332 A 
ATOM     15  O   UNL A   1      35.164  24.903  25.884  1.00  0.00    -0.267 OA
ATOM     16  C   UNL A   1      33.267  24.161  24.727  1.00  0.00     0.154 A 
ATOM     17  N   UNL A   1      33.153  21.852  24.072  1.00  0.00    -0.279 N 
ATOM     18  O   UNL A   1      34.841  20.450  24.740  1.00  0.00    -0.247 OA
ATOM     19  C   UNL A   1      32.635  23.127  24.109  1.00  0.00     0.170 A 
ATOM     20  C   UNL A   1      32.425  20.783  23.408  1.00  0.00     0.157 C 
ATOM     21  N   UNL A   1      31.464  23.514  23.562  1.00  0.00    -0.194 NA
ATOM     22  C   UNL A   1      31.347  24.802  23.830  1.00  0.00     0.210 A 
BRANCH  22  23
ATOM     23  N   UNL A   1      30.319  25.514  23.326  1.00  0.00    -0.324 N 
ATOM     24  H   UNL A   1      29.545  24.967  23.061  1.00  0.00     0.170 HD
BRANCH  23  25
ATOM     25  C   UNL A   1      30.151  26.887  23.111  1.00  0.00     0.061 A 
ATOM     26  C   UNL A   1      31.283  27.594  22.675  1.00  0.00     0.028 A 
ATOM     27  C   UNL A   1      28.953  27.592  23.338  1.00  0.00     0.083 A 
ATOM     28  C   UNL A   1      31.201  28.943  22.344  1.00  0.00     0.004 A 
ATOM     29  C   UNL A   1      28.858  28.935  22.944  1.00  0.00     0.061 A 
ATOM     30  Cl  UNL A   1      27.627  26.808  24.149  1.00  0.00    -0.080 Cl
ATOM     31  C   UNL A   1      29.979  29.601  22.439  1.00  0.00     0.022 A 
ATOM     32  Cl  UNL A   1      27.373  29.818  23.017  1.00  0.00    -0.083 Cl
ENDBRANCH  23  25
ENDBRANCH  22  23
ENDBRANCH   9  10
ENDBRANCH   7   9
ENDBRANCH   6   7
ENDBRANCH   5   6
ENDBRANCH   4   5
ENDBRANCH   3   4
ENDBRANCH   2   3
ENDBRANCH   1   2
BRANCH   1  33
ATOM     33  O   UNL A   1      34.675  34.014  29.807  1.00  0.00    -0.377 OA
BRANCH  33  34
ATOM     34  C   UNL A   1      34.120  34.192  31.098  1.00  0.00     0.188 C 
BRANCH  34  35
ATOM     35  C   UNL A   1      34.300  35.567  31.769  1.00  0.00     0.188 C 
BRANCH  35  36
ATOM     36  O   UNL A   1      35.337  35.632  32.744  1.00  0.00    -0.376 OA
BRANCH  36  37
ATOM     37  C   UNL A   1      36.210  34.526  32.919  1.00  0.00     0.202 C 
BRANCH  37  38
ATOM     38  C   UNL A   1      37.509  34.541  32.117  1.00  0.00     0.261 C 
BRANCH  38  39
ATOM     39  O   UNL A   1      37.580  33.612  31.055  1.00  0.00    -0.460 OA
BRANCH  39  40
ATOM     40  C   UNL A   1      38.811  33.451  30.541  1.00  0.00     0.338 C 
ATOM     41  O   UNL A   1      39.361  34.131  29.699  1.00  0.00    -0.246 OA
BRANCH  40  42
ATOM     42  C   UNL A   1      39.339  32.184  31.042  1.00  0.00     0.060 A 
ATOM     43  C   UNL A   1      40.691  32.186  31.361  1.00  0.00     0.016 A 
ATOM     44  C   UNL A   1      38.598  30.998  30.881  1.00  0.00     0.016 A 
ATOM     45  C   UNL A   1      41.355  30.990  31.300  1.00  0.00     0.010 A 
ATOM     46  C   UNL A   1      39.265  29.797  30.831  1.00  0.00     0.010 A 
ATOM     47  C   UNL A   1      40.646  29.824  30.960  1.00  0.00    -0.014 A 
BRANCH  47  48
ATOM     48  C   UNL A   1      41.424  28.610  30.890  1.00  0.00     0.031 A 
ATOM     49  C   UNL A   1      41.896  28.200  32.224  1.00  0.00     0.074 A 
ATOM     50  C   UNL A   1      41.729  27.972  29.748  1.00  0.00     0.049 A 
ATOM     51  N   UNL A   1      43.091  28.343  32.686  1.00  0.00    -0.248 NA
ATOM     52  C   UNL A   1      40.893  27.811  33.225  1.00  0.00     0.031 C 
ATOM     53  C   UNL A   1      41.147  28.140  28.418  1.00  0.00     0.029 A 
ATOM     54  N   UNL A   1      42.625  26.962  29.575  1.00  0.00    -0.354 N 
ATOM     55  C   UNL A   1      43.040  27.877  33.990  1.00  0.00     0.074 A 
ATOM     56  C   UNL A   1      41.647  27.730  34.322  1.00  0.00     0.031 C 
ATOM     57  C   UNL A   1      41.551  27.119  27.626  1.00  0.00     0.029 A 
ATOM     58  C   UNL A   1      42.528  26.320  28.350  1.00  0.00     0.049 A 
ATOM     59  H   UNL A   1      43.286  26.711  30.259  1.00  0.00     0.167 HD
ATOM     60  C   UNL A   1      44.163  27.381  34.567  1.00  0.00     0.037 A 
ATOM     61  C   UNL A   1      43.174  25.181  28.003  1.00  0.00     0.037 A 
ATOM     62  C   UNL A   1      45.346  27.850  33.889  1.00  0.00     0.049 A 
ATOM     63  C   UNL A   1      44.365  25.069  28.881  1.00  0.00     0.074 A 
ATOM     64  C   UNL A   1      45.945  29.077  33.691  1.00  0.00     0.029 A 
ATOM     65  N   UNL A   1      45.879  27.002  32.953  1.00  0.00    -0.354 N 
ATOM     66  N   UNL A   1      45.396  25.864  28.813  1.00  0.00    -0.248 NA
ATOM     67  C   UNL A   1      44.250  24.304  30.114  1.00  0.00     0.031 C 
ATOM     68  C   UNL A   1      46.546  29.005  32.398  1.00  0.00     0.029 A 
ATOM     69  C   UNL A   1      46.324  27.728  31.881  1.00  0.00     0.049 A 
ATOM     70  H   UNL A   1      45.935  26.023  33.038  1.00  0.00     0.167 HD
ATOM     71  C   UNL A   1      45.796  26.031  30.129  1.00  0.00     0.074 A 
ATOM     72  C   UNL A   1      45.158  24.941  30.858  1.00  0.00     0.031 C 
ATOM     73  C   UNL A   1      46.367  27.203  30.533  1.00  0.00     0.037 A 
BRANCH  60  74
ATOM     74  C   UNL A   1      44.157  26.111  35.385  1.00  0.00     0.064 A 
ATOM     75  C   UNL A   1      44.782  26.117  36.646  1.00  0.00     0.173 A 
ATOM     76  C   UNL A   1      43.870  24.833  34.853  1.00  0.00     0.173 A 
ATOM     77  F   UNL A   1      45.131  27.274  37.230  1.00  0.00    -0.203 F 
ATOM     78  C   UNL A   1      45.160  24.932  37.284  1.00  0.00     0.198 A 
ATOM     79  C   UNL A   1      44.200  23.656  35.517  1.00  0.00     0.198 A 
ATOM     80  F   UNL A   1      43.376  24.660  33.622  1.00  0.00    -0.203 F 
ATOM     81  F   UNL A   1      45.873  24.988  38.417  1.00  0.00    -0.200 F 
ATOM     82  C   UNL A   1      44.874  23.704  36.717  1.00  0.00     0.200 A 
ATOM     83  F   UNL A   1      43.938  22.477  34.934  1.00  0.00    -0.200 F 
ATOM     84  F   UNL A   1      45.292  22.571  37.294  1.00  0.00    -0.200 F 
ENDBRANCH  60  74
BRANCH  61  85
ATOM     85  C   UNL A   1      42.672  24.040  27.202  1.00  0.00     0.064 A 
ATOM     86  C   UNL A   1      43.519  23.361  26.308  1.00  0.00     0.173 A 
ATOM     87  C   UNL A   1      41.455  23.405  27.514  1.00  0.00     0.173 A 
ATOM     88  F   UNL A   1      44.717  23.873  25.991  1.00  0.00    -0.203 F 
ATOM     89  C   UNL A   1      43.185  22.104  25.792  1.00  0.00     0.198 A 
ATOM     90  C   UNL A   1      41.121  22.154  26.992  1.00  0.00     0.198 A 
ATOM     91  F   UNL A   1      40.612  23.935  28.410  1.00  0.00    -0.203 F 
ATOM     92  F   UNL A   1      44.053  21.454  25.003  1.00  0.00    -0.200 F 
ATOM     93  C   UNL A   1      41.993  21.496  26.145  1.00  0.00     0.200 A 
ATOM     94  F   UNL A   1      39.981  21.560  27.371  1.00  0.00    -0.200 F 
ATOM     95  F   UNL A   1      41.704  20.264  25.707  1.00  0.00    -0.200 F 
ENDBRANCH  61  85
BRANCH  73  96
ATOM     96  C   UNL A   1      46.904  28.116  29.468  1.00  0.00     0.064 A 
ATOM     97  C   UNL A   1      46.163  29.130  28.839  1.00  0.00     0.173 A 
ATOM     98  C   UNL A   1      48.272  28.034  29.169  1.00  0.00     0.173 A 
ATOM     99  F   UNL A   1      44.870  29.327  29.135  1.00  0.00    -0.203 F 
ATOM    100  C   UNL A   1      46.762  29.997  27.925  1.00  0.00     0.198 A 
ATOM    101  C   UNL A   1      48.875  28.927  28.289  1.00  0.00     0.198 A 
ATOM    102  F   UNL A   1      49.038  27.113  29.775  1.00  0.00    -0.203 F 
ATOM    103  F   UNL A   1      46.034  30.951  27.325  1.00  0.00    -0.200 F 
ATOM    104  C   UNL A   1      48.119  29.901  27.660  1.00  0.00     0.200 A 
ATOM    105  F   UNL A   1      50.195  28.858  28.073  1.00  0.00    -0.200 F 
ATOM    106  F   UNL A   1      48.704  30.765  26.819  1.00  0.00    -0.200 F 
ENDBRANCH  73  96
ENDBRANCH  47  48
ENDBRANCH  40  42
ENDBRANCH  39  40
ENDBRANCH  38  39
ENDBRANCH  37  38
ENDBRANCH  36  37
ENDBRANCH  35  36
ENDBRANCH  34  35
ENDBRANCH  33  34
ENDBRANCH   1  33
TORSDOF 23
ENDMDL
