MODEL 1
REMARK VINA RESULT:     -11.4      0.000      0.000
REMARK SMILES O=C(OCCOCCOCCOCCOC(=O)c1ccc(-c2c3nc(c(-c4c(F)c(F)c(F)c(F)c4F)c4ccc([nH]4)c(-c4c(F)c(F)c(F)c(F)c4F)c4nc(c(-c5c(F)c(F)c(F)c(F)c5F)c5ccc2[nH]5)C=C4)C=C3)cc1)C1=Cc2cc(Cl)c(Cl)cc2O[C@@H]1C(F)(F)F
REMARK SMILES IDX 10 1 9 2 8 3 7 4 6 5 5 6 4 7 3 8 2 9 1 10 81 11 82 12 92 13
REMARK SMILES IDX 83 14 91 15 84 16 90 17 85 18 89 19 86 20 87 21 88 22 93 23
REMARK SMILES IDX 94 24 95 25 96 26 11 27 12 28 13 29 14 30 15 31 16 32 17 33
REMARK SMILES IDX 18 34 19 35 80 36 20 37 79 38 21 39 22 40 23 41 73 42 24 43
REMARK SMILES IDX 78 44 72 45 74 46 25 47 77 48 71 49 70 50 26 52 58 53 38 54
REMARK SMILES IDX 57 55 39 56 42 57 56 58 75 59 40 60 41 61 55 63 76 64 43 65
REMARK SMILES IDX 27 66 28 67 36 68 29 69 30 70 34 71 37 72 31 73 32 74 35 75
REMARK SMILES IDX 33 76 59 77 60 78 68 79 61 80 62 81 66 82 69 83 63 84 64 85
REMARK SMILES IDX 67 86 65 87 44 88 45 89 53 90 46 91 47 92 51 93 54 94 48 95
REMARK SMILES IDX 49 96 52 97 50 98
REMARK H PARENT 74 51 42 62
REMARK Flexibility Score: inf
ROOT
ATOM      1  C   UNL A   1      32.588  29.148  24.848  1.00  0.00     0.188 C 
ENDROOT
BRANCH   1   2
ATOM      2  O   UNL A   1      31.996  28.818  23.600  1.00  0.00    -0.377 OA
BRANCH   2   3
ATOM      3  C   UNL A   1      30.597  29.050  23.509  1.00  0.00     0.188 C 
BRANCH   3   4
ATOM      4  C   UNL A   1      29.801  27.754  23.479  1.00  0.00     0.188 C 
BRANCH   4   5
ATOM      5  O   UNL A   1      30.550  26.619  23.893  1.00  0.00    -0.376 OA
BRANCH   5   6
ATOM      6  C   UNL A   1      29.891  25.588  24.611  1.00  0.00     0.202 C 
BRANCH   6   7
ATOM      7  C   UNL A   1      29.857  25.768  26.128  1.00  0.00     0.261 C 
BRANCH   7   8
ATOM      8  O   UNL A   1      31.138  25.486  26.714  1.00  0.00    -0.460 OA
BRANCH   8   9
ATOM      9  C   UNL A   1      31.485  24.184  26.781  1.00  0.00     0.338 C 
ATOM     10  O   UNL A   1      30.783  23.335  27.308  1.00  0.00    -0.246 OA
BRANCH   9  11
ATOM     11  C   UNL A   1      32.838  23.910  26.223  1.00  0.00     0.087 C 
ATOM     12  C   UNL A   1      33.343  22.760  26.706  1.00  0.00     0.027 C 
ATOM     13  C   UNL A   1      33.114  24.334  24.797  1.00  0.00     0.316 C 
ATOM     14  C   UNL A   1      33.242  21.666  25.727  1.00  0.00     0.019 A 
ATOM     15  O   UNL A   1      33.297  23.229  23.868  1.00  0.00    -0.475 OA
ATOM     16  C   UNL A   1      33.124  20.347  26.172  1.00  0.00     0.034 A 
ATOM     17  C   UNL A   1      33.158  21.959  24.363  1.00  0.00     0.129 A 
ATOM     18  C   UNL A   1      32.844  19.328  25.257  1.00  0.00     0.060 A 
ATOM     19  C   UNL A   1      32.886  20.943  23.448  1.00  0.00     0.069 A 
ATOM     20  Cl  UNL A   1      32.658  17.726  25.876  1.00  0.00    -0.083 Cl
ATOM     21  C   UNL A   1      32.692  19.632  23.898  1.00  0.00     0.063 A 
ATOM     22  Cl  UNL A   1      32.206  18.448  22.738  1.00  0.00    -0.083 Cl
BRANCH  13  23
ATOM     23  C   UNL A   1      34.259  25.345  24.711  1.00  0.00     0.430 C 
ATOM     24  F   UNL A   1      34.046  26.247  23.725  1.00  0.00    -0.167 F 
ATOM     25  F   UNL A   1      34.371  26.051  25.864  1.00  0.00    -0.167 F 
ATOM     26  F   UNL A   1      35.452  24.753  24.483  1.00  0.00    -0.167 F 
ENDBRANCH  13  23
ENDBRANCH   9  11
ENDBRANCH   8   9
ENDBRANCH   7   8
ENDBRANCH   6   7
ENDBRANCH   5   6
ENDBRANCH   4   5
ENDBRANCH   3   4
ENDBRANCH   2   3
ENDBRANCH   1   2
BRANCH   1  27
ATOM     27  C   UNL A   1      31.853  30.200  25.713  1.00  0.00     0.188 C 
BRANCH  27  28
ATOM     28  O   UNL A   1      32.494  30.975  26.719  1.00  0.00    -0.376 OA
BRANCH  28  29
ATOM     29  C   UNL A   1      31.916  32.193  27.148  1.00  0.00     0.202 C 
BRANCH  29  30
ATOM     30  C   UNL A   1      32.901  33.259  27.652  1.00  0.00     0.261 C 
BRANCH  30  31
ATOM     31  O   UNL A   1      32.287  34.507  28.016  1.00  0.00    -0.460 OA
BRANCH  31  32
ATOM     32  C   UNL A   1      33.083  35.398  28.666  1.00  0.00     0.338 C 
ATOM     33  O   UNL A   1      32.896  36.588  28.801  1.00  0.00    -0.246 OA
BRANCH  32  34
ATOM     34  C   UNL A   1      34.158  34.656  29.387  1.00  0.00     0.060 A 
ATOM     35  C   UNL A   1      35.427  34.597  28.788  1.00  0.00     0.016 A 
ATOM     36  C   UNL A   1      33.963  34.092  30.650  1.00  0.00     0.016 A 
ATOM     37  C   UNL A   1      36.496  33.977  29.444  1.00  0.00     0.010 A 
ATOM     38  C   UNL A   1      35.028  33.447  31.296  1.00  0.00     0.010 A 
ATOM     39  C   UNL A   1      36.296  33.367  30.687  1.00  0.00    -0.014 A 
BRANCH  39  40
ATOM     40  C   UNL A   1      37.321  32.450  31.250  1.00  0.00     0.031 A 
ATOM     41  C   UNL A   1      37.846  32.754  32.627  1.00  0.00     0.074 A 
ATOM     42  C   UNL A   1      37.801  31.391  30.571  1.00  0.00     0.049 A 
ATOM     43  N   UNL A   1      38.839  32.209  33.281  1.00  0.00    -0.248 NA
ATOM     44  C   UNL A   1      37.157  33.826  33.364  1.00  0.00     0.031 C 
ATOM     45  C   UNL A   1      37.342  30.942  29.259  1.00  0.00     0.029 A 
ATOM     46  N   UNL A   1      38.810  30.510  30.890  1.00  0.00    -0.354 N 
ATOM     47  C   UNL A   1      38.907  32.887  34.490  1.00  0.00     0.074 A 
ATOM     48  C   UNL A   1      37.861  33.886  34.482  1.00  0.00     0.031 C 
ATOM     49  C   UNL A   1      38.090  29.894  28.869  1.00  0.00     0.029 A 
ATOM     50  C   UNL A   1      39.111  29.624  29.884  1.00  0.00     0.049 A 
ATOM     51  H   UNL A   1      39.272  30.515  31.760  1.00  0.00     0.167 HD
ATOM     52  C   UNL A   1      39.769  32.698  35.516  1.00  0.00     0.037 A 
ATOM     53  C   UNL A   1      40.121  28.735  29.777  1.00  0.00     0.037 A 
ATOM     54  C   UNL A   1      40.800  31.699  35.537  1.00  0.00     0.049 A 
ATOM     55  C   UNL A   1      41.123  28.604  30.904  1.00  0.00     0.074 A 
ATOM     56  C   UNL A   1      41.688  31.402  36.555  1.00  0.00     0.029 A 
ATOM     57  N   UNL A   1      41.089  30.842  34.487  1.00  0.00    -0.354 N 
ATOM     58  N   UNL A   1      41.159  29.223  32.058  1.00  0.00    -0.248 NA
ATOM     59  C   UNL A   1      42.234  27.658  30.703  1.00  0.00     0.031 C 
ATOM     60  C   UNL A   1      42.559  30.408  36.098  1.00  0.00     0.029 A 
ATOM     61  C   UNL A   1      42.174  30.047  34.817  1.00  0.00     0.049 A 
ATOM     62  H   UNL A   1      40.598  30.805  33.635  1.00  0.00     0.167 HD
ATOM     63  C   UNL A   1      42.274  28.727  32.726  1.00  0.00     0.074 A 
ATOM     64  C   UNL A   1      42.878  27.740  31.859  1.00  0.00     0.031 C 
ATOM     65  C   UNL A   1      42.759  29.062  33.946  1.00  0.00     0.037 A 
BRANCH  52  66
ATOM     66  C   UNL A   1      39.667  33.617  36.695  1.00  0.00     0.064 A 
ATOM     67  C   UNL A   1      40.281  34.877  36.705  1.00  0.00     0.173 A 
ATOM     68  C   UNL A   1      38.881  33.256  37.799  1.00  0.00     0.173 A 
ATOM     69  F   UNL A   1      41.057  35.259  35.680  1.00  0.00    -0.203 F 
ATOM     70  C   UNL A   1      40.115  35.742  37.785  1.00  0.00     0.198 A 
ATOM     71  C   UNL A   1      38.697  34.132  38.863  1.00  0.00     0.198 A 
ATOM     72  F   UNL A   1      38.274  32.060  37.835  1.00  0.00    -0.203 F 
ATOM     73  F   UNL A   1      40.731  36.931  37.788  1.00  0.00    -0.200 F 
ATOM     74  C   UNL A   1      39.315  35.373  38.856  1.00  0.00     0.200 A 
ATOM     75  F   UNL A   1      37.913  33.779  39.891  1.00  0.00    -0.200 F 
ATOM     76  F   UNL A   1      39.140  36.215  39.884  1.00  0.00    -0.200 F 
ENDBRANCH  52  66
BRANCH  53  77
ATOM     77  C   UNL A   1      40.301  27.934  28.532  1.00  0.00     0.064 A 
ATOM     78  C   UNL A   1      39.776  26.638  28.414  1.00  0.00     0.173 A 
ATOM     79  C   UNL A   1      41.074  28.418  27.466  1.00  0.00     0.173 A 
ATOM     80  F   UNL A   1      39.060  26.112  29.420  1.00  0.00    -0.203 F 
ATOM     81  C   UNL A   1      40.045  25.848  27.297  1.00  0.00     0.198 A 
ATOM     82  C   UNL A   1      41.313  27.640  26.334  1.00  0.00     0.198 A 
ATOM     83  F   UNL A   1      41.610  29.646  27.526  1.00  0.00    -0.203 F 
ATOM     84  F   UNL A   1      39.591  24.588  27.244  1.00  0.00    -0.200 F 
ATOM     85  C   UNL A   1      40.811  26.351  26.256  1.00  0.00     0.200 A 
ATOM     86  F   UNL A   1      42.045  28.135  25.327  1.00  0.00    -0.200 F 
ATOM     87  F   UNL A   1      41.076  25.589  25.187  1.00  0.00    -0.200 F 
ENDBRANCH  53  77
BRANCH  65  88
ATOM     88  C   UNL A   1      43.987  28.348  34.433  1.00  0.00     0.064 A 
ATOM     89  C   UNL A   1      45.269  28.892  34.263  1.00  0.00     0.173 A 
ATOM     90  C   UNL A   1      43.877  27.140  35.141  1.00  0.00     0.173 A 
ATOM     91  F   UNL A   1      45.430  30.037  33.583  1.00  0.00    -0.203 F 
ATOM     92  C   UNL A   1      46.394  28.245  34.768  1.00  0.00     0.198 A 
ATOM     93  C   UNL A   1      45.001  26.513  35.671  1.00  0.00     0.198 A 
ATOM     94  F   UNL A   1      42.673  26.583  35.341  1.00  0.00    -0.203 F 
ATOM     95  F   UNL A   1      47.612  28.765  34.559  1.00  0.00    -0.200 F 
ATOM     96  C   UNL A   1      46.258  27.063  35.480  1.00  0.00     0.200 A 
ATOM     97  F   UNL A   1      44.864  25.380  36.373  1.00  0.00    -0.200 F 
ATOM     98  F   UNL A   1      47.342  26.450  35.978  1.00  0.00    -0.200 F 
ENDBRANCH  65  88
ENDBRANCH  39  40
ENDBRANCH  32  34
ENDBRANCH  31  32
ENDBRANCH  30  31
ENDBRANCH  29  30
ENDBRANCH  28  29
ENDBRANCH  27  28
ENDBRANCH   1  27
TORSDOF 21
ENDMDL
MODEL 2
REMARK VINA RESULT:     -11.2      2.140      3.838
REMARK SMILES O=C(OCCOCCOCCOCCOC(=O)c1ccc(-c2c3nc(c(-c4c(F)c(F)c(F)c(F)c4F)c4ccc([nH]4)c(-c4c(F)c(F)c(F)c(F)c4F)c4nc(c(-c5c(F)c(F)c(F)c(F)c5F)c5ccc2[nH]5)C=C4)C=C3)cc1)C1=Cc2cc(Cl)c(Cl)cc2O[C@@H]1C(F)(F)F
REMARK SMILES IDX 10 1 9 2 8 3 7 4 6 5 5 6 4 7 3 8 2 9 1 10 81 11 82 12 92 13
REMARK SMILES IDX 83 14 91 15 84 16 90 17 85 18 89 19 86 20 87 21 88 22 93 23
REMARK SMILES IDX 94 24 95 25 96 26 11 27 12 28 13 29 14 30 15 31 16 32 17 33
REMARK SMILES IDX 18 34 19 35 80 36 20 37 79 38 21 39 22 40 23 41 73 42 24 43
REMARK SMILES IDX 78 44 72 45 74 46 25 47 77 48 71 49 70 50 26 52 58 53 38 54
REMARK SMILES IDX 57 55 39 56 42 57 56 58 75 59 40 60 41 61 55 63 76 64 43 65
REMARK SMILES IDX 27 66 28 67 36 68 29 69 30 70 34 71 37 72 31 73 32 74 35 75
REMARK SMILES IDX 33 76 59 77 60 78 68 79 61 80 62 81 66 82 69 83 63 84 64 85
REMARK SMILES IDX 67 86 65 87 44 88 45 89 53 90 46 91 47 92 51 93 54 94 48 95
REMARK SMILES IDX 49 96 52 97 50 98
REMARK H PARENT 74 51 42 62
REMARK Flexibility Score: inf
ROOT
ATOM      1  C   UNL A   1      34.234  32.846  28.571  1.00  0.00     0.188 C 
ENDROOT
BRANCH   1   2
ATOM      2  O   UNL A   1      34.591  31.920  27.554  1.00  0.00    -0.377 OA
BRANCH   2   3
ATOM      3  C   UNL A   1      34.380  30.552  27.876  1.00  0.00     0.188 C 
BRANCH   3   4
ATOM      4  C   UNL A   1      33.162  29.977  27.170  1.00  0.00     0.188 C 
BRANCH   4   5
ATOM      5  O   UNL A   1      33.106  28.557  27.203  1.00  0.00    -0.376 OA
BRANCH   5   6
ATOM      6  C   UNL A   1      33.269  27.836  25.991  1.00  0.00     0.202 C 
BRANCH   6   7
ATOM      7  C   UNL A   1      34.032  28.571  24.891  1.00  0.00     0.261 C 
BRANCH   7   8
ATOM      8  O   UNL A   1      33.136  29.114  23.909  1.00  0.00    -0.460 OA
BRANCH   8   9
ATOM      9  C   UNL A   1      32.953  28.370  22.798  1.00  0.00     0.338 C 
ATOM     10  O   UNL A   1      33.847  28.134  22.002  1.00  0.00    -0.246 OA
BRANCH   9  11
ATOM     11  C   UNL A   1      31.540  27.942  22.608  1.00  0.00     0.087 C 
ATOM     12  C   UNL A   1      31.470  26.680  22.144  1.00  0.00     0.027 C 
ATOM     13  C   UNL A   1      30.504  28.465  23.579  1.00  0.00     0.316 C 
ATOM     14  C   UNL A   1      31.113  25.728  23.208  1.00  0.00     0.019 A 
ATOM     15  O   UNL A   1      29.938  27.450  24.455  1.00  0.00    -0.475 OA
ATOM     16  C   UNL A   1      31.558  24.405  23.131  1.00  0.00     0.034 A 
ATOM     17  C   UNL A   1      30.424  26.174  24.339  1.00  0.00     0.129 A 
ATOM     18  C   UNL A   1      31.380  23.549  24.221  1.00  0.00     0.060 A 
ATOM     19  C   UNL A   1      30.238  25.319  25.424  1.00  0.00     0.069 A 
ATOM     20  Cl  UNL A   1      31.998  21.942  24.085  1.00  0.00    -0.083 Cl
ATOM     21  C   UNL A   1      30.749  24.017  25.381  1.00  0.00     0.063 A 
ATOM     22  Cl  UNL A   1      30.624  23.057  26.812  1.00  0.00    -0.083 Cl
BRANCH  13  23
ATOM     23  C   UNL A   1      29.418  29.279  22.875  1.00  0.00     0.430 C 
ATOM     24  F   UNL A   1      29.035  30.340  23.624  1.00  0.00    -0.167 F 
ATOM     25  F   UNL A   1      29.872  29.780  21.699  1.00  0.00    -0.167 F 
ATOM     26  F   UNL A   1      28.318  28.544  22.603  1.00  0.00    -0.167 F 
ENDBRANCH  13  23
ENDBRANCH   9  11
ENDBRANCH   8   9
ENDBRANCH   7   8
ENDBRANCH   6   7
ENDBRANCH   5   6
ENDBRANCH   4   5
ENDBRANCH   3   4
ENDBRANCH   2   3
ENDBRANCH   1   2
BRANCH   1  27
ATOM     27  C   UNL A   1      35.113  34.114  28.700  1.00  0.00     0.188 C 
BRANCH  27  28
ATOM     28  O   UNL A   1      34.587  35.411  28.950  1.00  0.00    -0.376 OA
BRANCH  28  29
ATOM     29  C   UNL A   1      33.187  35.607  29.010  1.00  0.00     0.202 C 
BRANCH  29  30
ATOM     30  C   UNL A   1      32.697  36.610  30.065  1.00  0.00     0.261 C 
BRANCH  30  31
ATOM     31  O   UNL A   1      32.009  36.011  31.178  1.00  0.00    -0.460 OA
BRANCH  31  32
ATOM     32  C   UNL A   1      32.571  36.202  32.401  1.00  0.00     0.338 C 
ATOM     33  O   UNL A   1      32.125  36.851  33.321  1.00  0.00    -0.246 OA
BRANCH  32  34
ATOM     34  C   UNL A   1      33.761  35.312  32.535  1.00  0.00     0.060 A 
ATOM     35  C   UNL A   1      33.534  33.949  32.790  1.00  0.00     0.016 A 
ATOM     36  C   UNL A   1      35.067  35.771  32.344  1.00  0.00     0.016 A 
ATOM     37  C   UNL A   1      34.603  33.049  32.857  1.00  0.00     0.010 A 
ATOM     38  C   UNL A   1      36.140  34.873  32.437  1.00  0.00     0.010 A 
ATOM     39  C   UNL A   1      35.916  33.510  32.716  1.00  0.00    -0.014 A 
BRANCH  39  40
ATOM     40  C   UNL A   1      37.064  32.640  33.086  1.00  0.00     0.031 A 
ATOM     41  C   UNL A   1      37.776  32.940  34.377  1.00  0.00     0.074 A 
ATOM     42  C   UNL A   1      37.490  31.628  32.307  1.00  0.00     0.049 A 
ATOM     43  N   UNL A   1      38.885  32.437  34.855  1.00  0.00    -0.248 NA
ATOM     44  C   UNL A   1      37.151  33.951  35.245  1.00  0.00     0.031 C 
ATOM     45  C   UNL A   1      36.860  31.186  31.066  1.00  0.00     0.029 A 
ATOM     46  N   UNL A   1      38.581  30.800  32.441  1.00  0.00    -0.354 N 
ATOM     47  C   UNL A   1      39.101  33.088  36.062  1.00  0.00     0.074 A 
ATOM     48  C   UNL A   1      38.014  34.024  36.246  1.00  0.00     0.031 C 
ATOM     49  C   UNL A   1      37.595  30.193  30.532  1.00  0.00     0.029 A 
ATOM     50  C   UNL A   1      38.772  29.958  31.371  1.00  0.00     0.049 A 
ATOM     51  H   UNL A   1      39.171  30.810  33.230  1.00  0.00     0.167 HD
ATOM     52  C   UNL A   1      40.118  32.924  36.939  1.00  0.00     0.037 A 
ATOM     53  C   UNL A   1      39.800  29.132  31.083  1.00  0.00     0.037 A 
ATOM     54  C   UNL A   1      41.193  31.986  36.770  1.00  0.00     0.049 A 
ATOM     55  C   UNL A   1      40.968  29.032  32.040  1.00  0.00     0.074 A 
ATOM     56  C   UNL A   1      42.241  31.716  37.632  1.00  0.00     0.029 A 
ATOM     57  N   UNL A   1      41.363  31.174  35.661  1.00  0.00    -0.354 N 
ATOM     58  N   UNL A   1      41.148  29.623  33.196  1.00  0.00    -0.248 NA
ATOM     59  C   UNL A   1      42.085  28.158  31.642  1.00  0.00     0.031 C 
ATOM     60  C   UNL A   1      43.083  30.786  37.014  1.00  0.00     0.029 A 
ATOM     61  C   UNL A   1      42.527  30.436  35.795  1.00  0.00     0.049 A 
ATOM     62  H   UNL A   1      40.750  31.130  34.892  1.00  0.00     0.167 HD
ATOM     63  C   UNL A   1      42.376  29.176  33.670  1.00  0.00     0.074 A 
ATOM     64  C   UNL A   1      42.893  28.248  32.689  1.00  0.00     0.031 C 
ATOM     65  C   UNL A   1      43.024  29.509  34.813  1.00  0.00     0.037 A 
BRANCH  52  66
ATOM     66  C   UNL A   1      40.149  33.806  38.150  1.00  0.00     0.064 A 
ATOM     67  C   UNL A   1      39.582  33.408  39.368  1.00  0.00     0.173 A 
ATOM     68  C   UNL A   1      40.820  35.036  38.103  1.00  0.00     0.173 A 
ATOM     69  F   UNL A   1      38.914  32.249  39.457  1.00  0.00    -0.203 F 
ATOM     70  C   UNL A   1      39.683  34.217  40.498  1.00  0.00     0.198 A 
ATOM     71  C   UNL A   1      40.942  35.829  39.240  1.00  0.00     0.198 A 
ATOM     72  F   UNL A   1      41.378  35.460  36.958  1.00  0.00    -0.203 F 
ATOM     73  F   UNL A   1      39.113  33.832  41.648  1.00  0.00    -0.200 F 
ATOM     74  C   UNL A   1      40.372  35.419  40.435  1.00  0.00     0.200 A 
ATOM     75  F   UNL A   1      41.618  36.984  39.179  1.00  0.00    -0.200 F 
ATOM     76  F   UNL A   1      40.487  36.185  41.529  1.00  0.00    -0.200 F 
ENDBRANCH  52  66
BRANCH  53  77
ATOM     77  C   UNL A   1      39.830  28.374  29.799  1.00  0.00     0.064 A 
ATOM     78  C   UNL A   1      39.279  27.088  29.696  1.00  0.00     0.173 A 
ATOM     79  C   UNL A   1      40.487  28.889  28.671  1.00  0.00     0.173 A 
ATOM     80  F   UNL A   1      38.672  26.534  30.756  1.00  0.00    -0.203 F 
ATOM     81  C   UNL A   1      39.412  26.336  28.529  1.00  0.00     0.198 A 
ATOM     82  C   UNL A   1      40.589  28.150  27.493  1.00  0.00     0.198 A 
ATOM     83  F   UNL A   1      41.042  30.109  28.712  1.00  0.00    -0.203 F 
ATOM     84  F   UNL A   1      38.939  25.083  28.484  1.00  0.00    -0.200 F 
ATOM     85  C   UNL A   1      40.064  26.869  27.427  1.00  0.00     0.200 A 
ATOM     86  F   UNL A   1      41.211  28.674  26.428  1.00  0.00    -0.200 F 
ATOM     87  F   UNL A   1      40.199  26.143  26.310  1.00  0.00    -0.200 F 
ENDBRANCH  53  77
BRANCH  65  88
ATOM     88  C   UNL A   1      44.349  28.855  35.085  1.00  0.00     0.064 A 
ATOM     89  C   UNL A   1      44.437  27.618  35.739  1.00  0.00     0.173 A 
ATOM     90  C   UNL A   1      45.540  29.439  34.625  1.00  0.00     0.173 A 
ATOM     91  F   UNL A   1      43.329  27.024  36.210  1.00  0.00    -0.203 F 
ATOM     92  C   UNL A   1      45.668  26.998  35.937  1.00  0.00     0.198 A 
ATOM     93  C   UNL A   1      46.766  28.802  34.796  1.00  0.00     0.198 A 
ATOM     94  F   UNL A   1      45.511  30.618  33.984  1.00  0.00    -0.203 F 
ATOM     95  F   UNL A   1      45.731  25.834  36.598  1.00  0.00    -0.200 F 
ATOM     96  C   UNL A   1      46.829  27.584  35.456  1.00  0.00     0.200 A 
ATOM     97  F   UNL A   1      47.884  29.363  34.316  1.00  0.00    -0.200 F 
ATOM     98  F   UNL A   1      48.012  26.978  35.634  1.00  0.00    -0.200 F 
ENDBRANCH  65  88
ENDBRANCH  39  40
ENDBRANCH  32  34
ENDBRANCH  31  32
ENDBRANCH  30  31
ENDBRANCH  29  30
ENDBRANCH  28  29
ENDBRANCH  27  28
ENDBRANCH   1  27
TORSDOF 21
ENDMDL
MODEL 3
REMARK VINA RESULT:     -11.2      1.743      7.459
REMARK SMILES O=C(OCCOCCOCCOCCOC(=O)c1ccc(-c2c3nc(c(-c4c(F)c(F)c(F)c(F)c4F)c4ccc([nH]4)c(-c4c(F)c(F)c(F)c(F)c4F)c4nc(c(-c5c(F)c(F)c(F)c(F)c5F)c5ccc2[nH]5)C=C4)C=C3)cc1)C1=Cc2cc(Cl)c(Cl)cc2O[C@@H]1C(F)(F)F
REMARK SMILES IDX 10 1 9 2 8 3 7 4 6 5 5 6 4 7 3 8 2 9 1 10 81 11 82 12 92 13
REMARK SMILES IDX 83 14 91 15 84 16 90 17 85 18 89 19 86 20 87 21 88 22 93 23
REMARK SMILES IDX 94 24 95 25 96 26 11 27 12 28 13 29 14 30 15 31 16 32 17 33
REMARK SMILES IDX 18 34 19 35 80 36 20 37 79 38 21 39 22 40 23 41 73 42 24 43
REMARK SMILES IDX 78 44 72 45 74 46 25 47 77 48 71 49 70 50 26 52 58 53 38 54
REMARK SMILES IDX 57 55 39 56 42 57 56 58 75 59 40 60 41 61 55 63 76 64 43 65
REMARK SMILES IDX 27 66 28 67 36 68 29 69 30 70 34 71 37 72 31 73 32 74 35 75
REMARK SMILES IDX 33 76 59 77 60 78 68 79 61 80 62 81 66 82 69 83 63 84 64 85
REMARK SMILES IDX 67 86 65 87 44 88 45 89 53 90 46 91 47 92 51 93 54 94 48 95
REMARK SMILES IDX 49 96 52 97 50 98
REMARK H PARENT 74 51 42 62
REMARK Flexibility Score: inf
ROOT
ATOM      1  C   UNL A   1      33.296  29.198  25.512  1.00  0.00     0.188 C 
ENDROOT
BRANCH   1   2
ATOM      2  O   UNL A   1      32.912  27.873  25.174  1.00  0.00    -0.377 OA
BRANCH   2   3
ATOM      3  C   UNL A   1      32.619  27.655  23.801  1.00  0.00     0.188 C 
BRANCH   3   4
ATOM      4  C   UNL A   1      33.851  27.797  22.921  1.00  0.00     0.188 C 
BRANCH   4   5
ATOM      5  O   UNL A   1      33.864  26.903  21.816  1.00  0.00    -0.376 OA
BRANCH   5   6
ATOM      6  C   UNL A   1      32.666  26.228  21.465  1.00  0.00     0.202 C 
BRANCH   6   7
ATOM      7  C   UNL A   1      32.820  24.738  21.164  1.00  0.00     0.261 C 
BRANCH   7   8
ATOM      8  O   UNL A   1      33.545  24.069  22.207  1.00  0.00    -0.460 OA
BRANCH   8   9
ATOM      9  C   UNL A   1      33.012  22.912  22.651  1.00  0.00     0.338 C 
ATOM     10  O   UNL A   1      32.521  22.078  21.908  1.00  0.00    -0.246 OA
BRANCH   9  11
ATOM     11  C   UNL A   1      33.013  22.799  24.136  1.00  0.00     0.087 C 
ATOM     12  C   UNL A   1      33.484  21.604  24.536  1.00  0.00     0.027 C 
ATOM     13  C   UNL A   1      33.299  24.049  24.941  1.00  0.00     0.316 C 
ATOM     14  C   UNL A   1      34.871  21.699  25.020  1.00  0.00     0.019 A 
ATOM     15  O   UNL A   1      34.565  24.023  25.658  1.00  0.00    -0.475 OA
ATOM     16  C   UNL A   1      35.721  20.596  24.904  1.00  0.00     0.034 A 
ATOM     17  C   UNL A   1      35.360  22.919  25.495  1.00  0.00     0.129 A 
ATOM     18  C   UNL A   1      37.082  20.737  25.191  1.00  0.00     0.060 A 
ATOM     19  C   UNL A   1      36.715  23.059  25.789  1.00  0.00     0.069 A 
ATOM     20  Cl  UNL A   1      38.092  19.351  24.979  1.00  0.00    -0.083 Cl
ATOM     21  C   UNL A   1      37.585  21.979  25.602  1.00  0.00     0.063 A 
ATOM     22  Cl  UNL A   1      39.274  22.257  25.834  1.00  0.00    -0.083 Cl
BRANCH  13  23
ATOM     23  C   UNL A   1      32.132  24.418  25.858  1.00  0.00     0.430 C 
ATOM     24  F   UNL A   1      31.730  23.356  26.594  1.00  0.00    -0.167 F 
ATOM     25  F   UNL A   1      32.494  25.384  26.740  1.00  0.00    -0.167 F 
ATOM     26  F   UNL A   1      31.063  24.877  25.173  1.00  0.00    -0.167 F 
ENDBRANCH  13  23
ENDBRANCH   9  11
ENDBRANCH   8   9
ENDBRANCH   7   8
ENDBRANCH   6   7
ENDBRANCH   5   6
ENDBRANCH   4   5
ENDBRANCH   3   4
ENDBRANCH   2   3
ENDBRANCH   1   2
BRANCH   1  27
ATOM     27  C   UNL A   1      32.157  30.199  25.820  1.00  0.00     0.188 C 
BRANCH  27  28
ATOM     28  O   UNL A   1      32.104  30.988  27.002  1.00  0.00    -0.376 OA
BRANCH  28  29
ATOM     29  C   UNL A   1      31.944  32.391  26.909  1.00  0.00     0.202 C 
BRANCH  29  30
ATOM     30  C   UNL A   1      32.851  33.228  27.822  1.00  0.00     0.261 C 
BRANCH  30  31
ATOM     31  O   UNL A   1      32.485  34.617  27.908  1.00  0.00    -0.460 OA
BRANCH  31  32
ATOM     32  C   UNL A   1      32.956  35.295  28.988  1.00  0.00     0.338 C 
ATOM     33  O   UNL A   1      32.423  36.216  29.567  1.00  0.00    -0.246 OA
BRANCH  32  34
ATOM     34  C   UNL A   1      34.170  34.600  29.508  1.00  0.00     0.060 A 
ATOM     35  C   UNL A   1      34.020  33.774  30.634  1.00  0.00     0.016 A 
ATOM     36  C   UNL A   1      35.413  34.687  28.876  1.00  0.00     0.016 A 
ATOM     37  C   UNL A   1      35.103  33.040  31.129  1.00  0.00     0.010 A 
ATOM     38  C   UNL A   1      36.505  33.972  29.388  1.00  0.00     0.010 A 
ATOM     39  C   UNL A   1      36.362  33.161  30.531  1.00  0.00    -0.014 A 
BRANCH  39  40
ATOM     40  C   UNL A   1      37.575  32.641  31.216  1.00  0.00     0.031 A 
ATOM     41  C   UNL A   1      38.314  31.508  30.558  1.00  0.00     0.074 A 
ATOM     42  C   UNL A   1      38.009  33.128  32.394  1.00  0.00     0.049 A 
ATOM     43  N   UNL A   1      39.301  30.779  31.012  1.00  0.00    -0.248 NA
ATOM     44  C   UNL A   1      37.873  31.144  29.201  1.00  0.00     0.031 C 
ATOM     45  C   UNL A   1      37.431  34.260  33.112  1.00  0.00     0.029 A 
ATOM     46  N   UNL A   1      39.035  32.705  33.208  1.00  0.00    -0.354 N 
ATOM     47  C   UNL A   1      39.579  29.860  30.010  1.00  0.00     0.074 A 
ATOM     48  C   UNL A   1      38.659  30.116  28.924  1.00  0.00     0.031 C 
ATOM     49  C   UNL A   1      38.086  34.419  34.277  1.00  0.00     0.029 A 
ATOM     50  C   UNL A   1      39.102  33.373  34.407  1.00  0.00     0.049 A 
ATOM     51  H   UNL A   1      39.664  31.989  32.954  1.00  0.00     0.167 HD
ATOM     52  C   UNL A   1      40.516  28.884  29.996  1.00  0.00     0.037 A 
ATOM     53  C   UNL A   1      39.861  33.136  35.498  1.00  0.00     0.037 A 
ATOM     54  C   UNL A   1      41.444  28.634  31.064  1.00  0.00     0.049 A 
ATOM     55  C   UNL A   1      40.842  31.983  35.488  1.00  0.00     0.074 A 
ATOM     56  C   UNL A   1      42.461  27.698  31.117  1.00  0.00     0.029 A 
ATOM     57  N   UNL A   1      41.459  29.314  32.271  1.00  0.00    -0.354 N 
ATOM     58  N   UNL A   1      41.125  31.141  34.525  1.00  0.00    -0.248 NA
ATOM     59  C   UNL A   1      41.599  31.740  36.728  1.00  0.00     0.031 C 
ATOM     60  C   UNL A   1      43.051  27.768  32.383  1.00  0.00     0.029 A 
ATOM     61  C   UNL A   1      42.438  28.786  33.095  1.00  0.00     0.049 A 
ATOM     62  H   UNL A   1      40.861  30.060  32.508  1.00  0.00     0.167 HD
ATOM     63  C   UNL A   1      42.103  30.291  35.030  1.00  0.00     0.074 A 
ATOM     64  C   UNL A   1      42.382  30.728  36.379  1.00  0.00     0.031 C 
ATOM     65  C   UNL A   1      42.711  29.238  34.433  1.00  0.00     0.037 A 
BRANCH  52  66
ATOM     66  C   UNL A   1      40.567  27.978  28.804  1.00  0.00     0.064 A 
ATOM     67  C   UNL A   1      39.815  26.797  28.741  1.00  0.00     0.173 A 
ATOM     68  C   UNL A   1      41.327  28.339  27.682  1.00  0.00     0.173 A 
ATOM     69  F   UNL A   1      39.087  26.401  29.796  1.00  0.00    -0.203 F 
ATOM     70  C   UNL A   1      39.826  26.006  27.594  1.00  0.00     0.198 A 
ATOM     71  C   UNL A   1      41.315  27.560  26.530  1.00  0.00     0.198 A 
ATOM     72  F   UNL A   1      42.064  29.460  27.697  1.00  0.00    -0.203 F 
ATOM     73  F   UNL A   1      39.121  24.868  27.561  1.00  0.00    -0.200 F 
ATOM     74  C   UNL A   1      40.567  26.395  26.487  1.00  0.00     0.200 A 
ATOM     75  F   UNL A   1      42.022  27.944  25.457  1.00  0.00    -0.200 F 
ATOM     76  F   UNL A   1      40.559  25.643  25.377  1.00  0.00    -0.200 F 
ENDBRANCH  52  66
BRANCH  53  77
ATOM     77  C   UNL A   1      39.692  33.950  36.735  1.00  0.00     0.064 A 
ATOM     78  C   UNL A   1      38.873  33.518  37.789  1.00  0.00     0.173 A 
ATOM     79  C   UNL A   1      40.280  35.219  36.852  1.00  0.00     0.173 A 
ATOM     80  F   UNL A   1      38.258  32.328  37.713  1.00  0.00    -0.203 F 
ATOM     81  C   UNL A   1      38.624  34.333  38.893  1.00  0.00     0.198 A 
ATOM     82  C   UNL A   1      40.058  36.019  37.971  1.00  0.00     0.198 A 
ATOM     83  F   UNL A   1      41.064  35.691  35.871  1.00  0.00    -0.203 F 
ATOM     84  F   UNL A   1      37.781  33.923  39.850  1.00  0.00    -0.200 F 
ATOM     85  C   UNL A   1      39.219  35.583  38.985  1.00  0.00     0.200 A 
ATOM     86  F   UNL A   1      40.644  37.221  38.059  1.00  0.00    -0.200 F 
ATOM     87  F   UNL A   1      38.973  36.369  40.040  1.00  0.00    -0.200 F 
ENDBRANCH  53  77
BRANCH  65  88
ATOM     88  C   UNL A   1      43.755  28.494  35.216  1.00  0.00     0.064 A 
ATOM     89  C   UNL A   1      43.417  27.430  36.064  1.00  0.00     0.173 A 
ATOM     90  C   UNL A   1      45.116  28.804  35.064  1.00  0.00     0.173 A 
ATOM     91  F   UNL A   1      42.130  27.102  36.254  1.00  0.00    -0.203 F 
ATOM     92  C   UNL A   1      44.401  26.714  36.743  1.00  0.00     0.198 A 
ATOM     93  C   UNL A   1      46.099  28.066  35.719  1.00  0.00     0.198 A 
ATOM     94  F   UNL A   1      45.495  29.807  34.257  1.00  0.00    -0.203 F 
ATOM     95  F   UNL A   1      44.051  25.725  37.577  1.00  0.00    -0.200 F 
ATOM     96  C   UNL A   1      45.740  27.026  36.562  1.00  0.00     0.200 A 
ATOM     97  F   UNL A   1      47.393  28.359  35.530  1.00  0.00    -0.200 F 
ATOM     98  F   UNL A   1      46.686  26.326  37.204  1.00  0.00    -0.200 F 
ENDBRANCH  65  88
ENDBRANCH  39  40
ENDBRANCH  32  34
ENDBRANCH  31  32
ENDBRANCH  30  31
ENDBRANCH  29  30
ENDBRANCH  28  29
ENDBRANCH  27  28
ENDBRANCH   1  27
TORSDOF 21
ENDMDL
