MODEL 1
REMARK VINA RESULT:     -10.4      0.000      0.000
REMARK SMILES Nc1c(N2CCCC2)ncnc1N1CCC(C(=O)OCCOCCOCCOCCOC(=O)c2ccc(-c3c4nc(c(-c5c(F)c(F)c(F)c(F)c5F)c5ccc([nH]5)c(-c5c(F)c(F)c(F)c(F)c5F)c5nc(c(-c6c(F)c(F)c(F)c(F)c6F)c6ccc3[nH]6)C=C5)C=C4)cc2)CC1
REMARK SMILES IDX 25 1 24 2 23 3 22 4 21 5 20 6 19 7 17 8 18 9 16 10 13 11
REMARK SMILES IDX 14 12 98 13 15 14 97 15 12 16 2 17 3 18 9 19 11 20 10 21
REMARK SMILES IDX 1 22 4 25 5 26 8 27 6 28 7 29 26 30 27 31 28 32 29 33 30 34
REMARK SMILES IDX 31 35 32 36 33 37 34 38 35 39 96 40 36 41 95 42 37 43 38 44
REMARK SMILES IDX 39 45 89 46 40 47 94 48 88 49 90 50 41 51 93 52 87 53 86 54
REMARK SMILES IDX 42 56 74 57 54 58 73 59 55 60 58 61 72 62 91 63 56 64 57 65
REMARK SMILES IDX 71 67 92 68 59 69 43 70 44 71 52 72 45 73 46 74 50 75 53 76
REMARK SMILES IDX 47 77 48 78 51 79 49 80 75 81 76 82 84 83 77 84 78 85 82 86
REMARK SMILES IDX 85 87 79 88 80 89 83 90 81 91 60 92 61 93 69 94 62 95 63 96
REMARK SMILES IDX 67 97 70 98 64 99 65 100 68 101 66 102
REMARK H PARENT 1 23 1 24 90 55 58 66
REMARK Flexibility Score: inf
ROOT
ATOM      1  O   UNL A   1      39.463  21.393  26.722  1.00  0.00    -0.377 OA
ENDROOT
BRANCH   1   2
ATOM      2  C   UNL A   1      39.247  22.739  26.351  1.00  0.00     0.188 C 
BRANCH   2   3
ATOM      3  C   UNL A   1      37.894  23.036  25.699  1.00  0.00     0.188 C 
BRANCH   3   4
ATOM      4  O   UNL A   1      36.764  22.220  25.951  1.00  0.00    -0.376 OA
BRANCH   4   5
ATOM      5  C   UNL A   1      36.360  21.203  25.047  1.00  0.00     0.202 C 
BRANCH   5   6
ATOM      6  C   UNL A   1      34.929  20.641  24.995  1.00  0.00     0.261 C 
BRANCH   6   7
ATOM      7  O   UNL A   1      33.915  21.491  24.437  1.00  0.00    -0.463 OA
BRANCH   7   8
ATOM      8  C   UNL A   1      33.307  22.316  25.314  1.00  0.00     0.309 C 
ATOM      9  O   UNL A   1      32.833  21.959  26.389  1.00  0.00    -0.252 OA
BRANCH   8  10
ATOM     10  C   UNL A   1      33.193  23.751  24.854  1.00  0.00     0.103 C 
ATOM     11  N   UNL A   1      32.125  26.313  24.257  1.00  0.00    -0.355 N 
ATOM     12  C   UNL A   1      32.798  25.582  23.205  1.00  0.00     0.119 C 
ATOM     13  C   UNL A   1      32.380  25.970  25.651  1.00  0.00     0.119 C 
ATOM     14  C   UNL A   1      32.690  24.081  23.443  1.00  0.00     0.037 C 
ATOM     15  C   UNL A   1      32.300  24.470  25.864  1.00  0.00     0.037 C 
BRANCH  11  16
ATOM     16  C   UNL A   1      30.910  26.915  23.930  1.00  0.00     0.157 A 
ATOM     17  C   UNL A   1      30.911  28.272  23.579  1.00  0.00     0.118 A 
ATOM     18  C   UNL A   1      29.669  28.835  23.264  1.00  0.00     0.157 A 
ATOM     19  N   UNL A   1      28.531  28.123  23.356  1.00  0.00    -0.217 NA
ATOM     20  N   UNL A   1      29.790  26.174  23.955  1.00  0.00    -0.217 NA
ATOM     21  C   UNL A   1      28.656  26.827  23.674  1.00  0.00     0.226 A 
BRANCH  17  22
ATOM     22  N   UNL A   1      32.125  28.984  23.522  1.00  0.00    -0.393 N 
ATOM     23  H   UNL A   1      32.242  29.707  22.863  1.00  0.00     0.156 HD
ATOM     24  H   UNL A   1      32.858  28.759  24.140  1.00  0.00     0.156 HD
ENDBRANCH  17  22
BRANCH  18  25
ATOM     25  N   UNL A   1      29.537  30.153  22.872  1.00  0.00    -0.355 N 
ATOM     26  C   UNL A   1      29.114  31.207  23.782  1.00  0.00     0.118 C 
ATOM     27  C   UNL A   1      29.080  30.380  21.511  1.00  0.00     0.118 C 
ATOM     28  C   UNL A   1      27.960  31.869  23.037  1.00  0.00     0.023 C 
ATOM     29  C   UNL A   1      28.385  31.742  21.579  1.00  0.00     0.023 C 
ENDBRANCH  18  25
ENDBRANCH  11  16
ENDBRANCH   8  10
ENDBRANCH   7   8
ENDBRANCH   6   7
ENDBRANCH   5   6
ENDBRANCH   4   5
ENDBRANCH   3   4
ENDBRANCH   2   3
ENDBRANCH   1   2
BRANCH   1  30
ATOM     30  C   UNL A   1      40.772  21.022  27.142  1.00  0.00     0.188 C 
BRANCH  30  31
ATOM     31  C   UNL A   1      41.492  19.881  26.395  1.00  0.00     0.188 C 
BRANCH  31  32
ATOM     32  O   UNL A   1      42.629  20.298  25.655  1.00  0.00    -0.376 OA
BRANCH  32  33
ATOM     33  C   UNL A   1      43.187  21.579  25.910  1.00  0.00     0.202 C 
BRANCH  33  34
ATOM     34  C   UNL A   1      43.390  22.538  24.724  1.00  0.00     0.261 C 
BRANCH  34  35
ATOM     35  O   UNL A   1      43.173  23.937  24.974  1.00  0.00    -0.460 OA
BRANCH  35  36
ATOM     36  C   UNL A   1      44.233  24.712  25.275  1.00  0.00     0.338 C 
ATOM     37  O   UNL A   1      45.215  24.925  24.585  1.00  0.00    -0.246 OA
BRANCH  36  38
ATOM     38  C   UNL A   1      43.911  25.441  26.520  1.00  0.00     0.060 A 
ATOM     39  C   UNL A   1      43.026  24.857  27.436  1.00  0.00     0.016 A 
ATOM     40  C   UNL A   1      44.477  26.690  26.783  1.00  0.00     0.016 A 
ATOM     41  C   UNL A   1      42.678  25.536  28.602  1.00  0.00     0.010 A 
ATOM     42  C   UNL A   1      44.105  27.384  27.938  1.00  0.00     0.010 A 
ATOM     43  C   UNL A   1      43.176  26.825  28.833  1.00  0.00    -0.014 A 
BRANCH  43  44
ATOM     44  C   UNL A   1      42.550  27.668  29.880  1.00  0.00     0.031 A 
ATOM     45  C   UNL A   1      43.235  27.759  31.216  1.00  0.00     0.074 A 
ATOM     46  C   UNL A   1      41.433  28.377  29.642  1.00  0.00     0.049 A 
ATOM     47  N   UNL A   1      42.875  28.402  32.296  1.00  0.00    -0.248 NA
ATOM     48  C   UNL A   1      44.505  27.026  31.348  1.00  0.00     0.031 C 
ATOM     49  C   UNL A   1      40.717  28.424  28.370  1.00  0.00     0.029 A 
ATOM     50  N   UNL A   1      40.707  29.196  30.470  1.00  0.00    -0.354 N 
ATOM     51  C   UNL A   1      43.872  28.156  33.229  1.00  0.00     0.074 A 
ATOM     52  C   UNL A   1      44.834  27.274  32.605  1.00  0.00     0.031 C 
ATOM     53  C   UNL A   1      39.650  29.232  28.503  1.00  0.00     0.029 A 
ATOM     54  C   UNL A   1      39.589  29.728  29.877  1.00  0.00     0.049 A 
ATOM     55  H   UNL A   1      40.964  29.386  31.402  1.00  0.00     0.167 HD
ATOM     56  C   UNL A   1      43.985  28.636  34.489  1.00  0.00     0.037 A 
ATOM     57  C   UNL A   1      38.622  30.513  30.395  1.00  0.00     0.037 A 
ATOM     58  C   UNL A   1      43.023  29.506  35.110  1.00  0.00     0.049 A 
ATOM     59  C   UNL A   1      38.710  30.942  31.838  1.00  0.00     0.074 A 
ATOM     60  C   UNL A   1      43.039  30.035  36.387  1.00  0.00     0.029 A 
ATOM     61  N   UNL A   1      41.867  29.969  34.497  1.00  0.00    -0.354 N 
ATOM     62  N   UNL A   1      39.656  30.708  32.716  1.00  0.00    -0.248 NA
ATOM     63  C   UNL A   1      37.594  31.744  32.364  1.00  0.00     0.031 C 
ATOM     64  C   UNL A   1      41.866  30.773  36.567  1.00  0.00     0.029 A 
ATOM     65  C   UNL A   1      41.149  30.757  35.382  1.00  0.00     0.049 A 
ATOM     66  H   UNL A   1      41.597  29.766  33.573  1.00  0.00     0.167 HD
ATOM     67  C   UNL A   1      39.266  31.356  33.883  1.00  0.00     0.074 A 
ATOM     68  C   UNL A   1      38.004  32.004  33.598  1.00  0.00     0.031 C 
ATOM     69  C   UNL A   1      39.898  31.408  35.082  1.00  0.00     0.037 A 
BRANCH  56  70
ATOM     70  C   UNL A   1      45.185  28.222  35.288  1.00  0.00     0.064 A 
ATOM     71  C   UNL A   1      46.353  28.999  35.316  1.00  0.00     0.173 A 
ATOM     72  C   UNL A   1      45.149  27.063  36.077  1.00  0.00     0.173 A 
ATOM     73  F   UNL A   1      46.446  30.107  34.565  1.00  0.00    -0.203 F 
ATOM     74  C   UNL A   1      47.445  28.624  36.095  1.00  0.00     0.198 A 
ATOM     75  C   UNL A   1      46.231  26.708  36.878  1.00  0.00     0.198 A 
ATOM     76  F   UNL A   1      44.057  26.284  36.086  1.00  0.00    -0.203 F 
ATOM     77  F   UNL A   1      48.563  29.361  36.076  1.00  0.00    -0.200 F 
ATOM     78  C   UNL A   1      47.379  27.485  36.883  1.00  0.00     0.200 A 
ATOM     79  F   UNL A   1      46.159  25.614  37.650  1.00  0.00    -0.200 F 
ATOM     80  F   UNL A   1      48.423  27.135  37.646  1.00  0.00    -0.200 F 
ENDBRANCH  56  70
BRANCH  57  81
ATOM     81  C   UNL A   1      37.485  30.949  29.539  1.00  0.00     0.064 A 
ATOM     82  C   UNL A   1      36.446  30.065  29.215  1.00  0.00     0.173 A 
ATOM     83  C   UNL A   1      37.412  32.254  29.029  1.00  0.00     0.173 A 
ATOM     84  F   UNL A   1      36.484  28.798  29.652  1.00  0.00    -0.203 F 
ATOM     85  C   UNL A   1      35.382  30.468  28.410  1.00  0.00     0.198 A 
ATOM     86  C   UNL A   1      36.332  32.664  28.249  1.00  0.00     0.198 A 
ATOM     87  F   UNL A   1      38.383  33.138  29.302  1.00  0.00    -0.203 F 
ATOM     88  F   UNL A   1      34.423  29.591  28.084  1.00  0.00    -0.200 F 
ATOM     89  C   UNL A   1      35.320  31.769  27.936  1.00  0.00     0.200 A 
ATOM     90  F   UNL A   1      36.272  33.926  27.801  1.00  0.00    -0.200 F 
ATOM     91  F   UNL A   1      34.292  32.159  27.171  1.00  0.00    -0.200 F 
ENDBRANCH  57  81
BRANCH  69  92
ATOM     92  C   UNL A   1      39.263  32.214  36.179  1.00  0.00     0.064 A 
ATOM     93  C   UNL A   1      38.305  31.659  37.040  1.00  0.00     0.173 A 
ATOM     94  C   UNL A   1      39.684  33.530  36.427  1.00  0.00     0.173 A 
ATOM     95  F   UNL A   1      37.861  30.409  36.840  1.00  0.00    -0.203 F 
ATOM     96  C   UNL A   1      37.783  32.397  38.099  1.00  0.00     0.198 A 
ATOM     97  C   UNL A   1      39.185  34.252  37.507  1.00  0.00     0.198 A 
ATOM     98  F   UNL A   1      40.607  34.105  35.641  1.00  0.00    -0.203 F 
ATOM     99  F   UNL A   1      36.843  31.859  38.888  1.00  0.00    -0.200 F 
ATOM    100  C   UNL A   1      38.231  33.687  38.339  1.00  0.00     0.200 A 
ATOM    101  F   UNL A   1      39.636  35.492  37.749  1.00  0.00    -0.200 F 
ATOM    102  F   UNL A   1      37.743  34.387  39.372  1.00  0.00    -0.200 F 
ENDBRANCH  69  92
ENDBRANCH  43  44
ENDBRANCH  36  38
ENDBRANCH  35  36
ENDBRANCH  34  35
ENDBRANCH  33  34
ENDBRANCH  32  33
ENDBRANCH  31  32
ENDBRANCH  30  31
ENDBRANCH   1  30
TORSDOF 23
ENDMDL
MODEL 2
REMARK VINA RESULT:     -10.3      4.016      9.483
REMARK SMILES Nc1c(N2CCCC2)ncnc1N1CCC(C(=O)OCCOCCOCCOCCOC(=O)c2ccc(-c3c4nc(c(-c5c(F)c(F)c(F)c(F)c5F)c5ccc([nH]5)c(-c5c(F)c(F)c(F)c(F)c5F)c5nc(c(-c6c(F)c(F)c(F)c(F)c6F)c6ccc3[nH]6)C=C5)C=C4)cc2)CC1
REMARK SMILES IDX 25 1 24 2 23 3 22 4 21 5 20 6 19 7 17 8 18 9 16 10 13 11
REMARK SMILES IDX 14 12 98 13 15 14 97 15 12 16 2 17 3 18 9 19 11 20 10 21
REMARK SMILES IDX 1 22 4 25 5 26 8 27 6 28 7 29 26 30 27 31 28 32 29 33 30 34
REMARK SMILES IDX 31 35 32 36 33 37 34 38 35 39 96 40 36 41 95 42 37 43 38 44
REMARK SMILES IDX 39 45 89 46 40 47 94 48 88 49 90 50 41 51 93 52 87 53 86 54
REMARK SMILES IDX 42 56 74 57 54 58 73 59 55 60 58 61 72 62 91 63 56 64 57 65
REMARK SMILES IDX 71 67 92 68 59 69 43 70 44 71 52 72 45 73 46 74 50 75 53 76
REMARK SMILES IDX 47 77 48 78 51 79 49 80 75 81 76 82 84 83 77 84 78 85 82 86
REMARK SMILES IDX 85 87 79 88 80 89 83 90 81 91 60 92 61 93 69 94 62 95 63 96
REMARK SMILES IDX 67 97 70 98 64 99 65 100 68 101 66 102
REMARK H PARENT 1 23 1 24 90 55 58 66
REMARK Flexibility Score: inf
ROOT
ATOM      1  O   UNL A   1      34.407  31.741  27.882  1.00  0.00    -0.377 OA
ENDROOT
BRANCH   1   2
ATOM      2  C   UNL A   1      34.700  30.392  27.582  1.00  0.00     0.188 C 
BRANCH   2   3
ATOM      3  C   UNL A   1      33.530  29.564  27.045  1.00  0.00     0.188 C 
BRANCH   3   4
ATOM      4  O   UNL A   1      33.635  28.160  26.890  1.00  0.00    -0.376 OA
BRANCH   4   5
ATOM      5  C   UNL A   1      32.569  27.384  26.365  1.00  0.00     0.202 C 
BRANCH   5   6
ATOM      6  C   UNL A   1      31.572  27.915  25.322  1.00  0.00     0.261 C 
BRANCH   6   7
ATOM      7  O   UNL A   1      31.983  27.869  23.947  1.00  0.00    -0.463 OA
BRANCH   7   8
ATOM      8  C   UNL A   1      31.117  27.265  23.106  1.00  0.00     0.309 C 
ATOM      9  O   UNL A   1      30.094  27.787  22.670  1.00  0.00    -0.252 OA
BRANCH   8  10
ATOM     10  C   UNL A   1      31.468  25.837  22.760  1.00  0.00     0.103 C 
ATOM     11  N   UNL A   1      32.047  23.068  23.010  1.00  0.00    -0.355 N 
ATOM     12  C   UNL A   1      33.001  23.915  22.328  1.00  0.00     0.119 C 
ATOM     13  C   UNL A   1      30.664  23.508  23.152  1.00  0.00     0.119 C 
ATOM     14  C   UNL A   1      32.918  25.345  22.851  1.00  0.00     0.037 C 
ATOM     15  C   UNL A   1      30.599  24.942  23.644  1.00  0.00     0.037 C 
BRANCH  11  16
ATOM     16  C   UNL A   1      32.558  22.163  23.940  1.00  0.00     0.157 A 
ATOM     17  C   UNL A   1      32.530  20.796  23.625  1.00  0.00     0.118 A 
ATOM     18  C   UNL A   1      33.049  19.924  24.588  1.00  0.00     0.157 A 
ATOM     19  N   UNL A   1      33.489  20.374  25.778  1.00  0.00    -0.217 NA
ATOM     20  N   UNL A   1      33.062  22.630  25.093  1.00  0.00    -0.217 NA
ATOM     21  C   UNL A   1      33.493  21.702  25.956  1.00  0.00     0.226 A 
BRANCH  17  22
ATOM     22  N   UNL A   1      32.034  20.371  22.376  1.00  0.00    -0.393 N 
ATOM     23  H   UNL A   1      32.126  19.429  22.105  1.00  0.00     0.156 HD
ATOM     24  H   UNL A   1      31.595  21.016  21.776  1.00  0.00     0.156 HD
ENDBRANCH  17  22
BRANCH  18  25
ATOM     25  N   UNL A   1      33.108  18.559  24.389  1.00  0.00    -0.355 N 
ATOM     26  C   UNL A   1      32.163  17.632  24.991  1.00  0.00     0.118 C 
ATOM     27  C   UNL A   1      34.436  17.983  24.250  1.00  0.00     0.118 C 
ATOM     28  C   UNL A   1      33.064  16.607  25.673  1.00  0.00     0.023 C 
ATOM     29  C   UNL A   1      34.265  16.543  24.737  1.00  0.00     0.023 C 
ENDBRANCH  18  25
ENDBRANCH  11  16
ENDBRANCH   8  10
ENDBRANCH   7   8
ENDBRANCH   6   7
ENDBRANCH   5   6
ENDBRANCH   4   5
ENDBRANCH   3   4
ENDBRANCH   2   3
ENDBRANCH   1   2
BRANCH   1  30
ATOM     30  C   UNL A   1      35.405  32.504  28.555  1.00  0.00     0.188 C 
BRANCH  30  31
ATOM     31  C   UNL A   1      35.021  33.885  29.121  1.00  0.00     0.188 C 
BRANCH  31  32
ATOM     32  O   UNL A   1      34.588  34.816  28.140  1.00  0.00    -0.376 OA
BRANCH  32  33
ATOM     33  C   UNL A   1      34.049  36.061  28.560  1.00  0.00     0.202 C 
BRANCH  33  34
ATOM     34  C   UNL A   1      32.874  36.052  29.553  1.00  0.00     0.261 C 
BRANCH  34  35
ATOM     35  O   UNL A   1      33.167  36.416  30.912  1.00  0.00    -0.460 OA
BRANCH  35  36
ATOM     36  C   UNL A   1      32.719  35.624  31.905  1.00  0.00     0.338 C 
ATOM     37  O   UNL A   1      31.560  35.347  32.166  1.00  0.00    -0.246 OA
BRANCH  36  38
ATOM     38  C   UNL A   1      33.894  34.965  32.513  1.00  0.00     0.060 A 
ATOM     39  C   UNL A   1      35.133  35.618  32.468  1.00  0.00     0.016 A 
ATOM     40  C   UNL A   1      33.775  33.716  33.125  1.00  0.00     0.016 A 
ATOM     41  C   UNL A   1      36.265  35.007  33.004  1.00  0.00     0.010 A 
ATOM     42  C   UNL A   1      34.917  33.090  33.636  1.00  0.00     0.010 A 
ATOM     43  C   UNL A   1      36.171  33.717  33.544  1.00  0.00    -0.014 A 
BRANCH  43  44
ATOM     44  C   UNL A   1      37.411  32.944  33.795  1.00  0.00     0.031 A 
ATOM     45  C   UNL A   1      38.159  33.208  35.073  1.00  0.00     0.074 A 
ATOM     46  C   UNL A   1      37.838  31.997  32.944  1.00  0.00     0.049 A 
ATOM     47  N   UNL A   1      39.278  32.687  35.508  1.00  0.00    -0.248 NA
ATOM     48  C   UNL A   1      37.560  34.193  35.989  1.00  0.00     0.031 C 
ATOM     49  C   UNL A   1      37.164  31.603  31.710  1.00  0.00     0.029 A 
ATOM     50  N   UNL A   1      38.949  31.191  32.994  1.00  0.00    -0.354 N 
ATOM     51  C   UNL A   1      39.510  33.275  36.744  1.00  0.00     0.074 A 
ATOM     52  C   UNL A   1      38.440  34.221  36.976  1.00  0.00     0.031 C 
ATOM     53  C   UNL A   1      37.877  30.630  31.117  1.00  0.00     0.029 A 
ATOM     54  C   UNL A   1      39.075  30.358  31.911  1.00  0.00     0.049 A 
ATOM     55  H   UNL A   1      39.594  31.209  33.738  1.00  0.00     0.167 HD
ATOM     56  C   UNL A   1      40.516  33.035  37.616  1.00  0.00     0.037 A 
ATOM     57  C   UNL A   1      40.056  29.488  31.594  1.00  0.00     0.037 A 
ATOM     58  C   UNL A   1      41.583  32.101  37.378  1.00  0.00     0.049 A 
ATOM     59  C   UNL A   1      41.228  29.322  32.528  1.00  0.00     0.074 A 
ATOM     60  C   UNL A   1      42.658  31.797  38.193  1.00  0.00     0.029 A 
ATOM     61  N   UNL A   1      41.711  31.323  36.237  1.00  0.00    -0.354 N 
ATOM     62  N   UNL A   1      41.443  29.879  33.697  1.00  0.00    -0.248 NA
ATOM     63  C   UNL A   1      42.297  28.406  32.100  1.00  0.00     0.031 C 
ATOM     64  C   UNL A   1      43.467  30.876  37.521  1.00  0.00     0.029 A 
ATOM     65  C   UNL A   1      42.864  30.558  36.315  1.00  0.00     0.049 A 
ATOM     66  H   UNL A   1      41.078  31.316  35.483  1.00  0.00     0.167 HD
ATOM     67  C   UNL A   1      42.650  29.361  34.154  1.00  0.00     0.074 A 
ATOM     68  C   UNL A   1      43.115  28.436  33.143  1.00  0.00     0.031 C 
ATOM     69  C   UNL A   1      43.311  29.630  35.307  1.00  0.00     0.037 A 
BRANCH  56  70
ATOM     70  C   UNL A   1      40.521  33.805  38.903  1.00  0.00     0.064 A 
ATOM     71  C   UNL A   1      41.293  34.965  39.062  1.00  0.00     0.173 A 
ATOM     72  C   UNL A   1      39.704  33.409  39.972  1.00  0.00     0.173 A 
ATOM     73  F   UNL A   1      42.106  35.376  38.076  1.00  0.00    -0.203 F 
ATOM     74  C   UNL A   1      41.257  35.693  40.248  1.00  0.00     0.198 A 
ATOM     75  C   UNL A   1      39.647  34.156  41.145  1.00  0.00     0.198 A 
ATOM     76  F   UNL A   1      38.946  32.306  39.873  1.00  0.00    -0.203 F 
ATOM     77  F   UNL A   1      42.032  36.777  40.391  1.00  0.00    -0.200 F 
ATOM     78  C   UNL A   1      40.426  35.294  41.285  1.00  0.00     0.200 A 
ATOM     79  F   UNL A   1      38.832  33.777  42.140  1.00  0.00    -0.200 F 
ATOM     80  F   UNL A   1      40.379  36.006  42.419  1.00  0.00    -0.200 F 
ENDBRANCH  56  70
BRANCH  57  81
ATOM     81  C   UNL A   1      39.970  28.701  30.334  1.00  0.00     0.064 A 
ATOM     82  C   UNL A   1      40.524  29.186  29.142  1.00  0.00     0.173 A 
ATOM     83  C   UNL A   1      39.334  27.451  30.294  1.00  0.00     0.173 A 
ATOM     84  F   UNL A   1      41.116  30.389  29.120  1.00  0.00    -0.203 F 
ATOM     85  C   UNL A   1      40.441  28.455  27.958  1.00  0.00     0.198 A 
ATOM     86  C   UNL A   1      39.278  26.707  29.117  1.00  0.00     0.198 A 
ATOM     87  F   UNL A   1      38.779  26.943  31.405  1.00  0.00    -0.203 F 
ATOM     88  F   UNL A   1      40.946  28.960  26.825  1.00  0.00    -0.200 F 
ATOM     89  C   UNL A   1      39.827  27.212  27.948  1.00  0.00     0.200 A 
ATOM     90  F   UNL A   1      38.692  25.502  29.115  1.00  0.00    -0.200 F 
ATOM     91  F   UNL A   1      39.758  26.504  26.813  1.00  0.00    -0.200 F 
ENDBRANCH  57  81
BRANCH  69  92
ATOM     92  C   UNL A   1      44.597  28.899  35.568  1.00  0.00     0.064 A 
ATOM     93  C   UNL A   1      45.838  29.435  35.194  1.00  0.00     0.173 A 
ATOM     94  C   UNL A   1      44.593  27.690  36.282  1.00  0.00     0.173 A 
ATOM     95  F   UNL A   1      45.896  30.582  34.501  1.00  0.00    -0.203 F 
ATOM     96  C   UNL A   1      47.025  28.780  35.512  1.00  0.00     0.198 A 
ATOM     97  C   UNL A   1      45.784  27.056  36.628  1.00  0.00     0.198 A 
ATOM     98  F   UNL A   1      43.434  27.139  36.675  1.00  0.00    -0.203 F 
ATOM     99  F   UNL A   1      48.197  29.293  35.113  1.00  0.00    -0.200 F 
ATOM    100  C   UNL A   1      46.998  27.599  36.238  1.00  0.00     0.200 A 
ATOM    101  F   UNL A   1      45.755  25.926  37.348  1.00  0.00    -0.200 F 
ATOM    102  F   UNL A   1      48.143  26.983  36.562  1.00  0.00    -0.200 F 
ENDBRANCH  69  92
ENDBRANCH  43  44
ENDBRANCH  36  38
ENDBRANCH  35  36
ENDBRANCH  34  35
ENDBRANCH  33  34
ENDBRANCH  32  33
ENDBRANCH  31  32
ENDBRANCH  30  31
ENDBRANCH   1  30
TORSDOF 23
ENDMDL
MODEL 3
REMARK VINA RESULT:     -10.3      4.110     10.345
REMARK SMILES Nc1c(N2CCCC2)ncnc1N1CCC(C(=O)OCCOCCOCCOCCOC(=O)c2ccc(-c3c4nc(c(-c5c(F)c(F)c(F)c(F)c5F)c5ccc([nH]5)c(-c5c(F)c(F)c(F)c(F)c5F)c5nc(c(-c6c(F)c(F)c(F)c(F)c6F)c6ccc3[nH]6)C=C5)C=C4)cc2)CC1
REMARK SMILES IDX 25 1 24 2 23 3 22 4 21 5 20 6 19 7 17 8 18 9 16 10 13 11
REMARK SMILES IDX 14 12 98 13 15 14 97 15 12 16 2 17 3 18 9 19 11 20 10 21
REMARK SMILES IDX 1 22 4 25 5 26 8 27 6 28 7 29 26 30 27 31 28 32 29 33 30 34
REMARK SMILES IDX 31 35 32 36 33 37 34 38 35 39 96 40 36 41 95 42 37 43 38 44
REMARK SMILES IDX 39 45 89 46 40 47 94 48 88 49 90 50 41 51 93 52 87 53 86 54
REMARK SMILES IDX 42 56 74 57 54 58 73 59 55 60 58 61 72 62 91 63 56 64 57 65
REMARK SMILES IDX 71 67 92 68 59 69 43 70 44 71 52 72 45 73 46 74 50 75 53 76
REMARK SMILES IDX 47 77 48 78 51 79 49 80 75 81 76 82 84 83 77 84 78 85 82 86
REMARK SMILES IDX 85 87 79 88 80 89 83 90 81 91 60 92 61 93 69 94 62 95 63 96
REMARK SMILES IDX 67 97 70 98 64 99 65 100 68 101 66 102
REMARK H PARENT 1 23 1 24 90 55 58 66
REMARK Flexibility Score: inf
ROOT
ATOM      1  O   UNL A   1      34.011  32.138  27.655  1.00  0.00    -0.377 OA
ENDROOT
BRANCH   1   2
ATOM      2  C   UNL A   1      34.003  30.732  27.524  1.00  0.00     0.188 C 
BRANCH   2   3
ATOM      3  C   UNL A   1      32.663  30.113  27.118  1.00  0.00     0.188 C 
BRANCH   3   4
ATOM      4  O   UNL A   1      32.491  28.708  27.066  1.00  0.00    -0.376 OA
BRANCH   4   5
ATOM      5  C   UNL A   1      31.746  28.084  26.031  1.00  0.00     0.202 C 
BRANCH   5   6
ATOM      6  C   UNL A   1      31.695  28.616  24.589  1.00  0.00     0.261 C 
BRANCH   6   7
ATOM      7  O   UNL A   1      32.260  27.781  23.566  1.00  0.00    -0.463 OA
BRANCH   7   8
ATOM      8  C   UNL A   1      31.370  27.229  22.715  1.00  0.00     0.309 C 
ATOM      9  O   UNL A   1      30.430  27.833  22.206  1.00  0.00    -0.252 OA
BRANCH   8  10
ATOM     10  C   UNL A   1      31.576  25.755  22.458  1.00  0.00     0.103 C 
ATOM     11  N   UNL A   1      32.018  22.981  22.878  1.00  0.00    -0.355 N 
ATOM     12  C   UNL A   1      32.906  23.696  21.986  1.00  0.00     0.119 C 
ATOM     13  C   UNL A   1      30.702  23.533  23.180  1.00  0.00     0.119 C 
ATOM     14  C   UNL A   1      32.990  25.166  22.380  1.00  0.00     0.037 C 
ATOM     15  C   UNL A   1      30.800  25.004  23.540  1.00  0.00     0.037 C 
BRANCH  11  16
ATOM     16  C   UNL A   1      32.609  22.121  23.802  1.00  0.00     0.157 A 
ATOM     17  C   UNL A   1      32.578  20.743  23.546  1.00  0.00     0.118 A 
ATOM     18  C   UNL A   1      33.179  19.918  24.503  1.00  0.00     0.157 A 
ATOM     19  N   UNL A   1      33.700  20.421  25.637  1.00  0.00    -0.217 NA
ATOM     20  N   UNL A   1      33.190  22.642  24.895  1.00  0.00    -0.217 NA
ATOM     21  C   UNL A   1      33.698  21.755  25.761  1.00  0.00     0.226 A 
BRANCH  17  22
ATOM     22  N   UNL A   1      31.998  20.260  22.357  1.00  0.00    -0.393 N 
ATOM     23  H   UNL A   1      31.783  20.884  21.625  1.00  0.00     0.156 HD
ATOM     24  H   UNL A   1      31.807  19.300  22.257  1.00  0.00     0.156 HD
ENDBRANCH  17  22
BRANCH  18  25
ATOM     25  N   UNL A   1      33.244  18.546  24.355  1.00  0.00    -0.355 N 
ATOM     26  C   UNL A   1      32.252  17.644  24.921  1.00  0.00     0.118 C 
ATOM     27  C   UNL A   1      34.575  17.961  24.331  1.00  0.00     0.118 C 
ATOM     28  C   UNL A   1      33.097  16.640  25.699  1.00  0.00     0.023 C 
ATOM     29  C   UNL A   1      34.360  16.538  24.854  1.00  0.00     0.023 C 
ENDBRANCH  18  25
ENDBRANCH  11  16
ENDBRANCH   8  10
ENDBRANCH   7   8
ENDBRANCH   6   7
ENDBRANCH   5   6
ENDBRANCH   4   5
ENDBRANCH   3   4
ENDBRANCH   2   3
ENDBRANCH   1   2
BRANCH   1  30
ATOM     30  C   UNL A   1      35.205  32.755  28.127  1.00  0.00     0.188 C 
BRANCH  30  31
ATOM     31  C   UNL A   1      35.101  34.120  28.837  1.00  0.00     0.188 C 
BRANCH  31  32
ATOM     32  O   UNL A   1      34.310  35.075  28.146  1.00  0.00    -0.376 OA
BRANCH  32  33
ATOM     33  C   UNL A   1      33.781  36.181  28.863  1.00  0.00     0.202 C 
BRANCH  33  34
ATOM     34  C   UNL A   1      32.657  35.924  29.881  1.00  0.00     0.261 C 
BRANCH  34  35
ATOM     35  O   UNL A   1      32.890  36.357  31.231  1.00  0.00    -0.460 OA
BRANCH  35  36
ATOM     36  C   UNL A   1      32.766  35.460  32.228  1.00  0.00     0.338 C 
ATOM     37  O   UNL A   1      31.745  35.140  32.814  1.00  0.00    -0.246 OA
BRANCH  36  38
ATOM     38  C   UNL A   1      34.060  34.760  32.360  1.00  0.00     0.060 A 
ATOM     39  C   UNL A   1      34.060  33.395  32.678  1.00  0.00     0.016 A 
ATOM     40  C   UNL A   1      35.264  35.441  32.172  1.00  0.00     0.016 A 
ATOM     41  C   UNL A   1      35.267  32.715  32.842  1.00  0.00     0.010 A 
ATOM     42  C   UNL A   1      36.474  34.766  32.365  1.00  0.00     0.010 A 
ATOM     43  C   UNL A   1      36.478  33.411  32.737  1.00  0.00    -0.014 A 
BRANCH  43  44
ATOM     44  C   UNL A   1      37.722  32.780  33.240  1.00  0.00     0.031 A 
ATOM     45  C   UNL A   1      38.387  31.744  32.375  1.00  0.00     0.074 A 
ATOM     46  C   UNL A   1      38.280  33.149  34.406  1.00  0.00     0.049 A 
ATOM     47  N   UNL A   1      39.460  31.032  32.603  1.00  0.00    -0.248 NA
ATOM     48  C   UNL A   1      37.755  31.480  31.072  1.00  0.00     0.031 C 
ATOM     49  C   UNL A   1      37.769  34.186  35.297  1.00  0.00     0.029 A 
ATOM     50  N   UNL A   1      39.408  32.685  35.037  1.00  0.00    -0.354 N 
ATOM     51  C   UNL A   1      39.633  30.244  31.473  1.00  0.00     0.074 A 
ATOM     52  C   UNL A   1      38.535  30.533  30.577  1.00  0.00     0.031 C 
ATOM     53  C   UNL A   1      38.581  34.280  36.364  1.00  0.00     0.029 A 
ATOM     54  C   UNL A   1      39.647  33.286  36.248  1.00  0.00     0.049 A 
ATOM     55  H   UNL A   1      39.990  31.988  34.658  1.00  0.00     0.167 HD
ATOM     56  C   UNL A   1      40.628  29.368  31.200  1.00  0.00     0.037 A 
ATOM     57  C   UNL A   1      40.610  33.045  37.161  1.00  0.00     0.037 A 
ATOM     58  C   UNL A   1      41.713  29.075  32.098  1.00  0.00     0.049 A 
ATOM     59  C   UNL A   1      41.643  31.982  36.885  1.00  0.00     0.074 A 
ATOM     60  C   UNL A   1      42.762  28.193  31.920  1.00  0.00     0.029 A 
ATOM     61  N   UNL A   1      41.884  29.657  33.346  1.00  0.00    -0.354 N 
ATOM     62  N   UNL A   1      41.804  31.240  35.815  1.00  0.00    -0.248 NA
ATOM     63  C   UNL A   1      42.631  31.721  37.944  1.00  0.00     0.031 C 
ATOM     64  C   UNL A   1      43.538  28.198  33.082  1.00  0.00     0.029 A 
ATOM     65  C   UNL A   1      43.008  29.131  33.960  1.00  0.00     0.049 A 
ATOM     66  H   UNL A   1      41.293  30.340  33.736  1.00  0.00     0.167 HD
ATOM     67  C   UNL A   1      42.921  30.449  36.059  1.00  0.00     0.074 A 
ATOM     68  C   UNL A   1      43.408  30.810  37.373  1.00  0.00     0.031 C 
ATOM     69  C   UNL A   1      43.490  29.509  35.265  1.00  0.00     0.037 A 
BRANCH  56  70
ATOM     70  C   UNL A   1      40.583  28.651  29.884  1.00  0.00     0.064 A 
ATOM     71  C   UNL A   1      39.810  27.494  29.704  1.00  0.00     0.173 A 
ATOM     72  C   UNL A   1      41.278  29.155  28.774  1.00  0.00     0.173 A 
ATOM     73  F   UNL A   1      39.142  26.960  30.737  1.00  0.00    -0.203 F 
ATOM     74  C   UNL A   1      39.746  26.861  28.465  1.00  0.00     0.198 A 
ATOM     75  C   UNL A   1      41.186  28.538  27.530  1.00  0.00     0.198 A 
ATOM     76  F   UNL A   1      42.032  30.259  28.893  1.00  0.00    -0.203 F 
ATOM     77  F   UNL A   1      39.032  25.736  28.326  1.00  0.00    -0.200 F 
ATOM     78  C   UNL A   1      40.425  27.389  27.377  1.00  0.00     0.200 A 
ATOM     79  F   UNL A   1      41.832  29.059  26.477  1.00  0.00    -0.200 F 
ATOM     80  F   UNL A   1      40.347  26.790  26.181  1.00  0.00    -0.200 F 
ENDBRANCH  56  70
BRANCH  57  81
ATOM     81  C   UNL A   1      40.646  33.831  38.425  1.00  0.00     0.064 A 
ATOM     82  C   UNL A   1      41.470  34.959  38.548  1.00  0.00     0.173 A 
ATOM     83  C   UNL A   1      39.862  33.474  39.532  1.00  0.00     0.173 A 
ATOM     84  F   UNL A   1      42.262  35.324  37.529  1.00  0.00    -0.203 F 
ATOM     85  C   UNL A   1      41.512  35.695  39.731  1.00  0.00     0.198 A 
ATOM     86  C   UNL A   1      39.882  34.229  40.703  1.00  0.00     0.198 A 
ATOM     87  F   UNL A   1      39.062  32.399  39.470  1.00  0.00    -0.203 F 
ATOM     88  F   UNL A   1      42.337  36.746  39.834  1.00  0.00    -0.200 F 
ATOM     89  C   UNL A   1      40.711  35.336  40.804  1.00  0.00     0.200 A 
ATOM     90  F   UNL A   1      39.099  33.883  41.734  1.00  0.00    -0.200 F 
ATOM     91  F   UNL A   1      40.742  36.050  41.936  1.00  0.00    -0.200 F 
ENDBRANCH  57  81
BRANCH  69  92
ATOM     92  C   UNL A   1      44.725  28.816  35.768  1.00  0.00     0.064 A 
ATOM     93  C   UNL A   1      44.655  27.602  36.468  1.00  0.00     0.173 A 
ATOM     94  C   UNL A   1      45.998  29.327  35.468  1.00  0.00     0.173 A 
ATOM     95  F   UNL A   1      43.463  27.076  36.789  1.00  0.00    -0.203 F 
ATOM     96  C   UNL A   1      45.812  26.935  36.859  1.00  0.00     0.198 A 
ATOM     97  C   UNL A   1      47.152  28.639  35.831  1.00  0.00     0.198 A 
ATOM     98  F   UNL A   1      46.122  30.478  34.790  1.00  0.00    -0.203 F 
ATOM     99  F   UNL A   1      45.721  25.795  37.559  1.00  0.00    -0.200 F 
ATOM    100  C   UNL A   1      47.058  27.446  36.532  1.00  0.00     0.200 A 
ATOM    101  F   UNL A   1      48.355  29.126  35.493  1.00  0.00    -0.200 F 
ATOM    102  F   UNL A   1      48.170  26.791  36.891  1.00  0.00    -0.200 F 
ENDBRANCH  69  92
ENDBRANCH  43  44
ENDBRANCH  36  38
ENDBRANCH  35  36
ENDBRANCH  34  35
ENDBRANCH  33  34
ENDBRANCH  32  33
ENDBRANCH  31  32
ENDBRANCH  30  31
ENDBRANCH   1  30
TORSDOF 23
ENDMDL
