MODEL 1
REMARK VINA RESULT:      -9.9      0.000      0.000
REMARK SMILES Cc1n[nH]cc1CNC(=O)NC[C@H](CC(C)C)C(=O)OCCOCCOCCOCCOC(=O)c1ccc(-c2c3nc(c(-c4c(F)c(F)c(F)c(F)c4F)c4ccc([nH]4)c(-c4c(F)c(F)c(F)c(F)c4F)c4nc(c(-c5c(F)c(F)c(F)c(F)c5F)c5ccc2[nH]5)C=C4)C=C3)cc1
REMARK SMILES IDX 25 1 24 2 23 3 22 4 21 5 20 6 18 7 19 8 13 9 12 10 11 11
REMARK SMILES IDX 8 12 9 13 10 15 7 17 6 18 1 19 2 20 3 21 4 22 5 23 14 25
REMARK SMILES IDX 15 26 16 27 17 28 26 29 27 30 28 31 29 32 30 33 31 34 32 35
REMARK SMILES IDX 33 36 34 37 35 38 36 39 97 40 37 41 96 42 38 43 39 44 40 45
REMARK SMILES IDX 90 46 41 47 95 48 89 49 91 50 42 51 94 52 88 53 87 54 43 56
REMARK SMILES IDX 75 57 55 58 74 59 56 60 59 61 73 62 92 63 57 64 58 65 72 67
REMARK SMILES IDX 93 68 60 69 44 70 45 71 53 72 46 73 47 74 51 75 54 76 48 77
REMARK SMILES IDX 49 78 52 79 50 80 76 81 77 82 85 83 78 84 79 85 83 86 86 87
REMARK SMILES IDX 80 88 81 89 84 90 82 91 61 92 62 93 70 94 63 95 64 96 68 97
REMARK SMILES IDX 71 98 65 99 66 100 69 101 67 102
REMARK H PARENT 8 14 11 16 4 24 91 55 59 66
REMARK Flexibility Score: inf
ROOT
ATOM      1  C   UNL A   1      33.920  31.384  27.538  1.00  0.00     0.188 C 
ENDROOT
BRANCH   1   2
ATOM      2  C   UNL A   1      33.288  30.013  27.270  1.00  0.00     0.188 C 
BRANCH   2   3
ATOM      3  O   UNL A   1      33.190  29.780  25.880  1.00  0.00    -0.376 OA
BRANCH   3   4
ATOM      4  C   UNL A   1      33.787  28.621  25.316  1.00  0.00     0.202 C 
BRANCH   4   5
ATOM      5  C   UNL A   1      33.698  27.224  25.959  1.00  0.00     0.261 C 
BRANCH   5   6
ATOM      6  O   UNL A   1      32.645  26.349  25.509  1.00  0.00    -0.463 OA
BRANCH   6   7
ATOM      7  C   UNL A   1      31.396  26.829  25.720  1.00  0.00     0.310 C 
ATOM      8  O   UNL A   1      30.951  27.070  26.843  1.00  0.00    -0.252 OA
BRANCH   7   9
ATOM      9  C   UNL A   1      30.533  27.110  24.500  1.00  0.00     0.119 C 
BRANCH   9  10
ATOM     10  C   UNL A   1      30.752  25.896  23.550  1.00  0.00     0.133 C 
BRANCH  10  11
ATOM     11  N   UNL A   1      31.941  25.920  22.727  1.00  0.00    -0.337 N 
ATOM     12  N   UNL A   1      32.410  23.649  22.293  1.00  0.00    -0.334 N 
ATOM     13  C   UNL A   1      32.611  24.955  22.083  1.00  0.00     0.315 C 
ATOM     14  H   UNL A   1      32.779  23.076  21.583  1.00  0.00     0.165 HD
ATOM     15  O   UNL A   1      33.455  25.291  21.252  1.00  0.00    -0.249 OA
ATOM     16  H   UNL A   1      32.332  26.816  22.619  1.00  0.00     0.165 HD
BRANCH  12  17
ATOM     17  C   UNL A   1      31.764  22.911  23.349  1.00  0.00     0.157 C 
BRANCH  17  18
ATOM     18  C   UNL A   1      32.625  21.833  23.886  1.00  0.00     0.012 A 
ATOM     19  C   UNL A   1      34.369  23.267  25.220  1.00  0.00     0.069 C 
ATOM     20  C   UNL A   1      33.771  22.003  24.716  1.00  0.00     0.064 A 
ATOM     21  N   UNL A   1      34.328  20.831  25.038  1.00  0.00    -0.181 NA
ATOM     22  N   UNL A   1      33.545  19.921  24.440  1.00  0.00    -0.285 N 
ATOM     23  C   UNL A   1      32.503  20.467  23.756  1.00  0.00     0.111 A 
ATOM     24  H   UNL A   1      33.708  18.952  24.491  1.00  0.00     0.189 HD
ENDBRANCH  17  18
ENDBRANCH  12  17
ENDBRANCH  10  11
ENDBRANCH   9  10
BRANCH   9  25
ATOM     25  C   UNL A   1      30.323  28.497  23.839  1.00  0.00     0.020 C 
BRANCH  25  26
ATOM     26  C   UNL A   1      29.409  28.776  22.633  1.00  0.00    -0.017 C 
ATOM     27  C   UNL A   1      27.923  28.849  22.930  1.00  0.00     0.007 C 
ATOM     28  C   UNL A   1      29.841  30.109  21.992  1.00  0.00     0.007 C 
ENDBRANCH  25  26
ENDBRANCH   9  25
ENDBRANCH   7   9
ENDBRANCH   6   7
ENDBRANCH   5   6
ENDBRANCH   4   5
ENDBRANCH   3   4
ENDBRANCH   2   3
ENDBRANCH   1   2
BRANCH   1  29
ATOM     29  O   UNL A   1      33.022  32.420  27.914  1.00  0.00    -0.377 OA
BRANCH  29  30
ATOM     30  C   UNL A   1      33.503  33.770  27.918  1.00  0.00     0.188 C 
BRANCH  30  31
ATOM     31  C   UNL A   1      34.749  34.094  28.753  1.00  0.00     0.188 C 
BRANCH  31  32
ATOM     32  O   UNL A   1      34.665  35.132  29.726  1.00  0.00    -0.376 OA
BRANCH  32  33
ATOM     33  C   UNL A   1      34.068  34.850  30.986  1.00  0.00     0.202 C 
BRANCH  33  34
ATOM     34  C   UNL A   1      35.004  34.930  32.191  1.00  0.00     0.261 C 
BRANCH  34  35
ATOM     35  O   UNL A   1      36.137  34.055  32.076  1.00  0.00    -0.460 OA
BRANCH  35  36
ATOM     36  C   UNL A   1      35.960  32.828  32.611  1.00  0.00     0.338 C 
ATOM     37  O   UNL A   1      35.144  32.497  33.461  1.00  0.00    -0.246 OA
BRANCH  36  38
ATOM     38  C   UNL A   1      36.861  31.855  31.974  1.00  0.00     0.060 A 
ATOM     39  C   UNL A   1      37.945  31.380  32.724  1.00  0.00     0.016 A 
ATOM     40  C   UNL A   1      36.736  31.532  30.620  1.00  0.00     0.016 A 
ATOM     41  C   UNL A   1      38.952  30.648  32.101  1.00  0.00     0.010 A 
ATOM     42  C   UNL A   1      37.751  30.802  29.995  1.00  0.00     0.010 A 
ATOM     43  C   UNL A   1      38.887  30.408  30.722  1.00  0.00    -0.014 A 
BRANCH  43  44
ATOM     44  C   UNL A   1      40.101  29.943  30.010  1.00  0.00     0.031 A 
ATOM     45  C   UNL A   1      41.234  30.915  29.814  1.00  0.00     0.074 A 
ATOM     46  C   UNL A   1      40.212  28.670  29.592  1.00  0.00     0.049 A 
ATOM     47  N   UNL A   1      42.375  30.753  29.195  1.00  0.00    -0.248 NA
ATOM     48  C   UNL A   1      41.055  32.254  30.400  1.00  0.00     0.031 C 
ATOM     49  C   UNL A   1      39.201  27.631  29.771  1.00  0.00     0.029 A 
ATOM     50  N   UNL A   1      41.230  28.041  28.923  1.00  0.00    -0.354 N 
ATOM     51  C   UNL A   1      43.048  31.962  29.321  1.00  0.00     0.074 A 
ATOM     52  C   UNL A   1      42.173  32.864  30.037  1.00  0.00     0.031 C 
ATOM     53  C   UNL A   1      39.644  26.493  29.210  1.00  0.00     0.029 A 
ATOM     54  C   UNL A   1      40.954  26.734  28.608  1.00  0.00     0.049 A 
ATOM     55  H   UNL A   1      42.078  28.484  28.689  1.00  0.00     0.167 HD
ATOM     56  C   UNL A   1      44.291  32.286  28.891  1.00  0.00     0.037 A 
ATOM     57  C   UNL A   1      41.671  25.846  27.893  1.00  0.00     0.037 A 
ATOM     58  C   UNL A   1      45.152  31.387  28.169  1.00  0.00     0.049 A 
ATOM     59  C   UNL A   1      43.019  26.259  27.353  1.00  0.00     0.074 A 
ATOM     60  C   UNL A   1      46.417  31.621  27.661  1.00  0.00     0.029 A 
ATOM     61  N   UNL A   1      44.828  30.077  27.850  1.00  0.00    -0.354 N 
ATOM     62  N   UNL A   1      43.649  27.403  27.478  1.00  0.00    -0.248 NA
ATOM     63  C   UNL A   1      43.758  25.252  26.579  1.00  0.00     0.031 C 
ATOM     64  C   UNL A   1      46.844  30.464  27.001  1.00  0.00     0.029 A 
ATOM     65  C   UNL A   1      45.867  29.492  27.146  1.00  0.00     0.049 A 
ATOM     66  H   UNL A   1      43.985  29.628  28.091  1.00  0.00     0.167 HD
ATOM     67  C   UNL A   1      44.871  27.239  26.836  1.00  0.00     0.074 A 
ATOM     68  C   UNL A   1      44.897  25.883  26.331  1.00  0.00     0.031 C 
ATOM     69  C   UNL A   1      45.880  28.130  26.676  1.00  0.00     0.037 A 
BRANCH  56  70
ATOM     70  C   UNL A   1      44.786  33.672  29.182  1.00  0.00     0.064 A 
ATOM     71  C   UNL A   1      45.564  33.950  30.317  1.00  0.00     0.173 A 
ATOM     72  C   UNL A   1      44.510  34.730  28.302  1.00  0.00     0.173 A 
ATOM     73  F   UNL A   1      45.842  32.978  31.199  1.00  0.00    -0.203 F 
ATOM     74  C   UNL A   1      46.027  35.239  30.571  1.00  0.00     0.198 A 
ATOM     75  C   UNL A   1      44.999  36.011  28.544  1.00  0.00     0.198 A 
ATOM     76  F   UNL A   1      43.773  34.518  27.202  1.00  0.00    -0.203 F 
ATOM     77  F   UNL A   1      46.730  35.489  31.683  1.00  0.00    -0.200 F 
ATOM     78  C   UNL A   1      45.752  36.266  29.680  1.00  0.00     0.200 A 
ATOM     79  F   UNL A   1      44.743  36.999  27.676  1.00  0.00    -0.200 F 
ATOM     80  F   UNL A   1      46.206  37.503  29.921  1.00  0.00    -0.200 F 
ENDBRANCH  56  70
BRANCH  57  81
ATOM     81  C   UNL A   1      41.132  24.486  27.626  1.00  0.00     0.064 A 
ATOM     82  C   UNL A   1      41.698  23.350  28.222  1.00  0.00     0.173 A 
ATOM     83  C   UNL A   1      40.068  24.291  26.733  1.00  0.00     0.173 A 
ATOM     84  F   UNL A   1      42.732  23.481  29.065  1.00  0.00    -0.203 F 
ATOM     85  C   UNL A   1      41.242  22.070  27.908  1.00  0.00     0.198 A 
ATOM     86  C   UNL A   1      39.592  23.014  26.447  1.00  0.00     0.198 A 
ATOM     87  F   UNL A   1      39.488  25.344  26.138  1.00  0.00    -0.203 F 
ATOM     88  F   UNL A   1      41.843  20.999  28.444  1.00  0.00    -0.200 F 
ATOM     89  C   UNL A   1      40.187  21.904  27.024  1.00  0.00     0.200 A 
ATOM     90  F   UNL A   1      38.562  22.859  25.603  1.00  0.00    -0.200 F 
ATOM     91  F   UNL A   1      39.754  20.673  26.718  1.00  0.00    -0.200 F 
ENDBRANCH  57  81
BRANCH  69  92
ATOM     92  C   UNL A   1      47.121  27.648  25.980  1.00  0.00     0.064 A 
ATOM     93  C   UNL A   1      48.199  27.093  26.685  1.00  0.00     0.173 A 
ATOM     94  C   UNL A   1      47.215  27.713  24.581  1.00  0.00     0.173 A 
ATOM     95  F   UNL A   1      48.162  27.020  28.024  1.00  0.00    -0.203 F 
ATOM     96  C   UNL A   1      49.339  26.653  26.019  1.00  0.00     0.198 A 
ATOM     97  C   UNL A   1      48.343  27.242  23.915  1.00  0.00     0.198 A 
ATOM     98  F   UNL A   1      46.208  28.226  23.858  1.00  0.00    -0.203 F 
ATOM     99  F   UNL A   1      50.379  26.178  26.717  1.00  0.00    -0.200 F 
ATOM    100  C   UNL A   1      49.407  26.721  24.635  1.00  0.00     0.200 A 
ATOM    101  F   UNL A   1      48.400  27.294  22.577  1.00  0.00    -0.200 F 
ATOM    102  F   UNL A   1      50.504  26.292  23.995  1.00  0.00    -0.200 F 
ENDBRANCH  69  92
ENDBRANCH  43  44
ENDBRANCH  36  38
ENDBRANCH  35  36
ENDBRANCH  34  35
ENDBRANCH  33  34
ENDBRANCH  32  33
ENDBRANCH  31  32
ENDBRANCH  30  31
ENDBRANCH  29  30
ENDBRANCH   1  29
TORSDOF 26
ENDMDL
MODEL 2
REMARK VINA RESULT:      -9.4      4.622      7.400
REMARK SMILES Cc1n[nH]cc1CNC(=O)NC[C@H](CC(C)C)C(=O)OCCOCCOCCOCCOC(=O)c1ccc(-c2c3nc(c(-c4c(F)c(F)c(F)c(F)c4F)c4ccc([nH]4)c(-c4c(F)c(F)c(F)c(F)c4F)c4nc(c(-c5c(F)c(F)c(F)c(F)c5F)c5ccc2[nH]5)C=C4)C=C3)cc1
REMARK SMILES IDX 25 1 24 2 23 3 22 4 21 5 20 6 18 7 19 8 13 9 12 10 11 11
REMARK SMILES IDX 8 12 9 13 10 15 7 17 6 18 1 19 2 20 3 21 4 22 5 23 14 25
REMARK SMILES IDX 15 26 16 27 17 28 26 29 27 30 28 31 29 32 30 33 31 34 32 35
REMARK SMILES IDX 33 36 34 37 35 38 36 39 97 40 37 41 96 42 38 43 39 44 40 45
REMARK SMILES IDX 90 46 41 47 95 48 89 49 91 50 42 51 94 52 88 53 87 54 43 56
REMARK SMILES IDX 75 57 55 58 74 59 56 60 59 61 73 62 92 63 57 64 58 65 72 67
REMARK SMILES IDX 93 68 60 69 44 70 45 71 53 72 46 73 47 74 51 75 54 76 48 77
REMARK SMILES IDX 49 78 52 79 50 80 76 81 77 82 85 83 78 84 79 85 83 86 86 87
REMARK SMILES IDX 80 88 81 89 84 90 82 91 61 92 62 93 70 94 63 95 64 96 68 97
REMARK SMILES IDX 71 98 65 99 66 100 69 101 67 102
REMARK H PARENT 8 14 11 16 4 24 91 55 59 66
REMARK Flexibility Score: inf
ROOT
ATOM      1  C   UNL A   1      34.029  28.464  25.711  1.00  0.00     0.188 C 
ENDROOT
BRANCH   1   2
ATOM      2  C   UNL A   1      33.065  27.338  25.323  1.00  0.00     0.188 C 
BRANCH   2   3
ATOM      3  O   UNL A   1      33.780  26.220  24.838  1.00  0.00    -0.376 OA
BRANCH   3   4
ATOM      4  C   UNL A   1      33.951  25.080  25.667  1.00  0.00     0.202 C 
BRANCH   4   5
ATOM      5  C   UNL A   1      34.980  23.969  25.380  1.00  0.00     0.261 C 
BRANCH   5   6
ATOM      6  O   UNL A   1      34.537  22.835  24.609  1.00  0.00    -0.463 OA
BRANCH   6   7
ATOM      7  C   UNL A   1      34.329  21.713  25.340  1.00  0.00     0.310 C 
ATOM      8  O   UNL A   1      34.747  21.575  26.491  1.00  0.00    -0.252 OA
BRANCH   7   9
ATOM      9  C   UNL A   1      33.509  20.601  24.705  1.00  0.00     0.119 C 
BRANCH   9  10
ATOM     10  C   UNL A   1      32.022  21.007  24.924  1.00  0.00     0.133 C 
BRANCH  10  11
ATOM     11  N   UNL A   1      31.732  21.806  26.094  1.00  0.00    -0.337 N 
ATOM     12  N   UNL A   1      30.503  23.644  25.270  1.00  0.00    -0.334 N 
ATOM     13  C   UNL A   1      30.979  22.899  26.275  1.00  0.00     0.315 C 
ATOM     14  H   UNL A   1      29.775  24.247  25.540  1.00  0.00     0.165 HD
ATOM     15  O   UNL A   1      30.711  23.234  27.429  1.00  0.00    -0.249 OA
ATOM     16  H   UNL A   1      32.170  21.484  26.915  1.00  0.00     0.165 HD
BRANCH  12  17
ATOM     17  C   UNL A   1      30.843  23.741  23.873  1.00  0.00     0.157 C 
BRANCH  17  18
ATOM     18  C   UNL A   1      30.736  25.128  23.367  1.00  0.00     0.012 A 
ATOM     19  C   UNL A   1      32.716  25.138  21.647  1.00  0.00     0.069 C 
ATOM     20  C   UNL A   1      31.567  25.732  22.380  1.00  0.00     0.064 A 
ATOM     21  N   UNL A   1      31.208  26.997  22.135  1.00  0.00    -0.181 NA
ATOM     22  N   UNL A   1      30.154  27.199  22.940  1.00  0.00    -0.285 N 
ATOM     23  C   UNL A   1      29.820  26.108  23.681  1.00  0.00     0.111 A 
ATOM     24  H   UNL A   1      29.669  28.054  22.988  1.00  0.00     0.189 HD
ENDBRANCH  17  18
ENDBRANCH  12  17
ENDBRANCH  10  11
ENDBRANCH   9  10
BRANCH   9  25
ATOM     25  C   UNL A   1      33.845  19.088  24.754  1.00  0.00     0.020 C 
BRANCH  25  26
ATOM     26  C   UNL A   1      32.882  17.952  24.364  1.00  0.00    -0.017 C 
ATOM     27  C   UNL A   1      32.742  17.683  22.877  1.00  0.00     0.007 C 
ATOM     28  C   UNL A   1      33.356  16.656  25.048  1.00  0.00     0.007 C 
ENDBRANCH  25  26
ENDBRANCH   9  25
ENDBRANCH   7   9
ENDBRANCH   6   7
ENDBRANCH   5   6
ENDBRANCH   4   5
ENDBRANCH   3   4
ENDBRANCH   2   3
ENDBRANCH   1   2
BRANCH   1  29
ATOM     29  O   UNL A   1      34.236  28.654  27.104  1.00  0.00    -0.377 OA
BRANCH  29  30
ATOM     30  C   UNL A   1      35.239  29.588  27.523  1.00  0.00     0.188 C 
BRANCH  30  31
ATOM     31  C   UNL A   1      34.784  30.956  28.045  1.00  0.00     0.188 C 
BRANCH  31  32
ATOM     32  O   UNL A   1      33.440  31.366  27.803  1.00  0.00    -0.376 OA
BRANCH  32  33
ATOM     33  C   UNL A   1      33.185  32.723  27.461  1.00  0.00     0.202 C 
BRANCH  33  34
ATOM     34  C   UNL A   1      34.250  33.725  27.903  1.00  0.00     0.261 C 
BRANCH  34  35
ATOM     35  O   UNL A   1      33.689  34.934  28.438  1.00  0.00    -0.460 OA
BRANCH  35  36
ATOM     36  C   UNL A   1      33.410  34.891  29.758  1.00  0.00     0.338 C 
ATOM     37  O   UNL A   1      32.322  35.056  30.296  1.00  0.00    -0.246 OA
BRANCH  36  38
ATOM     38  C   UNL A   1      34.612  34.532  30.527  1.00  0.00     0.060 A 
ATOM     39  C   UNL A   1      35.856  34.675  29.898  1.00  0.00     0.016 A 
ATOM     40  C   UNL A   1      34.515  33.922  31.781  1.00  0.00     0.016 A 
ATOM     41  C   UNL A   1      36.996  34.134  30.484  1.00  0.00     0.010 A 
ATOM     42  C   UNL A   1      35.660  33.375  32.366  1.00  0.00     0.010 A 
ATOM     43  C   UNL A   1      36.892  33.431  31.692  1.00  0.00    -0.014 A 
BRANCH  43  44
ATOM     44  C   UNL A   1      38.019  32.574  32.131  1.00  0.00     0.031 A 
ATOM     45  C   UNL A   1      38.656  32.856  33.465  1.00  0.00     0.074 A 
ATOM     46  C   UNL A   1      38.432  31.538  31.381  1.00  0.00     0.049 A 
ATOM     47  N   UNL A   1      39.673  32.271  34.044  1.00  0.00    -0.248 NA
ATOM     48  C   UNL A   1      38.064  33.948  34.255  1.00  0.00     0.031 C 
ATOM     49  C   UNL A   1      37.857  31.142  30.098  1.00  0.00     0.029 A 
ATOM     50  N   UNL A   1      39.440  30.634  31.594  1.00  0.00    -0.354 N 
ATOM     51  C   UNL A   1      39.836  32.917  35.263  1.00  0.00     0.074 A 
ATOM     52  C   UNL A   1      38.844  33.968  35.325  1.00  0.00     0.031 C 
ATOM     53  C   UNL A   1      38.533  30.079  29.628  1.00  0.00     0.029 A 
ATOM     54  C   UNL A   1      39.606  29.743  30.563  1.00  0.00     0.049 A 
ATOM     55  H   UNL A   1      39.994  30.624  32.408  1.00  0.00     0.167 HD
ATOM     56  C   UNL A   1      40.724  32.649  36.250  1.00  0.00     0.037 A 
ATOM     57  C   UNL A   1      40.535  28.784  30.389  1.00  0.00     0.037 A 
ATOM     58  C   UNL A   1      41.716  31.609  36.178  1.00  0.00     0.049 A 
ATOM     59  C   UNL A   1      41.566  28.559  31.467  1.00  0.00     0.074 A 
ATOM     60  C   UNL A   1      42.684  31.270  37.106  1.00  0.00     0.029 A 
ATOM     61  N   UNL A   1      41.867  30.740  35.107  1.00  0.00    -0.354 N 
ATOM     62  N   UNL A   1      41.713  29.173  32.618  1.00  0.00    -0.248 NA
ATOM     63  C   UNL A   1      42.557  27.501  31.225  1.00  0.00     0.031 C 
ATOM     64  C   UNL A   1      43.445  30.220  36.581  1.00  0.00     0.029 A 
ATOM     65  C   UNL A   1      42.916  29.870  35.348  1.00  0.00     0.049 A 
ATOM     66  H   UNL A   1      41.308  30.741  34.296  1.00  0.00     0.167 HD
ATOM     67  C   UNL A   1      42.782  28.550  33.251  1.00  0.00     0.074 A 
ATOM     68  C   UNL A   1      43.240  27.504  32.361  1.00  0.00     0.031 C 
ATOM     69  C   UNL A   1      43.337  28.819  34.458  1.00  0.00     0.037 A 
BRANCH  56  70
ATOM     70  C   UNL A   1      40.669  33.500  37.485  1.00  0.00     0.064 A 
ATOM     71  C   UNL A   1      39.769  33.223  38.526  1.00  0.00     0.173 A 
ATOM     72  C   UNL A   1      41.544  34.585  37.646  1.00  0.00     0.173 A 
ATOM     73  F   UNL A   1      38.900  32.208  38.415  1.00  0.00    -0.203 F 
ATOM     74  C   UNL A   1      39.734  34.014  39.672  1.00  0.00     0.198 A 
ATOM     75  C   UNL A   1      41.526  35.355  38.805  1.00  0.00     0.198 A 
ATOM     76  F   UNL A   1      42.424  34.892  36.681  1.00  0.00    -0.203 F 
ATOM     77  F   UNL A   1      38.837  33.757  40.634  1.00  0.00    -0.200 F 
ATOM     78  C   UNL A   1      40.617  35.074  39.815  1.00  0.00     0.200 A 
ATOM     79  F   UNL A   1      42.388  36.371  38.947  1.00  0.00    -0.200 F 
ATOM     80  F   UNL A   1      40.589  35.828  40.922  1.00  0.00    -0.200 F 
ENDBRANCH  56  70
BRANCH  57  81
ATOM     81  C   UNL A   1      40.551  27.972  29.143  1.00  0.00     0.064 A 
ATOM     82  C   UNL A   1      41.300  28.367  28.026  1.00  0.00     0.173 A 
ATOM     83  C   UNL A   1      39.779  26.805  29.029  1.00  0.00     0.173 A 
ATOM     84  F   UNL A   1      42.037  29.487  28.077  1.00  0.00    -0.203 F 
ATOM     85  C   UNL A   1      41.250  27.648  26.833  1.00  0.00     0.198 A 
ATOM     86  C   UNL A   1      39.756  26.069  27.847  1.00  0.00     0.198 A 
ATOM     87  F   UNL A   1      39.045  26.380  30.068  1.00  0.00    -0.203 F 
ATOM     88  F   UNL A   1      41.927  28.084  25.763  1.00  0.00    -0.200 F 
ATOM     89  C   UNL A   1      40.481  26.497  26.746  1.00  0.00     0.200 A 
ATOM     90  F   UNL A   1      39.023  24.949  27.772  1.00  0.00    -0.200 F 
ATOM     91  F   UNL A   1      40.429  25.810  25.597  1.00  0.00    -0.200 F 
ENDBRANCH  57  81
BRANCH  69  92
ATOM     92  C   UNL A   1      44.459  27.931  34.913  1.00  0.00     0.064 A 
ATOM     93  C   UNL A   1      45.803  28.240  34.654  1.00  0.00     0.173 A 
ATOM     94  C   UNL A   1      44.183  26.768  35.649  1.00  0.00     0.173 A 
ATOM     95  F   UNL A   1      46.117  29.333  33.944  1.00  0.00    -0.203 F 
ATOM     96  C   UNL A   1      46.826  27.401  35.086  1.00  0.00     0.198 A 
ATOM     97  C   UNL A   1      45.210  25.948  36.108  1.00  0.00     0.198 A 
ATOM     98  F   UNL A   1      42.915  26.431  35.933  1.00  0.00    -0.203 F 
ATOM     99  F   UNL A   1      48.098  27.687  34.779  1.00  0.00    -0.200 F 
ATOM    100  C   UNL A   1      46.530  26.260  35.819  1.00  0.00     0.200 A 
ATOM    101  F   UNL A   1      44.923  24.855  36.829  1.00  0.00    -0.200 F 
ATOM    102  F   UNL A   1      47.517  25.457  36.238  1.00  0.00    -0.200 F 
ENDBRANCH  69  92
ENDBRANCH  43  44
ENDBRANCH  36  38
ENDBRANCH  35  36
ENDBRANCH  34  35
ENDBRANCH  33  34
ENDBRANCH  32  33
ENDBRANCH  31  32
ENDBRANCH  30  31
ENDBRANCH  29  30
ENDBRANCH   1  29
TORSDOF 26
ENDMDL
MODEL 3
REMARK VINA RESULT:      -8.8      3.144      5.458
REMARK SMILES Cc1n[nH]cc1CNC(=O)NC[C@H](CC(C)C)C(=O)OCCOCCOCCOCCOC(=O)c1ccc(-c2c3nc(c(-c4c(F)c(F)c(F)c(F)c4F)c4ccc([nH]4)c(-c4c(F)c(F)c(F)c(F)c4F)c4nc(c(-c5c(F)c(F)c(F)c(F)c5F)c5ccc2[nH]5)C=C4)C=C3)cc1
REMARK SMILES IDX 25 1 24 2 23 3 22 4 21 5 20 6 18 7 19 8 13 9 12 10 11 11
REMARK SMILES IDX 8 12 9 13 10 15 7 17 6 18 1 19 2 20 3 21 4 22 5 23 14 25
REMARK SMILES IDX 15 26 16 27 17 28 26 29 27 30 28 31 29 32 30 33 31 34 32 35
REMARK SMILES IDX 33 36 34 37 35 38 36 39 97 40 37 41 96 42 38 43 39 44 40 45
REMARK SMILES IDX 90 46 41 47 95 48 89 49 91 50 42 51 94 52 88 53 87 54 43 56
REMARK SMILES IDX 75 57 55 58 74 59 56 60 59 61 73 62 92 63 57 64 58 65 72 67
REMARK SMILES IDX 93 68 60 69 44 70 45 71 53 72 46 73 47 74 51 75 54 76 48 77
REMARK SMILES IDX 49 78 52 79 50 80 76 81 77 82 85 83 78 84 79 85 83 86 86 87
REMARK SMILES IDX 80 88 81 89 84 90 82 91 61 92 62 93 70 94 63 95 64 96 68 97
REMARK SMILES IDX 71 98 65 99 66 100 69 101 67 102
REMARK H PARENT 8 14 11 16 4 24 91 55 59 66
REMARK Flexibility Score: inf
ROOT
ATOM      1  C   UNL A   1      33.713  28.910  26.215  1.00  0.00     0.188 C 
ENDROOT
BRANCH   1   2
ATOM      2  C   UNL A   1      33.147  27.486  26.167  1.00  0.00     0.188 C 
BRANCH   2   3
ATOM      3  O   UNL A   1      34.137  26.576  25.733  1.00  0.00    -0.376 OA
BRANCH   3   4
ATOM      4  C   UNL A   1      33.768  25.253  25.373  1.00  0.00     0.202 C 
BRANCH   4   5
ATOM      5  C   UNL A   1      34.712  24.043  25.507  1.00  0.00     0.261 C 
BRANCH   5   6
ATOM      6  O   UNL A   1      34.495  22.928  24.619  1.00  0.00    -0.463 OA
BRANCH   6   7
ATOM      7  C   UNL A   1      34.426  21.727  25.243  1.00  0.00     0.310 C 
ATOM      8  O   UNL A   1      34.997  21.491  26.309  1.00  0.00    -0.252 OA
BRANCH   7   9
ATOM      9  C   UNL A   1      33.572  20.646  24.599  1.00  0.00     0.119 C 
BRANCH   9  10
ATOM     10  C   UNL A   1      32.098  21.088  24.839  1.00  0.00     0.133 C 
BRANCH  10  11
ATOM     11  N   UNL A   1      31.861  21.990  25.944  1.00  0.00    -0.337 N 
ATOM     12  N   UNL A   1      30.537  23.715  25.028  1.00  0.00    -0.334 N 
ATOM     13  C   UNL A   1      31.094  23.081  26.067  1.00  0.00     0.315 C 
ATOM     14  H   UNL A   1      29.811  24.328  25.286  1.00  0.00     0.165 HD
ATOM     15  O   UNL A   1      30.890  23.521  27.199  1.00  0.00    -0.249 OA
ATOM     16  H   UNL A   1      32.358  21.759  26.761  1.00  0.00     0.165 HD
BRANCH  12  17
ATOM     17  C   UNL A   1      30.787  23.684  23.610  1.00  0.00     0.157 C 
BRANCH  17  18
ATOM     18  C   UNL A   1      30.980  25.038  23.046  1.00  0.00     0.012 A 
ATOM     19  C   UNL A   1      29.209  26.371  24.448  1.00  0.00     0.069 C 
ATOM     20  C   UNL A   1      30.279  26.219  23.428  1.00  0.00     0.064 A 
ATOM     21  N   UNL A   1      30.690  27.287  22.734  1.00  0.00    -0.181 NA
ATOM     22  N   UNL A   1      31.650  26.804  21.931  1.00  0.00    -0.285 N 
ATOM     23  C   UNL A   1      31.875  25.472  22.092  1.00  0.00     0.111 A 
ATOM     24  H   UNL A   1      32.145  27.361  21.287  1.00  0.00     0.189 HD
ENDBRANCH  17  18
ENDBRANCH  12  17
ENDBRANCH  10  11
ENDBRANCH   9  10
BRANCH   9  25
ATOM     25  C   UNL A   1      33.868  19.125  24.620  1.00  0.00     0.020 C 
BRANCH  25  26
ATOM     26  C   UNL A   1      32.984  18.039  23.981  1.00  0.00    -0.017 C 
ATOM     27  C   UNL A   1      32.402  18.375  22.621  1.00  0.00     0.007 C 
ATOM     28  C   UNL A   1      33.816  16.750  23.847  1.00  0.00     0.007 C 
ENDBRANCH  25  26
ENDBRANCH   9  25
ENDBRANCH   7   9
ENDBRANCH   6   7
ENDBRANCH   5   6
ENDBRANCH   4   5
ENDBRANCH   3   4
ENDBRANCH   2   3
ENDBRANCH   1   2
BRANCH   1  29
ATOM     29  O   UNL A   1      33.404  29.664  27.379  1.00  0.00    -0.377 OA
BRANCH  29  30
ATOM     30  C   UNL A   1      33.472  31.093  27.303  1.00  0.00     0.188 C 
BRANCH  30  31
ATOM     31  C   UNL A   1      34.629  31.804  28.016  1.00  0.00     0.188 C 
BRANCH  31  32
ATOM     32  O   UNL A   1      34.957  33.135  27.621  1.00  0.00    -0.376 OA
BRANCH  32  33
ATOM     33  C   UNL A   1      34.197  34.216  28.145  1.00  0.00     0.202 C 
BRANCH  33  34
ATOM     34  C   UNL A   1      33.863  34.126  29.633  1.00  0.00     0.261 C 
BRANCH  34  35
ATOM     35  O   UNL A   1      35.033  34.078  30.466  1.00  0.00    -0.460 OA
BRANCH  35  36
ATOM     36  C   UNL A   1      35.101  33.006  31.283  1.00  0.00     0.338 C 
ATOM     37  O   UNL A   1      34.188  32.497  31.922  1.00  0.00    -0.246 OA
BRANCH  36  38
ATOM     38  C   UNL A   1      36.457  32.435  31.270  1.00  0.00     0.060 A 
ATOM     39  C   UNL A   1      37.352  32.855  32.261  1.00  0.00     0.016 A 
ATOM     40  C   UNL A   1      36.889  31.622  30.218  1.00  0.00     0.016 A 
ATOM     41  C   UNL A   1      38.702  32.533  32.159  1.00  0.00     0.010 A 
ATOM     42  C   UNL A   1      38.245  31.304  30.113  1.00  0.00     0.010 A 
ATOM     43  C   UNL A   1      39.162  31.806  31.053  1.00  0.00    -0.014 A 
BRANCH  43  44
ATOM     44  C   UNL A   1      40.617  31.763  30.768  1.00  0.00     0.031 A 
ATOM     45  C   UNL A   1      41.290  33.020  30.286  1.00  0.00     0.074 A 
ATOM     46  C   UNL A   1      41.330  30.644  30.983  1.00  0.00     0.049 A 
ATOM     47  N   UNL A   1      42.536  33.218  29.939  1.00  0.00    -0.248 NA
ATOM     48  C   UNL A   1      40.441  34.218  30.181  1.00  0.00     0.031 C 
ATOM     49  C   UNL A   1      40.793  29.386  31.495  1.00  0.00     0.029 A 
ATOM     50  N   UNL A   1      42.663  30.389  30.788  1.00  0.00    -0.354 N 
ATOM     51  C   UNL A   1      42.620  34.558  29.582  1.00  0.00     0.074 A 
ATOM     52  C   UNL A   1      41.292  35.118  29.713  1.00  0.00     0.031 C 
ATOM     53  C   UNL A   1      41.787  28.484  31.560  1.00  0.00     0.029 A 
ATOM     54  C   UNL A   1      43.021  29.094  31.066  1.00  0.00     0.049 A 
ATOM     55  H   UNL A   1      43.303  31.070  30.478  1.00  0.00     0.167 HD
ATOM     56  C   UNL A   1      43.710  35.264  29.197  1.00  0.00     0.037 A 
ATOM     57  C   UNL A   1      44.205  28.472  30.913  1.00  0.00     0.037 A 
ATOM     58  C   UNL A   1      45.026  34.699  29.059  1.00  0.00     0.049 A 
ATOM     59  C   UNL A   1      45.386  29.260  30.402  1.00  0.00     0.074 A 
ATOM     60  C   UNL A   1      46.194  35.315  28.646  1.00  0.00     0.029 A 
ATOM     61  N   UNL A   1      45.345  33.376  29.329  1.00  0.00    -0.354 N 
ATOM     62  N   UNL A   1      45.458  30.527  30.069  1.00  0.00    -0.248 NA
ATOM     63  C   UNL A   1      46.653  28.531  30.252  1.00  0.00     0.031 C 
ATOM     64  C   UNL A   1      47.212  34.356  28.631  1.00  0.00     0.029 A 
ATOM     65  C   UNL A   1      46.689  33.155  29.086  1.00  0.00     0.049 A 
ATOM     66  H   UNL A   1      44.709  32.695  29.649  1.00  0.00     0.167 HD
ATOM     67  C   UNL A   1      46.781  30.755  29.712  1.00  0.00     0.074 A 
ATOM     68  C   UNL A   1      47.480  29.498  29.878  1.00  0.00     0.031 C 
ATOM     69  C   UNL A   1      47.368  31.900  29.283  1.00  0.00     0.037 A 
BRANCH  56  70
ATOM     70  C   UNL A   1      43.520  36.720  28.886  1.00  0.00     0.064 A 
ATOM     71  C   UNL A   1      43.079  37.149  27.625  1.00  0.00     0.173 A 
ATOM     72  C   UNL A   1      43.751  37.696  29.867  1.00  0.00     0.173 A 
ATOM     73  F   UNL A   1      42.860  36.258  26.647  1.00  0.00    -0.203 F 
ATOM     74  C   UNL A   1      42.897  38.503  27.352  1.00  0.00     0.198 A 
ATOM     75  C   UNL A   1      43.540  39.046  29.600  1.00  0.00     0.198 A 
ATOM     76  F   UNL A   1      44.173  37.340  31.090  1.00  0.00    -0.203 F 
ATOM     77  F   UNL A   1      42.516  38.893  26.128  1.00  0.00    -0.200 F 
ATOM     78  C   UNL A   1      43.119  39.450  28.341  1.00  0.00     0.200 A 
ATOM     79  F   UNL A   1      43.744  39.958  30.560  1.00  0.00    -0.200 F 
ATOM     80  F   UNL A   1      42.934  40.750  28.080  1.00  0.00    -0.200 F 
ENDBRANCH  56  70
BRANCH  57  81
ATOM     81  C   UNL A   1      44.339  27.024  31.228  1.00  0.00     0.064 A 
ATOM     82  C   UNL A   1      44.070  26.042  30.264  1.00  0.00     0.173 A 
ATOM     83  C   UNL A   1      44.693  26.593  32.516  1.00  0.00     0.173 A 
ATOM     84  F   UNL A   1      43.705  26.402  29.025  1.00  0.00    -0.203 F 
ATOM     85  C   UNL A   1      44.118  24.686  30.585  1.00  0.00     0.198 A 
ATOM     86  C   UNL A   1      44.774  25.238  32.825  1.00  0.00     0.198 A 
ATOM     87  F   UNL A   1      44.964  27.491  33.475  1.00  0.00    -0.203 F 
ATOM     88  F   UNL A   1      43.796  23.771  29.662  1.00  0.00    -0.200 F 
ATOM     89  C   UNL A   1      44.474  24.285  31.864  1.00  0.00     0.200 A 
ATOM     90  F   UNL A   1      45.132  24.855  34.059  1.00  0.00    -0.200 F 
ATOM     91  F   UNL A   1      44.514  22.982  32.173  1.00  0.00    -0.200 F 
ENDBRANCH  57  81
BRANCH  69  92
ATOM     92  C   UNL A   1      48.847  31.861  29.024  1.00  0.00     0.064 A 
ATOM     93  C   UNL A   1      49.371  31.550  27.761  1.00  0.00     0.173 A 
ATOM     94  C   UNL A   1      49.751  32.172  30.052  1.00  0.00     0.173 A 
ATOM     95  F   UNL A   1      48.549  31.233  26.750  1.00  0.00    -0.203 F 
ATOM     96  C   UNL A   1      50.746  31.520  27.545  1.00  0.00     0.198 A 
ATOM     97  C   UNL A   1      51.123  32.173  29.825  1.00  0.00     0.198 A 
ATOM     98  F   UNL A   1      49.301  32.486  31.277  1.00  0.00    -0.203 F 
ATOM     99  F   UNL A   1      51.226  31.166  26.345  1.00  0.00    -0.200 F 
ATOM    100  C   UNL A   1      51.620  31.839  28.574  1.00  0.00     0.200 A 
ATOM    101  F   UNL A   1      51.966  32.497  30.816  1.00  0.00    -0.200 F 
ATOM    102  F   UNL A   1      52.943  31.814  28.363  1.00  0.00    -0.200 F 
ENDBRANCH  69  92
ENDBRANCH  43  44
ENDBRANCH  36  38
ENDBRANCH  35  36
ENDBRANCH  34  35
ENDBRANCH  33  34
ENDBRANCH  32  33
ENDBRANCH  31  32
ENDBRANCH  30  31
ENDBRANCH  29  30
ENDBRANCH   1  29
TORSDOF 26
ENDMDL
