MODEL 1
REMARK VINA RESULT:      -9.6      0.000      0.000
REMARK SMILES CCn1ccnc1[C@H](F)C(=O)OCCOCCOCCOCCOC(=O)c1ccc(-c2c3nc(c(-c4c(F)c(F)c(F)c(F)c4F)c4ccc([nH]4)c(-c4c(F)c(F)c(F)c(F)c4F)c4nc(c(-c5c(F)c(F)c(F)c(F)c5F)c5ccc2[nH]5)C=C4)C=C3)cc1
REMARK SMILES IDX 18 1 17 2 16 3 15 4 14 5 13 6 12 7 10 8 11 9 8 10 9 11 7 12
REMARK SMILES IDX 3 13 4 14 5 15 6 16 2 17 1 18 19 19 20 20 21 21 22 22 23 23
REMARK SMILES IDX 24 24 25 25 26 26 27 27 28 28 89 29 29 30 88 31 30 32 31 33
REMARK SMILES IDX 32 34 82 35 33 36 87 37 81 38 83 39 34 40 86 41 80 42 79 43
REMARK SMILES IDX 35 45 67 46 47 47 66 48 48 49 51 50 65 51 84 52 49 53 50 54
REMARK SMILES IDX 64 56 85 57 52 58 36 59 37 60 45 61 38 62 39 63 43 64 46 65
REMARK SMILES IDX 40 66 41 67 44 68 42 69 68 70 69 71 77 72 70 73 71 74 75 75
REMARK SMILES IDX 78 76 72 77 73 78 76 79 74 80 53 81 54 82 62 83 55 84 56 85
REMARK SMILES IDX 60 86 63 87 57 88 58 89 61 90 59 91
REMARK H PARENT 83 44 51 55
REMARK Flexibility Score: inf
ROOT
ATOM      1  O   UNL A   1      32.625  32.008  27.280  1.00  0.00    -0.377 OA
ENDROOT
BRANCH   1   2
ATOM      2  C   UNL A   1      31.893  30.978  26.641  1.00  0.00     0.188 C 
BRANCH   2   3
ATOM      3  C   UNL A   1      32.512  29.567  26.759  1.00  0.00     0.188 C 
BRANCH   3   4
ATOM      4  O   UNL A   1      32.104  28.491  25.919  1.00  0.00    -0.376 OA
BRANCH   4   5
ATOM      5  C   UNL A   1      33.027  27.499  25.489  1.00  0.00     0.202 C 
BRANCH   5   6
ATOM      6  C   UNL A   1      32.928  26.970  24.060  1.00  0.00     0.261 C 
BRANCH   6   7
ATOM      7  O   UNL A   1      33.569  25.701  23.891  1.00  0.00    -0.461 OA
BRANCH   7   8
ATOM      8  C   UNL A   1      33.548  25.178  22.636  1.00  0.00     0.348 C 
ATOM      9  O   UNL A   1      33.752  25.823  21.610  1.00  0.00    -0.248 OA
BRANCH   8  10
ATOM     10  C   UNL A   1      33.392  23.664  22.663  1.00  0.00     0.341 C 
ATOM     11  F   UNL A   1      33.159  23.118  21.428  1.00  0.00    -0.226 F 
BRANCH  10  12
ATOM     12  C   UNL A   1      34.633  23.104  23.255  1.00  0.00     0.155 A 
ATOM     13  N   UNL A   1      34.764  22.489  24.482  1.00  0.00    -0.332 N 
ATOM     14  C   UNL A   1      36.116  22.278  24.668  1.00  0.00     0.107 A 
ATOM     15  C   UNL A   1      36.734  22.735  23.536  1.00  0.00     0.131 A 
ATOM     16  N   UNL A   1      35.813  23.223  22.666  1.00  0.00    -0.238 NA
BRANCH  13  17
ATOM     17  C   UNL A   1      33.811  22.049  25.485  1.00  0.00     0.120 C 
ATOM     18  C   UNL A   1      33.899  22.516  26.928  1.00  0.00     0.027 C 
ENDBRANCH  13  17
ENDBRANCH  10  12
ENDBRANCH   8  10
ENDBRANCH   7   8
ENDBRANCH   6   7
ENDBRANCH   5   6
ENDBRANCH   4   5
ENDBRANCH   3   4
ENDBRANCH   2   3
ENDBRANCH   1   2
BRANCH   1  19
ATOM     19  C   UNL A   1      33.864  31.592  27.848  1.00  0.00     0.188 C 
BRANCH  19  20
ATOM     20  C   UNL A   1      34.993  32.646  27.881  1.00  0.00     0.188 C 
BRANCH  20  21
ATOM     21  O   UNL A   1      34.826  33.633  28.901  1.00  0.00    -0.376 OA
BRANCH  21  22
ATOM     22  C   UNL A   1      34.247  34.876  28.528  1.00  0.00     0.202 C 
BRANCH  22  23
ATOM     23  C   UNL A   1      33.285  35.423  29.579  1.00  0.00     0.261 C 
BRANCH  23  24
ATOM     24  O   UNL A   1      33.195  34.621  30.752  1.00  0.00    -0.460 OA
BRANCH  24  25
ATOM     25  C   UNL A   1      33.538  35.210  31.905  1.00  0.00     0.338 C 
ATOM     26  O   UNL A   1      33.139  36.290  32.340  1.00  0.00    -0.246 OA
BRANCH  25  27
ATOM     27  C   UNL A   1      34.584  34.425  32.554  1.00  0.00     0.060 A 
ATOM     28  C   UNL A   1      35.762  35.105  32.867  1.00  0.00     0.016 A 
ATOM     29  C   UNL A   1      34.507  33.024  32.538  1.00  0.00     0.016 A 
ATOM     30  C   UNL A   1      36.931  34.386  32.895  1.00  0.00     0.010 A 
ATOM     31  C   UNL A   1      35.677  32.307  32.550  1.00  0.00     0.010 A 
ATOM     32  C   UNL A   1      36.874  33.015  32.625  1.00  0.00    -0.014 A 
BRANCH  32  33
ATOM     33  C   UNL A   1      38.126  32.348  32.365  1.00  0.00     0.031 A 
ATOM     34  C   UNL A   1      39.011  32.219  33.532  1.00  0.00     0.074 A 
ATOM     35  C   UNL A   1      38.414  31.838  31.154  1.00  0.00     0.049 A 
ATOM     36  N   UNL A   1      40.192  32.715  33.685  1.00  0.00    -0.248 NA
ATOM     37  C   UNL A   1      38.474  31.533  34.714  1.00  0.00     0.031 C 
ATOM     38  C   UNL A   1      37.506  31.647  30.020  1.00  0.00     0.029 A 
ATOM     39  N   UNL A   1      39.578  31.279  30.727  1.00  0.00    -0.354 N 
ATOM     40  C   UNL A   1      40.625  32.257  34.922  1.00  0.00     0.074 A 
ATOM     41  C   UNL A   1      39.486  31.660  35.570  1.00  0.00     0.031 C 
ATOM     42  C   UNL A   1      38.098  30.831  29.119  1.00  0.00     0.029 A 
ATOM     43  C   UNL A   1      39.454  30.544  29.561  1.00  0.00     0.049 A 
ATOM     44  H   UNL A   1      40.433  31.390  31.203  1.00  0.00     0.167 HD
ATOM     45  C   UNL A   1      41.948  32.179  35.213  1.00  0.00     0.037 A 
ATOM     46  C   UNL A   1      40.375  29.692  29.055  1.00  0.00     0.037 A 
ATOM     47  C   UNL A   1      42.734  33.044  34.373  1.00  0.00     0.049 A 
ATOM     48  C   UNL A   1      41.688  30.026  29.663  1.00  0.00     0.074 A 
ATOM     49  C   UNL A   1      42.753  34.405  34.132  1.00  0.00     0.029 A 
ATOM     50  N   UNL A   1      43.473  32.478  33.366  1.00  0.00    -0.354 N 
ATOM     51  N   UNL A   1      42.374  31.103  29.398  1.00  0.00    -0.248 NA
ATOM     52  C   UNL A   1      42.084  29.322  30.875  1.00  0.00     0.031 C 
ATOM     53  C   UNL A   1      43.123  34.542  32.762  1.00  0.00     0.029 A 
ATOM     54  C   UNL A   1      43.323  33.261  32.250  1.00  0.00     0.049 A 
ATOM     55  H   UNL A   1      44.013  31.658  33.431  1.00  0.00     0.167 HD
ATOM     56  C   UNL A   1      42.984  31.437  30.598  1.00  0.00     0.074 A 
ATOM     57  C   UNL A   1      42.880  30.243  31.424  1.00  0.00     0.031 C 
ATOM     58  C   UNL A   1      43.259  32.738  30.906  1.00  0.00     0.037 A 
BRANCH  45  59
ATOM     59  C   UNL A   1      42.541  31.044  36.002  1.00  0.00     0.064 A 
ATOM     60  C   UNL A   1      43.423  31.330  37.058  1.00  0.00     0.173 A 
ATOM     61  C   UNL A   1      42.514  29.698  35.571  1.00  0.00     0.173 A 
ATOM     62  F   UNL A   1      43.550  32.584  37.519  1.00  0.00    -0.203 F 
ATOM     63  C   UNL A   1      44.264  30.354  37.597  1.00  0.00     0.198 A 
ATOM     64  C   UNL A   1      43.311  28.714  36.152  1.00  0.00     0.198 A 
ATOM     65  F   UNL A   1      41.810  29.303  34.503  1.00  0.00    -0.203 F 
ATOM     66  F   UNL A   1      45.180  30.700  38.511  1.00  0.00    -0.200 F 
ATOM     67  C   UNL A   1      44.209  29.049  37.141  1.00  0.00     0.200 A 
ATOM     68  F   UNL A   1      43.257  27.461  35.681  1.00  0.00    -0.200 F 
ATOM     69  F   UNL A   1      45.057  28.127  37.614  1.00  0.00    -0.200 F 
ENDBRANCH  45  59
BRANCH  46  70
ATOM     70  C   UNL A   1      40.149  28.449  28.283  1.00  0.00     0.064 A 
ATOM     71  C   UNL A   1      40.776  28.246  27.043  1.00  0.00     0.173 A 
ATOM     72  C   UNL A   1      39.519  27.326  28.856  1.00  0.00     0.173 A 
ATOM     73  F   UNL A   1      41.440  29.249  26.450  1.00  0.00    -0.203 F 
ATOM     74  C   UNL A   1      40.791  26.992  26.426  1.00  0.00     0.198 A 
ATOM     75  C   UNL A   1      39.519  26.079  28.231  1.00  0.00     0.198 A 
ATOM     76  F   UNL A   1      38.970  27.388  30.078  1.00  0.00    -0.203 F 
ATOM     77  F   UNL A   1      41.457  26.823  25.275  1.00  0.00    -0.200 F 
ATOM     78  C   UNL A   1      40.167  25.909  27.022  1.00  0.00     0.200 A 
ATOM     79  F   UNL A   1      38.939  25.033  28.836  1.00  0.00    -0.200 F 
ATOM     80  F   UNL A   1      40.227  24.696  26.457  1.00  0.00    -0.200 F 
ENDBRANCH  46  70
BRANCH  58  81
ATOM     81  C   UNL A   1      43.224  33.738  29.787  1.00  0.00     0.064 A 
ATOM     82  C   UNL A   1      42.072  34.450  29.408  1.00  0.00     0.173 A 
ATOM     83  C   UNL A   1      44.429  34.072  29.154  1.00  0.00     0.173 A 
ATOM     84  F   UNL A   1      40.906  34.262  30.041  1.00  0.00    -0.203 F 
ATOM     85  C   UNL A   1      42.119  35.409  28.398  1.00  0.00     0.198 A 
ATOM     86  C   UNL A   1      44.480  35.059  28.174  1.00  0.00     0.198 A 
ATOM     87  F   UNL A   1      45.570  33.467  29.518  1.00  0.00    -0.203 F 
ATOM     88  F   UNL A   1      41.004  36.060  28.038  1.00  0.00    -0.200 F 
ATOM     89  C   UNL A   1      43.323  35.717  27.786  1.00  0.00     0.200 A 
ATOM     90  F   UNL A   1      45.655  35.389  27.621  1.00  0.00    -0.200 F 
ATOM     91  F   UNL A   1      43.375  36.665  26.840  1.00  0.00    -0.200 F 
ENDBRANCH  58  81
ENDBRANCH  32  33
ENDBRANCH  25  27
ENDBRANCH  24  25
ENDBRANCH  23  24
ENDBRANCH  22  23
ENDBRANCH  21  22
ENDBRANCH  20  21
ENDBRANCH  19  20
ENDBRANCH   1  19
TORSDOF 22
ENDMDL
MODEL 2
REMARK VINA RESULT:      -9.3      3.008      4.469
REMARK SMILES CCn1ccnc1[C@H](F)C(=O)OCCOCCOCCOCCOC(=O)c1ccc(-c2c3nc(c(-c4c(F)c(F)c(F)c(F)c4F)c4ccc([nH]4)c(-c4c(F)c(F)c(F)c(F)c4F)c4nc(c(-c5c(F)c(F)c(F)c(F)c5F)c5ccc2[nH]5)C=C4)C=C3)cc1
REMARK SMILES IDX 18 1 17 2 16 3 15 4 14 5 13 6 12 7 10 8 11 9 8 10 9 11 7 12
REMARK SMILES IDX 3 13 4 14 5 15 6 16 2 17 1 18 19 19 20 20 21 21 22 22 23 23
REMARK SMILES IDX 24 24 25 25 26 26 27 27 28 28 89 29 29 30 88 31 30 32 31 33
REMARK SMILES IDX 32 34 82 35 33 36 87 37 81 38 83 39 34 40 86 41 80 42 79 43
REMARK SMILES IDX 35 45 67 46 47 47 66 48 48 49 51 50 65 51 84 52 49 53 50 54
REMARK SMILES IDX 64 56 85 57 52 58 36 59 37 60 45 61 38 62 39 63 43 64 46 65
REMARK SMILES IDX 40 66 41 67 44 68 42 69 68 70 69 71 77 72 70 73 71 74 75 75
REMARK SMILES IDX 78 76 72 77 73 78 76 79 74 80 53 81 54 82 62 83 55 84 56 85
REMARK SMILES IDX 60 86 63 87 57 88 58 89 61 90 59 91
REMARK H PARENT 83 44 51 55
REMARK Flexibility Score: inf
ROOT
ATOM      1  O   UNL A   1      33.477  28.511  24.469  1.00  0.00    -0.377 OA
ENDROOT
BRANCH   1   2
ATOM      2  C   UNL A   1      34.044  27.420  23.768  1.00  0.00     0.188 C 
BRANCH   2   3
ATOM      3  C   UNL A   1      33.497  27.207  22.338  1.00  0.00     0.188 C 
BRANCH   3   4
ATOM      4  O   UNL A   1      33.624  25.961  21.660  1.00  0.00    -0.376 OA
BRANCH   4   5
ATOM      5  C   UNL A   1      32.700  24.903  21.880  1.00  0.00     0.202 C 
BRANCH   5   6
ATOM      6  C   UNL A   1      33.221  23.565  22.399  1.00  0.00     0.261 C 
BRANCH   6   7
ATOM      7  O   UNL A   1      32.362  22.977  23.382  1.00  0.00    -0.461 OA
BRANCH   7   8
ATOM      8  C   UNL A   1      32.163  21.635  23.283  1.00  0.00     0.348 C 
ATOM      9  O   UNL A   1      32.057  21.025  22.221  1.00  0.00    -0.248 OA
BRANCH   8  10
ATOM     10  C   UNL A   1      32.241  20.956  24.642  1.00  0.00     0.341 C 
ATOM     11  F   UNL A   1      32.101  19.593  24.579  1.00  0.00    -0.226 F 
BRANCH  10  12
ATOM     12  C   UNL A   1      33.549  21.319  25.242  1.00  0.00     0.155 A 
ATOM     13  N   UNL A   1      33.767  22.148  26.322  1.00  0.00    -0.332 N 
ATOM     14  C   UNL A   1      35.134  22.312  26.416  1.00  0.00     0.107 A 
ATOM     15  C   UNL A   1      35.681  21.547  25.422  1.00  0.00     0.131 A 
ATOM     16  N   UNL A   1      34.700  20.926  24.718  1.00  0.00    -0.238 NA
BRANCH  13  17
ATOM     17  C   UNL A   1      32.887  22.782  27.287  1.00  0.00     0.120 C 
ATOM     18  C   UNL A   1      31.794  23.746  26.858  1.00  0.00     0.027 C 
ENDBRANCH  13  17
ENDBRANCH  10  12
ENDBRANCH   8  10
ENDBRANCH   7   8
ENDBRANCH   6   7
ENDBRANCH   5   6
ENDBRANCH   4   5
ENDBRANCH   3   4
ENDBRANCH   2   3
ENDBRANCH   1   2
BRANCH   1  19
ATOM     19  C   UNL A   1      32.243  28.984  23.935  1.00  0.00     0.188 C 
BRANCH  19  20
ATOM     20  C   UNL A   1      31.209  29.510  24.956  1.00  0.00     0.188 C 
BRANCH  20  21
ATOM     21  O   UNL A   1      31.679  30.617  25.729  1.00  0.00    -0.376 OA
BRANCH  21  22
ATOM     22  C   UNL A   1      32.332  30.334  26.959  1.00  0.00     0.202 C 
BRANCH  22  23
ATOM     23  C   UNL A   1      33.336  31.412  27.360  1.00  0.00     0.261 C 
BRANCH  23  24
ATOM     24  O   UNL A   1      34.685  30.959  27.397  1.00  0.00    -0.460 OA
BRANCH  24  25
ATOM     25  C   UNL A   1      35.588  31.816  27.892  1.00  0.00     0.338 C 
ATOM     26  O   UNL A   1      35.766  32.987  27.561  1.00  0.00    -0.246 OA
BRANCH  25  27
ATOM     27  C   UNL A   1      36.451  31.112  28.836  1.00  0.00     0.060 A 
ATOM     28  C   UNL A   1      37.504  31.851  29.379  1.00  0.00     0.016 A 
ATOM     29  C   UNL A   1      36.402  29.711  28.907  1.00  0.00     0.016 A 
ATOM     30  C   UNL A   1      38.640  31.174  29.749  1.00  0.00     0.010 A 
ATOM     31  C   UNL A   1      37.543  29.037  29.261  1.00  0.00     0.010 A 
ATOM     32  C   UNL A   1      38.673  29.787  29.576  1.00  0.00    -0.014 A 
BRANCH  32  33
ATOM     33  C   UNL A   1      39.960  29.145  29.685  1.00  0.00     0.031 A 
ATOM     34  C   UNL A   1      40.463  29.000  31.058  1.00  0.00     0.074 A 
ATOM     35  C   UNL A   1      40.604  28.673  28.602  1.00  0.00     0.049 A 
ATOM     36  N   UNL A   1      41.535  29.508  31.564  1.00  0.00    -0.248 NA
ATOM     37  C   UNL A   1      39.616  28.274  32.014  1.00  0.00     0.031 C 
ATOM     38  C   UNL A   1      40.076  28.498  27.247  1.00  0.00     0.029 A 
ATOM     39  N   UNL A   1      41.854  28.143  28.527  1.00  0.00    -0.354 N 
ATOM     40  C   UNL A   1      41.593  29.024  32.863  1.00  0.00     0.074 A 
ATOM     41  C   UNL A   1      40.327  28.393  33.133  1.00  0.00     0.031 C 
ATOM     42  C   UNL A   1      40.926  27.715  26.544  1.00  0.00     0.029 A 
ATOM     43  C   UNL A   1      42.096  27.437  27.362  1.00  0.00     0.049 A 
ATOM     44  H   UNL A   1      42.527  28.253  29.237  1.00  0.00     0.167 HD
ATOM     45  C   UNL A   1      42.773  28.959  33.531  1.00  0.00     0.037 A 
ATOM     46  C   UNL A   1      43.144  26.612  27.133  1.00  0.00     0.037 A 
ATOM     47  C   UNL A   1      43.753  29.856  32.980  1.00  0.00     0.049 A 
ATOM     48  C   UNL A   1      44.211  26.949  28.109  1.00  0.00     0.074 A 
ATOM     49  C   UNL A   1      43.812  31.224  32.784  1.00  0.00     0.029 A 
ATOM     50  N   UNL A   1      44.769  29.329  32.224  1.00  0.00    -0.354 N 
ATOM     51  N   UNL A   1      44.921  28.043  28.081  1.00  0.00    -0.248 NA
ATOM     52  C   UNL A   1      44.247  26.220  29.369  1.00  0.00     0.031 C 
ATOM     53  C   UNL A   1      44.567  31.403  31.588  1.00  0.00     0.029 A 
ATOM     54  C   UNL A   1      44.937  30.139  31.131  1.00  0.00     0.049 A 
ATOM     55  H   UNL A   1      45.284  28.515  32.429  1.00  0.00     0.167 HD
ATOM     56  C   UNL A   1      45.142  28.354  29.415  1.00  0.00     0.074 A 
ATOM     57  C   UNL A   1      44.824  27.137  30.148  1.00  0.00     0.031 C 
ATOM     58  C   UNL A   1      45.285  29.651  29.817  1.00  0.00     0.037 A 
BRANCH  45  59
ATOM     59  C   UNL A   1      43.131  27.812  34.436  1.00  0.00     0.064 A 
ATOM     60  C   UNL A   1      43.413  28.068  35.789  1.00  0.00     0.173 A 
ATOM     61  C   UNL A   1      43.500  26.532  33.964  1.00  0.00     0.173 A 
ATOM     62  F   UNL A   1      43.134  29.265  36.328  1.00  0.00    -0.203 F 
ATOM     63  C   UNL A   1      44.075  27.136  36.590  1.00  0.00     0.198 A 
ATOM     64  C   UNL A   1      44.106  25.582  34.782  1.00  0.00     0.198 A 
ATOM     65  F   UNL A   1      43.399  26.189  32.673  1.00  0.00    -0.203 F 
ATOM     66  F   UNL A   1      44.440  27.472  37.835  1.00  0.00    -0.200 F 
ATOM     67  C   UNL A   1      44.424  25.896  36.085  1.00  0.00     0.200 A 
ATOM     68  F   UNL A   1      44.455  24.395  34.267  1.00  0.00    -0.200 F 
ATOM     69  F   UNL A   1      45.114  25.026  36.834  1.00  0.00    -0.200 F 
ENDBRANCH  45  59
BRANCH  46  70
ATOM     70  C   UNL A   1      43.184  25.386  26.304  1.00  0.00     0.064 A 
ATOM     71  C   UNL A   1      44.209  25.184  25.365  1.00  0.00     0.173 A 
ATOM     72  C   UNL A   1      42.367  24.273  26.586  1.00  0.00     0.173 A 
ATOM     73  F   UNL A   1      45.061  26.177  25.072  1.00  0.00    -0.203 F 
ATOM     74  C   UNL A   1      44.417  23.939  24.765  1.00  0.00     0.198 A 
ATOM     75  C   UNL A   1      42.565  23.036  25.974  1.00  0.00     0.198 A 
ATOM     76  F   UNL A   1      41.418  24.334  27.532  1.00  0.00    -0.203 F 
ATOM     77  F   UNL A   1      45.448  23.767  23.925  1.00  0.00    -0.200 F 
ATOM     78  C   UNL A   1      43.599  22.865  25.074  1.00  0.00     0.200 A 
ATOM     79  F   UNL A   1      41.786  21.998  26.308  1.00  0.00    -0.200 F 
ATOM     80  F   UNL A   1      43.832  21.659  24.540  1.00  0.00    -0.200 F 
ENDBRANCH  46  70
BRANCH  58  81
ATOM     81  C   UNL A   1      45.560  30.680  28.759  1.00  0.00     0.064 A 
ATOM     82  C   UNL A   1      46.849  31.029  28.322  1.00  0.00     0.173 A 
ATOM     83  C   UNL A   1      44.471  31.245  28.083  1.00  0.00     0.173 A 
ATOM     84  F   UNL A   1      47.936  30.449  28.847  1.00  0.00    -0.203 F 
ATOM     85  C   UNL A   1      47.034  31.950  27.293  1.00  0.00     0.198 A 
ATOM     86  C   UNL A   1      44.659  32.135  27.029  1.00  0.00     0.198 A 
ATOM     87  F   UNL A   1      43.217  30.901  28.418  1.00  0.00    -0.203 F 
ATOM     88  F   UNL A   1      48.274  32.286  26.907  1.00  0.00    -0.200 F 
ATOM     89  C   UNL A   1      45.939  32.498  26.644  1.00  0.00     0.200 A 
ATOM     90  F   UNL A   1      43.598  32.623  26.371  1.00  0.00    -0.200 F 
ATOM     91  F   UNL A   1      46.118  33.357  25.630  1.00  0.00    -0.200 F 
ENDBRANCH  58  81
ENDBRANCH  32  33
ENDBRANCH  25  27
ENDBRANCH  24  25
ENDBRANCH  23  24
ENDBRANCH  22  23
ENDBRANCH  21  22
ENDBRANCH  20  21
ENDBRANCH  19  20
ENDBRANCH   1  19
TORSDOF 22
ENDMDL
MODEL 3
REMARK VINA RESULT:      -9.2      3.148      4.763
REMARK SMILES CCn1ccnc1[C@H](F)C(=O)OCCOCCOCCOCCOC(=O)c1ccc(-c2c3nc(c(-c4c(F)c(F)c(F)c(F)c4F)c4ccc([nH]4)c(-c4c(F)c(F)c(F)c(F)c4F)c4nc(c(-c5c(F)c(F)c(F)c(F)c5F)c5ccc2[nH]5)C=C4)C=C3)cc1
REMARK SMILES IDX 18 1 17 2 16 3 15 4 14 5 13 6 12 7 10 8 11 9 8 10 9 11 7 12
REMARK SMILES IDX 3 13 4 14 5 15 6 16 2 17 1 18 19 19 20 20 21 21 22 22 23 23
REMARK SMILES IDX 24 24 25 25 26 26 27 27 28 28 89 29 29 30 88 31 30 32 31 33
REMARK SMILES IDX 32 34 82 35 33 36 87 37 81 38 83 39 34 40 86 41 80 42 79 43
REMARK SMILES IDX 35 45 67 46 47 47 66 48 48 49 51 50 65 51 84 52 49 53 50 54
REMARK SMILES IDX 64 56 85 57 52 58 36 59 37 60 45 61 38 62 39 63 43 64 46 65
REMARK SMILES IDX 40 66 41 67 44 68 42 69 68 70 69 71 77 72 70 73 71 74 75 75
REMARK SMILES IDX 78 76 72 77 73 78 76 79 74 80 53 81 54 82 62 83 55 84 56 85
REMARK SMILES IDX 60 86 63 87 57 88 58 89 61 90 59 91
REMARK H PARENT 83 44 51 55
REMARK Flexibility Score: inf
ROOT
ATOM      1  O   UNL A   1      32.576  27.526  24.688  1.00  0.00    -0.377 OA
ENDROOT
BRANCH   1   2
ATOM      2  C   UNL A   1      32.411  26.823  23.471  1.00  0.00     0.188 C 
BRANCH   2   3
ATOM      3  C   UNL A   1      30.948  26.678  22.994  1.00  0.00     0.188 C 
BRANCH   3   4
ATOM      4  O   UNL A   1      30.047  25.752  23.592  1.00  0.00    -0.376 OA
BRANCH   4   5
ATOM      5  C   UNL A   1      30.176  25.373  24.957  1.00  0.00     0.202 C 
BRANCH   5   6
ATOM      6  C   UNL A   1      30.709  23.981  25.289  1.00  0.00     0.261 C 
BRANCH   6   7
ATOM      7  O   UNL A   1      32.111  23.977  25.576  1.00  0.00    -0.461 OA
BRANCH   7   8
ATOM      8  C   UNL A   1      32.489  23.346  26.720  1.00  0.00     0.348 C 
ATOM      9  O   UNL A   1      31.740  23.116  27.667  1.00  0.00    -0.248 OA
BRANCH   8  10
ATOM     10  C   UNL A   1      33.915  22.824  26.626  1.00  0.00     0.341 C 
ATOM     11  F   UNL A   1      34.543  22.731  27.841  1.00  0.00    -0.226 F 
BRANCH  10  12
ATOM     12  C   UNL A   1      33.855  21.495  25.968  1.00  0.00     0.155 A 
ATOM     13  N   UNL A   1      34.863  20.869  25.265  1.00  0.00    -0.332 N 
ATOM     14  C   UNL A   1      34.303  19.737  24.708  1.00  0.00     0.107 A 
ATOM     15  C   UNL A   1      33.001  19.707  25.128  1.00  0.00     0.131 A 
ATOM     16  N   UNL A   1      32.741  20.781  25.917  1.00  0.00    -0.238 NA
BRANCH  13  17
ATOM     17  C   UNL A   1      36.271  21.162  25.065  1.00  0.00     0.120 C 
ATOM     18  C   UNL A   1      36.730  22.345  24.231  1.00  0.00     0.027 C 
ENDBRANCH  13  17
ENDBRANCH  10  12
ENDBRANCH   8  10
ENDBRANCH   7   8
ENDBRANCH   6   7
ENDBRANCH   5   6
ENDBRANCH   4   5
ENDBRANCH   3   4
ENDBRANCH   2   3
ENDBRANCH   1   2
BRANCH   1  19
ATOM     19  C   UNL A   1      32.638  28.944  24.552  1.00  0.00     0.188 C 
BRANCH  19  20
ATOM     20  C   UNL A   1      31.365  29.727  24.943  1.00  0.00     0.188 C 
BRANCH  20  21
ATOM     21  O   UNL A   1      31.493  30.456  26.165  1.00  0.00    -0.376 OA
BRANCH  21  22
ATOM     22  C   UNL A   1      32.515  30.058  27.069  1.00  0.00     0.202 C 
BRANCH  22  23
ATOM     23  C   UNL A   1      33.438  31.206  27.467  1.00  0.00     0.261 C 
BRANCH  23  24
ATOM     24  O   UNL A   1      34.820  30.866  27.452  1.00  0.00    -0.460 OA
BRANCH  24  25
ATOM     25  C   UNL A   1      35.666  31.789  27.933  1.00  0.00     0.338 C 
ATOM     26  O   UNL A   1      35.765  32.965  27.584  1.00  0.00    -0.246 OA
BRANCH  25  27
ATOM     27  C   UNL A   1      36.576  31.158  28.884  1.00  0.00     0.060 A 
ATOM     28  C   UNL A   1      37.675  31.920  29.286  1.00  0.00     0.016 A 
ATOM     29  C   UNL A   1      36.508  29.771  29.092  1.00  0.00     0.016 A 
ATOM     30  C   UNL A   1      38.820  31.255  29.647  1.00  0.00     0.010 A 
ATOM     31  C   UNL A   1      37.658  29.107  29.437  1.00  0.00     0.010 A 
ATOM     32  C   UNL A   1      38.818  29.857  29.606  1.00  0.00    -0.014 A 
BRANCH  32  33
ATOM     33  C   UNL A   1      40.098  29.199  29.695  1.00  0.00     0.031 A 
ATOM     34  C   UNL A   1      40.611  29.027  31.062  1.00  0.00     0.074 A 
ATOM     35  C   UNL A   1      40.727  28.734  28.601  1.00  0.00     0.049 A 
ATOM     36  N   UNL A   1      41.693  29.516  31.566  1.00  0.00    -0.248 NA
ATOM     37  C   UNL A   1      39.763  28.298  32.014  1.00  0.00     0.031 C 
ATOM     38  C   UNL A   1      40.187  28.585  27.247  1.00  0.00     0.029 A 
ATOM     39  N   UNL A   1      41.971  28.191  28.507  1.00  0.00    -0.354 N 
ATOM     40  C   UNL A   1      41.756  29.012  32.858  1.00  0.00     0.074 A 
ATOM     41  C   UNL A   1      40.485  28.393  33.128  1.00  0.00     0.031 C 
ATOM     42  C   UNL A   1      41.021  27.803  26.526  1.00  0.00     0.029 A 
ATOM     43  C   UNL A   1      42.195  27.499  27.330  1.00  0.00     0.049 A 
ATOM     44  H   UNL A   1      42.651  28.283  29.213  1.00  0.00     0.167 HD
ATOM     45  C   UNL A   1      42.940  28.923  33.514  1.00  0.00     0.037 A 
ATOM     46  C   UNL A   1      43.231  26.665  27.080  1.00  0.00     0.037 A 
ATOM     47  C   UNL A   1      43.926  29.817  32.968  1.00  0.00     0.049 A 
ATOM     48  C   UNL A   1      44.310  26.976  28.053  1.00  0.00     0.074 A 
ATOM     49  C   UNL A   1      44.000  31.186  32.791  1.00  0.00     0.029 A 
ATOM     50  N   UNL A   1      44.930  29.289  32.196  1.00  0.00    -0.354 N 
ATOM     51  N   UNL A   1      45.032  28.061  28.034  1.00  0.00    -0.248 NA
ATOM     52  C   UNL A   1      44.347  26.228  29.302  1.00  0.00     0.031 C 
ATOM     53  C   UNL A   1      44.747  31.374  31.591  1.00  0.00     0.029 A 
ATOM     54  C   UNL A   1      45.099  30.112  31.114  1.00  0.00     0.049 A 
ATOM     55  H   UNL A   1      45.436  28.466  32.385  1.00  0.00     0.167 HD
ATOM     56  C   UNL A   1      45.268  28.351  29.370  1.00  0.00     0.074 A 
ATOM     57  C   UNL A   1      44.942  27.127  30.089  1.00  0.00     0.031 C 
ATOM     58  C   UNL A   1      45.430  29.639  29.790  1.00  0.00     0.037 A 
BRANCH  45  59
ATOM     59  C   UNL A   1      43.292  27.759  34.400  1.00  0.00     0.064 A 
ATOM     60  C   UNL A   1      43.476  26.490  33.824  1.00  0.00     0.173 A 
ATOM     61  C   UNL A   1      43.158  27.782  35.807  1.00  0.00     0.173 A 
ATOM     62  F   UNL A   1      43.580  26.355  32.493  1.00  0.00    -0.203 F 
ATOM     63  C   UNL A   1      43.459  25.326  34.593  1.00  0.00     0.198 A 
ATOM     64  C   UNL A   1      43.202  26.623  36.577  1.00  0.00     0.198 A 
ATOM     65  F   UNL A   1      42.863  28.901  36.479  1.00  0.00    -0.203 F 
ATOM     66  F   UNL A   1      43.506  24.131  33.989  1.00  0.00    -0.200 F 
ATOM     67  C   UNL A   1      43.319  25.393  35.968  1.00  0.00     0.200 A 
ATOM     68  F   UNL A   1      43.043  26.709  37.905  1.00  0.00    -0.200 F 
ATOM     69  F   UNL A   1      43.241  24.274  36.700  1.00  0.00    -0.200 F 
ENDBRANCH  45  59
BRANCH  46  70
ATOM     70  C   UNL A   1      43.249  25.451  26.233  1.00  0.00     0.064 A 
ATOM     71  C   UNL A   1      44.288  25.228  25.316  1.00  0.00     0.173 A 
ATOM     72  C   UNL A   1      42.389  24.362  26.480  1.00  0.00     0.173 A 
ATOM     73  F   UNL A   1      45.180  26.196  25.057  1.00  0.00    -0.203 F 
ATOM     74  C   UNL A   1      44.469  23.986  24.701  1.00  0.00     0.198 A 
ATOM     75  C   UNL A   1      42.560  23.128  25.854  1.00  0.00     0.198 A 
ATOM     76  F   UNL A   1      41.421  24.441  27.405  1.00  0.00    -0.203 F 
ATOM     77  F   UNL A   1      45.513  23.792  23.882  1.00  0.00    -0.200 F 
ATOM     78  C   UNL A   1      43.609  22.936  24.974  1.00  0.00     0.200 A 
ATOM     79  F   UNL A   1      41.739  22.112  26.153  1.00  0.00    -0.200 F 
ATOM     80  F   UNL A   1      43.814  21.730  24.427  1.00  0.00    -0.200 F 
ENDBRANCH  46  70
BRANCH  58  81
ATOM     81  C   UNL A   1      45.708  30.680  28.744  1.00  0.00     0.064 A 
ATOM     82  C   UNL A   1      46.998  31.022  28.302  1.00  0.00     0.173 A 
ATOM     83  C   UNL A   1      44.620  31.267  28.084  1.00  0.00     0.173 A 
ATOM     84  F   UNL A   1      48.083  30.422  28.811  1.00  0.00    -0.203 F 
ATOM     85  C   UNL A   1      47.185  31.955  27.286  1.00  0.00     0.198 A 
ATOM     86  C   UNL A   1      44.811  32.169  27.042  1.00  0.00     0.198 A 
ATOM     87  F   UNL A   1      43.366  30.932  28.424  1.00  0.00    -0.203 F 
ATOM     88  F   UNL A   1      48.426  32.283  26.895  1.00  0.00    -0.200 F 
ATOM     89  C   UNL A   1      46.092  32.524  26.652  1.00  0.00     0.200 A 
ATOM     90  F   UNL A   1      43.750  32.678  26.399  1.00  0.00    -0.200 F 
ATOM     91  F   UNL A   1      46.273  33.395  25.649  1.00  0.00    -0.200 F 
ENDBRANCH  58  81
ENDBRANCH  32  33
ENDBRANCH  25  27
ENDBRANCH  24  25
ENDBRANCH  23  24
ENDBRANCH  22  23
ENDBRANCH  21  22
ENDBRANCH  20  21
ENDBRANCH  19  20
ENDBRANCH   1  19
TORSDOF 22
ENDMDL
