MODEL 1
REMARK VINA RESULT:     -10.0      0.000      0.000
REMARK SMILES O=C(NC[C@@H]1CC[C@H](C(=O)OCCOCCOCCOCCOC(=O)c2ccc(-c3c4nc(c(-c5c(F)c(F)c(F)c(F)c5F)c5ccc([nH]5)c(-c5c(F)c(F)c(F)c(F)c5F)c5nc(c(-c6c(F)c(F)c(F)c(F)c6F)c6ccc3[nH]6)C=C5)C=C4)cc2)O1)c1ccc(CO)cc1
REMARK SMILES IDX 15 1 14 2 13 3 12 4 11 5 9 6 10 7 8 8 5 9 6 10 89 11 7 12
REMARK SMILES IDX 4 13 3 14 1 15 2 16 90 18 91 19 97 20 92 21 96 22 93 23
REMARK SMILES IDX 94 24 95 25 16 27 17 28 18 29 19 30 20 31 21 32 22 33 23 34
REMARK SMILES IDX 24 35 25 36 26 37 27 38 88 39 28 40 87 41 29 42 30 43 31 44
REMARK SMILES IDX 81 45 32 46 86 47 80 48 82 49 33 50 85 51 79 52 78 53 34 55
REMARK SMILES IDX 66 56 46 57 65 58 47 59 50 60 64 61 83 62 48 63 49 64 63 66
REMARK SMILES IDX 84 67 51 68 35 69 36 70 44 71 37 72 38 73 42 74 45 75 39 76
REMARK SMILES IDX 40 77 43 78 41 79 67 80 68 81 76 82 69 83 70 84 74 85 77 86
REMARK SMILES IDX 71 87 72 88 75 89 73 90 52 91 53 92 61 93 54 94 55 95 59 96
REMARK SMILES IDX 62 97 56 98 57 99 60 100 58 101
REMARK H PARENT 3 17 95 26 82 54 50 65
REMARK Flexibility Score: inf
ROOT
ATOM      1  C   UNL A   1      32.983  36.359  29.471  1.00  0.00     0.188 C 
ENDROOT
BRANCH   1   2
ATOM      2  O   UNL A   1      32.516  35.247  28.731  1.00  0.00    -0.376 OA
BRANCH   2   3
ATOM      3  C   UNL A   1      33.366  34.141  28.452  1.00  0.00     0.202 C 
BRANCH   3   4
ATOM      4  C   UNL A   1      33.054  33.078  27.382  1.00  0.00     0.261 C 
BRANCH   4   5
ATOM      5  O   UNL A   1      33.323  31.711  27.744  1.00  0.00    -0.461 OA
BRANCH   5   6
ATOM      6  C   UNL A   1      32.779  30.767  26.937  1.00  0.00     0.335 C 
ATOM      7  O   UNL A   1      31.801  30.970  26.220  1.00  0.00    -0.249 OA
BRANCH   6   8
ATOM      8  C   UNL A   1      33.509  29.413  26.940  1.00  0.00     0.228 C 
ATOM      9  C   UNL A   1      32.998  28.005  25.142  1.00  0.00     0.138 C 
ATOM     10  C   UNL A   1      32.166  27.553  26.329  1.00  0.00     0.037 C 
ATOM     11  O   UNL A   1      33.841  29.086  25.579  1.00  0.00    -0.361 OA
ATOM     12  C   UNL A   1      32.887  28.147  27.499  1.00  0.00     0.047 C 
BRANCH   9  13
ATOM     13  C   UNL A   1      32.118  28.468  23.978  1.00  0.00     0.148 C 
BRANCH  13  14
ATOM     14  N   UNL A   1      32.559  27.896  22.709  1.00  0.00    -0.349 N 
ATOM     15  O   UNL A   1      33.609  26.411  21.381  1.00  0.00    -0.269 OA
ATOM     16  C   UNL A   1      32.978  26.621  22.413  1.00  0.00     0.251 C 
ATOM     17  H   UNL A   1      32.554  28.520  21.948  1.00  0.00     0.163 HD
BRANCH  16  18
ATOM     18  C   UNL A   1      32.700  25.506  23.345  1.00  0.00     0.039 A 
ATOM     19  C   UNL A   1      31.401  25.030  23.525  1.00  0.00     0.014 A 
ATOM     20  C   UNL A   1      33.758  24.918  24.044  1.00  0.00     0.014 A 
ATOM     21  C   UNL A   1      31.140  24.059  24.490  1.00  0.00     0.007 A 
ATOM     22  C   UNL A   1      33.497  23.928  24.997  1.00  0.00     0.007 A 
ATOM     23  C   UNL A   1      32.180  23.508  25.249  1.00  0.00    -0.023 A 
BRANCH  23  24
ATOM     24  C   UNL A   1      31.828  22.517  26.324  1.00  0.00     0.191 C 
BRANCH  24  25
ATOM     25  O   UNL A   1      30.595  21.883  26.027  1.00  0.00    -0.392 OA
ATOM     26  H   UNL A   1      30.714  20.920  26.047  1.00  0.00     0.211 HD
ENDBRANCH  24  25
ENDBRANCH  23  24
ENDBRANCH  16  18
ENDBRANCH  13  14
ENDBRANCH   9  13
ENDBRANCH   6   8
ENDBRANCH   5   6
ENDBRANCH   4   5
ENDBRANCH   3   4
ENDBRANCH   2   3
ENDBRANCH   1   2
BRANCH   1  27
ATOM     27  C   UNL A   1      32.789  36.394  30.991  1.00  0.00     0.188 C 
BRANCH  27  28
ATOM     28  O   UNL A   1      33.509  37.403  31.675  1.00  0.00    -0.377 OA
BRANCH  28  29
ATOM     29  C   UNL A   1      34.264  37.061  32.829  1.00  0.00     0.188 C 
BRANCH  29  30
ATOM     30  C   UNL A   1      34.848  35.646  32.982  1.00  0.00     0.188 C 
BRANCH  30  31
ATOM     31  O   UNL A   1      34.092  34.791  33.823  1.00  0.00    -0.376 OA
BRANCH  31  32
ATOM     32  C   UNL A   1      33.874  33.446  33.422  1.00  0.00     0.202 C 
BRANCH  32  33
ATOM     33  C   UNL A   1      34.768  32.863  32.315  1.00  0.00     0.261 C 
BRANCH  33  34
ATOM     34  O   UNL A   1      35.684  31.819  32.697  1.00  0.00    -0.460 OA
BRANCH  34  35
ATOM     35  C   UNL A   1      36.926  32.167  33.096  1.00  0.00     0.338 C 
ATOM     36  O   UNL A   1      37.234  32.798  34.083  1.00  0.00    -0.246 OA
BRANCH  35  37
ATOM     37  C   UNL A   1      37.898  31.493  32.204  1.00  0.00     0.060 A 
ATOM     38  C   UNL A   1      38.926  30.731  32.773  1.00  0.00     0.016 A 
ATOM     39  C   UNL A   1      37.822  31.650  30.819  1.00  0.00     0.016 A 
ATOM     40  C   UNL A   1      39.914  30.168  31.959  1.00  0.00     0.010 A 
ATOM     41  C   UNL A   1      38.821  31.100  30.007  1.00  0.00     0.010 A 
ATOM     42  C   UNL A   1      39.894  30.392  30.575  1.00  0.00    -0.014 A 
BRANCH  42  43
ATOM     43  C   UNL A   1      41.070  30.024  29.742  1.00  0.00     0.031 A 
ATOM     44  C   UNL A   1      41.138  28.657  29.142  1.00  0.00     0.074 A 
ATOM     45  C   UNL A   1      42.076  30.886  29.516  1.00  0.00     0.049 A 
ATOM     46  N   UNL A   1      42.093  28.115  28.434  1.00  0.00    -0.248 NA
ATOM     47  C   UNL A   1      39.984  27.779  29.386  1.00  0.00     0.031 C 
ATOM     48  C   UNL A   1      42.117  32.236  30.044  1.00  0.00     0.029 A 
ATOM     49  N   UNL A   1      43.249  30.767  28.810  1.00  0.00    -0.354 N 
ATOM     50  C   UNL A   1      41.666  26.827  28.158  1.00  0.00     0.074 A 
ATOM     51  C   UNL A   1      40.378  26.659  28.800  1.00  0.00     0.031 C 
ATOM     52  C   UNL A   1      43.255  32.829  29.650  1.00  0.00     0.029 A 
ATOM     53  C   UNL A   1      44.039  31.892  28.859  1.00  0.00     0.049 A 
ATOM     54  H   UNL A   1      43.500  29.954  28.316  1.00  0.00     0.167 HD
ATOM     55  C   UNL A   1      42.296  25.874  27.432  1.00  0.00     0.037 A 
ATOM     56  C   UNL A   1      45.260  32.147  28.349  1.00  0.00     0.037 A 
ATOM     57  C   UNL A   1      43.583  26.044  26.810  1.00  0.00     0.049 A 
ATOM     58  C   UNL A   1      45.957  31.056  27.586  1.00  0.00     0.074 A 
ATOM     59  C   UNL A   1      44.293  25.137  26.044  1.00  0.00     0.029 A 
ATOM     60  N   UNL A   1      44.362  27.191  26.893  1.00  0.00    -0.354 N 
ATOM     61  N   UNL A   1      45.533  29.849  27.308  1.00  0.00    -0.248 NA
ATOM     62  C   UNL A   1      47.303  31.354  27.078  1.00  0.00     0.031 C 
ATOM     63  C   UNL A   1      45.525  25.710  25.715  1.00  0.00     0.029 A 
ATOM     64  C   UNL A   1      45.557  27.002  26.215  1.00  0.00     0.049 A 
ATOM     65  H   UNL A   1      44.104  28.016  27.364  1.00  0.00     0.167 HD
ATOM     66  C   UNL A   1      46.547  29.248  26.579  1.00  0.00     0.074 A 
ATOM     67  C   UNL A   1      47.598  30.233  26.437  1.00  0.00     0.031 C 
ATOM     68  C   UNL A   1      46.601  27.989  26.081  1.00  0.00     0.037 A 
BRANCH  55  69
ATOM     69  C   UNL A   1      41.608  24.547  27.315  1.00  0.00     0.064 A 
ATOM     70  C   UNL A   1      40.442  24.382  26.553  1.00  0.00     0.173 A 
ATOM     71  C   UNL A   1      42.125  23.425  27.979  1.00  0.00     0.173 A 
ATOM     72  F   UNL A   1      39.894  25.431  25.919  1.00  0.00    -0.203 F 
ATOM     73  C   UNL A   1      39.801  23.148  26.485  1.00  0.00     0.198 A 
ATOM     74  C   UNL A   1      41.500  22.185  27.881  1.00  0.00     0.198 A 
ATOM     75  F   UNL A   1      43.234  23.531  28.725  1.00  0.00    -0.203 F 
ATOM     76  F   UNL A   1      38.654  23.028  25.801  1.00  0.00    -0.200 F 
ATOM     77  C   UNL A   1      40.334  22.050  27.143  1.00  0.00     0.200 A 
ATOM     78  F   UNL A   1      42.023  21.123  28.509  1.00  0.00    -0.200 F 
ATOM     79  F   UNL A   1      39.717  20.863  27.074  1.00  0.00    -0.200 F 
ENDBRANCH  55  69
BRANCH  56  80
ATOM     80  C   UNL A   1      45.904  33.478  28.546  1.00  0.00     0.064 A 
ATOM     81  C   UNL A   1      46.792  33.705  29.609  1.00  0.00     0.173 A 
ATOM     82  C   UNL A   1      45.642  34.554  27.684  1.00  0.00     0.173 A 
ATOM     83  F   UNL A   1      47.064  32.719  30.476  1.00  0.00    -0.203 F 
ATOM     84  C   UNL A   1      47.374  34.956  29.811  1.00  0.00     0.198 A 
ATOM     85  C   UNL A   1      46.254  35.793  27.864  1.00  0.00     0.198 A 
ATOM     86  F   UNL A   1      44.805  34.395  26.649  1.00  0.00    -0.203 F 
ATOM     87  F   UNL A   1      48.180  35.155  30.863  1.00  0.00    -0.200 F 
ATOM     88  C   UNL A   1      47.113  35.997  28.933  1.00  0.00     0.200 A 
ATOM     89  F   UNL A   1      46.013  36.789  27.002  1.00  0.00    -0.200 F 
ATOM     90  F   UNL A   1      47.681  37.195  29.122  1.00  0.00    -0.200 F 
ENDBRANCH  56  80
BRANCH  68  91
ATOM     91  C   UNL A   1      47.827  27.618  25.299  1.00  0.00     0.064 A 
ATOM     92  C   UNL A   1      47.870  27.714  23.899  1.00  0.00     0.173 A 
ATOM     93  C   UNL A   1      48.983  27.179  25.961  1.00  0.00     0.173 A 
ATOM     94  F   UNL A   1      46.785  28.108  23.215  1.00  0.00    -0.203 F 
ATOM     95  C   UNL A   1      49.014  27.355  23.193  1.00  0.00     0.198 A 
ATOM     96  C   UNL A   1      50.136  26.855  25.255  1.00  0.00     0.198 A 
ATOM     97  F   UNL A   1      48.995  27.072  27.299  1.00  0.00    -0.203 F 
ATOM     98  F   UNL A   1      49.013  27.398  21.853  1.00  0.00    -0.200 F 
ATOM     99  C   UNL A   1      50.148  26.933  23.871  1.00  0.00     0.200 A 
ATOM    100  F   UNL A   1      51.235  26.463  25.913  1.00  0.00    -0.200 F 
ATOM    101  F   UNL A   1      51.251  26.594  23.189  1.00  0.00    -0.200 F 
ENDBRANCH  68  91
ENDBRANCH  42  43
ENDBRANCH  35  37
ENDBRANCH  34  35
ENDBRANCH  33  34
ENDBRANCH  32  33
ENDBRANCH  31  32
ENDBRANCH  30  31
ENDBRANCH  29  30
ENDBRANCH  28  29
ENDBRANCH  27  28
ENDBRANCH   1  27
TORSDOF 25
ENDMDL
MODEL 2
REMARK VINA RESULT:      -9.7      3.860      9.695
REMARK SMILES O=C(NC[C@@H]1CC[C@H](C(=O)OCCOCCOCCOCCOC(=O)c2ccc(-c3c4nc(c(-c5c(F)c(F)c(F)c(F)c5F)c5ccc([nH]5)c(-c5c(F)c(F)c(F)c(F)c5F)c5nc(c(-c6c(F)c(F)c(F)c(F)c6F)c6ccc3[nH]6)C=C5)C=C4)cc2)O1)c1ccc(CO)cc1
REMARK SMILES IDX 15 1 14 2 13 3 12 4 11 5 9 6 10 7 8 8 5 9 6 10 89 11 7 12
REMARK SMILES IDX 4 13 3 14 1 15 2 16 90 18 91 19 97 20 92 21 96 22 93 23
REMARK SMILES IDX 94 24 95 25 16 27 17 28 18 29 19 30 20 31 21 32 22 33 23 34
REMARK SMILES IDX 24 35 25 36 26 37 27 38 88 39 28 40 87 41 29 42 30 43 31 44
REMARK SMILES IDX 81 45 32 46 86 47 80 48 82 49 33 50 85 51 79 52 78 53 34 55
REMARK SMILES IDX 66 56 46 57 65 58 47 59 50 60 64 61 83 62 48 63 49 64 63 66
REMARK SMILES IDX 84 67 51 68 35 69 36 70 44 71 37 72 38 73 42 74 45 75 39 76
REMARK SMILES IDX 40 77 43 78 41 79 67 80 68 81 76 82 69 83 70 84 74 85 77 86
REMARK SMILES IDX 71 87 72 88 75 89 73 90 52 91 53 92 61 93 54 94 55 95 59 96
REMARK SMILES IDX 62 97 56 98 57 99 60 100 58 101
REMARK H PARENT 3 17 95 26 82 54 50 65
REMARK Flexibility Score: inf
ROOT
ATOM      1  C   UNL A   1      33.068  21.578  25.317  1.00  0.00     0.188 C 
ENDROOT
BRANCH   1   2
ATOM      2  O   UNL A   1      32.832  21.911  23.962  1.00  0.00    -0.376 OA
BRANCH   2   3
ATOM      3  C   UNL A   1      31.637  22.572  23.566  1.00  0.00     0.202 C 
BRANCH   3   4
ATOM      4  C   UNL A   1      30.825  23.492  24.497  1.00  0.00     0.261 C 
BRANCH   4   5
ATOM      5  O   UNL A   1      31.213  24.878  24.520  1.00  0.00    -0.461 OA
BRANCH   5   6
ATOM      6  C   UNL A   1      31.887  25.286  25.625  1.00  0.00     0.335 C 
ATOM      7  O   UNL A   1      31.396  25.302  26.751  1.00  0.00    -0.249 OA
BRANCH   6   8
ATOM      8  C   UNL A   1      33.352  25.688  25.377  1.00  0.00     0.228 C 
ATOM      9  C   UNL A   1      33.652  27.481  23.903  1.00  0.00     0.138 C 
ATOM     10  C   UNL A   1      33.878  26.201  23.120  1.00  0.00     0.037 C 
ATOM     11  O   UNL A   1      33.404  27.122  25.274  1.00  0.00    -0.361 OA
ATOM     12  C   UNL A   1      34.150  25.188  24.188  1.00  0.00     0.047 C 
BRANCH   9  13
ATOM     13  C   UNL A   1      32.470  28.281  23.352  1.00  0.00     0.148 C 
BRANCH  13  14
ATOM     14  N   UNL A   1      31.251  27.479  23.304  1.00  0.00    -0.349 N 
ATOM     15  O   UNL A   1      29.057  27.060  23.590  1.00  0.00    -0.269 OA
ATOM     16  C   UNL A   1      29.935  27.872  23.311  1.00  0.00     0.251 C 
ATOM     17  H   UNL A   1      31.395  26.506  23.260  1.00  0.00     0.163 HD
BRANCH  16  18
ATOM     18  C   UNL A   1      29.570  29.275  23.014  1.00  0.00     0.039 A 
ATOM     19  C   UNL A   1      29.516  30.231  24.028  1.00  0.00     0.014 A 
ATOM     20  C   UNL A   1      29.288  29.645  21.696  1.00  0.00     0.014 A 
ATOM     21  C   UNL A   1      29.060  31.518  23.752  1.00  0.00     0.007 A 
ATOM     22  C   UNL A   1      28.851  30.944  21.416  1.00  0.00     0.007 A 
ATOM     23  C   UNL A   1      28.707  31.887  22.448  1.00  0.00    -0.023 A 
BRANCH  23  24
ATOM     24  C   UNL A   1      28.154  33.267  22.224  1.00  0.00     0.191 C 
BRANCH  24  25
ATOM     25  O   UNL A   1      27.586  33.368  20.929  1.00  0.00    -0.392 OA
ATOM     26  H   UNL A   1      27.318  34.286  20.765  1.00  0.00     0.211 HD
ENDBRANCH  24  25
ENDBRANCH  23  24
ENDBRANCH  16  18
ENDBRANCH  13  14
ENDBRANCH   9  13
ENDBRANCH   6   8
ENDBRANCH   5   6
ENDBRANCH   4   5
ENDBRANCH   3   4
ENDBRANCH   2   3
ENDBRANCH   1   2
BRANCH   1  27
ATOM     27  C   UNL A   1      34.285  20.722  25.686  1.00  0.00     0.188 C 
BRANCH  27  28
ATOM     28  O   UNL A   1      35.383  21.427  26.235  1.00  0.00    -0.377 OA
BRANCH  28  29
ATOM     29  C   UNL A   1      36.282  22.105  25.368  1.00  0.00     0.188 C 
BRANCH  29  30
ATOM     30  C   UNL A   1      37.619  21.453  24.976  1.00  0.00     0.188 C 
BRANCH  30  31
ATOM     31  O   UNL A   1      37.540  20.059  24.732  1.00  0.00    -0.376 OA
BRANCH  31  32
ATOM     32  C   UNL A   1      38.572  19.214  25.220  1.00  0.00     0.202 C 
BRANCH  32  33
ATOM     33  C   UNL A   1      39.878  19.865  25.704  1.00  0.00     0.261 C 
BRANCH  33  34
ATOM     34  O   UNL A   1      40.921  18.981  26.158  1.00  0.00    -0.460 OA
BRANCH  34  35
ATOM     35  C   UNL A   1      42.202  19.395  26.064  1.00  0.00     0.338 C 
ATOM     36  O   UNL A   1      43.152  18.768  25.649  1.00  0.00    -0.246 OA
BRANCH  35  37
ATOM     37  C   UNL A   1      42.241  20.838  26.398  1.00  0.00     0.060 A 
ATOM     38  C   UNL A   1      42.487  21.765  25.377  1.00  0.00     0.016 A 
ATOM     39  C   UNL A   1      42.082  21.268  27.716  1.00  0.00     0.016 A 
ATOM     40  C   UNL A   1      42.628  23.121  25.682  1.00  0.00     0.010 A 
ATOM     41  C   UNL A   1      42.240  22.625  28.022  1.00  0.00     0.010 A 
ATOM     42  C   UNL A   1      42.555  23.554  27.014  1.00  0.00    -0.014 A 
BRANCH  42  43
ATOM     43  C   UNL A   1      42.962  24.938  27.374  1.00  0.00     0.031 A 
ATOM     44  C   UNL A   1      44.367  25.374  27.112  1.00  0.00     0.074 A 
ATOM     45  C   UNL A   1      42.103  25.806  27.934  1.00  0.00     0.049 A 
ATOM     46  N   UNL A   1      44.943  26.512  27.398  1.00  0.00    -0.248 NA
ATOM     47  C   UNL A   1      45.244  24.394  26.455  1.00  0.00     0.031 C 
ATOM     48  C   UNL A   1      40.718  25.495  28.231  1.00  0.00     0.029 A 
ATOM     49  N   UNL A   1      42.252  27.104  28.360  1.00  0.00    -0.354 N 
ATOM     50  C   UNL A   1      46.253  26.383  26.971  1.00  0.00     0.074 A 
ATOM     51  C   UNL A   1      46.396  25.046  26.432  1.00  0.00     0.031 C 
ATOM     52  C   UNL A   1      40.137  26.565  28.795  1.00  0.00     0.029 A 
ATOM     53  C   UNL A   1      41.115  27.635  28.921  1.00  0.00     0.049 A 
ATOM     54  H   UNL A   1      43.095  27.606  28.273  1.00  0.00     0.167 HD
ATOM     55  C   UNL A   1      47.245  27.303  27.025  1.00  0.00     0.037 A 
ATOM     56  C   UNL A   1      40.877  28.833  29.491  1.00  0.00     0.037 A 
ATOM     57  C   UNL A   1      47.099  28.624  27.576  1.00  0.00     0.049 A 
ATOM     58  C   UNL A   1      42.007  29.819  29.579  1.00  0.00     0.074 A 
ATOM     59  C   UNL A   1      48.047  29.629  27.662  1.00  0.00     0.029 A 
ATOM     60  N   UNL A   1      45.937  29.124  28.150  1.00  0.00    -0.354 N 
ATOM     61  N   UNL A   1      43.238  29.696  29.148  1.00  0.00    -0.248 NA
ATOM     62  C   UNL A   1      41.726  31.099  30.242  1.00  0.00     0.031 C 
ATOM     63  C   UNL A   1      47.479  30.712  28.339  1.00  0.00     0.029 A 
ATOM     64  C   UNL A   1      46.154  30.413  28.616  1.00  0.00     0.049 A 
ATOM     65  H   UNL A   1      45.085  28.636  28.216  1.00  0.00     0.167 HD
ATOM     66  C   UNL A   1      43.873  30.886  29.469  1.00  0.00     0.074 A 
ATOM     67  C   UNL A   1      42.884  31.728  30.109  1.00  0.00     0.031 C 
ATOM     68  C   UNL A   1      45.163  31.242  29.256  1.00  0.00     0.037 A 
BRANCH  55  69
ATOM     69  C   UNL A   1      48.588  26.881  26.508  1.00  0.00     0.064 A 
ATOM     70  C   UNL A   1      48.955  27.063  25.166  1.00  0.00     0.173 A 
ATOM     71  C   UNL A   1      49.519  26.284  27.371  1.00  0.00     0.173 A 
ATOM     72  F   UNL A   1      48.090  27.607  24.296  1.00  0.00    -0.203 F 
ATOM     73  C   UNL A   1      50.195  26.634  24.700  1.00  0.00     0.198 A 
ATOM     74  C   UNL A   1      50.770  25.887  26.909  1.00  0.00     0.198 A 
ATOM     75  F   UNL A   1      49.214  26.083  28.661  1.00  0.00    -0.203 F 
ATOM     76  F   UNL A   1      50.500  26.761  23.401  1.00  0.00    -0.200 F 
ATOM     77  C   UNL A   1      51.103  26.054  25.573  1.00  0.00     0.200 A 
ATOM     78  F   UNL A   1      51.650  25.336  27.755  1.00  0.00    -0.200 F 
ATOM     79  F   UNL A   1      52.297  25.644  25.123  1.00  0.00    -0.200 F 
ENDBRANCH  55  69
BRANCH  56  80
ATOM     80  C   UNL A   1      39.526  29.166  30.027  1.00  0.00     0.064 A 
ATOM     81  C   UNL A   1      39.137  28.768  31.316  1.00  0.00     0.173 A 
ATOM     82  C   UNL A   1      38.589  29.880  29.264  1.00  0.00     0.173 A 
ATOM     83  F   UNL A   1      39.983  28.065  32.083  1.00  0.00    -0.203 F 
ATOM     84  C   UNL A   1      37.865  29.055  31.809  1.00  0.00     0.198 A 
ATOM     85  C   UNL A   1      37.331  30.200  29.772  1.00  0.00     0.198 A 
ATOM     86  F   UNL A   1      38.906  30.290  28.027  1.00  0.00    -0.203 F 
ATOM     87  F   UNL A   1      37.506  28.619  33.025  1.00  0.00    -0.200 F 
ATOM     88  C   UNL A   1      36.966  29.778  31.041  1.00  0.00     0.200 A 
ATOM     89  F   UNL A   1      36.474  30.916  29.033  1.00  0.00    -0.200 F 
ATOM     90  F   UNL A   1      35.747  30.063  31.520  1.00  0.00    -0.200 F 
ENDBRANCH  56  80
BRANCH  68  91
ATOM     91  C   UNL A   1      45.569  32.622  29.688  1.00  0.00     0.064 A 
ATOM     92  C   UNL A   1      45.606  33.698  28.788  1.00  0.00     0.173 A 
ATOM     93  C   UNL A   1      45.908  32.873  31.025  1.00  0.00     0.173 A 
ATOM     94  F   UNL A   1      45.311  33.507  27.493  1.00  0.00    -0.203 F 
ATOM     95  C   UNL A   1      45.995  34.967  29.208  1.00  0.00     0.198 A 
ATOM     96  C   UNL A   1      46.261  34.149  31.449  1.00  0.00     0.198 A 
ATOM     97  F   UNL A   1      45.886  31.878  31.926  1.00  0.00    -0.203 F 
ATOM     98  F   UNL A   1      46.079  35.968  28.320  1.00  0.00    -0.200 F 
ATOM     99  C   UNL A   1      46.315  35.193  30.539  1.00  0.00     0.200 A 
ATOM    100  F   UNL A   1      46.555  34.369  32.738  1.00  0.00    -0.200 F 
ATOM    101  F   UNL A   1      46.683  36.417  30.942  1.00  0.00    -0.200 F 
ENDBRANCH  68  91
ENDBRANCH  42  43
ENDBRANCH  35  37
ENDBRANCH  34  35
ENDBRANCH  33  34
ENDBRANCH  32  33
ENDBRANCH  31  32
ENDBRANCH  30  31
ENDBRANCH  29  30
ENDBRANCH  28  29
ENDBRANCH  27  28
ENDBRANCH   1  27
TORSDOF 25
ENDMDL
MODEL 3
REMARK VINA RESULT:      -9.7      4.071      9.411
REMARK SMILES O=C(NC[C@@H]1CC[C@H](C(=O)OCCOCCOCCOCCOC(=O)c2ccc(-c3c4nc(c(-c5c(F)c(F)c(F)c(F)c5F)c5ccc([nH]5)c(-c5c(F)c(F)c(F)c(F)c5F)c5nc(c(-c6c(F)c(F)c(F)c(F)c6F)c6ccc3[nH]6)C=C5)C=C4)cc2)O1)c1ccc(CO)cc1
REMARK SMILES IDX 15 1 14 2 13 3 12 4 11 5 9 6 10 7 8 8 5 9 6 10 89 11 7 12
REMARK SMILES IDX 4 13 3 14 1 15 2 16 90 18 91 19 97 20 92 21 96 22 93 23
REMARK SMILES IDX 94 24 95 25 16 27 17 28 18 29 19 30 20 31 21 32 22 33 23 34
REMARK SMILES IDX 24 35 25 36 26 37 27 38 88 39 28 40 87 41 29 42 30 43 31 44
REMARK SMILES IDX 81 45 32 46 86 47 80 48 82 49 33 50 85 51 79 52 78 53 34 55
REMARK SMILES IDX 66 56 46 57 65 58 47 59 50 60 64 61 83 62 48 63 49 64 63 66
REMARK SMILES IDX 84 67 51 68 35 69 36 70 44 71 37 72 38 73 42 74 45 75 39 76
REMARK SMILES IDX 40 77 43 78 41 79 67 80 68 81 76 82 69 83 70 84 74 85 77 86
REMARK SMILES IDX 71 87 72 88 75 89 73 90 52 91 53 92 61 93 54 94 55 95 59 96
REMARK SMILES IDX 62 97 56 98 57 99 60 100 58 101
REMARK H PARENT 3 17 95 26 82 54 50 65
REMARK Flexibility Score: inf
ROOT
ATOM      1  C   UNL A   1      33.416  21.757  24.994  1.00  0.00     0.188 C 
ENDROOT
BRANCH   1   2
ATOM      2  O   UNL A   1      33.607  21.842  23.595  1.00  0.00    -0.376 OA
BRANCH   2   3
ATOM      3  C   UNL A   1      32.531  22.172  22.726  1.00  0.00     0.202 C 
BRANCH   3   4
ATOM      4  C   UNL A   1      31.324  23.029  23.155  1.00  0.00     0.261 C 
BRANCH   4   5
ATOM      5  O   UNL A   1      31.601  24.406  23.474  1.00  0.00    -0.461 OA
BRANCH   5   6
ATOM      6  C   UNL A   1      30.710  25.013  24.296  1.00  0.00     0.335 C 
ATOM      7  O   UNL A   1      29.698  25.585  23.896  1.00  0.00    -0.249 OA
BRANCH   6   8
ATOM      8  C   UNL A   1      31.030  24.895  25.797  1.00  0.00     0.228 C 
ATOM      9  C   UNL A   1      31.757  26.873  26.815  1.00  0.00     0.138 C 
ATOM     10  C   UNL A   1      32.987  26.044  26.493  1.00  0.00     0.037 C 
ATOM     11  O   UNL A   1      30.598  26.108  26.437  1.00  0.00    -0.361 OA
ATOM     12  C   UNL A   1      32.435  24.663  26.320  1.00  0.00     0.047 C 
BRANCH   9  13
ATOM     13  C   UNL A   1      31.765  28.210  26.070  1.00  0.00     0.148 C 
BRANCH  13  14
ATOM     14  N   UNL A   1      32.466  28.112  24.793  1.00  0.00    -0.349 N 
ATOM     15  O   UNL A   1      32.640  27.970  22.552  1.00  0.00    -0.269 OA
ATOM     16  C   UNL A   1      32.036  28.416  23.524  1.00  0.00     0.251 C 
ATOM     17  H   UNL A   1      33.390  27.776  24.852  1.00  0.00     0.163 HD
BRANCH  16  18
ATOM     18  C   UNL A   1      30.832  29.252  23.322  1.00  0.00     0.039 A 
ATOM     19  C   UNL A   1      29.948  28.993  22.274  1.00  0.00     0.014 A 
ATOM     20  C   UNL A   1      30.576  30.308  24.201  1.00  0.00     0.014 A 
ATOM     21  C   UNL A   1      28.884  29.857  22.028  1.00  0.00     0.007 A 
ATOM     22  C   UNL A   1      29.493  31.162  23.965  1.00  0.00     0.007 A 
ATOM     23  C   UNL A   1      28.652  30.960  22.858  1.00  0.00    -0.023 A 
BRANCH  23  24
ATOM     24  C   UNL A   1      27.532  31.897  22.499  1.00  0.00     0.191 C 
BRANCH  24  25
ATOM     25  O   UNL A   1      28.044  33.064  21.877  1.00  0.00    -0.392 OA
ATOM     26  H   UNL A   1      27.931  32.994  20.916  1.00  0.00     0.211 HD
ENDBRANCH  24  25
ENDBRANCH  23  24
ENDBRANCH  16  18
ENDBRANCH  13  14
ENDBRANCH   9  13
ENDBRANCH   6   8
ENDBRANCH   5   6
ENDBRANCH   4   5
ENDBRANCH   3   4
ENDBRANCH   2   3
ENDBRANCH   1   2
BRANCH   1  27
ATOM     27  C   UNL A   1      34.394  20.936  25.844  1.00  0.00     0.188 C 
BRANCH  27  28
ATOM     28  O   UNL A   1      35.474  21.662  26.403  1.00  0.00    -0.377 OA
BRANCH  28  29
ATOM     29  C   UNL A   1      36.415  22.286  25.541  1.00  0.00     0.188 C 
BRANCH  29  30
ATOM     30  C   UNL A   1      37.649  21.509  25.049  1.00  0.00     0.188 C 
BRANCH  30  31
ATOM     31  O   UNL A   1      37.457  20.108  24.955  1.00  0.00    -0.376 OA
BRANCH  31  32
ATOM     32  C   UNL A   1      38.549  19.242  25.229  1.00  0.00     0.202 C 
BRANCH  32  33
ATOM     33  C   UNL A   1      39.855  19.862  25.754  1.00  0.00     0.261 C 
BRANCH  33  34
ATOM     34  O   UNL A   1      40.920  18.954  26.092  1.00  0.00    -0.460 OA
BRANCH  34  35
ATOM     35  C   UNL A   1      42.194  19.356  25.898  1.00  0.00     0.338 C 
ATOM     36  O   UNL A   1      43.079  18.756  25.327  1.00  0.00    -0.246 OA
BRANCH  35  37
ATOM     37  C   UNL A   1      42.305  20.760  26.356  1.00  0.00     0.060 A 
ATOM     38  C   UNL A   1      42.484  21.773  25.405  1.00  0.00     0.016 A 
ATOM     39  C   UNL A   1      42.278  21.070  27.717  1.00  0.00     0.016 A 
ATOM     40  C   UNL A   1      42.692  23.092  25.816  1.00  0.00     0.010 A 
ATOM     41  C   UNL A   1      42.503  22.389  28.128  1.00  0.00     0.010 A 
ATOM     42  C   UNL A   1      42.752  23.400  27.183  1.00  0.00    -0.014 A 
BRANCH  42  43
ATOM     43  C   UNL A   1      43.229  24.736  27.628  1.00  0.00     0.031 A 
ATOM     44  C   UNL A   1      42.226  25.777  28.007  1.00  0.00     0.074 A 
ATOM     45  C   UNL A   1      44.537  25.036  27.695  1.00  0.00     0.049 A 
ATOM     46  N   UNL A   1      42.423  27.018  28.367  1.00  0.00    -0.248 NA
ATOM     47  C   UNL A   1      40.814  25.372  27.959  1.00  0.00     0.031 C 
ATOM     48  C   UNL A   1      45.598  24.107  27.355  1.00  0.00     0.029 A 
ATOM     49  N   UNL A   1      45.202  26.185  28.052  1.00  0.00    -0.354 N 
ATOM     50  C   UNL A   1      41.161  27.550  28.574  1.00  0.00     0.074 A 
ATOM     51  C   UNL A   1      40.205  26.505  28.272  1.00  0.00     0.031 C 
ATOM     52  C   UNL A   1      46.784  24.714  27.514  1.00  0.00     0.029 A 
ATOM     53  C   UNL A   1      46.569  26.087  27.947  1.00  0.00     0.049 A 
ATOM     54  H   UNL A   1      44.742  27.001  28.354  1.00  0.00     0.167 HD
ATOM     55  C   UNL A   1      40.837  28.799  28.982  1.00  0.00     0.037 A 
ATOM     56  C   UNL A   1      47.546  26.992  28.151  1.00  0.00     0.037 A 
ATOM     57  C   UNL A   1      41.794  29.836  29.265  1.00  0.00     0.049 A 
ATOM     58  C   UNL A   1      47.156  28.384  28.559  1.00  0.00     0.074 A 
ATOM     59  C   UNL A   1      41.556  31.129  29.697  1.00  0.00     0.029 A 
ATOM     60  N   UNL A   1      43.170  29.707  29.133  1.00  0.00    -0.354 N 
ATOM     61  N   UNL A   1      45.960  28.870  28.778  1.00  0.00    -0.248 NA
ATOM     62  C   UNL A   1      48.243  29.357  28.735  1.00  0.00     0.031 C 
ATOM     63  C   UNL A   1      42.780  31.800  29.767  1.00  0.00     0.029 A 
ATOM     64  C   UNL A   1      43.791  30.907  29.449  1.00  0.00     0.049 A 
ATOM     65  H   UNL A   1      43.636  28.886  28.857  1.00  0.00     0.167 HD
ATOM     66  C   UNL A   1      46.147  30.197  29.135  1.00  0.00     0.074 A 
ATOM     67  C   UNL A   1      47.576  30.432  29.127  1.00  0.00     0.031 C 
ATOM     68  C   UNL A   1      45.215  31.134  29.434  1.00  0.00     0.037 A 
BRANCH  55  69
ATOM     69  C   UNL A   1      39.376  29.114  29.099  1.00  0.00     0.064 A 
ATOM     70  C   UNL A   1      38.701  29.049  30.328  1.00  0.00     0.173 A 
ATOM     71  C   UNL A   1      38.641  29.483  27.963  1.00  0.00     0.173 A 
ATOM     72  F   UNL A   1      39.354  28.677  31.440  1.00  0.00    -0.203 F 
ATOM     73  C   UNL A   1      37.336  29.314  30.409  1.00  0.00     0.198 A 
ATOM     74  C   UNL A   1      37.284  29.780  28.054  1.00  0.00     0.198 A 
ATOM     75  F   UNL A   1      39.238  29.554  26.765  1.00  0.00    -0.203 F 
ATOM     76  F   UNL A   1      36.700  29.186  31.581  1.00  0.00    -0.200 F 
ATOM     77  C   UNL A   1      36.631  29.686  29.274  1.00  0.00     0.200 A 
ATOM     78  F   UNL A   1      36.607  30.149  26.958  1.00  0.00    -0.200 F 
ATOM     79  F   UNL A   1      35.319  29.942  29.354  1.00  0.00    -0.200 F 
ENDBRANCH  55  69
BRANCH  56  80
ATOM     80  C   UNL A   1      48.979  26.619  27.969  1.00  0.00     0.064 A 
ATOM     81  C   UNL A   1      49.564  26.585  26.694  1.00  0.00     0.173 A 
ATOM     82  C   UNL A   1      49.794  26.282  29.060  1.00  0.00     0.173 A 
ATOM     83  F   UNL A   1      48.828  26.878  25.612  1.00  0.00    -0.203 F 
ATOM     84  C   UNL A   1      50.896  26.211  26.518  1.00  0.00     0.198 A 
ATOM     85  C   UNL A   1      51.136  25.945  28.888  1.00  0.00     0.198 A 
ATOM     86  F   UNL A   1      49.291  26.301  30.304  1.00  0.00    -0.203 F 
ATOM     87  F   UNL A   1      51.412  26.140  25.283  1.00  0.00    -0.200 F 
ATOM     88  C   UNL A   1      51.683  25.900  27.616  1.00  0.00     0.200 A 
ATOM     89  F   UNL A   1      51.897  25.665  29.954  1.00  0.00    -0.200 F 
ATOM     90  F   UNL A   1      52.966  25.551  27.447  1.00  0.00    -0.200 F 
ENDBRANCH  56  80
BRANCH  68  91
ATOM     91  C   UNL A   1      45.718  32.496  29.817  1.00  0.00     0.064 A 
ATOM     92  C   UNL A   1      46.089  32.804  31.135  1.00  0.00     0.173 A 
ATOM     93  C   UNL A   1      45.847  33.500  28.847  1.00  0.00     0.173 A 
ATOM     94  F   UNL A   1      45.965  31.886  32.105  1.00  0.00    -0.203 F 
ATOM     95  C   UNL A   1      46.543  34.077  31.470  1.00  0.00     0.198 A 
ATOM     96  C   UNL A   1      46.335  34.759  29.178  1.00  0.00     0.198 A 
ATOM     97  F   UNL A   1      45.508  33.255  27.572  1.00  0.00    -0.203 F 
ATOM     98  F   UNL A   1      46.836  34.368  32.745  1.00  0.00    -0.200 F 
ATOM     99  C   UNL A   1      46.672  35.051  30.490  1.00  0.00     0.200 A 
ATOM    100  F   UNL A   1      46.473  35.694  28.228  1.00  0.00    -0.200 F 
ATOM    101  F   UNL A   1      47.115  36.273  30.814  1.00  0.00    -0.200 F 
ENDBRANCH  68  91
ENDBRANCH  42  43
ENDBRANCH  35  37
ENDBRANCH  34  35
ENDBRANCH  33  34
ENDBRANCH  32  33
ENDBRANCH  31  32
ENDBRANCH  30  31
ENDBRANCH  29  30
ENDBRANCH  28  29
ENDBRANCH  27  28
ENDBRANCH   1  27
TORSDOF 25
ENDMDL
