MODEL 1
REMARK VINA RESULT:      -9.3      0.000      0.000
REMARK SMILES C=CCc1cccc(-c2ccc([C@@H](C)C(=O)OCCOCCOCCOCCOC(=O)c3ccc(-c4c5nc(c(-c6c(F)c(F)c(F)c(F)c6F)c6ccc([nH]6)c(-c6c(F)c(F)c(F)c(F)c6F)c6nc(c(-c7c(F)c(F)c(F)c(F)c7F)c7ccc4[nH]7)C=C6)C=C5)cc3)cc2)c1
REMARK SMILES IDX 22 1 21 2 20 3 19 4 18 5 17 6 15 7 16 8 13 9 14 10 12 11
REMARK SMILES IDX 9 12 10 13 96 14 11 15 95 16 8 17 4 18 5 19 97 20 6 21 7 22
REMARK SMILES IDX 3 23 2 24 1 25 23 26 24 27 25 28 26 29 27 30 28 31 29 32
REMARK SMILES IDX 30 33 31 34 32 35 33 36 94 37 34 38 93 39 35 40 36 41 37 42
REMARK SMILES IDX 87 43 38 44 92 45 86 46 88 47 39 48 91 49 85 50 84 51 40 53
REMARK SMILES IDX 72 54 52 55 71 56 53 57 56 58 70 59 89 60 54 61 55 62 69 64
REMARK SMILES IDX 90 65 57 66 41 67 42 68 50 69 43 70 44 71 48 72 51 73 45 74
REMARK SMILES IDX 46 75 49 76 47 77 73 78 74 79 82 80 75 81 76 82 80 83 83 84
REMARK SMILES IDX 77 85 78 86 81 87 79 88 58 89 59 90 67 91 60 92 61 93 65 94
REMARK SMILES IDX 68 95 62 96 63 97 66 98 64 99
REMARK H PARENT 88 52 56 63
REMARK Flexibility Score: inf
ROOT
ATOM      1  C   UNL A   1      34.548  30.294  27.516  1.00  0.00     0.188 C 
ENDROOT
BRANCH   1   2
ATOM      2  C   UNL A   1      33.166  30.174  26.861  1.00  0.00     0.188 C 
BRANCH   2   3
ATOM      3  O   UNL A   1      32.535  28.909  26.718  1.00  0.00    -0.376 OA
BRANCH   3   4
ATOM      4  C   UNL A   1      32.494  28.256  25.458  1.00  0.00     0.202 C 
BRANCH   4   5
ATOM      5  C   UNL A   1      32.968  28.953  24.166  1.00  0.00     0.261 C 
BRANCH   5   6
ATOM      6  O   UNL A   1      32.629  28.324  22.913  1.00  0.00    -0.463 OA
BRANCH   6   7
ATOM      7  C   UNL A   1      31.336  28.412  22.527  1.00  0.00     0.313 C 
ATOM      8  O   UNL A   1      30.815  29.464  22.159  1.00  0.00    -0.252 OA
BRANCH   7   9
ATOM      9  C   UNL A   1      30.519  27.123  22.601  1.00  0.00     0.126 C 
ATOM     10  C   UNL A   1      29.326  27.369  23.519  1.00  0.00     0.025 C 
BRANCH   9  11
ATOM     11  C   UNL A   1      31.175  25.770  22.893  1.00  0.00    -0.034 A 
ATOM     12  C   UNL A   1      32.336  23.225  23.552  1.00  0.00    -0.018 A 
ATOM     13  C   UNL A   1      32.718  23.941  22.402  1.00  0.00     0.009 A 
ATOM     14  C   UNL A   1      31.348  23.799  24.361  1.00  0.00     0.009 A 
ATOM     15  C   UNL A   1      32.154  25.192  22.079  1.00  0.00     0.005 A 
ATOM     16  C   UNL A   1      30.791  25.051  24.046  1.00  0.00     0.005 A 
BRANCH  12  17
ATOM     17  C   UNL A   1      33.031  21.980  23.949  1.00  0.00    -0.018 A 
ATOM     18  C   UNL A   1      33.137  19.532  24.260  1.00  0.00    -0.044 A 
ATOM     19  C   UNL A   1      34.402  19.678  24.846  1.00  0.00     0.004 A 
ATOM     20  C   UNL A   1      32.455  20.696  23.831  1.00  0.00     0.012 A 
ATOM     21  C   UNL A   1      34.990  20.933  24.965  1.00  0.00     0.001 A 
ATOM     22  C   UNL A   1      34.312  22.067  24.518  1.00  0.00     0.009 A 
BRANCH  18  23
ATOM     23  C   UNL A   1      32.463  18.172  24.171  1.00  0.00     0.062 C 
BRANCH  23  24
ATOM     24  C   UNL A   1      32.662  17.277  25.372  1.00  0.00    -0.030 C 
ATOM     25  C   UNL A   1      32.623  15.937  25.340  1.00  0.00     0.004 C 
ENDBRANCH  23  24
ENDBRANCH  18  23
ENDBRANCH  12  17
ENDBRANCH   9  11
ENDBRANCH   7   9
ENDBRANCH   6   7
ENDBRANCH   5   6
ENDBRANCH   4   5
ENDBRANCH   3   4
ENDBRANCH   2   3
ENDBRANCH   1   2
BRANCH   1  26
ATOM     26  O   UNL A   1      34.877  31.586  27.984  1.00  0.00    -0.377 OA
BRANCH  26  27
ATOM     27  C   UNL A   1      33.882  32.586  27.844  1.00  0.00     0.188 C 
BRANCH  27  28
ATOM     28  C   UNL A   1      34.295  34.040  28.141  1.00  0.00     0.188 C 
BRANCH  28  29
ATOM     29  O   UNL A   1      33.335  34.770  28.893  1.00  0.00    -0.376 OA
BRANCH  29  30
ATOM     30  C   UNL A   1      33.580  35.017  30.269  1.00  0.00     0.202 C 
BRANCH  30  31
ATOM     31  C   UNL A   1      34.484  34.044  31.048  1.00  0.00     0.261 C 
BRANCH  31  32
ATOM     32  O   UNL A   1      34.527  34.183  32.476  1.00  0.00    -0.460 OA
BRANCH  32  33
ATOM     33  C   UNL A   1      35.332  35.121  33.011  1.00  0.00     0.338 C 
ATOM     34  O   UNL A   1      35.117  36.319  33.096  1.00  0.00    -0.246 OA
BRANCH  33  35
ATOM     35  C   UNL A   1      36.460  34.422  33.665  1.00  0.00     0.060 A 
ATOM     36  C   UNL A   1      36.199  33.561  34.742  1.00  0.00     0.016 A 
ATOM     37  C   UNL A   1      37.769  34.609  33.214  1.00  0.00     0.016 A 
ATOM     38  C   UNL A   1      37.251  32.916  35.396  1.00  0.00     0.010 A 
ATOM     39  C   UNL A   1      38.822  33.986  33.888  1.00  0.00     0.010 A 
ATOM     40  C   UNL A   1      38.572  33.167  35.004  1.00  0.00    -0.014 A 
BRANCH  40  41
ATOM     41  C   UNL A   1      39.699  32.774  35.887  1.00  0.00     0.031 A 
ATOM     42  C   UNL A   1      40.175  33.775  36.903  1.00  0.00     0.074 A 
ATOM     43  C   UNL A   1      40.293  31.572  35.791  1.00  0.00     0.049 A 
ATOM     44  N   UNL A   1      41.212  33.729  37.699  1.00  0.00    -0.248 NA
ATOM     45  C   UNL A   1      39.371  35.002  37.031  1.00  0.00     0.031 C 
ATOM     46  C   UNL A   1      39.888  30.497  34.891  1.00  0.00     0.029 A 
ATOM     47  N   UNL A   1      41.386  31.067  36.453  1.00  0.00    -0.354 N 
ATOM     48  C   UNL A   1      41.194  34.925  38.405  1.00  0.00     0.074 A 
ATOM     49  C   UNL A   1      40.062  35.687  37.929  1.00  0.00     0.031 C 
ATOM     50  C   UNL A   1      40.737  29.465  35.038  1.00  0.00     0.029 A 
ATOM     51  C   UNL A   1      41.770  29.826  36.009  1.00  0.00     0.049 A 
ATOM     52  H   UNL A   1      41.849  31.549  37.175  1.00  0.00     0.167 HD
ATOM     53  C   UNL A   1      42.048  35.349  39.367  1.00  0.00     0.037 A 
ATOM     54  C   UNL A   1      42.852  29.087  36.328  1.00  0.00     0.037 A 
ATOM     55  C   UNL A   1      43.176  34.588  39.835  1.00  0.00     0.049 A 
ATOM     56  C   UNL A   1      43.840  29.619  37.338  1.00  0.00     0.074 A 
ATOM     57  C   UNL A   1      44.094  34.922  40.814  1.00  0.00     0.029 A 
ATOM     58  N   UNL A   1      43.545  33.345  39.345  1.00  0.00    -0.354 N 
ATOM     59  N   UNL A   1      43.814  30.742  38.015  1.00  0.00    -0.248 NA
ATOM     60  C   UNL A   1      45.011  28.778  37.630  1.00  0.00     0.031 C 
ATOM     61  C   UNL A   1      45.056  33.911  40.871  1.00  0.00     0.029 A 
ATOM     62  C   UNL A   1      44.696  32.910  39.982  1.00  0.00     0.049 A 
ATOM     63  H   UNL A   1      43.062  32.845  38.648  1.00  0.00     0.167 HD
ATOM     64  C   UNL A   1      44.935  30.723  38.837  1.00  0.00     0.074 A 
ATOM     65  C   UNL A   1      45.620  29.475  38.579  1.00  0.00     0.031 C 
ATOM     66  C   UNL A   1      45.355  31.653  39.730  1.00  0.00     0.037 A 
BRANCH  53  67
ATOM     67  C   UNL A   1      41.818  36.714  39.948  1.00  0.00     0.064 A 
ATOM     68  C   UNL A   1      42.382  37.868  39.381  1.00  0.00     0.173 A 
ATOM     69  C   UNL A   1      40.996  36.873  41.075  1.00  0.00     0.173 A 
ATOM     70  F   UNL A   1      43.187  37.770  38.313  1.00  0.00    -0.203 F 
ATOM     71  C   UNL A   1      42.155  39.124  39.938  1.00  0.00     0.198 A 
ATOM     72  C   UNL A   1      40.743  38.134  41.607  1.00  0.00     0.198 A 
ATOM     73  F   UNL A   1      40.430  35.805  41.655  1.00  0.00    -0.203 F 
ATOM     74  F   UNL A   1      42.748  40.204  39.412  1.00  0.00    -0.200 F 
ATOM     75  C   UNL A   1      41.329  39.257  41.044  1.00  0.00     0.200 A 
ATOM     76  F   UNL A   1      39.933  38.261  42.667  1.00  0.00    -0.200 F 
ATOM     77  F   UNL A   1      41.105  40.468  41.573  1.00  0.00    -0.200 F 
ENDBRANCH  53  67
BRANCH  54  78
ATOM     78  C   UNL A   1      43.080  27.773  35.667  1.00  0.00     0.064 A 
ATOM     79  C   UNL A   1      43.849  27.674  34.499  1.00  0.00     0.173 A 
ATOM     80  C   UNL A   1      42.507  26.595  36.169  1.00  0.00     0.173 A 
ATOM     81  F   UNL A   1      44.395  28.775  33.961  1.00  0.00    -0.203 F 
ATOM     82  C   UNL A   1      44.019  26.453  33.848  1.00  0.00     0.198 A 
ATOM     83  C   UNL A   1      42.705  25.368  35.536  1.00  0.00     0.198 A 
ATOM     84  F   UNL A   1      41.757  26.632  37.280  1.00  0.00    -0.203 F 
ATOM     85  F   UNL A   1      44.713  26.397  32.703  1.00  0.00    -0.200 F 
ATOM     86  C   UNL A   1      43.452  25.301  34.370  1.00  0.00     0.200 A 
ATOM     87  F   UNL A   1      42.165  24.257  36.052  1.00  0.00    -0.200 F 
ATOM     88  F   UNL A   1      43.617  24.127  33.746  1.00  0.00    -0.200 F 
ENDBRANCH  54  78
BRANCH  66  89
ATOM     89  C   UNL A   1      46.577  31.341  40.548  1.00  0.00     0.064 A 
ATOM     90  C   UNL A   1      47.861  31.745  40.154  1.00  0.00     0.173 A 
ATOM     91  C   UNL A   1      46.447  30.685  41.783  1.00  0.00     0.173 A 
ATOM     92  F   UNL A   1      48.042  32.365  38.977  1.00  0.00    -0.203 F 
ATOM     93  C   UNL A   1      48.970  31.488  40.955  1.00  0.00     0.198 A 
ATOM     94  C   UNL A   1      47.553  30.461  42.598  1.00  0.00     0.198 A 
ATOM     95  F   UNL A   1      45.242  30.286  42.212  1.00  0.00    -0.203 F 
ATOM     96  F   UNL A   1      50.193  31.846  40.540  1.00  0.00    -0.200 F 
ATOM     97  C   UNL A   1      48.814  30.857  42.181  1.00  0.00     0.200 A 
ATOM     98  F   UNL A   1      47.396  29.869  43.790  1.00  0.00    -0.200 F 
ATOM     99  F   UNL A   1      49.881  30.626  42.959  1.00  0.00    -0.200 F 
ENDBRANCH  66  89
ENDBRANCH  40  41
ENDBRANCH  33  35
ENDBRANCH  32  33
ENDBRANCH  31  32
ENDBRANCH  30  31
ENDBRANCH  29  30
ENDBRANCH  28  29
ENDBRANCH  27  28
ENDBRANCH  26  27
ENDBRANCH   1  26
TORSDOF 24
ENDMDL
MODEL 2
REMARK VINA RESULT:      -9.2      7.541     12.330
REMARK SMILES C=CCc1cccc(-c2ccc([C@@H](C)C(=O)OCCOCCOCCOCCOC(=O)c3ccc(-c4c5nc(c(-c6c(F)c(F)c(F)c(F)c6F)c6ccc([nH]6)c(-c6c(F)c(F)c(F)c(F)c6F)c6nc(c(-c7c(F)c(F)c(F)c(F)c7F)c7ccc4[nH]7)C=C6)C=C5)cc3)cc2)c1
REMARK SMILES IDX 22 1 21 2 20 3 19 4 18 5 17 6 15 7 16 8 13 9 14 10 12 11
REMARK SMILES IDX 9 12 10 13 96 14 11 15 95 16 8 17 4 18 5 19 97 20 6 21 7 22
REMARK SMILES IDX 3 23 2 24 1 25 23 26 24 27 25 28 26 29 27 30 28 31 29 32
REMARK SMILES IDX 30 33 31 34 32 35 33 36 94 37 34 38 93 39 35 40 36 41 37 42
REMARK SMILES IDX 87 43 38 44 92 45 86 46 88 47 39 48 91 49 85 50 84 51 40 53
REMARK SMILES IDX 72 54 52 55 71 56 53 57 56 58 70 59 89 60 54 61 55 62 69 64
REMARK SMILES IDX 90 65 57 66 41 67 42 68 50 69 43 70 44 71 48 72 51 73 45 74
REMARK SMILES IDX 46 75 49 76 47 77 73 78 74 79 82 80 75 81 76 82 80 83 83 84
REMARK SMILES IDX 77 85 78 86 81 87 79 88 58 89 59 90 67 91 60 92 61 93 65 94
REMARK SMILES IDX 68 95 62 96 63 97 66 98 64 99
REMARK H PARENT 88 52 56 63
REMARK Flexibility Score: inf
ROOT
ATOM      1  C   UNL A   1      34.698  29.841  27.249  1.00  0.00     0.188 C 
ENDROOT
BRANCH   1   2
ATOM      2  C   UNL A   1      33.260  29.483  26.852  1.00  0.00     0.188 C 
BRANCH   2   3
ATOM      3  O   UNL A   1      32.989  28.793  25.640  1.00  0.00    -0.376 OA
BRANCH   3   4
ATOM      4  C   UNL A   1      31.684  28.310  25.355  1.00  0.00     0.202 C 
BRANCH   4   5
ATOM      5  C   UNL A   1      31.016  28.539  23.984  1.00  0.00     0.261 C 
BRANCH   5   6
ATOM      6  O   UNL A   1      30.791  27.379  23.157  1.00  0.00    -0.463 OA
BRANCH   6   7
ATOM      7  C   UNL A   1      31.891  26.797  22.627  1.00  0.00     0.313 C 
ATOM      8  O   UNL A   1      32.748  27.422  22.004  1.00  0.00    -0.252 OA
BRANCH   7   9
ATOM      9  C   UNL A   1      32.012  25.284  22.814  1.00  0.00     0.126 C 
ATOM     10  C   UNL A   1      30.739  24.787  23.490  1.00  0.00     0.025 C 
BRANCH   9  11
ATOM     11  C   UNL A   1      33.258  24.648  23.436  1.00  0.00    -0.034 A 
ATOM     12  C   UNL A   1      35.592  23.545  24.699  1.00  0.00    -0.018 A 
ATOM     13  C   UNL A   1      35.064  23.005  23.511  1.00  0.00     0.009 A 
ATOM     14  C   UNL A   1      34.921  24.641  25.254  1.00  0.00     0.009 A 
ATOM     15  C   UNL A   1      33.922  23.546  22.887  1.00  0.00     0.005 A 
ATOM     16  C   UNL A   1      33.788  25.190  24.628  1.00  0.00     0.005 A 
BRANCH  12  17
ATOM     17  C   UNL A   1      36.867  23.052  25.268  1.00  0.00    -0.018 A 
ATOM     18  C   UNL A   1      38.931  23.335  26.594  1.00  0.00    -0.044 A 
ATOM     19  C   UNL A   1      39.338  22.052  26.206  1.00  0.00     0.004 A 
ATOM     20  C   UNL A   1      37.699  23.830  26.102  1.00  0.00     0.012 A 
ATOM     21  C   UNL A   1      38.529  21.266  25.390  1.00  0.00     0.001 A 
ATOM     22  C   UNL A   1      37.308  21.761  24.931  1.00  0.00     0.009 A 
BRANCH  18  23
ATOM     23  C   UNL A   1      39.829  24.222  27.443  1.00  0.00     0.062 C 
BRANCH  23  24
ATOM     24  C   UNL A   1      40.012  25.631  26.928  1.00  0.00    -0.030 C 
ATOM     25  C   UNL A   1      40.772  25.965  25.876  1.00  0.00     0.004 C 
ENDBRANCH  23  24
ENDBRANCH  18  23
ENDBRANCH  12  17
ENDBRANCH   9  11
ENDBRANCH   7   9
ENDBRANCH   6   7
ENDBRANCH   5   6
ENDBRANCH   4   5
ENDBRANCH   3   4
ENDBRANCH   2   3
ENDBRANCH   1   2
BRANCH   1  26
ATOM     26  O   UNL A   1      34.919  31.211  27.518  1.00  0.00    -0.377 OA
BRANCH  26  27
ATOM     27  C   UNL A   1      34.398  31.713  28.736  1.00  0.00     0.188 C 
BRANCH  27  28
ATOM     28  C   UNL A   1      35.284  32.684  29.538  1.00  0.00     0.188 C 
BRANCH  28  29
ATOM     29  O   UNL A   1      34.991  32.719  30.928  1.00  0.00    -0.376 OA
BRANCH  29  30
ATOM     30  C   UNL A   1      36.000  32.348  31.855  1.00  0.00     0.202 C 
BRANCH  30  31
ATOM     31  C   UNL A   1      37.454  32.775  31.578  1.00  0.00     0.261 C 
BRANCH  31  32
ATOM     32  O   UNL A   1      38.483  32.159  32.367  1.00  0.00    -0.460 OA
BRANCH  32  33
ATOM     33  C   UNL A   1      39.666  32.791  32.492  1.00  0.00     0.338 C 
ATOM     34  O   UNL A   1      39.943  33.698  33.260  1.00  0.00    -0.246 OA
BRANCH  33  35
ATOM     35  C   UNL A   1      40.653  32.062  31.665  1.00  0.00     0.060 A 
ATOM     36  C   UNL A   1      41.670  31.333  32.297  1.00  0.00     0.016 A 
ATOM     37  C   UNL A   1      40.570  32.091  30.270  1.00  0.00     0.016 A 
ATOM     38  C   UNL A   1      42.632  30.663  31.537  1.00  0.00     0.010 A 
ATOM     39  C   UNL A   1      41.549  31.446  29.511  1.00  0.00     0.010 A 
ATOM     40  C   UNL A   1      42.605  30.761  30.140  1.00  0.00    -0.014 A 
BRANCH  40  41
ATOM     41  C   UNL A   1      43.789  30.357  29.342  1.00  0.00     0.031 A 
ATOM     42  C   UNL A   1      43.844  28.941  28.837  1.00  0.00     0.074 A 
ATOM     43  C   UNL A   1      44.794  31.209  29.076  1.00  0.00     0.049 A 
ATOM     44  N   UNL A   1      44.814  28.306  28.233  1.00  0.00    -0.248 NA
ATOM     45  C   UNL A   1      42.635  28.129  29.054  1.00  0.00     0.031 C 
ATOM     46  C   UNL A   1      44.833  32.617  29.456  1.00  0.00     0.029 A 
ATOM     47  N   UNL A   1      45.991  30.997  28.435  1.00  0.00    -0.354 N 
ATOM     48  C   UNL A   1      44.340  27.018  28.015  1.00  0.00     0.074 A 
ATOM     49  C   UNL A   1      43.008  26.953  28.573  1.00  0.00     0.031 C 
ATOM     50  C   UNL A   1      46.008  33.141  29.063  1.00  0.00     0.029 A 
ATOM     51  C   UNL A   1      46.819  32.092  28.445  1.00  0.00     0.049 A 
ATOM     52  H   UNL A   1      46.232  30.142  28.010  1.00  0.00     0.167 HD
ATOM     53  C   UNL A   1      44.962  25.983  27.403  1.00  0.00     0.037 A 
ATOM     54  C   UNL A   1      48.097  32.218  28.033  1.00  0.00     0.037 A 
ATOM     55  C   UNL A   1      46.289  26.052  26.853  1.00  0.00     0.049 A 
ATOM     56  C   UNL A   1      48.802  31.024  27.435  1.00  0.00     0.074 A 
ATOM     57  C   UNL A   1      47.004  25.064  26.201  1.00  0.00     0.029 A 
ATOM     58  N   UNL A   1      47.105  27.172  26.903  1.00  0.00    -0.354 N 
ATOM     59  N   UNL A   1      48.348  29.813  27.217  1.00  0.00    -0.248 NA
ATOM     60  C   UNL A   1      50.202  31.216  27.023  1.00  0.00     0.031 C 
ATOM     61  C   UNL A   1      48.277  25.566  25.914  1.00  0.00     0.029 A 
ATOM     62  C   UNL A   1      48.329  26.890  26.319  1.00  0.00     0.049 A 
ATOM     63  H   UNL A   1      46.853  28.040  27.295  1.00  0.00     0.167 HD
ATOM     64  C   UNL A   1      49.386  29.115  26.610  1.00  0.00     0.074 A 
ATOM     65  C   UNL A   1      50.494  30.038  26.489  1.00  0.00     0.031 C 
ATOM     66  C   UNL A   1      49.416  27.827  26.185  1.00  0.00     0.037 A 
BRANCH  53  67
ATOM     67  C   UNL A   1      44.228  24.675  27.333  1.00  0.00     0.064 A 
ATOM     68  C   UNL A   1      43.674  24.196  26.136  1.00  0.00     0.173 A 
ATOM     69  C   UNL A   1      44.100  23.874  28.480  1.00  0.00     0.173 A 
ATOM     70  F   UNL A   1      43.754  24.929  25.015  1.00  0.00    -0.203 F 
ATOM     71  C   UNL A   1      42.997  22.980  26.096  1.00  0.00     0.198 A 
ATOM     72  C   UNL A   1      43.453  22.644  28.428  1.00  0.00     0.198 A 
ATOM     73  F   UNL A   1      44.613  24.283  29.650  1.00  0.00    -0.203 F 
ATOM     74  F   UNL A   1      42.430  22.569  24.954  1.00  0.00    -0.200 F 
ATOM     75  C   UNL A   1      42.895  22.202  27.239  1.00  0.00     0.200 A 
ATOM     76  F   UNL A   1      43.369  21.886  29.530  1.00  0.00    -0.200 F 
ATOM     77  F   UNL A   1      42.250  21.027  27.196  1.00  0.00    -0.200 F 
ENDBRANCH  53  67
BRANCH  54  78
ATOM     78  C   UNL A   1      48.810  33.514  28.195  1.00  0.00     0.064 A 
ATOM     79  C   UNL A   1      49.458  33.839  29.396  1.00  0.00     0.173 A 
ATOM     80  C   UNL A   1      48.831  34.468  27.167  1.00  0.00     0.173 A 
ATOM     81  F   UNL A   1      49.443  32.974  30.420  1.00  0.00    -0.203 F 
ATOM     82  C   UNL A   1      50.080  35.074  29.568  1.00  0.00     0.198 A 
ATOM     83  C   UNL A   1      49.482  35.690  27.329  1.00  0.00     0.198 A 
ATOM     84  F   UNL A   1      48.222  34.212  26.000  1.00  0.00    -0.203 F 
ATOM     85  F   UNL A   1      50.643  35.380  30.745  1.00  0.00    -0.200 F 
ATOM     86  C   UNL A   1      50.096  35.996  28.533  1.00  0.00     0.200 A 
ATOM     87  F   UNL A   1      49.505  36.572  26.321  1.00  0.00    -0.200 F 
ATOM     88  F   UNL A   1      50.695  37.184  28.698  1.00  0.00    -0.200 F 
ENDBRANCH  54  78
BRANCH  66  89
ATOM     89  C   UNL A   1      50.658  27.346  25.489  1.00  0.00     0.064 A 
ATOM     90  C   UNL A   1      50.804  27.410  24.096  1.00  0.00     0.173 A 
ATOM     91  C   UNL A   1      51.749  26.879  26.241  1.00  0.00     0.173 A 
ATOM     92  F   UNL A   1      49.789  27.838  23.329  1.00  0.00    -0.203 F 
ATOM     93  C   UNL A   1      51.986  27.006  23.480  1.00  0.00     0.198 A 
ATOM     94  C   UNL A   1      52.942  26.510  25.626  1.00  0.00     0.198 A 
ATOM     95  F   UNL A   1      51.667  26.808  27.578  1.00  0.00    -0.203 F 
ATOM     96  F   UNL A   1      52.089  27.035  22.144  1.00  0.00    -0.200 F 
ATOM     97  C   UNL A   1      53.057  26.567  24.246  1.00  0.00     0.200 A 
ATOM     98  F   UNL A   1      53.980  26.106  26.369  1.00  0.00    -0.200 F 
ATOM     99  F   UNL A   1      54.200  26.195  23.653  1.00  0.00    -0.200 F 
ENDBRANCH  66  89
ENDBRANCH  40  41
ENDBRANCH  33  35
ENDBRANCH  32  33
ENDBRANCH  31  32
ENDBRANCH  30  31
ENDBRANCH  29  30
ENDBRANCH  28  29
ENDBRANCH  27  28
ENDBRANCH  26  27
ENDBRANCH   1  26
TORSDOF 24
ENDMDL
MODEL 3
REMARK VINA RESULT:      -9.2      7.798      9.922
REMARK SMILES C=CCc1cccc(-c2ccc([C@@H](C)C(=O)OCCOCCOCCOCCOC(=O)c3ccc(-c4c5nc(c(-c6c(F)c(F)c(F)c(F)c6F)c6ccc([nH]6)c(-c6c(F)c(F)c(F)c(F)c6F)c6nc(c(-c7c(F)c(F)c(F)c(F)c7F)c7ccc4[nH]7)C=C6)C=C5)cc3)cc2)c1
REMARK SMILES IDX 22 1 21 2 20 3 19 4 18 5 17 6 15 7 16 8 13 9 14 10 12 11
REMARK SMILES IDX 9 12 10 13 96 14 11 15 95 16 8 17 4 18 5 19 97 20 6 21 7 22
REMARK SMILES IDX 3 23 2 24 1 25 23 26 24 27 25 28 26 29 27 30 28 31 29 32
REMARK SMILES IDX 30 33 31 34 32 35 33 36 94 37 34 38 93 39 35 40 36 41 37 42
REMARK SMILES IDX 87 43 38 44 92 45 86 46 88 47 39 48 91 49 85 50 84 51 40 53
REMARK SMILES IDX 72 54 52 55 71 56 53 57 56 58 70 59 89 60 54 61 55 62 69 64
REMARK SMILES IDX 90 65 57 66 41 67 42 68 50 69 43 70 44 71 48 72 51 73 45 74
REMARK SMILES IDX 46 75 49 76 47 77 73 78 74 79 82 80 75 81 76 82 80 83 83 84
REMARK SMILES IDX 77 85 78 86 81 87 79 88 58 89 59 90 67 91 60 92 61 93 65 94
REMARK SMILES IDX 68 95 62 96 63 97 66 98 64 99
REMARK H PARENT 88 52 56 63
REMARK Flexibility Score: inf
ROOT
ATOM      1  C   UNL A   1      34.649  30.035  27.605  1.00  0.00     0.188 C 
ENDROOT
BRANCH   1   2
ATOM      2  C   UNL A   1      33.502  30.278  26.617  1.00  0.00     0.188 C 
BRANCH   2   3
ATOM      3  O   UNL A   1      33.184  29.318  25.619  1.00  0.00    -0.376 OA
BRANCH   3   4
ATOM      4  C   UNL A   1      31.895  28.724  25.567  1.00  0.00     0.202 C 
BRANCH   4   5
ATOM      5  C   UNL A   1      31.046  28.738  24.280  1.00  0.00     0.261 C 
BRANCH   5   6
ATOM      6  O   UNL A   1      30.923  27.496  23.555  1.00  0.00    -0.463 OA
BRANCH   6   7
ATOM      7  C   UNL A   1      32.046  27.037  22.957  1.00  0.00     0.313 C 
ATOM      8  O   UNL A   1      32.864  27.773  22.409  1.00  0.00    -0.252 OA
BRANCH   7   9
ATOM      9  C   UNL A   1      32.243  25.521  22.963  1.00  0.00     0.126 C 
ATOM     10  C   UNL A   1      30.961  24.878  23.479  1.00  0.00     0.025 C 
BRANCH   9  11
ATOM     11  C   UNL A   1      33.481  24.874  23.590  1.00  0.00    -0.034 A 
ATOM     12  C   UNL A   1      35.795  23.743  24.867  1.00  0.00    -0.018 A 
ATOM     13  C   UNL A   1      35.336  23.283  23.618  1.00  0.00     0.009 A 
ATOM     14  C   UNL A   1      35.065  24.772  25.474  1.00  0.00     0.009 A 
ATOM     15  C   UNL A   1      34.204  23.839  22.987  1.00  0.00     0.005 A 
ATOM     16  C   UNL A   1      33.942  25.335  24.843  1.00  0.00     0.005 A 
BRANCH  12  17
ATOM     17  C   UNL A   1      37.059  23.243  25.453  1.00  0.00    -0.018 A 
ATOM     18  C   UNL A   1      39.130  23.530  26.768  1.00  0.00    -0.044 A 
ATOM     19  C   UNL A   1      39.509  22.225  26.424  1.00  0.00     0.004 A 
ATOM     20  C   UNL A   1      37.907  24.032  26.259  1.00  0.00     0.012 A 
ATOM     21  C   UNL A   1      38.684  21.429  25.636  1.00  0.00     0.001 A 
ATOM     22  C   UNL A   1      37.473  21.933  25.161  1.00  0.00     0.009 A 
BRANCH  18  23
ATOM     23  C   UNL A   1      40.046  24.427  27.585  1.00  0.00     0.062 C 
BRANCH  23  24
ATOM     24  C   UNL A   1      39.367  25.595  28.260  1.00  0.00    -0.030 C 
ATOM     25  C   UNL A   1      39.809  26.860  28.224  1.00  0.00     0.004 C 
ENDBRANCH  23  24
ENDBRANCH  18  23
ENDBRANCH  12  17
ENDBRANCH   9  11
ENDBRANCH   7   9
ENDBRANCH   6   7
ENDBRANCH   5   6
ENDBRANCH   4   5
ENDBRANCH   3   4
ENDBRANCH   2   3
ENDBRANCH   1   2
BRANCH   1  26
ATOM     26  O   UNL A   1      35.559  31.109  27.741  1.00  0.00    -0.377 OA
BRANCH  26  27
ATOM     27  C   UNL A   1      34.999  32.402  27.890  1.00  0.00     0.188 C 
BRANCH  27  28
ATOM     28  C   UNL A   1      35.882  33.484  28.540  1.00  0.00     0.188 C 
BRANCH  28  29
ATOM     29  O   UNL A   1      35.435  33.899  29.824  1.00  0.00    -0.376 OA
BRANCH  29  30
ATOM     30  C   UNL A   1      35.787  33.124  30.960  1.00  0.00     0.202 C 
BRANCH  30  31
ATOM     31  C   UNL A   1      37.157  32.421  30.983  1.00  0.00     0.261 C 
BRANCH  31  32
ATOM     32  O   UNL A   1      37.195  31.038  30.603  1.00  0.00    -0.460 OA
BRANCH  32  33
ATOM     33  C   UNL A   1      37.969  30.194  31.312  1.00  0.00     0.338 C 
ATOM     34  O   UNL A   1      37.601  29.253  31.996  1.00  0.00    -0.246 OA
BRANCH  33  35
ATOM     35  C   UNL A   1      39.378  30.479  30.966  1.00  0.00     0.060 A 
ATOM     36  C   UNL A   1      40.233  30.995  31.952  1.00  0.00     0.016 A 
ATOM     37  C   UNL A   1      39.858  30.232  29.678  1.00  0.00     0.016 A 
ATOM     38  C   UNL A   1      41.559  31.302  31.641  1.00  0.00     0.010 A 
ATOM     39  C   UNL A   1      41.177  30.569  29.361  1.00  0.00     0.010 A 
ATOM     40  C   UNL A   1      42.021  31.140  30.330  1.00  0.00    -0.014 A 
BRANCH  40  41
ATOM     41  C   UNL A   1      43.295  31.772  29.904  1.00  0.00     0.031 A 
ATOM     42  C   UNL A   1      43.266  33.231  29.541  1.00  0.00     0.074 A 
ATOM     43  C   UNL A   1      44.444  31.080  29.830  1.00  0.00     0.049 A 
ATOM     44  N   UNL A   1      44.202  33.982  29.022  1.00  0.00    -0.248 NA
ATOM     45  C   UNL A   1      41.998  33.937  29.792  1.00  0.00     0.031 C 
ATOM     46  C   UNL A   1      44.616  29.681  30.210  1.00  0.00     0.029 A 
ATOM     47  N   UNL A   1      45.686  31.466  29.385  1.00  0.00    -0.354 N 
ATOM     48  C   UNL A   1      43.631  35.240  28.868  1.00  0.00     0.074 A 
ATOM     49  C   UNL A   1      42.262  35.146  29.324  1.00  0.00     0.031 C 
ATOM     50  C   UNL A   1      45.886  29.315  29.959  1.00  0.00     0.029 A 
ATOM     51  C   UNL A   1      46.601  30.442  29.360  1.00  0.00     0.049 A 
ATOM     52  H   UNL A   1      45.899  32.387  29.111  1.00  0.00     0.167 HD
ATOM     53  C   UNL A   1      44.201  36.371  28.390  1.00  0.00     0.037 A 
ATOM     54  C   UNL A   1      47.859  30.415  28.873  1.00  0.00     0.037 A 
ATOM     55  C   UNL A   1      45.562  36.458  27.935  1.00  0.00     0.049 A 
ATOM     56  C   UNL A   1      48.443  31.666  28.262  1.00  0.00     0.074 A 
ATOM     57  C   UNL A   1      46.238  37.560  27.445  1.00  0.00     0.029 A 
ATOM     58  N   UNL A   1      46.451  35.394  27.903  1.00  0.00    -0.354 N 
ATOM     59  N   UNL A   1      47.907  32.856  28.131  1.00  0.00    -0.248 NA
ATOM     60  C   UNL A   1      49.811  31.569  27.730  1.00  0.00     0.031 C 
ATOM     61  C   UNL A   1      47.516  37.149  27.055  1.00  0.00     0.029 A 
ATOM     62  C   UNL A   1      47.662  35.808  27.373  1.00  0.00     0.049 A 
ATOM     63  H   UNL A   1      46.252  34.480  28.211  1.00  0.00     0.167 HD
ATOM     64  C   UNL A   1      48.881  33.655  27.543  1.00  0.00     0.074 A 
ATOM     65  C   UNL A   1      50.044  32.817  27.345  1.00  0.00     0.031 C 
ATOM     66  C   UNL A   1      48.820  34.966  27.203  1.00  0.00     0.037 A 
BRANCH  53  67
ATOM     67  C   UNL A   1      43.338  37.597  28.297  1.00  0.00     0.064 A 
ATOM     68  C   UNL A   1      43.328  38.577  29.302  1.00  0.00     0.173 A 
ATOM     69  C   UNL A   1      42.527  37.806  27.171  1.00  0.00     0.173 A 
ATOM     70  F   UNL A   1      44.073  38.419  30.406  1.00  0.00    -0.203 F 
ATOM     71  C   UNL A   1      42.519  39.706  29.194  1.00  0.00     0.198 A 
ATOM     72  C   UNL A   1      41.746  38.951  27.051  1.00  0.00     0.198 A 
ATOM     73  F   UNL A   1      42.499  36.902  26.180  1.00  0.00    -0.203 F 
ATOM     74  F   UNL A   1      42.486  40.600  30.190  1.00  0.00    -0.200 F 
ATOM     75  C   UNL A   1      41.736  39.896  28.065  1.00  0.00     0.200 A 
ATOM     76  F   UNL A   1      41.002  39.140  25.952  1.00  0.00    -0.200 F 
ATOM     77  F   UNL A   1      40.964  40.987  27.960  1.00  0.00    -0.200 F 
ENDBRANCH  53  67
BRANCH  54  78
ATOM     78  C   UNL A   1      48.649  29.154  28.916  1.00  0.00     0.064 A 
ATOM     79  C   UNL A   1      48.610  28.239  27.854  1.00  0.00     0.173 A 
ATOM     80  C   UNL A   1      49.431  28.821  30.032  1.00  0.00     0.173 A 
ATOM     81  F   UNL A   1      47.854  28.496  26.776  1.00  0.00    -0.203 F 
ATOM     82  C   UNL A   1      49.306  27.033  27.915  1.00  0.00     0.198 A 
ATOM     83  C   UNL A   1      50.154  27.630  30.078  1.00  0.00     0.198 A 
ATOM     84  F   UNL A   1      49.500  29.657  31.078  1.00  0.00    -0.203 F 
ATOM     85  F   UNL A   1      49.207  26.153  26.909  1.00  0.00    -0.200 F 
ATOM     86  C   UNL A   1      50.082  26.732  29.024  1.00  0.00     0.200 A 
ATOM     87  F   UNL A   1      50.911  27.350  31.146  1.00  0.00    -0.200 F 
ATOM     88  F   UNL A   1      50.753  25.574  29.082  1.00  0.00    -0.200 F 
ENDBRANCH  54  78
BRANCH  66  89
ATOM     89  C   UNL A   1      50.059  35.605  26.641  1.00  0.00     0.064 A 
ATOM     90  C   UNL A   1      51.125  36.010  27.458  1.00  0.00     0.173 A 
ATOM     91  C   UNL A   1      50.208  35.747  25.252  1.00  0.00     0.173 A 
ATOM     92  F   UNL A   1      51.029  35.907  28.793  1.00  0.00    -0.203 F 
ATOM     93  C   UNL A   1      52.284  36.552  26.908  1.00  0.00     0.198 A 
ATOM     94  C   UNL A   1      51.382  36.256  24.703  1.00  0.00     0.198 A 
ATOM     95  F   UNL A   1      49.225  35.366  24.424  1.00  0.00    -0.203 F 
ATOM     96  F   UNL A   1      53.272  36.972  27.709  1.00  0.00    -0.200 F 
ATOM     97  C   UNL A   1      52.416  36.664  25.531  1.00  0.00     0.200 A 
ATOM     98  F   UNL A   1      51.514  36.344  23.373  1.00  0.00    -0.200 F 
ATOM     99  F   UNL A   1      53.539  37.169  25.003  1.00  0.00    -0.200 F 
ENDBRANCH  66  89
ENDBRANCH  40  41
ENDBRANCH  33  35
ENDBRANCH  32  33
ENDBRANCH  31  32
ENDBRANCH  30  31
ENDBRANCH  29  30
ENDBRANCH  28  29
ENDBRANCH  27  28
ENDBRANCH  26  27
ENDBRANCH   1  26
TORSDOF 24
ENDMDL
