MODEL 1
REMARK VINA RESULT:      -9.9      0.000      0.000
REMARK SMILES O=C(CCCCN1C(=O)CCc2cc([N+](=O)[O-])ccc21)OCCOCCOCCOCCOC(=O)c1ccc(-c2c3nc(c(-c4c(F)c(F)c(F)c(F)c4F)c4ccc([nH]4)c(-c4c(F)c(F)c(F)c(F)c4F)c4nc(c(-c5c(F)c(F)c(F)c(F)c5F)c5ccc2[nH]5)C=C4)C=C3)cc1
REMARK SMILES IDX 25 1 24 2 23 3 22 4 21 5 2 6 1 7 3 8 4 9 5 10 6 11 7 12 8 13
REMARK SMILES IDX 20 14 9 15 10 16 12 17 19 18 11 19 13 20 18 21 14 22 15 23
REMARK SMILES IDX 16 24 17 25 26 26 27 27 28 28 29 29 30 30 31 31 32 32 33 33
REMARK SMILES IDX 34 34 35 35 36 36 37 37 98 38 38 39 97 40 39 41 40 42 41 43
REMARK SMILES IDX 91 44 42 45 96 46 90 47 92 48 43 49 95 50 89 51 88 52 44 54
REMARK SMILES IDX 76 55 56 56 75 57 57 58 60 59 74 60 93 61 58 62 59 63 73 65
REMARK SMILES IDX 94 66 61 67 45 68 46 69 54 70 47 71 48 72 52 73 55 74 49 75
REMARK SMILES IDX 50 76 53 77 51 78 77 79 78 80 86 81 79 82 80 83 84 84 87 85
REMARK SMILES IDX 81 86 82 87 85 88 83 89 62 90 63 91 71 92 64 93 65 94 69 95
REMARK SMILES IDX 72 96 66 97 67 98 70 99 68 100
REMARK H PARENT 92 53 60 64
REMARK Flexibility Score: inf
ROOT
ATOM      1  C   UNL A   1      31.725  27.864  25.613  1.00  0.00     0.188 C 
ENDROOT
BRANCH   1   2
ATOM      2  O   UNL A   1      32.677  27.404  24.646  1.00  0.00    -0.376 OA
BRANCH   2   3
ATOM      3  C   UNL A   1      33.377  28.441  23.973  1.00  0.00     0.202 C 
BRANCH   3   4
ATOM      4  C   UNL A   1      33.336  28.262  22.455  1.00  0.00     0.261 C 
BRANCH   4   5
ATOM      5  O   UNL A   1      33.836  27.039  21.872  1.00  0.00    -0.463 OA
BRANCH   5   6
ATOM      6  C   UNL A   1      33.014  25.979  21.739  1.00  0.00     0.305 C 
ATOM      7  O   UNL A   1      31.921  26.048  21.184  1.00  0.00    -0.252 OA
BRANCH   6   8
ATOM      8  C   UNL A   1      33.534  24.717  22.409  1.00  0.00     0.123 C 
BRANCH   8   9
ATOM      9  C   UNL A   1      32.705  23.435  22.319  1.00  0.00     0.014 C 
BRANCH   9  10
ATOM     10  C   UNL A   1      31.590  23.181  23.342  1.00  0.00     0.023 C 
BRANCH  10  11
ATOM     11  C   UNL A   1      31.988  22.804  24.779  1.00  0.00     0.125 C 
BRANCH  11  12
ATOM     12  N   UNL A   1      33.311  22.183  24.884  1.00  0.00    -0.312 N 
ATOM     13  C   UNL A   1      34.341  23.005  25.358  1.00  0.00     0.227 C 
ATOM     14  C   UNL A   1      33.530  20.798  24.600  1.00  0.00     0.047 A 
ATOM     15  O   UNL A   1      34.159  24.140  25.799  1.00  0.00    -0.275 OA
ATOM     16  C   UNL A   1      35.740  22.476  25.180  1.00  0.00     0.105 C 
ATOM     17  C   UNL A   1      34.776  20.220  24.919  1.00  0.00    -0.017 A 
ATOM     18  C   UNL A   1      32.545  19.966  24.054  1.00  0.00     0.034 A 
ATOM     19  C   UNL A   1      35.824  21.036  25.620  1.00  0.00     0.048 C 
ATOM     20  C   UNL A   1      35.022  18.855  24.674  1.00  0.00     0.091 A 
ATOM     21  C   UNL A   1      32.785  18.610  23.798  1.00  0.00     0.088 A 
ATOM     22  C   UNL A   1      34.027  18.059  24.105  1.00  0.00     0.269 A 
BRANCH  22  23
ATOM     23  N   UNL A   1      34.282  16.639  23.836  1.00  0.00     0.062 N 
ATOM     24  O   UNL A   1      34.647  15.930  24.786  1.00  0.00    -0.258 OA
ATOM     25  O   UNL A   1      34.138  16.234  22.674  1.00  0.00    -0.258 OA
ENDBRANCH  22  23
ENDBRANCH  11  12
ENDBRANCH  10  11
ENDBRANCH   9  10
ENDBRANCH   8   9
ENDBRANCH   6   8
ENDBRANCH   5   6
ENDBRANCH   4   5
ENDBRANCH   3   4
ENDBRANCH   2   3
ENDBRANCH   1   2
BRANCH   1  26
ATOM     26  C   UNL A   1      31.705  29.381  25.799  1.00  0.00     0.188 C 
BRANCH  26  27
ATOM     27  O   UNL A   1      32.121  29.933  27.045  1.00  0.00    -0.377 OA
BRANCH  27  28
ATOM     28  C   UNL A   1      32.883  31.129  27.098  1.00  0.00     0.188 C 
BRANCH  28  29
ATOM     29  C   UNL A   1      32.026  32.392  26.963  1.00  0.00     0.188 C 
BRANCH  29  30
ATOM     30  O   UNL A   1      32.400  33.511  27.759  1.00  0.00    -0.376 OA
BRANCH  30  31
ATOM     31  C   UNL A   1      33.788  33.788  27.940  1.00  0.00     0.202 C 
BRANCH  31  32
ATOM     32  C   UNL A   1      34.428  33.529  29.317  1.00  0.00     0.261 C 
BRANCH  32  33
ATOM     33  O   UNL A   1      34.599  32.129  29.622  1.00  0.00    -0.460 OA
BRANCH  33  34
ATOM     34  C   UNL A   1      35.398  31.848  30.676  1.00  0.00     0.338 C 
ATOM     35  O   UNL A   1      35.215  32.165  31.840  1.00  0.00    -0.246 OA
BRANCH  34  36
ATOM     36  C   UNL A   1      36.477  30.909  30.296  1.00  0.00     0.060 A 
ATOM     37  C   UNL A   1      36.861  29.946  31.242  1.00  0.00     0.016 A 
ATOM     38  C   UNL A   1      37.213  31.071  29.122  1.00  0.00     0.016 A 
ATOM     39  C   UNL A   1      38.024  29.201  31.058  1.00  0.00     0.010 A 
ATOM     40  C   UNL A   1      38.395  30.337  28.947  1.00  0.00     0.010 A 
ATOM     41  C   UNL A   1      38.836  29.448  29.947  1.00  0.00    -0.014 A 
BRANCH  41  42
ATOM     42  C   UNL A   1      40.253  29.001  29.998  1.00  0.00     0.031 A 
ATOM     43  C   UNL A   1      41.227  29.835  30.791  1.00  0.00     0.074 A 
ATOM     44  C   UNL A   1      40.659  27.852  29.432  1.00  0.00     0.049 A 
ATOM     45  N   UNL A   1      42.503  29.645  31.018  1.00  0.00    -0.248 NA
ATOM     46  C   UNL A   1      40.682  31.051  31.420  1.00  0.00     0.031 C 
ATOM     47  C   UNL A   1      39.807  26.926  28.690  1.00  0.00     0.029 A 
ATOM     48  N   UNL A   1      41.901  27.265  29.404  1.00  0.00    -0.354 N 
ATOM     49  C   UNL A   1      42.909  30.717  31.804  1.00  0.00     0.074 A 
ATOM     50  C   UNL A   1      41.756  31.570  31.990  1.00  0.00     0.031 C 
ATOM     51  C   UNL A   1      40.555  25.887  28.274  1.00  0.00     0.029 A 
ATOM     52  C   UNL A   1      41.939  26.087  28.701  1.00  0.00     0.049 A 
ATOM     53  H   UNL A   1      42.690  27.654  29.848  1.00  0.00     0.167 HD
ATOM     54  C   UNL A   1      44.131  30.965  32.334  1.00  0.00     0.037 A 
ATOM     55  C   UNL A   1      42.979  25.274  28.427  1.00  0.00     0.037 A 
ATOM     56  C   UNL A   1      45.279  30.117  32.153  1.00  0.00     0.049 A 
ATOM     57  C   UNL A   1      44.347  25.610  28.970  1.00  0.00     0.074 A 
ATOM     58  C   UNL A   1      46.557  30.274  32.657  1.00  0.00     0.029 A 
ATOM     59  N   UNL A   1      45.286  28.955  31.397  1.00  0.00    -0.354 N 
ATOM     60  N   UNL A   1      44.717  26.609  29.734  1.00  0.00    -0.248 NA
ATOM     61  C   UNL A   1      45.441  24.693  28.618  1.00  0.00     0.031 C 
ATOM     62  C   UNL A   1      47.354  29.238  32.158  1.00  0.00     0.029 A 
ATOM     63  C   UNL A   1      46.555  28.397  31.400  1.00  0.00     0.049 A 
ATOM     64  H   UNL A   1      44.505  28.579  30.928  1.00  0.00     0.167 HD
ATOM     65  C   UNL A   1      46.070  26.416  29.990  1.00  0.00     0.074 A 
ATOM     66  C   UNL A   1      46.454  25.200  29.305  1.00  0.00     0.031 C 
ATOM     67  C   UNL A   1      46.918  27.175  30.728  1.00  0.00     0.037 A 
BRANCH  54  68
ATOM     68  C   UNL A   1      44.295  32.229  33.130  1.00  0.00     0.064 A 
ATOM     69  C   UNL A   1      44.680  33.439  32.532  1.00  0.00     0.173 A 
ATOM     70  C   UNL A   1      44.049  32.230  34.511  1.00  0.00     0.173 A 
ATOM     71  F   UNL A   1      44.942  33.490  31.218  1.00  0.00    -0.203 F 
ATOM     72  C   UNL A   1      44.841  34.595  33.294  1.00  0.00     0.198 A 
ATOM     73  C   UNL A   1      44.180  33.394  35.263  1.00  0.00     0.198 A 
ATOM     74  F   UNL A   1      43.677  31.101  35.133  1.00  0.00    -0.203 F 
ATOM     75  F   UNL A   1      45.262  35.725  32.711  1.00  0.00    -0.200 F 
ATOM     76  C   UNL A   1      44.584  34.573  34.656  1.00  0.00     0.200 A 
ATOM     77  F   UNL A   1      43.919  33.373  36.578  1.00  0.00    -0.200 F 
ATOM     78  F   UNL A   1      44.735  35.686  35.386  1.00  0.00    -0.200 F 
ENDBRANCH  54  68
BRANCH  55  79
ATOM     79  C   UNL A   1      42.776  24.053  27.600  1.00  0.00     0.064 A 
ATOM     80  C   UNL A   1      42.315  22.858  28.173  1.00  0.00     0.173 A 
ATOM     81  C   UNL A   1      43.078  24.044  26.231  1.00  0.00     0.173 A 
ATOM     82  F   UNL A   1      42.039  22.807  29.484  1.00  0.00    -0.203 F 
ATOM     83  C   UNL A   1      42.188  21.697  27.413  1.00  0.00     0.198 A 
ATOM     84  C   UNL A   1      42.922  22.890  25.466  1.00  0.00     0.198 A 
ATOM     85  F   UNL A   1      43.527  25.158  25.634  1.00  0.00    -0.203 F 
ATOM     86  F   UNL A   1      41.798  20.555  27.997  1.00  0.00    -0.200 F 
ATOM     87  C   UNL A   1      42.486  21.714  26.058  1.00  0.00     0.200 A 
ATOM     88  F   UNL A   1      43.200  22.915  24.155  1.00  0.00    -0.200 F 
ATOM     89  F   UNL A   1      42.363  20.598  25.328  1.00  0.00    -0.200 F 
ENDBRANCH  55  79
BRANCH  67  90
ATOM     90  C   UNL A   1      48.329  26.682  30.891  1.00  0.00     0.064 A 
ATOM     91  C   UNL A   1      49.369  27.103  30.049  1.00  0.00     0.173 A 
ATOM     92  C   UNL A   1      48.650  25.792  31.929  1.00  0.00     0.173 A 
ATOM     93  F   UNL A   1      49.116  27.945  29.035  1.00  0.00    -0.203 F 
ATOM     94  C   UNL A   1      50.665  26.623  30.215  1.00  0.00     0.198 A 
ATOM     95  C   UNL A   1      49.954  25.343  32.115  1.00  0.00     0.198 A 
ATOM     96  F   UNL A   1      47.697  25.365  32.773  1.00  0.00    -0.203 F 
ATOM     97  F   UNL A   1      51.630  26.993  29.360  1.00  0.00    -0.200 F 
ATOM     98  C   UNL A   1      50.959  25.749  31.251  1.00  0.00     0.200 A 
ATOM     99  F   UNL A   1      50.238  24.512  33.128  1.00  0.00    -0.200 F 
ATOM    100  F   UNL A   1      52.208  25.292  31.411  1.00  0.00    -0.200 F 
ENDBRANCH  67  90
ENDBRANCH  41  42
ENDBRANCH  34  36
ENDBRANCH  33  34
ENDBRANCH  32  33
ENDBRANCH  31  32
ENDBRANCH  30  31
ENDBRANCH  29  30
ENDBRANCH  28  29
ENDBRANCH  27  28
ENDBRANCH  26  27
ENDBRANCH   1  26
TORSDOF 25
ENDMDL
MODEL 2
REMARK VINA RESULT:      -9.4      3.221      4.720
REMARK SMILES O=C(CCCCN1C(=O)CCc2cc([N+](=O)[O-])ccc21)OCCOCCOCCOCCOC(=O)c1ccc(-c2c3nc(c(-c4c(F)c(F)c(F)c(F)c4F)c4ccc([nH]4)c(-c4c(F)c(F)c(F)c(F)c4F)c4nc(c(-c5c(F)c(F)c(F)c(F)c5F)c5ccc2[nH]5)C=C4)C=C3)cc1
REMARK SMILES IDX 25 1 24 2 23 3 22 4 21 5 2 6 1 7 3 8 4 9 5 10 6 11 7 12 8 13
REMARK SMILES IDX 20 14 9 15 10 16 12 17 19 18 11 19 13 20 18 21 14 22 15 23
REMARK SMILES IDX 16 24 17 25 26 26 27 27 28 28 29 29 30 30 31 31 32 32 33 33
REMARK SMILES IDX 34 34 35 35 36 36 37 37 98 38 38 39 97 40 39 41 40 42 41 43
REMARK SMILES IDX 91 44 42 45 96 46 90 47 92 48 43 49 95 50 89 51 88 52 44 54
REMARK SMILES IDX 76 55 56 56 75 57 57 58 60 59 74 60 93 61 58 62 59 63 73 65
REMARK SMILES IDX 94 66 61 67 45 68 46 69 54 70 47 71 48 72 52 73 55 74 49 75
REMARK SMILES IDX 50 76 53 77 51 78 77 79 78 80 86 81 79 82 80 83 84 84 87 85
REMARK SMILES IDX 81 86 82 87 85 88 83 89 62 90 63 91 71 92 64 93 65 94 69 95
REMARK SMILES IDX 72 96 66 97 67 98 70 99 68 100
REMARK H PARENT 92 53 60 64
REMARK Flexibility Score: inf
ROOT
ATOM      1  C   UNL A   1      31.192  28.985  24.246  1.00  0.00     0.188 C 
ENDROOT
BRANCH   1   2
ATOM      2  O   UNL A   1      31.761  27.669  24.246  1.00  0.00    -0.376 OA
BRANCH   2   3
ATOM      3  C   UNL A   1      33.162  27.637  24.017  1.00  0.00     0.202 C 
BRANCH   3   4
ATOM      4  C   UNL A   1      33.496  27.712  22.526  1.00  0.00     0.261 C 
BRANCH   4   5
ATOM      5  O   UNL A   1      33.748  26.493  21.795  1.00  0.00    -0.463 OA
BRANCH   5   6
ATOM      6  C   UNL A   1      32.776  25.563  21.694  1.00  0.00     0.305 C 
ATOM      7  O   UNL A   1      31.607  25.845  21.453  1.00  0.00    -0.252 OA
BRANCH   6   8
ATOM      8  C   UNL A   1      33.254  24.149  21.986  1.00  0.00     0.123 C 
BRANCH   8   9
ATOM      9  C   UNL A   1      32.279  23.154  22.617  1.00  0.00     0.014 C 
BRANCH   9  10
ATOM     10  C   UNL A   1      31.604  23.499  23.951  1.00  0.00     0.023 C 
BRANCH  10  11
ATOM     11  C   UNL A   1      32.014  22.707  25.205  1.00  0.00     0.125 C 
BRANCH  11  12
ATOM     12  N   UNL A   1      33.348  22.108  25.116  1.00  0.00    -0.312 N 
ATOM     13  C   UNL A   1      34.422  22.942  25.454  1.00  0.00     0.227 C 
ATOM     14  C   UNL A   1      33.546  20.730  24.786  1.00  0.00     0.047 A 
ATOM     15  O   UNL A   1      34.286  24.069  25.931  1.00  0.00    -0.275 OA
ATOM     16  C   UNL A   1      35.790  22.438  25.076  1.00  0.00     0.105 C 
ATOM     17  C   UNL A   1      34.833  20.169  24.921  1.00  0.00    -0.017 A 
ATOM     18  C   UNL A   1      32.507  19.887  24.371  1.00  0.00     0.034 A 
ATOM     19  C   UNL A   1      35.956  20.996  25.481  1.00  0.00     0.048 C 
ATOM     20  C   UNL A   1      35.063  18.812  24.627  1.00  0.00     0.091 A 
ATOM     21  C   UNL A   1      32.730  18.539  24.067  1.00  0.00     0.088 A 
ATOM     22  C   UNL A   1      34.010  18.005  24.191  1.00  0.00     0.269 A 
BRANCH  22  23
ATOM     23  N   UNL A   1      34.247  16.593  23.871  1.00  0.00     0.062 N 
ATOM     24  O   UNL A   1      34.613  15.847  24.791  1.00  0.00    -0.258 OA
ATOM     25  O   UNL A   1      34.087  16.230  22.697  1.00  0.00    -0.258 OA
ENDBRANCH  22  23
ENDBRANCH  11  12
ENDBRANCH  10  11
ENDBRANCH   9  10
ENDBRANCH   8   9
ENDBRANCH   6   8
ENDBRANCH   5   6
ENDBRANCH   4   5
ENDBRANCH   3   4
ENDBRANCH   2   3
ENDBRANCH   1   2
BRANCH   1  26
ATOM     26  C   UNL A   1      31.745  29.904  25.334  1.00  0.00     0.188 C 
BRANCH  26  27
ATOM     27  O   UNL A   1      31.778  29.442  26.682  1.00  0.00    -0.377 OA
BRANCH  27  28
ATOM     28  C   UNL A   1      32.956  29.555  27.466  1.00  0.00     0.188 C 
BRANCH  28  29
ATOM     29  C   UNL A   1      33.726  30.855  27.206  1.00  0.00     0.188 C 
BRANCH  29  30
ATOM     30  O   UNL A   1      34.137  31.597  28.348  1.00  0.00    -0.376 OA
BRANCH  30  31
ATOM     31  C   UNL A   1      34.176  33.022  28.260  1.00  0.00     0.202 C 
BRANCH  31  32
ATOM     32  C   UNL A   1      33.842  33.857  29.510  1.00  0.00     0.261 C 
BRANCH  32  33
ATOM     33  O   UNL A   1      34.931  33.952  30.450  1.00  0.00    -0.460 OA
BRANCH  33  34
ATOM     34  C   UNL A   1      34.978  32.989  31.399  1.00  0.00     0.338 C 
ATOM     35  O   UNL A   1      34.051  32.588  32.082  1.00  0.00    -0.246 OA
BRANCH  34  36
ATOM     36  C   UNL A   1      36.288  32.301  31.400  1.00  0.00     0.060 A 
ATOM     37  C   UNL A   1      37.218  32.681  32.381  1.00  0.00     0.016 A 
ATOM     38  C   UNL A   1      36.666  31.435  30.373  1.00  0.00     0.016 A 
ATOM     39  C   UNL A   1      38.545  32.265  32.293  1.00  0.00     0.010 A 
ATOM     40  C   UNL A   1      38.007  31.035  30.272  1.00  0.00     0.010 A 
ATOM     41  C   UNL A   1      38.961  31.504  31.196  1.00  0.00    -0.014 A 
BRANCH  41  42
ATOM     42  C   UNL A   1      40.413  31.463  30.879  1.00  0.00     0.031 A 
ATOM     43  C   UNL A   1      41.058  32.728  30.369  1.00  0.00     0.074 A 
ATOM     44  C   UNL A   1      41.163  30.372  31.108  1.00  0.00     0.049 A 
ATOM     45  N   UNL A   1      42.307  32.962  30.052  1.00  0.00    -0.248 NA
ATOM     46  C   UNL A   1      40.169  33.889  30.197  1.00  0.00     0.031 C 
ATOM     47  C   UNL A   1      40.675  29.109  31.654  1.00  0.00     0.029 A 
ATOM     48  N   UNL A   1      42.506  30.161  30.913  1.00  0.00    -0.354 N 
ATOM     49  C   UNL A   1      42.348  34.288  29.639  1.00  0.00     0.074 A 
ATOM     50  C   UNL A   1      40.997  34.800  29.713  1.00  0.00     0.031 C 
ATOM     51  C   UNL A   1      41.705  28.248  31.746  1.00  0.00     0.029 A 
ATOM     52  C   UNL A   1      42.919  28.894  31.245  1.00  0.00     0.049 A 
ATOM     53  H   UNL A   1      43.116  30.853  30.568  1.00  0.00     0.167 HD
ATOM     54  C   UNL A   1      43.416  35.021  29.242  1.00  0.00     0.037 A 
ATOM     55  C   UNL A   1      44.136  28.323  31.142  1.00  0.00     0.037 A 
ATOM     56  C   UNL A   1      44.761  34.515  29.169  1.00  0.00     0.049 A 
ATOM     57  C   UNL A   1      45.298  29.140  30.630  1.00  0.00     0.074 A 
ATOM     58  C   UNL A   1      45.915  35.180  28.791  1.00  0.00     0.029 A 
ATOM     59  N   UNL A   1      45.130  33.214  29.473  1.00  0.00    -0.354 N 
ATOM     60  N   UNL A   1      45.334  30.400  30.267  1.00  0.00    -0.248 NA
ATOM     61  C   UNL A   1      46.593  28.453  30.524  1.00  0.00     0.031 C 
ATOM     62  C   UNL A   1      46.971  34.264  28.809  1.00  0.00     0.029 A 
ATOM     63  C   UNL A   1      46.490  33.047  29.266  1.00  0.00     0.049 A 
ATOM     64  H   UNL A   1      44.517  32.511  29.790  1.00  0.00     0.167 HD
ATOM     65  C   UNL A   1      46.658  30.666  29.935  1.00  0.00     0.074 A 
ATOM     66  C   UNL A   1      47.394  29.438  30.146  1.00  0.00     0.031 C 
ATOM     67  C   UNL A   1      47.214  31.824  29.499  1.00  0.00     0.037 A 
BRANCH  54  68
ATOM     68  C   UNL A   1      43.162  36.440  28.819  1.00  0.00     0.064 A 
ATOM     69  C   UNL A   1      42.564  36.752  27.588  1.00  0.00     0.173 A 
ATOM     70  C   UNL A   1      43.511  37.502  29.666  1.00  0.00     0.173 A 
ATOM     71  F   UNL A   1      42.225  35.775  26.734  1.00  0.00    -0.203 F 
ATOM     72  C   UNL A   1      42.353  38.076  27.210  1.00  0.00     0.198 A 
ATOM     73  C   UNL A   1      43.269  38.823  29.298  1.00  0.00     0.198 A 
ATOM     74  F   UNL A   1      44.085  37.260  30.854  1.00  0.00    -0.203 F 
ATOM     75  F   UNL A   1      41.830  38.353  26.007  1.00  0.00    -0.200 F 
ATOM     76  C   UNL A   1      42.699  39.109  28.067  1.00  0.00     0.200 A 
ATOM     77  F   UNL A   1      43.593  39.819  30.134  1.00  0.00    -0.200 F 
ATOM     78  F   UNL A   1      42.491  40.383  27.705  1.00  0.00    -0.200 F 
ENDBRANCH  54  68
BRANCH  55  79
ATOM     79  C   UNL A   1      44.332  26.902  31.537  1.00  0.00     0.064 A 
ATOM     80  C   UNL A   1      44.178  25.863  30.607  1.00  0.00     0.173 A 
ATOM     81  C   UNL A   1      44.637  26.551  32.860  1.00  0.00     0.173 A 
ATOM     82  F   UNL A   1      43.858  26.144  29.336  1.00  0.00    -0.203 F 
ATOM     83  C   UNL A   1      44.297  24.529  30.992  1.00  0.00     0.198 A 
ATOM     84  C   UNL A   1      44.786  25.217  33.236  1.00  0.00     0.198 A 
ATOM     85  F   UNL A   1      44.790  27.504  33.791  1.00  0.00    -0.203 F 
ATOM     86  F   UNL A   1      44.090  23.554  30.095  1.00  0.00    -0.200 F 
ATOM     87  C   UNL A   1      44.607  24.206  32.305  1.00  0.00     0.200 A 
ATOM     88  F   UNL A   1      45.097  24.911  34.504  1.00  0.00    -0.200 F 
ATOM     89  F   UNL A   1      44.721  22.923  32.673  1.00  0.00    -0.200 F 
ENDBRANCH  55  79
BRANCH  67  90
ATOM     90  C   UNL A   1      48.702  31.840  29.281  1.00  0.00     0.064 A 
ATOM     91  C   UNL A   1      49.603  32.160  30.308  1.00  0.00     0.173 A 
ATOM     92  C   UNL A   1      49.235  31.503  28.027  1.00  0.00     0.173 A 
ATOM     93  F   UNL A   1      49.147  32.500  31.523  1.00  0.00    -0.203 F 
ATOM     94  C   UNL A   1      50.976  32.178  30.077  1.00  0.00     0.198 A 
ATOM     95  C   UNL A   1      50.610  31.486  27.810  1.00  0.00     0.198 A 
ATOM     96  F   UNL A   1      48.421  31.177  27.011  1.00  0.00    -0.203 F 
ATOM     97  F   UNL A   1      51.814  32.545  31.058  1.00  0.00    -0.200 F 
ATOM     98  C   UNL A   1      51.479  31.835  28.831  1.00  0.00     0.200 A 
ATOM     99  F   UNL A   1      51.094  31.136  26.610  1.00  0.00    -0.200 F 
ATOM    100  F   UNL A   1      52.801  31.849  28.613  1.00  0.00    -0.200 F 
ENDBRANCH  67  90
ENDBRANCH  41  42
ENDBRANCH  34  36
ENDBRANCH  33  34
ENDBRANCH  32  33
ENDBRANCH  31  32
ENDBRANCH  30  31
ENDBRANCH  29  30
ENDBRANCH  28  29
ENDBRANCH  27  28
ENDBRANCH  26  27
ENDBRANCH   1  26
TORSDOF 25
ENDMDL
MODEL 3
REMARK VINA RESULT:      -9.4      4.407      6.701
REMARK SMILES O=C(CCCCN1C(=O)CCc2cc([N+](=O)[O-])ccc21)OCCOCCOCCOCCOC(=O)c1ccc(-c2c3nc(c(-c4c(F)c(F)c(F)c(F)c4F)c4ccc([nH]4)c(-c4c(F)c(F)c(F)c(F)c4F)c4nc(c(-c5c(F)c(F)c(F)c(F)c5F)c5ccc2[nH]5)C=C4)C=C3)cc1
REMARK SMILES IDX 25 1 24 2 23 3 22 4 21 5 2 6 1 7 3 8 4 9 5 10 6 11 7 12 8 13
REMARK SMILES IDX 20 14 9 15 10 16 12 17 19 18 11 19 13 20 18 21 14 22 15 23
REMARK SMILES IDX 16 24 17 25 26 26 27 27 28 28 29 29 30 30 31 31 32 32 33 33
REMARK SMILES IDX 34 34 35 35 36 36 37 37 98 38 38 39 97 40 39 41 40 42 41 43
REMARK SMILES IDX 91 44 42 45 96 46 90 47 92 48 43 49 95 50 89 51 88 52 44 54
REMARK SMILES IDX 76 55 56 56 75 57 57 58 60 59 74 60 93 61 58 62 59 63 73 65
REMARK SMILES IDX 94 66 61 67 45 68 46 69 54 70 47 71 48 72 52 73 55 74 49 75
REMARK SMILES IDX 50 76 53 77 51 78 77 79 78 80 86 81 79 82 80 83 84 84 87 85
REMARK SMILES IDX 81 86 82 87 85 88 83 89 62 90 63 91 71 92 64 93 65 94 69 95
REMARK SMILES IDX 72 96 66 97 67 98 70 99 68 100
REMARK H PARENT 92 53 60 64
REMARK Flexibility Score: inf
ROOT
ATOM      1  C   UNL A   1      33.070  30.462  26.937  1.00  0.00     0.188 C 
ENDROOT
BRANCH   1   2
ATOM      2  O   UNL A   1      32.271  30.185  25.780  1.00  0.00    -0.376 OA
BRANCH   2   3
ATOM      3  C   UNL A   1      32.844  29.246  24.882  1.00  0.00     0.202 C 
BRANCH   3   4
ATOM      4  C   UNL A   1      31.802  28.265  24.344  1.00  0.00     0.261 C 
BRANCH   4   5
ATOM      5  O   UNL A   1      30.805  27.727  25.241  1.00  0.00    -0.463 OA
BRANCH   5   6
ATOM      6  C   UNL A   1      31.194  27.022  26.323  1.00  0.00     0.305 C 
ATOM      7  O   UNL A   1      31.113  27.457  27.467  1.00  0.00    -0.252 OA
BRANCH   6   8
ATOM      8  C   UNL A   1      31.813  25.675  25.981  1.00  0.00     0.123 C 
BRANCH   8   9
ATOM      9  C   UNL A   1      30.900  24.535  25.529  1.00  0.00     0.014 C 
BRANCH   9  10
ATOM     10  C   UNL A   1      31.516  23.199  25.094  1.00  0.00     0.023 C 
BRANCH  10  11
ATOM     11  C   UNL A   1      32.293  22.376  26.137  1.00  0.00     0.125 C 
BRANCH  11  12
ATOM     12  N   UNL A   1      33.557  21.830  25.637  1.00  0.00    -0.312 N 
ATOM     13  C   UNL A   1      34.665  22.687  25.695  1.00  0.00     0.227 C 
ATOM     14  C   UNL A   1      33.683  20.476  25.192  1.00  0.00     0.047 A 
ATOM     15  O   UNL A   1      34.647  23.786  26.250  1.00  0.00    -0.275 OA
ATOM     16  C   UNL A   1      35.876  22.250  24.915  1.00  0.00     0.105 C 
ATOM     17  C   UNL A   1      34.965  19.957  24.922  1.00  0.00    -0.017 A 
ATOM     18  C   UNL A   1      32.587  19.616  25.049  1.00  0.00     0.034 A 
ATOM     19  C   UNL A   1      36.184  20.798  25.178  1.00  0.00     0.048 C 
ATOM     20  C   UNL A   1      35.131  18.623  24.502  1.00  0.00     0.091 A 
ATOM     21  C   UNL A   1      32.741  18.291  24.623  1.00  0.00     0.088 A 
ATOM     22  C   UNL A   1      34.015  17.799  24.346  1.00  0.00     0.269 A 
BRANCH  22  23
ATOM     23  N   UNL A   1      34.181  16.412  23.896  1.00  0.00     0.062 N 
ATOM     24  O   UNL A   1      34.123  16.191  22.678  1.00  0.00    -0.258 OA
ATOM     25  O   UNL A   1      34.350  15.539  24.760  1.00  0.00    -0.258 OA
ENDBRANCH  22  23
ENDBRANCH  11  12
ENDBRANCH  10  11
ENDBRANCH   9  10
ENDBRANCH   8   9
ENDBRANCH   6   8
ENDBRANCH   5   6
ENDBRANCH   4   5
ENDBRANCH   3   4
ENDBRANCH   2   3
ENDBRANCH   1   2
BRANCH   1  26
ATOM     26  C   UNL A   1      34.008  29.324  27.335  1.00  0.00     0.188 C 
BRANCH  26  27
ATOM     27  O   UNL A   1      35.404  29.585  27.454  1.00  0.00    -0.377 OA
BRANCH  27  28
ATOM     28  C   UNL A   1      35.944  30.155  28.635  1.00  0.00     0.188 C 
BRANCH  28  29
ATOM     29  C   UNL A   1      37.023  31.208  28.355  1.00  0.00     0.188 C 
BRANCH  29  30
ATOM     30  O   UNL A   1      36.686  32.562  28.628  1.00  0.00    -0.376 OA
BRANCH  30  31
ATOM     31  C   UNL A   1      35.325  32.970  28.491  1.00  0.00     0.202 C 
BRANCH  31  32
ATOM     32  C   UNL A   1      34.679  33.808  29.610  1.00  0.00     0.261 C 
BRANCH  32  33
ATOM     33  O   UNL A   1      35.567  34.080  30.714  1.00  0.00    -0.460 OA
BRANCH  33  34
ATOM     34  C   UNL A   1      35.377  33.329  31.823  1.00  0.00     0.338 C 
ATOM     35  O   UNL A   1      34.319  33.115  32.391  1.00  0.00    -0.246 OA
BRANCH  34  36
ATOM     36  C   UNL A   1      36.610  32.601  32.196  1.00  0.00     0.060 A 
ATOM     37  C   UNL A   1      36.490  31.559  33.129  1.00  0.00     0.016 A 
ATOM     38  C   UNL A   1      37.872  33.030  31.782  1.00  0.00     0.016 A 
ATOM     39  C   UNL A   1      37.626  31.000  33.712  1.00  0.00     0.010 A 
ATOM     40  C   UNL A   1      39.014  32.484  32.385  1.00  0.00     0.010 A 
ATOM     41  C   UNL A   1      38.889  31.513  33.399  1.00  0.00    -0.014 A 
BRANCH  41  42
ATOM     42  C   UNL A   1      40.010  31.242  34.336  1.00  0.00     0.031 A 
ATOM     43  C   UNL A   1      40.257  32.235  35.445  1.00  0.00     0.074 A 
ATOM     44  C   UNL A   1      40.740  30.117  34.268  1.00  0.00     0.049 A 
ATOM     45  N   UNL A   1      41.145  32.213  36.407  1.00  0.00    -0.248 NA
ATOM     46  C   UNL A   1      39.374  33.414  35.472  1.00  0.00     0.031 C 
ATOM     47  C   UNL A   1      40.564  29.052  33.285  1.00  0.00     0.029 A 
ATOM     48  N   UNL A   1      41.778  29.682  35.056  1.00  0.00    -0.354 N 
ATOM     49  C   UNL A   1      40.932  33.372  37.143  1.00  0.00     0.074 A 
ATOM     50  C   UNL A   1      39.854  34.092  36.501  1.00  0.00     0.031 C 
ATOM     51  C   UNL A   1      41.470  28.085  33.525  1.00  0.00     0.029 A 
ATOM     52  C   UNL A   1      42.301  28.475  34.663  1.00  0.00     0.049 A 
ATOM     53  H   UNL A   1      42.115  30.189  35.831  1.00  0.00     0.167 HD
ATOM     54  C   UNL A   1      41.569  33.797  38.260  1.00  0.00     0.037 A 
ATOM     55  C   UNL A   1      43.340  27.776  35.163  1.00  0.00     0.037 A 
ATOM     56  C   UNL A   1      42.640  33.082  38.902  1.00  0.00     0.049 A 
ATOM     57  C   UNL A   1      44.081  28.306  36.367  1.00  0.00     0.074 A 
ATOM     58  C   UNL A   1      43.343  33.422  40.043  1.00  0.00     0.029 A 
ATOM     59  N   UNL A   1      43.169  31.884  38.447  1.00  0.00    -0.354 N 
ATOM     60  N   UNL A   1      43.856  29.388  37.073  1.00  0.00    -0.248 NA
ATOM     61  C   UNL A   1      45.215  27.505  36.849  1.00  0.00     0.031 C 
ATOM     62  C   UNL A   1      44.337  32.459  40.247  1.00  0.00     0.029 A 
ATOM     63  C   UNL A   1      44.208  31.483  39.272  1.00  0.00     0.049 A 
ATOM     64  H   UNL A   1      42.853  31.390  37.656  1.00  0.00     0.167 HD
ATOM     65  C   UNL A   1      44.788  29.374  38.104  1.00  0.00     0.074 A 
ATOM     66  C   UNL A   1      45.577  28.172  37.936  1.00  0.00     0.031 C 
ATOM     67  C   UNL A   1      44.973  30.273  39.103  1.00  0.00     0.037 A 
BRANCH  54  68
ATOM     68  C   UNL A   1      41.147  35.119  38.836  1.00  0.00     0.064 A 
ATOM     69  C   UNL A   1      41.884  36.294  38.621  1.00  0.00     0.173 A 
ATOM     70  C   UNL A   1      39.976  35.212  39.604  1.00  0.00     0.173 A 
ATOM     71  F   UNL A   1      43.020  36.257  37.908  1.00  0.00    -0.203 F 
ATOM     72  C   UNL A   1      41.481  37.505  39.179  1.00  0.00     0.198 A 
ATOM     73  C   UNL A   1      39.559  36.431  40.132  1.00  0.00     0.198 A 
ATOM     74  F   UNL A   1      39.233  34.121  39.838  1.00  0.00    -0.203 F 
ATOM     75  F   UNL A   1      42.231  38.602  39.007  1.00  0.00    -0.200 F 
ATOM     76  C   UNL A   1      40.317  37.574  39.928  1.00  0.00     0.200 A 
ATOM     77  F   UNL A   1      38.426  36.497  40.845  1.00  0.00    -0.200 F 
ATOM     78  F   UNL A   1      39.927  38.740  40.460  1.00  0.00    -0.200 F 
ENDBRANCH  54  68
BRANCH  55  79
ATOM     79  C   UNL A   1      43.748  26.490  34.534  1.00  0.00     0.064 A 
ATOM     80  C   UNL A   1      44.713  26.454  33.517  1.00  0.00     0.173 A 
ATOM     81  C   UNL A   1      43.152  25.277  34.910  1.00  0.00     0.173 A 
ATOM     82  F   UNL A   1      45.292  27.590  33.103  1.00  0.00    -0.203 F 
ATOM     83  C   UNL A   1      45.048  25.258  32.884  1.00  0.00     0.198 A 
ATOM     84  C   UNL A   1      43.510  24.078  34.296  1.00  0.00     0.198 A 
ATOM     85  F   UNL A   1      42.220  25.255  35.874  1.00  0.00    -0.203 F 
ATOM     86  F   UNL A   1      45.932  25.260  31.877  1.00  0.00    -0.200 F 
ATOM     87  C   UNL A   1      44.451  24.070  33.277  1.00  0.00     0.200 A 
ATOM     88  F   UNL A   1      42.939  22.930  34.688  1.00  0.00    -0.200 F 
ATOM     89  F   UNL A   1      44.773  22.921  32.668  1.00  0.00    -0.200 F 
ENDBRANCH  55  79
BRANCH  67  90
ATOM     90  C   UNL A   1      46.025  29.963  40.132  1.00  0.00     0.064 A 
ATOM     91  C   UNL A   1      45.801  29.055  41.178  1.00  0.00     0.173 A 
ATOM     92  C   UNL A   1      47.290  30.567  40.051  1.00  0.00     0.173 A 
ATOM     93  F   UNL A   1      44.607  28.458  41.308  1.00  0.00    -0.203 F 
ATOM     94  C   UNL A   1      46.789  28.793  42.123  1.00  0.00     0.198 A 
ATOM     95  C   UNL A   1      48.287  30.275  40.976  1.00  0.00     0.198 A 
ATOM     96  F   UNL A   1      47.564  31.434  39.064  1.00  0.00    -0.203 F 
ATOM     97  F   UNL A   1      46.532  27.968  43.148  1.00  0.00    -0.200 F 
ATOM     98  C   UNL A   1      48.034  29.397  42.019  1.00  0.00     0.200 A 
ATOM     99  F   UNL A   1      49.494  30.846  40.862  1.00  0.00    -0.200 F 
ATOM    100  F   UNL A   1      48.983  29.141  42.927  1.00  0.00    -0.200 F 
ENDBRANCH  67  90
ENDBRANCH  41  42
ENDBRANCH  34  36
ENDBRANCH  33  34
ENDBRANCH  32  33
ENDBRANCH  31  32
ENDBRANCH  30  31
ENDBRANCH  29  30
ENDBRANCH  28  29
ENDBRANCH  27  28
ENDBRANCH  26  27
ENDBRANCH   1  26
TORSDOF 25
ENDMDL
