MODEL 1
REMARK VINA RESULT:     -10.4      0.000      0.000
REMARK SMILES C[C@@H]1[C@H](C)CCC[C@@H]1NC(=O)COc1csc(C(=O)OCCOCCOCCOCCOC(=O)c2ccc(-c3c4nc(c(-c5c(F)c(F)c(F)c(F)c5F)c5ccc([nH]5)c(-c5c(F)c(F)c(F)c(F)c5F)c5nc(c(-c6c(F)c(F)c(F)c(F)c6F)c6ccc3[nH]6)C=C5)C=C4)cc2)c1
REMARK SMILES IDX 25 1 24 2 23 3 22 4 21 5 20 6 18 7 19 8 17 9 14 10 15 11
REMARK SMILES IDX 98 12 16 13 13 14 12 15 10 16 9 17 11 19 8 20 1 21 2 22 3 23
REMARK SMILES IDX 4 24 5 25 7 26 6 27 26 28 27 29 28 30 29 31 30 32 31 33
REMARK SMILES IDX 32 34 33 35 34 36 35 37 36 38 97 39 37 40 96 41 38 42 39 43
REMARK SMILES IDX 40 44 90 45 41 46 95 47 89 48 91 49 42 50 94 51 88 52 87 53
REMARK SMILES IDX 43 55 75 56 55 57 74 58 56 59 59 60 73 61 92 62 57 63 58 64
REMARK SMILES IDX 72 66 93 67 60 68 44 69 45 70 53 71 46 72 47 73 51 74 54 75
REMARK SMILES IDX 48 76 49 77 52 78 50 79 76 80 77 81 85 82 78 83 79 84 83 85
REMARK SMILES IDX 86 86 80 87 81 88 84 89 82 90 61 91 62 92 70 93 63 94 64 95
REMARK SMILES IDX 68 96 71 97 65 98 66 99 69 100 67 101
REMARK H PARENT 9 18 91 54 59 65
REMARK Flexibility Score: inf
ROOT
ATOM      1  C   UNL A   1      41.934  20.031  26.525  1.00  0.00     0.188 C 
ENDROOT
BRANCH   1   2
ATOM      2  C   UNL A   1      40.500  20.585  26.484  1.00  0.00     0.188 C 
BRANCH   2   3
ATOM      3  O   UNL A   1      40.426  21.974  26.813  1.00  0.00    -0.376 OA
BRANCH   3   4
ATOM      4  C   UNL A   1      39.190  22.621  26.524  1.00  0.00     0.202 C 
BRANCH   4   5
ATOM      5  C   UNL A   1      38.374  21.987  25.389  1.00  0.00     0.261 C 
BRANCH   5   6
ATOM      6  O   UNL A   1      36.956  21.979  25.609  1.00  0.00    -0.459 OA
BRANCH   6   7
ATOM      7  C   UNL A   1      36.262  20.880  25.208  1.00  0.00     0.348 C 
ATOM      8  O   UNL A   1      36.770  19.792  24.961  1.00  0.00    -0.245 OA
BRANCH   7   9
ATOM      9  C   UNL A   1      34.851  21.187  25.281  1.00  0.00     0.116 A 
ATOM     10  C   UNL A   1      32.827  22.156  25.919  1.00  0.00     0.131 A 
ATOM     11  C   UNL A   1      32.395  20.957  25.403  1.00  0.00     0.112 A 
ATOM     12  C   UNL A   1      34.238  22.297  25.828  1.00  0.00     0.074 A 
ATOM     13  S   UNL A   1      33.696  20.038  24.759  1.00  0.00    -0.133 S 
BRANCH  10  14
ATOM     14  O   UNL A   1      32.085  23.153  26.451  1.00  0.00    -0.483 OA
BRANCH  14  15
ATOM     15  C   UNL A   1      30.962  23.594  25.738  1.00  0.00     0.329 C 
BRANCH  15  16
ATOM     16  C   UNL A   1      31.011  24.124  24.302  1.00  0.00     0.258 C 
ATOM     17  N   UNL A   1      31.167  25.430  23.975  1.00  0.00    -0.350 N 
ATOM     18  H   UNL A   1      30.800  25.639  23.085  1.00  0.00     0.163 HD
ATOM     19  O   UNL A   1      30.805  23.345  23.362  1.00  0.00    -0.271 OA
BRANCH  17  20
ATOM     20  C   UNL A   1      31.753  26.611  24.628  1.00  0.00     0.085 C 
ATOM     21  C   UNL A   1      30.687  28.333  23.044  1.00  0.00     0.010 C 
ATOM     22  C   UNL A   1      31.013  27.962  24.494  1.00  0.00     0.011 C 
ATOM     23  C   UNL A   1      31.800  29.063  25.258  1.00  0.00    -0.009 C 
ATOM     24  C   UNL A   1      31.079  30.410  25.259  1.00  0.00     0.008 C 
ATOM     25  C   UNL A   1      33.236  29.206  24.740  1.00  0.00     0.004 C 
ATOM     26  C   UNL A   1      33.204  26.748  24.120  1.00  0.00     0.025 C 
ATOM     27  C   UNL A   1      33.975  27.875  24.799  1.00  0.00     0.002 C 
ENDBRANCH  17  20
ENDBRANCH  15  16
ENDBRANCH  14  15
ENDBRANCH  10  14
ENDBRANCH   7   9
ENDBRANCH   6   7
ENDBRANCH   5   6
ENDBRANCH   4   5
ENDBRANCH   3   4
ENDBRANCH   2   3
ENDBRANCH   1   2
BRANCH   1  28
ATOM     28  O   UNL A   1      42.248  19.224  25.402  1.00  0.00    -0.377 OA
BRANCH  28  29
ATOM     29  C   UNL A   1      43.504  18.548  25.408  1.00  0.00     0.188 C 
BRANCH  29  30
ATOM     30  C   UNL A   1      44.711  19.080  24.605  1.00  0.00     0.188 C 
BRANCH  30  31
ATOM     31  O   UNL A   1      45.587  19.917  25.359  1.00  0.00    -0.376 OA
BRANCH  31  32
ATOM     32  C   UNL A   1      45.651  21.285  24.966  1.00  0.00     0.202 C 
BRANCH  32  33
ATOM     33  C   UNL A   1      45.111  22.243  26.034  1.00  0.00     0.261 C 
BRANCH  33  34
ATOM     34  O   UNL A   1      44.109  23.155  25.557  1.00  0.00    -0.460 OA
BRANCH  34  35
ATOM     35  C   UNL A   1      44.517  24.409  25.268  1.00  0.00     0.338 C 
ATOM     36  O   UNL A   1      45.262  24.760  24.372  1.00  0.00    -0.246 OA
BRANCH  35  37
ATOM     37  C   UNL A   1      43.762  25.339  26.127  1.00  0.00     0.060 A 
ATOM     38  C   UNL A   1      44.256  26.635  26.310  1.00  0.00     0.016 A 
ATOM     39  C   UNL A   1      42.586  24.926  26.759  1.00  0.00     0.016 A 
ATOM     40  C   UNL A   1      43.596  27.512  27.171  1.00  0.00     0.010 A 
ATOM     41  C   UNL A   1      41.936  25.797  27.631  1.00  0.00     0.010 A 
ATOM     42  C   UNL A   1      42.460  27.079  27.868  1.00  0.00    -0.014 A 
BRANCH  42  43
ATOM     43  C   UNL A   1      41.941  27.880  29.000  1.00  0.00     0.031 A 
ATOM     44  C   UNL A   1      42.704  27.857  30.294  1.00  0.00     0.074 A 
ATOM     45  C   UNL A   1      40.818  28.609  28.885  1.00  0.00     0.049 A 
ATOM     46  N   UNL A   1      42.435  28.445  31.431  1.00  0.00    -0.248 NA
ATOM     47  C   UNL A   1      43.940  27.057  30.306  1.00  0.00     0.031 C 
ATOM     48  C   UNL A   1      40.013  28.736  27.674  1.00  0.00     0.029 A 
ATOM     49  N   UNL A   1      40.162  29.377  29.812  1.00  0.00    -0.354 N 
ATOM     50  C   UNL A   1      43.469  28.093  32.288  1.00  0.00     0.074 A 
ATOM     51  C   UNL A   1      44.351  27.210  31.554  1.00  0.00     0.031 C 
ATOM     52  C   UNL A   1      38.963  29.536  27.933  1.00  0.00     0.029 A 
ATOM     53  C   UNL A   1      39.012  29.951  29.335  1.00  0.00     0.049 A 
ATOM     54  H   UNL A   1      40.487  29.504  30.733  1.00  0.00     0.167 HD
ATOM     55  C   UNL A   1      43.672  28.479  33.569  1.00  0.00     0.037 A 
ATOM     56  C   UNL A   1      38.099  30.713  29.969  1.00  0.00     0.037 A 
ATOM     57  C   UNL A   1      42.787  29.338  34.306  1.00  0.00     0.049 A 
ATOM     58  C   UNL A   1      38.297  31.049  31.425  1.00  0.00     0.074 A 
ATOM     59  C   UNL A   1      42.905  29.793  35.606  1.00  0.00     0.029 A 
ATOM     60  N   UNL A   1      41.606  29.863  33.802  1.00  0.00    -0.354 N 
ATOM     61  N   UNL A   1      39.294  30.742  32.220  1.00  0.00    -0.248 NA
ATOM     62  C   UNL A   1      37.240  31.840  32.070  1.00  0.00     0.031 C 
ATOM     63  C   UNL A   1      41.772  30.558  35.905  1.00  0.00     0.029 A 
ATOM     64  C   UNL A   1      40.972  30.617  34.775  1.00  0.00     0.049 A 
ATOM     65  H   UNL A   1      41.269  29.721  32.888  1.00  0.00     0.167 HD
ATOM     66  C   UNL A   1      39.000  31.327  33.445  1.00  0.00     0.074 A 
ATOM     67  C   UNL A   1      37.735  32.013  33.288  1.00  0.00     0.031 C 
ATOM     68  C   UNL A   1      39.716  31.303  34.597  1.00  0.00     0.037 A 
BRANCH  55  69
ATOM     69  C   UNL A   1      44.894  27.946  34.255  1.00  0.00     0.064 A 
ATOM     70  C   UNL A   1      44.867  26.735  34.965  1.00  0.00     0.173 A 
ATOM     71  C   UNL A   1      46.104  28.653  34.206  1.00  0.00     0.173 A 
ATOM     72  F   UNL A   1      43.728  26.032  35.056  1.00  0.00    -0.203 F 
ATOM     73  C   UNL A   1      45.999  26.270  35.627  1.00  0.00     0.198 A 
ATOM     74  C   UNL A   1      47.241  28.171  34.848  1.00  0.00     0.198 A 
ATOM     75  F   UNL A   1      46.181  29.817  33.543  1.00  0.00    -0.203 F 
ATOM     76  F   UNL A   1      45.936  25.138  36.345  1.00  0.00    -0.200 F 
ATOM     77  C   UNL A   1      47.185  26.984  35.565  1.00  0.00     0.200 A 
ATOM     78  F   UNL A   1      48.389  28.860  34.783  1.00  0.00    -0.200 F 
ATOM     79  F   UNL A   1      48.273  26.537  36.206  1.00  0.00    -0.200 F 
ENDBRANCH  55  69
BRANCH  56  80
ATOM     80  C   UNL A   1      36.912  31.219  29.233  1.00  0.00     0.064 A 
ATOM     81  C   UNL A   1      35.840  30.367  28.931  1.00  0.00     0.173 A 
ATOM     82  C   UNL A   1      36.834  32.549  28.798  1.00  0.00     0.173 A 
ATOM     83  F   UNL A   1      35.884  29.079  29.302  1.00  0.00    -0.203 F 
ATOM     84  C   UNL A   1      34.740  30.825  28.209  1.00  0.00     0.198 A 
ATOM     85  C   UNL A   1      35.722  33.011  28.096  1.00  0.00     0.198 A 
ATOM     86  F   UNL A   1      37.838  33.400  29.056  1.00  0.00    -0.203 F 
ATOM     87  F   UNL A   1      33.748  29.980  27.896  1.00  0.00    -0.200 F 
ATOM     88  C   UNL A   1      34.679  32.147  27.797  1.00  0.00     0.200 A 
ATOM     89  F   UNL A   1      35.665  34.291  27.704  1.00  0.00    -0.200 F 
ATOM     90  F   UNL A   1      33.622  32.587  27.102  1.00  0.00    -0.200 F 
ENDBRANCH  56  80
BRANCH  68  91
ATOM     91  C   UNL A   1      39.172  32.071  35.765  1.00  0.00     0.064 A 
ATOM     92  C   UNL A   1      38.328  31.474  36.710  1.00  0.00     0.173 A 
ATOM     93  C   UNL A   1      39.540  33.411  35.963  1.00  0.00     0.173 A 
ATOM     94  F   UNL A   1      37.936  30.200  36.556  1.00  0.00    -0.203 F 
ATOM     95  C   UNL A   1      37.855  32.196  37.803  1.00  0.00     0.198 A 
ATOM     96  C   UNL A   1      39.086  34.122  37.071  1.00  0.00     0.198 A 
ATOM     97  F   UNL A   1      40.352  34.026  35.090  1.00  0.00    -0.203 F 
ATOM     98  F   UNL A   1      37.015  31.617  38.674  1.00  0.00    -0.200 F 
ATOM     99  C   UNL A   1      38.239  33.516  37.986  1.00  0.00     0.200 A 
ATOM    100  F   UNL A   1      39.470  35.393  37.253  1.00  0.00    -0.200 F 
ATOM    101  F   UNL A   1      37.789  34.207  39.042  1.00  0.00    -0.200 F 
ENDBRANCH  68  91
ENDBRANCH  42  43
ENDBRANCH  35  37
ENDBRANCH  34  35
ENDBRANCH  33  34
ENDBRANCH  32  33
ENDBRANCH  31  32
ENDBRANCH  30  31
ENDBRANCH  29  30
ENDBRANCH  28  29
ENDBRANCH   1  28
TORSDOF 24
ENDMDL
MODEL 2
REMARK VINA RESULT:     -10.0      1.324      7.462
REMARK SMILES C[C@@H]1[C@H](C)CCC[C@@H]1NC(=O)COc1csc(C(=O)OCCOCCOCCOCCOC(=O)c2ccc(-c3c4nc(c(-c5c(F)c(F)c(F)c(F)c5F)c5ccc([nH]5)c(-c5c(F)c(F)c(F)c(F)c5F)c5nc(c(-c6c(F)c(F)c(F)c(F)c6F)c6ccc3[nH]6)C=C5)C=C4)cc2)c1
REMARK SMILES IDX 25 1 24 2 23 3 22 4 21 5 20 6 18 7 19 8 17 9 14 10 15 11
REMARK SMILES IDX 98 12 16 13 13 14 12 15 10 16 9 17 11 19 8 20 1 21 2 22 3 23
REMARK SMILES IDX 4 24 5 25 7 26 6 27 26 28 27 29 28 30 29 31 30 32 31 33
REMARK SMILES IDX 32 34 33 35 34 36 35 37 36 38 97 39 37 40 96 41 38 42 39 43
REMARK SMILES IDX 40 44 90 45 41 46 95 47 89 48 91 49 42 50 94 51 88 52 87 53
REMARK SMILES IDX 43 55 75 56 55 57 74 58 56 59 59 60 73 61 92 62 57 63 58 64
REMARK SMILES IDX 72 66 93 67 60 68 44 69 45 70 53 71 46 72 47 73 51 74 54 75
REMARK SMILES IDX 48 76 49 77 52 78 50 79 76 80 77 81 85 82 78 83 79 84 83 85
REMARK SMILES IDX 86 86 80 87 81 88 84 89 82 90 61 91 62 92 70 93 63 94 64 95
REMARK SMILES IDX 68 96 71 97 65 98 66 99 69 100 67 101
REMARK H PARENT 9 18 91 54 59 65
REMARK Flexibility Score: inf
ROOT
ATOM      1  C   UNL A   1      40.778  20.237  26.561  1.00  0.00     0.188 C 
ENDROOT
BRANCH   1   2
ATOM      2  C   UNL A   1      39.606  21.036  25.968  1.00  0.00     0.188 C 
BRANCH   2   3
ATOM      3  O   UNL A   1      39.605  22.408  26.365  1.00  0.00    -0.376 OA
BRANCH   3   4
ATOM      4  C   UNL A   1      38.360  23.092  26.257  1.00  0.00     0.202 C 
BRANCH   4   5
ATOM      5  C   UNL A   1      37.264  22.328  25.499  1.00  0.00     0.261 C 
BRANCH   5   6
ATOM      6  O   UNL A   1      36.199  23.154  25.004  1.00  0.00    -0.459 OA
BRANCH   6   7
ATOM      7  C   UNL A   1      36.080  23.288  23.656  1.00  0.00     0.348 C 
ATOM      8  O   UNL A   1      36.828  22.764  22.839  1.00  0.00    -0.245 OA
BRANCH   7   9
ATOM      9  C   UNL A   1      34.857  24.010  23.382  1.00  0.00     0.116 A 
ATOM     10  C   UNL A   1      33.072  25.498  23.586  1.00  0.00     0.131 A 
ATOM     11  C   UNL A   1      32.525  24.540  22.766  1.00  0.00     0.112 A 
ATOM     12  C   UNL A   1      34.421  25.204  23.922  1.00  0.00     0.074 A 
ATOM     13  S   UNL A   1      33.667  23.322  22.362  1.00  0.00    -0.133 S 
BRANCH  10  14
ATOM     14  O   UNL A   1      32.495  26.626  24.055  1.00  0.00    -0.483 OA
BRANCH  14  15
ATOM     15  C   UNL A   1      32.649  26.931  25.415  1.00  0.00     0.329 C 
BRANCH  15  16
ATOM     16  C   UNL A   1      31.791  26.327  26.532  1.00  0.00     0.258 C 
ATOM     17  N   UNL A   1      31.641  24.998  26.744  1.00  0.00    -0.350 N 
ATOM     18  H   UNL A   1      30.801  24.787  27.212  1.00  0.00     0.163 HD
ATOM     19  O   UNL A   1      31.108  27.076  27.242  1.00  0.00    -0.271 OA
BRANCH  17  20
ATOM     20  C   UNL A   1      32.430  23.792  26.445  1.00  0.00     0.085 C 
ATOM     21  C   UNL A   1      30.416  22.203  26.285  1.00  0.00     0.010 C 
ATOM     22  C   UNL A   1      31.745  22.646  25.667  1.00  0.00     0.011 C 
ATOM     23  C   UNL A   1      32.755  21.484  25.459  1.00  0.00    -0.009 C 
ATOM     24  C   UNL A   1      32.185  20.351  24.606  1.00  0.00     0.008 C 
ATOM     25  C   UNL A   1      33.300  20.952  26.789  1.00  0.00     0.004 C 
ATOM     26  C   UNL A   1      32.992  23.264  27.782  1.00  0.00     0.025 C 
ATOM     27  C   UNL A   1      33.927  22.071  27.612  1.00  0.00     0.002 C 
ENDBRANCH  17  20
ENDBRANCH  15  16
ENDBRANCH  14  15
ENDBRANCH  10  14
ENDBRANCH   7   9
ENDBRANCH   6   7
ENDBRANCH   5   6
ENDBRANCH   4   5
ENDBRANCH   3   4
ENDBRANCH   2   3
ENDBRANCH   1   2
BRANCH   1  28
ATOM     28  O   UNL A   1      41.372  19.350  25.628  1.00  0.00    -0.377 OA
BRANCH  28  29
ATOM     29  C   UNL A   1      42.756  19.049  25.795  1.00  0.00     0.188 C 
BRANCH  29  30
ATOM     30  C   UNL A   1      43.816  19.529  24.780  1.00  0.00     0.188 C 
BRANCH  30  31
ATOM     31  O   UNL A   1      45.041  19.955  25.376  1.00  0.00    -0.376 OA
BRANCH  31  32
ATOM     32  C   UNL A   1      45.453  21.289  25.094  1.00  0.00     0.202 C 
BRANCH  32  33
ATOM     33  C   UNL A   1      45.021  22.291  26.170  1.00  0.00     0.261 C 
BRANCH  33  34
ATOM     34  O   UNL A   1      43.951  23.162  25.771  1.00  0.00    -0.460 OA
BRANCH  34  35
ATOM     35  C   UNL A   1      44.275  24.447  25.514  1.00  0.00     0.338 C 
ATOM     36  O   UNL A   1      44.928  24.875  24.580  1.00  0.00    -0.246 OA
BRANCH  35  37
ATOM     37  C   UNL A   1      43.552  25.298  26.475  1.00  0.00     0.060 A 
ATOM     38  C   UNL A   1      43.971  26.622  26.648  1.00  0.00     0.016 A 
ATOM     39  C   UNL A   1      42.481  24.785  27.213  1.00  0.00     0.016 A 
ATOM     40  C   UNL A   1      43.346  27.427  27.600  1.00  0.00     0.010 A 
ATOM     41  C   UNL A   1      41.867  25.585  28.174  1.00  0.00     0.010 A 
ATOM     42  C   UNL A   1      42.323  26.895  28.397  1.00  0.00    -0.014 A 
BRANCH  42  43
ATOM     43  C   UNL A   1      41.871  27.628  29.602  1.00  0.00     0.031 A 
ATOM     44  C   UNL A   1      40.642  28.485  29.491  1.00  0.00     0.074 A 
ATOM     45  C   UNL A   1      42.535  27.536  30.766  1.00  0.00     0.049 A 
ATOM     46  N   UNL A   1      40.071  29.243  30.391  1.00  0.00    -0.248 NA
ATOM     47  C   UNL A   1      39.967  28.488  28.183  1.00  0.00     0.031 C 
ATOM     48  C   UNL A   1      43.717  26.712  31.004  1.00  0.00     0.029 A 
ATOM     49  N   UNL A   1      42.303  28.154  31.969  1.00  0.00    -0.354 N 
ATOM     50  C   UNL A   1      38.969  29.805  29.762  1.00  0.00     0.074 A 
ATOM     51  C   UNL A   1      38.971  29.333  28.394  1.00  0.00     0.031 C 
ATOM     52  C   UNL A   1      44.112  26.879  32.279  1.00  0.00     0.029 A 
ATOM     53  C   UNL A   1      43.226  27.841  32.933  1.00  0.00     0.049 A 
ATOM     54  H   UNL A   1      41.546  28.764  32.123  1.00  0.00     0.167 HD
ATOM     55  C   UNL A   1      38.032  30.633  30.280  1.00  0.00     0.037 A 
ATOM     56  C   UNL A   1      43.343  28.295  34.196  1.00  0.00     0.037 A 
ATOM     57  C   UNL A   1      38.040  31.120  31.632  1.00  0.00     0.049 A 
ATOM     58  C   UNL A   1      42.342  29.294  34.721  1.00  0.00     0.074 A 
ATOM     59  C   UNL A   1      37.135  31.958  32.255  1.00  0.00     0.029 A 
ATOM     60  N   UNL A   1      39.018  30.817  32.568  1.00  0.00    -0.354 N 
ATOM     61  N   UNL A   1      41.283  29.796  34.132  1.00  0.00    -0.248 NA
ATOM     62  C   UNL A   1      42.557  29.788  36.088  1.00  0.00     0.031 C 
ATOM     63  C   UNL A   1      37.590  32.199  33.557  1.00  0.00     0.029 A 
ATOM     64  C   UNL A   1      38.752  31.473  33.757  1.00  0.00     0.049 A 
ATOM     65  H   UNL A   1      39.787  30.223  32.409  1.00  0.00     0.167 HD
ATOM     66  C   UNL A   1      40.689  30.636  35.065  1.00  0.00     0.074 A 
ATOM     67  C   UNL A   1      41.502  30.573  36.261  1.00  0.00     0.031 C 
ATOM     68  C   UNL A   1      39.568  31.390  34.943  1.00  0.00     0.037 A 
BRANCH  55  69
ATOM     69  C   UNL A   1      36.935  31.080  29.360  1.00  0.00     0.064 A 
ATOM     70  C   UNL A   1      36.899  32.383  28.841  1.00  0.00     0.173 A 
ATOM     71  C   UNL A   1      35.907  30.198  28.998  1.00  0.00     0.173 A 
ATOM     72  F   UNL A   1      37.850  33.269  29.175  1.00  0.00    -0.203 F 
ATOM     73  C   UNL A   1      35.855  32.796  28.018  1.00  0.00     0.198 A 
ATOM     74  C   UNL A   1      34.879  30.606  28.153  1.00  0.00     0.198 A 
ATOM     75  F   UNL A   1      35.895  28.942  29.469  1.00  0.00    -0.203 F 
ATOM     76  F   UNL A   1      35.812  34.062  27.577  1.00  0.00    -0.200 F 
ATOM     77  C   UNL A   1      34.849  31.907  27.671  1.00  0.00     0.200 A 
ATOM     78  F   UNL A   1      33.910  29.745  27.814  1.00  0.00    -0.200 F 
ATOM     79  F   UNL A   1      33.844  32.306  26.880  1.00  0.00    -0.200 F 
ENDBRANCH  55  69
BRANCH  56  80
ATOM     80  C   UNL A   1      44.448  27.809  35.062  1.00  0.00     0.064 A 
ATOM     81  C   UNL A   1      44.256  26.722  35.927  1.00  0.00     0.173 A 
ATOM     82  C   UNL A   1      45.703  28.431  35.063  1.00  0.00     0.173 A 
ATOM     83  F   UNL A   1      43.061  26.114  35.981  1.00  0.00    -0.203 F 
ATOM     84  C   UNL A   1      45.275  26.284  36.768  1.00  0.00     0.198 A 
ATOM     85  C   UNL A   1      46.731  27.977  35.889  1.00  0.00     0.198 A 
ATOM     86  F   UNL A   1      45.934  29.479  34.258  1.00  0.00    -0.203 F 
ATOM     87  F   UNL A   1      45.052  25.271  37.616  1.00  0.00    -0.200 F 
ATOM     88  C   UNL A   1      46.513  26.908  36.745  1.00  0.00     0.200 A 
ATOM     89  F   UNL A   1      47.927  28.579  35.859  1.00  0.00    -0.200 F 
ATOM     90  F   UNL A   1      47.493  26.487  37.555  1.00  0.00    -0.200 F 
ENDBRANCH  56  80
BRANCH  68  91
ATOM     91  C   UNL A   1      39.130  32.174  36.145  1.00  0.00     0.064 A 
ATOM     92  C   UNL A   1      39.570  33.485  36.368  1.00  0.00     0.173 A 
ATOM     93  C   UNL A   1      38.220  31.619  37.058  1.00  0.00     0.173 A 
ATOM     94  F   UNL A   1      40.452  34.054  35.532  1.00  0.00    -0.203 F 
ATOM     95  C   UNL A   1      39.131  34.208  37.476  1.00  0.00     0.198 A 
ATOM     96  C   UNL A   1      37.763  32.354  38.149  1.00  0.00     0.198 A 
ATOM     97  F   UNL A   1      37.763  30.370  36.884  1.00  0.00    -0.203 F 
ATOM     98  F   UNL A   1      39.596  35.446  37.693  1.00  0.00    -0.200 F 
ATOM     99  C   UNL A   1      38.223  33.645  38.360  1.00  0.00     0.200 A 
ATOM    100  F   UNL A   1      36.876  31.813  38.995  1.00  0.00    -0.200 F 
ATOM    101  F   UNL A   1      37.796  34.344  39.420  1.00  0.00    -0.200 F 
ENDBRANCH  68  91
ENDBRANCH  42  43
ENDBRANCH  35  37
ENDBRANCH  34  35
ENDBRANCH  33  34
ENDBRANCH  32  33
ENDBRANCH  31  32
ENDBRANCH  30  31
ENDBRANCH  29  30
ENDBRANCH  28  29
ENDBRANCH   1  28
TORSDOF 24
ENDMDL
MODEL 3
REMARK VINA RESULT:      -9.9      1.186      2.177
REMARK SMILES C[C@@H]1[C@H](C)CCC[C@@H]1NC(=O)COc1csc(C(=O)OCCOCCOCCOCCOC(=O)c2ccc(-c3c4nc(c(-c5c(F)c(F)c(F)c(F)c5F)c5ccc([nH]5)c(-c5c(F)c(F)c(F)c(F)c5F)c5nc(c(-c6c(F)c(F)c(F)c(F)c6F)c6ccc3[nH]6)C=C5)C=C4)cc2)c1
REMARK SMILES IDX 25 1 24 2 23 3 22 4 21 5 20 6 18 7 19 8 17 9 14 10 15 11
REMARK SMILES IDX 98 12 16 13 13 14 12 15 10 16 9 17 11 19 8 20 1 21 2 22 3 23
REMARK SMILES IDX 4 24 5 25 7 26 6 27 26 28 27 29 28 30 29 31 30 32 31 33
REMARK SMILES IDX 32 34 33 35 34 36 35 37 36 38 97 39 37 40 96 41 38 42 39 43
REMARK SMILES IDX 40 44 90 45 41 46 95 47 89 48 91 49 42 50 94 51 88 52 87 53
REMARK SMILES IDX 43 55 75 56 55 57 74 58 56 59 59 60 73 61 92 62 57 63 58 64
REMARK SMILES IDX 72 66 93 67 60 68 44 69 45 70 53 71 46 72 47 73 51 74 54 75
REMARK SMILES IDX 48 76 49 77 52 78 50 79 76 80 77 81 85 82 78 83 79 84 83 85
REMARK SMILES IDX 86 86 80 87 81 88 84 89 82 90 61 91 62 92 70 93 63 94 64 95
REMARK SMILES IDX 68 96 71 97 65 98 66 99 69 100 67 101
REMARK H PARENT 9 18 91 54 59 65
REMARK Flexibility Score: inf
ROOT
ATOM      1  C   UNL A   1      41.938  19.731  26.986  1.00  0.00     0.188 C 
ENDROOT
BRANCH   1   2
ATOM      2  C   UNL A   1      40.642  20.324  26.409  1.00  0.00     0.188 C 
BRANCH   2   3
ATOM      3  O   UNL A   1      40.717  21.735  26.195  1.00  0.00    -0.376 OA
BRANCH   3   4
ATOM      4  C   UNL A   1      39.542  22.479  26.501  1.00  0.00     0.202 C 
BRANCH   4   5
ATOM      5  C   UNL A   1      38.280  22.042  25.742  1.00  0.00     0.261 C 
BRANCH   5   6
ATOM      6  O   UNL A   1      37.561  23.116  25.117  1.00  0.00    -0.459 OA
BRANCH   6   7
ATOM      7  C   UNL A   1      36.609  22.788  24.202  1.00  0.00     0.348 C 
ATOM      8  O   UNL A   1      36.815  22.666  23.001  1.00  0.00    -0.245 OA
BRANCH   7   9
ATOM      9  C   UNL A   1      35.392  22.470  24.915  1.00  0.00     0.116 A 
ATOM     10  C   UNL A   1      33.617  22.584  26.426  1.00  0.00     0.131 A 
ATOM     11  C   UNL A   1      33.632  21.240  26.135  1.00  0.00     0.112 A 
ATOM     12  C   UNL A   1      34.616  23.294  25.707  1.00  0.00     0.074 A 
ATOM     13  S   UNL A   1      34.815  20.859  24.949  1.00  0.00    -0.133 S 
BRANCH  10  14
ATOM     14  O   UNL A   1      32.789  23.250  27.259  1.00  0.00    -0.483 OA
BRANCH  14  15
ATOM     15  C   UNL A   1      31.428  22.911  27.251  1.00  0.00     0.329 C 
BRANCH  15  16
ATOM     16  C   UNL A   1      30.313  23.851  26.785  1.00  0.00     0.258 C 
ATOM     17  N   UNL A   1      30.499  24.898  25.945  1.00  0.00    -0.350 N 
ATOM     18  H   UNL A   1      29.809  25.593  26.055  1.00  0.00     0.163 HD
ATOM     19  O   UNL A   1      29.177  23.727  27.262  1.00  0.00    -0.271 OA
BRANCH  17  20
ATOM     20  C   UNL A   1      31.481  25.248  24.906  1.00  0.00     0.085 C 
ATOM     21  C   UNL A   1      31.185  27.792  25.122  1.00  0.00     0.010 C 
ATOM     22  C   UNL A   1      32.171  26.628  24.990  1.00  0.00     0.011 C 
ATOM     23  C   UNL A   1      33.165  26.784  23.805  1.00  0.00    -0.009 C 
ATOM     24  C   UNL A   1      33.965  28.084  23.873  1.00  0.00     0.008 C 
ATOM     25  C   UNL A   1      32.469  26.635  22.448  1.00  0.00     0.004 C 
ATOM     26  C   UNL A   1      30.786  25.083  23.538  1.00  0.00     0.025 C 
ATOM     27  C   UNL A   1      31.723  25.309  22.357  1.00  0.00     0.002 C 
ENDBRANCH  17  20
ENDBRANCH  15  16
ENDBRANCH  14  15
ENDBRANCH  10  14
ENDBRANCH   7   9
ENDBRANCH   6   7
ENDBRANCH   5   6
ENDBRANCH   4   5
ENDBRANCH   3   4
ENDBRANCH   2   3
ENDBRANCH   1   2
BRANCH   1  28
ATOM     28  O   UNL A   1      42.356  18.555  26.312  1.00  0.00    -0.377 OA
BRANCH  28  29
ATOM     29  C   UNL A   1      43.694  18.520  25.819  1.00  0.00     0.188 C 
BRANCH  29  30
ATOM     30  C   UNL A   1      44.156  19.441  24.670  1.00  0.00     0.188 C 
BRANCH  30  31
ATOM     31  O   UNL A   1      45.530  19.821  24.747  1.00  0.00    -0.376 OA
BRANCH  31  32
ATOM     32  C   UNL A   1      45.801  21.220  24.762  1.00  0.00     0.202 C 
BRANCH  32  33
ATOM     33  C   UNL A   1      45.244  21.926  26.003  1.00  0.00     0.261 C 
BRANCH  33  34
ATOM     34  O   UNL A   1      43.983  22.582  25.793  1.00  0.00    -0.460 OA
BRANCH  34  35
ATOM     35  C   UNL A   1      44.024  23.892  25.469  1.00  0.00     0.338 C 
ATOM     36  O   UNL A   1      44.114  24.379  24.358  1.00  0.00    -0.246 OA
BRANCH  35  37
ATOM     37  C   UNL A   1      43.766  24.668  26.695  1.00  0.00     0.060 A 
ATOM     38  C   UNL A   1      42.866  24.156  27.637  1.00  0.00     0.016 A 
ATOM     39  C   UNL A   1      44.392  25.900  26.901  1.00  0.00     0.016 A 
ATOM     40  C   UNL A   1      42.553  24.902  28.773  1.00  0.00     0.010 A 
ATOM     41  C   UNL A   1      44.068  26.652  28.029  1.00  0.00     0.010 A 
ATOM     42  C   UNL A   1      43.120  26.173  28.948  1.00  0.00    -0.014 A 
BRANCH  42  43
ATOM     43  C   UNL A   1      42.568  27.091  29.970  1.00  0.00     0.031 A 
ATOM     44  C   UNL A   1      43.244  27.148  31.310  1.00  0.00     0.074 A 
ATOM     45  C   UNL A   1      41.493  27.855  29.717  1.00  0.00     0.049 A 
ATOM     46  N   UNL A   1      42.932  27.844  32.373  1.00  0.00    -0.248 NA
ATOM     47  C   UNL A   1      44.436  26.299  31.475  1.00  0.00     0.031 C 
ATOM     48  C   UNL A   1      40.774  27.911  28.448  1.00  0.00     0.029 A 
ATOM     49  N   UNL A   1      40.817  28.729  30.530  1.00  0.00    -0.354 N 
ATOM     50  C   UNL A   1      43.890  27.524  33.325  1.00  0.00     0.074 A 
ATOM     51  C   UNL A   1      44.773  26.543  32.730  1.00  0.00     0.031 C 
ATOM     52  C   UNL A   1      39.750  28.775  28.566  1.00  0.00     0.029 A 
ATOM     53  C   UNL A   1      39.729  29.308  29.928  1.00  0.00     0.049 A 
ATOM     54  H   UNL A   1      41.088  28.922  31.456  1.00  0.00     0.167 HD
ATOM     55  C   UNL A   1      44.029  28.011  34.579  1.00  0.00     0.037 A 
ATOM     56  C   UNL A   1      38.816  30.161  30.431  1.00  0.00     0.037 A 
ATOM     57  C   UNL A   1      43.142  28.970  35.179  1.00  0.00     0.049 A 
ATOM     58  C   UNL A   1      38.936  30.615  31.864  1.00  0.00     0.074 A 
ATOM     59  C   UNL A   1      43.198  29.530  36.441  1.00  0.00     0.029 A 
ATOM     60  N   UNL A   1      42.022  29.499  34.554  1.00  0.00    -0.354 N 
ATOM     61  N   UNL A   1      39.863  30.335  32.749  1.00  0.00    -0.248 NA
ATOM     62  C   UNL A   1      37.879  31.504  32.367  1.00  0.00     0.031 C 
ATOM     63  C   UNL A   1      42.087  30.367  36.596  1.00  0.00     0.029 A 
ATOM     64  C   UNL A   1      41.365  30.362  35.414  1.00  0.00     0.049 A 
ATOM     65  H   UNL A   1      41.738  29.292  33.634  1.00  0.00     0.167 HD
ATOM     66  C   UNL A   1      39.520  31.038  33.897  1.00  0.00     0.074 A 
ATOM     67  C   UNL A   1      38.303  31.761  33.597  1.00  0.00     0.031 C 
ATOM     68  C   UNL A   1      40.159  31.083  35.093  1.00  0.00     0.037 A 
BRANCH  55  69
ATOM     69  C   UNL A   1      45.177  27.488  35.390  1.00  0.00     0.064 A 
ATOM     70  C   UNL A   1      46.433  28.115  35.374  1.00  0.00     0.173 A 
ATOM     71  C   UNL A   1      45.022  26.345  36.188  1.00  0.00     0.173 A 
ATOM     72  F   UNL A   1      46.636  29.199  34.610  1.00  0.00    -0.203 F 
ATOM     73  C   UNL A   1      47.499  27.597  36.103  1.00  0.00     0.198 A 
ATOM     74  C   UNL A   1      46.085  25.845  36.936  1.00  0.00     0.198 A 
ATOM     75  F   UNL A   1      43.843  25.708  36.236  1.00  0.00    -0.203 F 
ATOM     76  F   UNL A   1      48.705  28.181  36.030  1.00  0.00    -0.200 F 
ATOM     77  C   UNL A   1      47.324  26.467  36.886  1.00  0.00     0.200 A 
ATOM     78  F   UNL A   1      45.913  24.756  37.697  1.00  0.00    -0.200 F 
ATOM     79  F   UNL A   1      48.353  25.968  37.585  1.00  0.00    -0.200 F 
ENDBRANCH  55  69
BRANCH  56  80
ATOM     80  C   UNL A   1      37.705  30.652  29.576  1.00  0.00     0.064 A 
ATOM     81  C   UNL A   1      37.716  31.957  29.065  1.00  0.00     0.173 A 
ATOM     82  C   UNL A   1      36.604  29.840  29.272  1.00  0.00     0.173 A 
ATOM     83  F   UNL A   1      38.736  32.780  29.355  1.00  0.00    -0.203 F 
ATOM     84  C   UNL A   1      36.660  32.436  28.294  1.00  0.00     0.198 A 
ATOM     85  C   UNL A   1      35.559  30.313  28.479  1.00  0.00     0.198 A 
ATOM     86  F   UNL A   1      36.543  28.585  29.743  1.00  0.00    -0.203 F 
ATOM     87  F   UNL A   1      36.675  33.702  27.854  1.00  0.00    -0.200 F 
ATOM     88  C   UNL A   1      35.586  31.613  27.997  1.00  0.00     0.200 A 
ATOM     89  F   UNL A   1      34.525  29.512  28.190  1.00  0.00    -0.200 F 
ATOM     90  F   UNL A   1      34.570  32.074  27.255  1.00  0.00    -0.200 F 
ENDBRANCH  56  80
BRANCH  68  91
ATOM     91  C   UNL A   1      39.579  31.974  36.152  1.00  0.00     0.064 A 
ATOM     92  C   UNL A   1      38.503  31.564  36.951  1.00  0.00     0.173 A 
ATOM     93  C   UNL A   1      40.140  33.236  36.400  1.00  0.00     0.173 A 
ATOM     94  F   UNL A   1      37.923  30.372  36.742  1.00  0.00    -0.203 F 
ATOM     95  C   UNL A   1      37.995  32.394  37.947  1.00  0.00     0.198 A 
ATOM     96  C   UNL A   1      39.648  34.051  37.415  1.00  0.00     0.198 A 
ATOM     97  F   UNL A   1      41.177  33.671  35.668  1.00  0.00    -0.203 F 
ATOM     98  F   UNL A   1      36.939  31.999  38.673  1.00  0.00    -0.200 F 
ATOM     99  C   UNL A   1      38.572  33.633  38.183  1.00  0.00     0.200 A 
ATOM    100  F   UNL A   1      40.214  35.243  37.649  1.00  0.00    -0.200 F 
ATOM    101  F   UNL A   1      38.087  34.427  39.148  1.00  0.00    -0.200 F 
ENDBRANCH  68  91
ENDBRANCH  42  43
ENDBRANCH  35  37
ENDBRANCH  34  35
ENDBRANCH  33  34
ENDBRANCH  32  33
ENDBRANCH  31  32
ENDBRANCH  30  31
ENDBRANCH  29  30
ENDBRANCH  28  29
ENDBRANCH   1  28
TORSDOF 24
ENDMDL
