MODEL 1
REMARK VINA RESULT:     -11.3      0.000      0.000
REMARK SMILES C[C@@H]1CN(S(=O)(=O)c2cccc(C(=O)N3CCC[C@@H]3C(=O)OCCOCCOCCOCCOC(=O)c3ccc(-c4c5nc(c(-c6c(F)c(F)c(F)c(F)c6F)c6ccc([nH]6)c(-c6c(F)c(F)c(F)c(F)c6F)c6nc(c(-c7c(F)c(F)c(F)c(F)c7F)c7ccc4[nH]7)C=C6)C=C5)cc3)c2)C[C@H](C)O1
REMARK SMILES IDX 27 1 26 2 25 3 24 4 23 5 22 6 20 7 21 8 19 9 15 10 16 11
REMARK SMILES IDX 17 12 18 13 13 14 14 15 12 16 8 17 9 18 100 19 10 20 11 21
REMARK SMILES IDX 5 22 6 23 7 24 4 25 1 26 2 27 3 28 104 29 102 30 101 31
REMARK SMILES IDX 103 32 28 33 29 34 30 35 31 36 32 37 33 38 34 39 35 40 36 41
REMARK SMILES IDX 37 42 38 43 99 44 39 45 98 46 40 47 41 48 42 49 92 50 43 51
REMARK SMILES IDX 97 52 91 53 93 54 44 55 96 56 90 57 89 58 45 60 77 61 57 62
REMARK SMILES IDX 76 63 58 64 61 65 75 66 94 67 59 68 60 69 74 71 95 72 62 73
REMARK SMILES IDX 46 74 47 75 55 76 48 77 49 78 53 79 56 80 50 81 51 82 54 83
REMARK SMILES IDX 52 84 78 85 79 86 87 87 80 88 81 89 85 90 88 91 82 92 83 93
REMARK SMILES IDX 86 94 84 95 63 96 64 97 72 98 65 99 66 100 70 101 73 102
REMARK SMILES IDX 67 103 68 104 71 105 69 106
REMARK H PARENT 93 59 61 70
REMARK Flexibility Score: inf
ROOT
ATOM      1  C   UNL A   1      42.030  20.141  26.636  1.00  0.00     0.188 C 
ENDROOT
BRANCH   1   2
ATOM      2  C   UNL A   1      41.639  21.619  26.800  1.00  0.00     0.188 C 
BRANCH   2   3
ATOM      3  O   UNL A   1      40.418  22.126  26.282  1.00  0.00    -0.376 OA
BRANCH   3   4
ATOM      4  C   UNL A   1      39.599  23.014  27.028  1.00  0.00     0.202 C 
BRANCH   4   5
ATOM      5  C   UNL A   1      38.534  23.881  26.339  1.00  0.00     0.261 C 
BRANCH   5   6
ATOM      6  O   UNL A   1      37.164  23.526  26.598  1.00  0.00    -0.462 OA
BRANCH   6   7
ATOM      7  C   UNL A   1      36.349  23.577  25.514  1.00  0.00     0.328 C 
ATOM      8  O   UNL A   1      35.735  24.586  25.177  1.00  0.00    -0.250 OA
BRANCH   7   9
ATOM      9  C   UNL A   1      36.170  22.232  24.786  1.00  0.00     0.195 C 
ATOM     10  N   UNL A   1      35.357  21.308  25.557  1.00  0.00    -0.325 N 
ATOM     11  C   UNL A   1      35.543  19.969  25.050  1.00  0.00     0.121 C 
ATOM     12  C   UNL A   1      37.042  19.930  24.840  1.00  0.00     0.024 C 
ATOM     13  C   UNL A   1      37.409  21.373  24.463  1.00  0.00     0.039 C 
BRANCH  10  14
ATOM     14  C   UNL A   1      34.210  21.707  26.201  1.00  0.00     0.254 C 
ATOM     15  O   UNL A   1      33.981  21.527  27.386  1.00  0.00    -0.269 OA
BRANCH  14  16
ATOM     16  C   UNL A   1      33.181  22.210  25.237  1.00  0.00     0.041 A 
ATOM     17  C   UNL A   1      31.615  23.951  24.590  1.00  0.00     0.083 A 
ATOM     18  C   UNL A   1      31.372  23.295  23.385  1.00  0.00     0.022 A 
ATOM     19  C   UNL A   1      32.494  23.396  25.514  1.00  0.00     0.035 A 
ATOM     20  C   UNL A   1      32.044  22.096  23.106  1.00  0.00     0.002 A 
ATOM     21  C   UNL A   1      32.951  21.555  24.028  1.00  0.00     0.014 A 
BRANCH  17  22
ATOM     22  S   UNL A   1      30.654  25.344  25.115  1.00  0.00     0.243 S 
ATOM     23  O   UNL A   1      30.601  25.302  26.563  1.00  0.00    -0.207 OA
ATOM     24  O   UNL A   1      29.437  25.358  24.331  1.00  0.00    -0.207 OA
BRANCH  22  25
ATOM     25  N   UNL A   1      31.546  26.755  24.690  1.00  0.00    -0.193 NA
ATOM     26  C   UNL A   1      33.572  28.356  22.695  1.00  0.00     0.040 C 
ATOM     27  C   UNL A   1      33.722  27.920  24.150  1.00  0.00     0.130 C 
ATOM     28  C   UNL A   1      33.023  26.579  24.471  1.00  0.00     0.134 C 
ATOM     29  O   UNL A   1      33.390  28.979  25.056  1.00  0.00    -0.373 OA
ATOM     30  C   UNL A   1      32.001  29.114  25.383  1.00  0.00     0.130 C 
ATOM     31  C   UNL A   1      31.360  27.786  25.778  1.00  0.00     0.134 C 
ATOM     32  C   UNL A   1      31.209  29.824  24.300  1.00  0.00     0.040 C 
ENDBRANCH  22  25
ENDBRANCH  17  22
ENDBRANCH  14  16
ENDBRANCH  10  14
ENDBRANCH   7   9
ENDBRANCH   6   7
ENDBRANCH   5   6
ENDBRANCH   4   5
ENDBRANCH   3   4
ENDBRANCH   2   3
ENDBRANCH   1   2
BRANCH   1  33
ATOM     33  O   UNL A   1      42.475  19.774  25.346  1.00  0.00    -0.377 OA
BRANCH  33  34
ATOM     34  C   UNL A   1      43.715  19.079  25.262  1.00  0.00     0.188 C 
BRANCH  34  35
ATOM     35  C   UNL A   1      44.880  19.755  24.521  1.00  0.00     0.188 C 
BRANCH  35  36
ATOM     36  O   UNL A   1      45.716  20.535  25.372  1.00  0.00    -0.376 OA
BRANCH  36  37
ATOM     37  C   UNL A   1      45.367  21.905  25.552  1.00  0.00     0.202 C 
BRANCH  37  38
ATOM     38  C   UNL A   1      44.724  22.589  24.333  1.00  0.00     0.261 C 
BRANCH  38  39
ATOM     39  O   UNL A   1      43.958  23.777  24.609  1.00  0.00    -0.460 OA
BRANCH  39  40
ATOM     40  C   UNL A   1      44.622  24.860  25.060  1.00  0.00     0.338 C 
ATOM     41  O   UNL A   1      45.725  25.243  24.711  1.00  0.00    -0.246 OA
BRANCH  40  42
ATOM     42  C   UNL A   1      43.724  25.647  25.929  1.00  0.00     0.060 A 
ATOM     43  C   UNL A   1      44.050  26.986  26.169  1.00  0.00     0.016 A 
ATOM     44  C   UNL A   1      42.616  25.066  26.552  1.00  0.00     0.016 A 
ATOM     45  C   UNL A   1      43.319  27.726  27.097  1.00  0.00     0.010 A 
ATOM     46  C   UNL A   1      41.887  25.810  27.489  1.00  0.00     0.010 A 
ATOM     47  C   UNL A   1      42.269  27.126  27.804  1.00  0.00    -0.014 A 
BRANCH  47  48
ATOM     48  C   UNL A   1      41.721  27.815  29.002  1.00  0.00     0.031 A 
ATOM     49  C   UNL A   1      42.416  27.634  30.325  1.00  0.00     0.074 A 
ATOM     50  C   UNL A   1      40.681  28.661  28.915  1.00  0.00     0.049 A 
ATOM     51  N   UNL A   1      42.155  28.186  31.482  1.00  0.00    -0.248 NA
ATOM     52  C   UNL A   1      43.576  26.727  30.339  1.00  0.00     0.031 C 
ATOM     53  C   UNL A   1      39.966  28.996  27.690  1.00  0.00     0.029 A 
ATOM     54  N   UNL A   1      40.046  29.396  29.887  1.00  0.00    -0.354 N 
ATOM     55  C   UNL A   1      43.136  27.727  32.349  1.00  0.00     0.074 A 
ATOM     56  C   UNL A   1      43.958  26.797  31.605  1.00  0.00     0.031 C 
ATOM     57  C   UNL A   1      38.972  29.851  27.986  1.00  0.00     0.029 A 
ATOM     58  C   UNL A   1      38.956  30.089  29.424  1.00  0.00     0.049 A 
ATOM     59  H   UNL A   1      40.345  29.424  30.825  1.00  0.00     0.167 HD
ATOM     60  C   UNL A   1      43.356  28.074  33.640  1.00  0.00     0.037 A 
ATOM     61  C   UNL A   1      38.032  30.812  30.085  1.00  0.00     0.037 A 
ATOM     62  C   UNL A   1      42.535  28.985  34.391  1.00  0.00     0.049 A 
ATOM     63  C   UNL A   1      38.208  31.066  31.556  1.00  0.00     0.074 A 
ATOM     64  C   UNL A   1      42.691  29.411  35.700  1.00  0.00     0.029 A 
ATOM     65  N   UNL A   1      41.392  29.603  33.905  1.00  0.00    -0.354 N 
ATOM     66  N   UNL A   1      39.161  30.660  32.357  1.00  0.00    -0.248 NA
ATOM     67  C   UNL A   1      37.201  31.919  32.203  1.00  0.00     0.031 C 
ATOM     68  C   UNL A   1      41.615  30.246  36.021  1.00  0.00     0.029 A 
ATOM     69  C   UNL A   1      40.818  30.385  34.896  1.00  0.00     0.049 A 
ATOM     70  H   UNL A   1      41.041  29.501  32.991  1.00  0.00     0.167 HD
ATOM     71  C   UNL A   1      38.904  31.252  33.585  1.00  0.00     0.074 A 
ATOM     72  C   UNL A   1      37.698  32.036  33.426  1.00  0.00     0.031 C 
ATOM     73  C   UNL A   1      39.621  31.170  34.732  1.00  0.00     0.037 A 
BRANCH  60  74
ATOM     74  C   UNL A   1      44.538  27.453  34.323  1.00  0.00     0.064 A 
ATOM     75  C   UNL A   1      44.465  26.173  34.895  1.00  0.00     0.173 A 
ATOM     76  C   UNL A   1      45.764  28.130  34.384  1.00  0.00     0.173 A 
ATOM     77  F   UNL A   1      43.310  25.491  34.877  1.00  0.00    -0.203 F 
ATOM     78  C   UNL A   1      45.569  25.605  35.524  1.00  0.00     0.198 A 
ATOM     79  C   UNL A   1      46.874  27.549  34.990  1.00  0.00     0.198 A 
ATOM     80  F   UNL A   1      45.886  29.356  33.853  1.00  0.00    -0.203 F 
ATOM     81  F   UNL A   1      45.463  24.402  36.103  1.00  0.00    -0.200 F 
ATOM     82  C   UNL A   1      46.774  26.290  35.566  1.00  0.00     0.200 A 
ATOM     83  F   UNL A   1      48.041  28.207  35.021  1.00  0.00    -0.200 F 
ATOM     84  F   UNL A   1      47.838  25.741  36.167  1.00  0.00    -0.200 F 
ENDBRANCH  60  74
BRANCH  61  85
ATOM     85  C   UNL A   1      36.848  31.342  29.363  1.00  0.00     0.064 A 
ATOM     86  C   UNL A   1      35.794  30.509  28.971  1.00  0.00     0.173 A 
ATOM     87  C   UNL A   1      36.773  32.701  29.021  1.00  0.00     0.173 A 
ATOM     88  F   UNL A   1      35.840  29.198  29.249  1.00  0.00    -0.203 F 
ATOM     89  C   UNL A   1      34.711  31.012  28.252  1.00  0.00     0.198 A 
ATOM     90  C   UNL A   1      35.678  33.206  28.322  1.00  0.00     0.198 A 
ATOM     91  F   UNL A   1      37.762  33.537  29.368  1.00  0.00    -0.203 F 
ATOM     92  F   UNL A   1      33.735  30.186  27.852  1.00  0.00    -0.200 F 
ATOM     93  C   UNL A   1      34.652  32.361  27.933  1.00  0.00     0.200 A 
ATOM     94  F   UNL A   1      35.624  34.512  28.024  1.00  0.00    -0.200 F 
ATOM     95  F   UNL A   1      33.610  32.843  27.242  1.00  0.00    -0.200 F 
ENDBRANCH  61  85
BRANCH  73  96
ATOM     96  C   UNL A   1      39.154  32.003  35.892  1.00  0.00     0.064 A 
ATOM     97  C   UNL A   1      39.572  33.329  36.069  1.00  0.00     0.173 A 
ATOM     98  C   UNL A   1      38.273  31.458  36.839  1.00  0.00     0.173 A 
ATOM     99  F   UNL A   1      40.428  33.890  35.203  1.00  0.00    -0.203 F 
ATOM    100  C   UNL A   1      39.155  34.067  37.175  1.00  0.00     0.198 A 
ATOM    101  C   UNL A   1      37.833  32.210  37.925  1.00  0.00     0.198 A 
ATOM    102  F   UNL A   1      37.839  30.195  36.712  1.00  0.00    -0.203 F 
ATOM    103  F   UNL A   1      39.619  35.311  37.359  1.00  0.00    -0.200 F 
ATOM    104  C   UNL A   1      38.284  33.509  38.098  1.00  0.00     0.200 A 
ATOM    105  F   UNL A   1      36.981  31.673  38.808  1.00  0.00    -0.200 F 
ATOM    106  F   UNL A   1      37.887  34.221  39.162  1.00  0.00    -0.200 F 
ENDBRANCH  73  96
ENDBRANCH  47  48
ENDBRANCH  40  42
ENDBRANCH  39  40
ENDBRANCH  38  39
ENDBRANCH  37  38
ENDBRANCH  36  37
ENDBRANCH  35  36
ENDBRANCH  34  35
ENDBRANCH  33  34
ENDBRANCH   1  33
TORSDOF 24
ENDMDL
MODEL 2
REMARK VINA RESULT:     -11.2      1.084      2.261
REMARK SMILES C[C@@H]1CN(S(=O)(=O)c2cccc(C(=O)N3CCC[C@@H]3C(=O)OCCOCCOCCOCCOC(=O)c3ccc(-c4c5nc(c(-c6c(F)c(F)c(F)c(F)c6F)c6ccc([nH]6)c(-c6c(F)c(F)c(F)c(F)c6F)c6nc(c(-c7c(F)c(F)c(F)c(F)c7F)c7ccc4[nH]7)C=C6)C=C5)cc3)c2)C[C@H](C)O1
REMARK SMILES IDX 27 1 26 2 25 3 24 4 23 5 22 6 20 7 21 8 19 9 15 10 16 11
REMARK SMILES IDX 17 12 18 13 13 14 14 15 12 16 8 17 9 18 100 19 10 20 11 21
REMARK SMILES IDX 5 22 6 23 7 24 4 25 1 26 2 27 3 28 104 29 102 30 101 31
REMARK SMILES IDX 103 32 28 33 29 34 30 35 31 36 32 37 33 38 34 39 35 40 36 41
REMARK SMILES IDX 37 42 38 43 99 44 39 45 98 46 40 47 41 48 42 49 92 50 43 51
REMARK SMILES IDX 97 52 91 53 93 54 44 55 96 56 90 57 89 58 45 60 77 61 57 62
REMARK SMILES IDX 76 63 58 64 61 65 75 66 94 67 59 68 60 69 74 71 95 72 62 73
REMARK SMILES IDX 46 74 47 75 55 76 48 77 49 78 53 79 56 80 50 81 51 82 54 83
REMARK SMILES IDX 52 84 78 85 79 86 87 87 80 88 81 89 85 90 88 91 82 92 83 93
REMARK SMILES IDX 86 94 84 95 63 96 64 97 72 98 65 99 66 100 70 101 73 102
REMARK SMILES IDX 67 103 68 104 71 105 69 106
REMARK H PARENT 93 59 61 70
REMARK Flexibility Score: inf
ROOT
ATOM      1  C   UNL A   1      42.508  19.556  26.335  1.00  0.00     0.188 C 
ENDROOT
BRANCH   1   2
ATOM      2  C   UNL A   1      42.355  20.963  26.936  1.00  0.00     0.188 C 
BRANCH   2   3
ATOM      3  O   UNL A   1      41.399  21.884  26.432  1.00  0.00    -0.376 OA
BRANCH   3   4
ATOM      4  C   UNL A   1      40.468  22.538  27.282  1.00  0.00     0.202 C 
BRANCH   4   5
ATOM      5  C   UNL A   1      39.193  23.182  26.717  1.00  0.00     0.261 C 
BRANCH   5   6
ATOM      6  O   UNL A   1      38.124  22.280  26.377  1.00  0.00    -0.462 OA
BRANCH   6   7
ATOM      7  C   UNL A   1      37.437  22.611  25.254  1.00  0.00     0.328 C 
ATOM      8  O   UNL A   1      37.333  23.763  24.841  1.00  0.00    -0.250 OA
BRANCH   7   9
ATOM      9  C   UNL A   1      36.706  21.434  24.584  1.00  0.00     0.195 C 
ATOM     10  N   UNL A   1      35.465  21.113  25.266  1.00  0.00    -0.325 N 
ATOM     11  C   UNL A   1      35.027  19.796  24.870  1.00  0.00     0.121 C 
ATOM     12  C   UNL A   1      36.328  19.022  24.902  1.00  0.00     0.024 C 
ATOM     13  C   UNL A   1      37.394  20.056  24.508  1.00  0.00     0.039 C 
BRANCH  10  14
ATOM     14  C   UNL A   1      34.596  22.087  25.698  1.00  0.00     0.254 C 
ATOM     15  O   UNL A   1      34.457  22.426  26.861  1.00  0.00    -0.269 OA
BRANCH  14  16
ATOM     16  C   UNL A   1      33.688  22.544  24.598  1.00  0.00     0.041 A 
ATOM     17  C   UNL A   1      33.149  24.199  22.903  1.00  0.00     0.083 A 
ATOM     18  C   UNL A   1      32.134  23.379  22.415  1.00  0.00     0.022 A 
ATOM     19  C   UNL A   1      33.900  23.791  24.000  1.00  0.00     0.035 A 
ATOM     20  C   UNL A   1      31.904  22.134  23.019  1.00  0.00     0.002 A 
ATOM     21  C   UNL A   1      32.683  21.714  24.107  1.00  0.00     0.014 A 
BRANCH  17  22
ATOM     22  S   UNL A   1      33.362  25.867  22.345  1.00  0.00     0.243 S 
ATOM     23  O   UNL A   1      33.318  25.839  20.896  1.00  0.00    -0.207 OA
ATOM     24  O   UNL A   1      34.507  26.419  23.038  1.00  0.00    -0.207 OA
BRANCH  22  25
ATOM     25  N   UNL A   1      31.979  26.750  22.869  1.00  0.00    -0.193 NA
ATOM     26  C   UNL A   1      29.626  28.947  22.334  1.00  0.00     0.040 C 
ATOM     27  C   UNL A   1      30.786  28.930  23.325  1.00  0.00     0.130 C 
ATOM     28  C   UNL A   1      32.061  28.248  22.777  1.00  0.00     0.134 C 
ATOM     29  O   UNL A   1      30.377  28.447  24.610  1.00  0.00    -0.373 OA
ATOM     30  C   UNL A   1      30.391  27.025  24.781  1.00  0.00     0.130 C 
ATOM     31  C   UNL A   1      31.697  26.391  24.308  1.00  0.00     0.134 C 
ATOM     32  C   UNL A   1      29.179  26.347  24.167  1.00  0.00     0.040 C 
ENDBRANCH  22  25
ENDBRANCH  17  22
ENDBRANCH  14  16
ENDBRANCH  10  14
ENDBRANCH   7   9
ENDBRANCH   6   7
ENDBRANCH   5   6
ENDBRANCH   4   5
ENDBRANCH   3   4
ENDBRANCH   2   3
ENDBRANCH   1   2
BRANCH   1  33
ATOM     33  O   UNL A   1      43.050  19.512  25.031  1.00  0.00    -0.377 OA
BRANCH  33  34
ATOM     34  C   UNL A   1      44.327  18.901  24.880  1.00  0.00     0.188 C 
BRANCH  34  35
ATOM     35  C   UNL A   1      45.490  19.762  24.360  1.00  0.00     0.188 C 
BRANCH  35  36
ATOM     36  O   UNL A   1      46.127  20.529  25.378  1.00  0.00    -0.376 OA
BRANCH  36  37
ATOM     37  C   UNL A   1      45.655  21.857  25.586  1.00  0.00     0.202 C 
BRANCH  37  38
ATOM     38  C   UNL A   1      45.074  22.553  24.343  1.00  0.00     0.261 C 
BRANCH  38  39
ATOM     39  O   UNL A   1      44.267  23.720  24.594  1.00  0.00    -0.460 OA
BRANCH  39  40
ATOM     40  C   UNL A   1      44.894  24.836  25.015  1.00  0.00     0.338 C 
ATOM     41  O   UNL A   1      45.982  25.249  24.654  1.00  0.00    -0.246 OA
BRANCH  40  42
ATOM     42  C   UNL A   1      43.971  25.613  25.868  1.00  0.00     0.060 A 
ATOM     43  C   UNL A   1      44.256  26.966  26.082  1.00  0.00     0.016 A 
ATOM     44  C   UNL A   1      42.879  25.012  26.500  1.00  0.00     0.016 A 
ATOM     45  C   UNL A   1      43.501  27.702  26.994  1.00  0.00     0.010 A 
ATOM     46  C   UNL A   1      42.125  25.751  27.421  1.00  0.00     0.010 A 
ATOM     47  C   UNL A   1      42.467  27.085  27.711  1.00  0.00    -0.014 A 
BRANCH  47  48
ATOM     48  C   UNL A   1      41.896  27.780  28.894  1.00  0.00     0.031 A 
ATOM     49  C   UNL A   1      42.586  27.634  30.224  1.00  0.00     0.074 A 
ATOM     50  C   UNL A   1      40.839  28.602  28.786  1.00  0.00     0.049 A 
ATOM     51  N   UNL A   1      42.304  28.199  31.370  1.00  0.00    -0.248 NA
ATOM     52  C   UNL A   1      43.764  26.754  30.260  1.00  0.00     0.031 C 
ATOM     53  C   UNL A   1      40.126  28.902  27.551  1.00  0.00     0.029 A 
ATOM     54  N   UNL A   1      40.181  29.338  29.742  1.00  0.00    -0.354 N 
ATOM     55  C   UNL A   1      43.289  27.775  32.251  1.00  0.00     0.074 A 
ATOM     56  C   UNL A   1      44.135  26.851  31.528  1.00  0.00     0.031 C 
ATOM     57  C   UNL A   1      39.112  29.740  27.826  1.00  0.00     0.029 A 
ATOM     58  C   UNL A   1      39.079  30.000  29.261  1.00  0.00     0.049 A 
ATOM     59  H   UNL A   1      40.472  29.387  30.681  1.00  0.00     0.167 HD
ATOM     60  C   UNL A   1      43.492  28.146  33.538  1.00  0.00     0.037 A 
ATOM     61  C   UNL A   1      38.135  30.713  29.904  1.00  0.00     0.037 A 
ATOM     62  C   UNL A   1      42.646  29.051  34.269  1.00  0.00     0.049 A 
ATOM     63  C   UNL A   1      38.295  30.993  31.371  1.00  0.00     0.074 A 
ATOM     64  C   UNL A   1      42.783  29.501  35.572  1.00  0.00     0.029 A 
ATOM     65  N   UNL A   1      41.493  29.637  33.765  1.00  0.00    -0.354 N 
ATOM     66  N   UNL A   1      39.252  30.621  32.185  1.00  0.00    -0.248 NA
ATOM     67  C   UNL A   1      37.266  31.834  31.998  1.00  0.00     0.031 C 
ATOM     68  C   UNL A   1      41.686  30.317  35.873  1.00  0.00     0.029 A 
ATOM     69  C   UNL A   1      40.895  30.421  34.740  1.00  0.00     0.049 A 
ATOM     70  H   UNL A   1      41.151  29.513  32.851  1.00  0.00     0.167 HD
ATOM     71  C   UNL A   1      38.973  31.226  33.402  1.00  0.00     0.074 A 
ATOM     72  C   UNL A   1      37.751  31.982  33.223  1.00  0.00     0.031 C 
ATOM     73  C   UNL A   1      39.683  31.177  34.556  1.00  0.00     0.037 A 
BRANCH  60  74
ATOM     74  C   UNL A   1      44.682  27.562  34.239  1.00  0.00     0.064 A 
ATOM     75  C   UNL A   1      45.950  28.159  34.152  1.00  0.00     0.173 A 
ATOM     76  C   UNL A   1      44.552  26.410  35.027  1.00  0.00     0.173 A 
ATOM     77  F   UNL A   1      46.130  29.254  33.397  1.00  0.00    -0.203 F 
ATOM     78  C   UNL A   1      47.047  27.610  34.808  1.00  0.00     0.198 A 
ATOM     79  C   UNL A   1      45.645  25.878  35.704  1.00  0.00     0.198 A 
ATOM     80  F   UNL A   1      43.362  25.801  35.142  1.00  0.00    -0.203 F 
ATOM     81  F   UNL A   1      48.256  28.170  34.673  1.00  0.00    -0.200 F 
ATOM     82  C   UNL A   1      46.893  26.474  35.589  1.00  0.00     0.200 A 
ATOM     83  F   UNL A   1      45.494  24.786  36.466  1.00  0.00    -0.200 F 
ATOM     84  F   UNL A   1      47.949  25.948  36.225  1.00  0.00    -0.200 F 
ENDBRANCH  60  74
BRANCH  61  85
ATOM     85  C   UNL A   1      36.946  31.206  29.166  1.00  0.00     0.064 A 
ATOM     86  C   UNL A   1      36.818  32.550  28.797  1.00  0.00     0.173 A 
ATOM     87  C   UNL A   1      35.894  30.335  28.846  1.00  0.00     0.173 A 
ATOM     88  F   UNL A   1      37.784  33.424  29.110  1.00  0.00    -0.203 F 
ATOM     89  C   UNL A   1      35.674  33.009  28.145  1.00  0.00     0.198 A 
ATOM     90  C   UNL A   1      34.761  30.791  28.174  1.00  0.00     0.198 A 
ATOM     91  F   UNL A   1      35.967  29.039  29.186  1.00  0.00    -0.203 F 
ATOM     92  F   UNL A   1      35.557  34.309  27.840  1.00  0.00    -0.200 F 
ATOM     93  C   UNL A   1      34.649  32.128  27.830  1.00  0.00     0.200 A 
ATOM     94  F   UNL A   1      33.779  29.933  27.866  1.00  0.00    -0.200 F 
ATOM     95  F   UNL A   1      33.551  32.571  27.203  1.00  0.00    -0.200 F 
ENDBRANCH  61  85
BRANCH  73  96
ATOM     96  C   UNL A   1      39.190  32.018  35.698  1.00  0.00     0.064 A 
ATOM     97  C   UNL A   1      38.319  31.510  36.673  1.00  0.00     0.173 A 
ATOM     98  C   UNL A   1      39.599  33.356  35.815  1.00  0.00     0.173 A 
ATOM     99  F   UNL A   1      37.885  30.243  36.597  1.00  0.00    -0.203 F 
ATOM    100  C   UNL A   1      37.846  32.322  37.701  1.00  0.00     0.198 A 
ATOM    101  C   UNL A   1      39.148  34.155  36.862  1.00  0.00     0.198 A 
ATOM    102  F   UNL A   1      40.435  33.890  34.911  1.00  0.00    -0.203 F 
ATOM    103  F   UNL A   1      36.964  31.834  38.584  1.00  0.00    -0.200 F 
ATOM    104  C   UNL A   1      38.263  33.641  37.796  1.00  0.00     0.200 A 
ATOM    105  F   UNL A   1      39.563  35.425  36.959  1.00  0.00    -0.200 F 
ATOM    106  F   UNL A   1      37.803  34.421  38.784  1.00  0.00    -0.200 F 
ENDBRANCH  73  96
ENDBRANCH  47  48
ENDBRANCH  40  42
ENDBRANCH  39  40
ENDBRANCH  38  39
ENDBRANCH  37  38
ENDBRANCH  36  37
ENDBRANCH  35  36
ENDBRANCH  34  35
ENDBRANCH  33  34
ENDBRANCH   1  33
TORSDOF 24
ENDMDL
MODEL 3
REMARK VINA RESULT:     -11.0      1.141      2.154
REMARK SMILES C[C@@H]1CN(S(=O)(=O)c2cccc(C(=O)N3CCC[C@@H]3C(=O)OCCOCCOCCOCCOC(=O)c3ccc(-c4c5nc(c(-c6c(F)c(F)c(F)c(F)c6F)c6ccc([nH]6)c(-c6c(F)c(F)c(F)c(F)c6F)c6nc(c(-c7c(F)c(F)c(F)c(F)c7F)c7ccc4[nH]7)C=C6)C=C5)cc3)c2)C[C@H](C)O1
REMARK SMILES IDX 27 1 26 2 25 3 24 4 23 5 22 6 20 7 21 8 19 9 15 10 16 11
REMARK SMILES IDX 17 12 18 13 13 14 14 15 12 16 8 17 9 18 100 19 10 20 11 21
REMARK SMILES IDX 5 22 6 23 7 24 4 25 1 26 2 27 3 28 104 29 102 30 101 31
REMARK SMILES IDX 103 32 28 33 29 34 30 35 31 36 32 37 33 38 34 39 35 40 36 41
REMARK SMILES IDX 37 42 38 43 99 44 39 45 98 46 40 47 41 48 42 49 92 50 43 51
REMARK SMILES IDX 97 52 91 53 93 54 44 55 96 56 90 57 89 58 45 60 77 61 57 62
REMARK SMILES IDX 76 63 58 64 61 65 75 66 94 67 59 68 60 69 74 71 95 72 62 73
REMARK SMILES IDX 46 74 47 75 55 76 48 77 49 78 53 79 56 80 50 81 51 82 54 83
REMARK SMILES IDX 52 84 78 85 79 86 87 87 80 88 81 89 85 90 88 91 82 92 83 93
REMARK SMILES IDX 86 94 84 95 63 96 64 97 72 98 65 99 66 100 70 101 73 102
REMARK SMILES IDX 67 103 68 104 71 105 69 106
REMARK H PARENT 93 59 61 70
REMARK Flexibility Score: inf
ROOT
ATOM      1  C   UNL A   1      41.068  20.345  26.851  1.00  0.00     0.188 C 
ENDROOT
BRANCH   1   2
ATOM      2  C   UNL A   1      40.287  21.660  26.700  1.00  0.00     0.188 C 
BRANCH   2   3
ATOM      3  O   UNL A   1      39.143  21.753  25.863  1.00  0.00    -0.376 OA
BRANCH   3   4
ATOM      4  C   UNL A   1      38.411  22.961  25.725  1.00  0.00     0.202 C 
BRANCH   4   5
ATOM      5  C   UNL A   1      36.902  23.013  26.010  1.00  0.00     0.261 C 
BRANCH   5   6
ATOM      6  O   UNL A   1      36.124  21.911  25.510  1.00  0.00    -0.462 OA
BRANCH   6   7
ATOM      7  C   UNL A   1      35.117  22.262  24.670  1.00  0.00     0.328 C 
ATOM      8  O   UNL A   1      35.121  23.294  24.004  1.00  0.00    -0.250 OA
BRANCH   7   9
ATOM      9  C   UNL A   1      33.907  21.310  24.691  1.00  0.00     0.195 C 
ATOM     10  N   UNL A   1      33.531  20.949  26.046  1.00  0.00    -0.325 N 
ATOM     11  C   UNL A   1      32.685  19.779  26.013  1.00  0.00     0.121 C 
ATOM     12  C   UNL A   1      33.395  18.920  24.989  1.00  0.00     0.024 C 
ATOM     13  C   UNL A   1      34.016  19.930  24.011  1.00  0.00     0.039 C 
BRANCH  10  14
ATOM     14  C   UNL A   1      33.481  21.873  27.062  1.00  0.00     0.254 C 
ATOM     15  O   UNL A   1      34.135  21.811  28.089  1.00  0.00    -0.269 OA
BRANCH  14  16
ATOM     16  C   UNL A   1      32.378  22.865  26.852  1.00  0.00     0.041 A 
ATOM     17  C   UNL A   1      31.700  25.133  26.307  1.00  0.00     0.083 A 
ATOM     18  C   UNL A   1      30.365  24.734  26.277  1.00  0.00     0.022 A 
ATOM     19  C   UNL A   1      32.691  24.208  26.616  1.00  0.00     0.035 A 
ATOM     20  C   UNL A   1      30.041  23.393  26.529  1.00  0.00     0.002 A 
ATOM     21  C   UNL A   1      31.046  22.457  26.812  1.00  0.00     0.014 A 
BRANCH  17  22
ATOM     22  S   UNL A   1      32.175  26.837  26.218  1.00  0.00     0.243 S 
ATOM     23  O   UNL A   1      33.601  26.894  26.473  1.00  0.00    -0.207 OA
ATOM     24  O   UNL A   1      31.249  27.595  27.032  1.00  0.00    -0.207 OA
BRANCH  22  25
ATOM     25  N   UNL A   1      31.941  27.336  24.586  1.00  0.00    -0.193 NA
ATOM     26  C   UNL A   1      30.516  29.259  22.368  1.00  0.00     0.040 C 
ATOM     27  C   UNL A   1      30.449  27.751  22.590  1.00  0.00     0.130 C 
ATOM     28  C   UNL A   1      30.527  27.338  24.078  1.00  0.00     0.134 C 
ATOM     29  O   UNL A   1      31.370  27.050  21.745  1.00  0.00    -0.373 OA
ATOM     30  C   UNL A   1      32.708  26.926  22.242  1.00  0.00     0.130 C 
ATOM     31  C   UNL A   1      32.754  26.436  23.687  1.00  0.00     0.134 C 
ATOM     32  C   UNL A   1      33.527  28.189  22.048  1.00  0.00     0.040 C 
ENDBRANCH  22  25
ENDBRANCH  17  22
ENDBRANCH  14  16
ENDBRANCH  10  14
ENDBRANCH   7   9
ENDBRANCH   6   7
ENDBRANCH   5   6
ENDBRANCH   4   5
ENDBRANCH   3   4
ENDBRANCH   2   3
ENDBRANCH   1   2
BRANCH   1  33
ATOM     33  O   UNL A   1      41.731  19.901  25.685  1.00  0.00    -0.377 OA
BRANCH  33  34
ATOM     34  C   UNL A   1      42.938  19.167  25.866  1.00  0.00     0.188 C 
BRANCH  34  35
ATOM     35  C   UNL A   1      44.035  19.293  24.795  1.00  0.00     0.188 C 
BRANCH  35  36
ATOM     36  O   UNL A   1      45.225  19.914  25.273  1.00  0.00    -0.376 OA
BRANCH  36  37
ATOM     37  C   UNL A   1      45.219  21.335  25.387  1.00  0.00     0.202 C 
BRANCH  37  38
ATOM     38  C   UNL A   1      44.579  22.089  24.208  1.00  0.00     0.261 C 
BRANCH  38  39
ATOM     39  O   UNL A   1      43.807  23.255  24.551  1.00  0.00    -0.460 OA
BRANCH  39  40
ATOM     40  C   UNL A   1      44.477  24.381  24.864  1.00  0.00     0.338 C 
ATOM     41  O   UNL A   1      45.551  24.745  24.418  1.00  0.00    -0.246 OA
BRANCH  40  42
ATOM     42  C   UNL A   1      43.618  25.232  25.713  1.00  0.00     0.060 A 
ATOM     43  C   UNL A   1      44.028  26.548  25.952  1.00  0.00     0.016 A 
ATOM     44  C   UNL A   1      42.463  24.730  26.319  1.00  0.00     0.016 A 
ATOM     45  C   UNL A   1      43.332  27.340  26.864  1.00  0.00     0.010 A 
ATOM     46  C   UNL A   1      41.768  25.526  27.239  1.00  0.00     0.010 A 
ATOM     47  C   UNL A   1      42.232  26.816  27.555  1.00  0.00    -0.014 A 
BRANCH  47  48
ATOM     48  C   UNL A   1      41.710  27.547  28.739  1.00  0.00     0.031 A 
ATOM     49  C   UNL A   1      42.422  27.396  30.056  1.00  0.00     0.074 A 
ATOM     50  C   UNL A   1      40.679  28.403  28.641  1.00  0.00     0.049 A 
ATOM     51  N   UNL A   1      42.184  27.987  31.200  1.00  0.00    -0.248 NA
ATOM     52  C   UNL A   1      43.571  26.476  30.081  1.00  0.00     0.031 C 
ATOM     53  C   UNL A   1      39.951  28.710  27.416  1.00  0.00     0.029 A 
ATOM     54  N   UNL A   1      40.067  29.175  29.600  1.00  0.00    -0.354 N 
ATOM     55  C   UNL A   1      43.172  27.541  32.067  1.00  0.00     0.074 A 
ATOM     56  C   UNL A   1      43.972  26.579  31.339  1.00  0.00     0.031 C 
ATOM     57  C   UNL A   1      38.972  29.586  27.701  1.00  0.00     0.029 A 
ATOM     58  C   UNL A   1      38.979  29.867  29.132  1.00  0.00     0.049 A 
ATOM     59  H   UNL A   1      40.380  29.227  30.532  1.00  0.00     0.167 HD
ATOM     60  C   UNL A   1      43.415  27.923  33.343  1.00  0.00     0.037 A 
ATOM     61  C   UNL A   1      38.073  30.621  29.784  1.00  0.00     0.037 A 
ATOM     62  C   UNL A   1      42.617  28.867  34.078  1.00  0.00     0.049 A 
ATOM     63  C   UNL A   1      38.274  30.916  31.243  1.00  0.00     0.074 A 
ATOM     64  C   UNL A   1      42.797  29.329  35.371  1.00  0.00     0.029 A 
ATOM     65  N   UNL A   1      41.474  29.484  33.590  1.00  0.00    -0.354 N 
ATOM     66  N   UNL A   1      39.234  30.522  32.042  1.00  0.00    -0.248 NA
ATOM     67  C   UNL A   1      37.287  31.801  31.879  1.00  0.00     0.031 C 
ATOM     68  C   UNL A   1      41.735  30.187  35.683  1.00  0.00     0.029 A 
ATOM     69  C   UNL A   1      40.924  30.302  34.565  1.00  0.00     0.049 A 
ATOM     70  H   UNL A   1      41.108  29.360  32.685  1.00  0.00     0.167 HD
ATOM     71  C   UNL A   1      39.002  31.154  33.256  1.00  0.00     0.074 A 
ATOM     72  C   UNL A   1      37.803  31.949  33.091  1.00  0.00     0.031 C 
ATOM     73  C   UNL A   1      39.735  31.097  34.395  1.00  0.00     0.037 A 
BRANCH  60  74
ATOM     74  C   UNL A   1      44.600  27.308  34.027  1.00  0.00     0.064 A 
ATOM     75  C   UNL A   1      44.487  26.111  34.753  1.00  0.00     0.173 A 
ATOM     76  C   UNL A   1      45.866  27.904  33.937  1.00  0.00     0.173 A 
ATOM     77  F   UNL A   1      43.294  25.511  34.883  1.00  0.00    -0.203 F 
ATOM     78  C   UNL A   1      45.593  25.548  35.382  1.00  0.00     0.198 A 
ATOM     79  C   UNL A   1      46.975  27.324  34.545  1.00  0.00     0.198 A 
ATOM     80  F   UNL A   1      46.027  29.048  33.256  1.00  0.00    -0.203 F 
ATOM     81  F   UNL A   1      45.452  24.430  36.107  1.00  0.00    -0.200 F 
ATOM     82  C   UNL A   1      46.837  26.150  35.273  1.00  0.00     0.200 A 
ATOM     83  F   UNL A   1      48.179  27.901  34.430  1.00  0.00    -0.200 F 
ATOM     84  F   UNL A   1      47.903  25.605  35.874  1.00  0.00    -0.200 F 
ENDBRANCH  60  74
BRANCH  61  85
ATOM     85  C   UNL A   1      36.886  31.144  29.063  1.00  0.00     0.064 A 
ATOM     86  C   UNL A   1      36.800  32.485  28.670  1.00  0.00     0.173 A 
ATOM     87  C   UNL A   1      35.795  30.308  28.786  1.00  0.00     0.173 A 
ATOM     88  F   UNL A   1      37.806  33.328  28.943  1.00  0.00    -0.203 F 
ATOM     89  C   UNL A   1      35.659  32.974  28.035  1.00  0.00     0.198 A 
ATOM     90  C   UNL A   1      34.665  30.793  28.131  1.00  0.00     0.198 A 
ATOM     91  F   UNL A   1      35.828  29.017  29.151  1.00  0.00    -0.203 F 
ATOM     92  F   UNL A   1      35.583  34.271  27.707  1.00  0.00    -0.200 F 
ATOM     93  C   UNL A   1      34.595  32.127  27.762  1.00  0.00     0.200 A 
ATOM     94  F   UNL A   1      33.644  29.967  27.863  1.00  0.00    -0.200 F 
ATOM     95  F   UNL A   1      33.499  32.598  27.152  1.00  0.00    -0.200 F 
ENDBRANCH  61  85
BRANCH  73  96
ATOM     96  C   UNL A   1      39.295  31.970  35.535  1.00  0.00     0.064 A 
ATOM     97  C   UNL A   1      38.438  31.502  36.542  1.00  0.00     0.173 A 
ATOM     98  C   UNL A   1      39.741  33.298  35.617  1.00  0.00     0.173 A 
ATOM     99  F   UNL A   1      37.969  30.246  36.500  1.00  0.00    -0.203 F 
ATOM    100  C   UNL A   1      38.014  32.344  37.567  1.00  0.00     0.198 A 
ATOM    101  C   UNL A   1      39.340  34.127  36.661  1.00  0.00     0.198 A 
ATOM    102  F   UNL A   1      40.566  33.794  34.682  1.00  0.00    -0.203 F 
ATOM    103  F   UNL A   1      37.144  31.894  38.482  1.00  0.00    -0.200 F 
ATOM    104  C   UNL A   1      38.468  33.653  37.628  1.00  0.00     0.200 A 
ATOM    105  F   UNL A   1      39.791  35.387  36.725  1.00  0.00    -0.200 F 
ATOM    106  F   UNL A   1      38.055  34.461  38.614  1.00  0.00    -0.200 F 
ENDBRANCH  73  96
ENDBRANCH  47  48
ENDBRANCH  40  42
ENDBRANCH  39  40
ENDBRANCH  38  39
ENDBRANCH  37  38
ENDBRANCH  36  37
ENDBRANCH  35  36
ENDBRANCH  34  35
ENDBRANCH  33  34
ENDBRANCH   1  33
TORSDOF 24
ENDMDL
