MODEL 1
REMARK VINA RESULT:     -10.1      0.000      0.000
REMARK SMILES CC[C@](C)(NC(=O)N1CCC[C@@H]1C)C(=O)OCCOCCOCCOCCOC(=O)c1ccc(-c2c3nc(c(-c4c(F)c(F)c(F)c(F)c4F)c4ccc([nH]4)c(-c4c(F)c(F)c(F)c(F)c4F)c4nc(c(-c5c(F)c(F)c(F)c(F)c5F)c5ccc2[nH]5)C=C4)C=C3)cc1
REMARK SMILES IDX 22 1 21 2 20 3 19 4 18 5 17 6 16 7 14 8 15 9 3 10 4 11 2 12
REMARK SMILES IDX 1 13 5 14 6 15 7 17 8 18 9 19 12 20 10 21 11 22 13 23 23 24
REMARK SMILES IDX 24 25 25 26 26 27 27 28 28 29 29 30 30 31 31 32 32 33 93 34
REMARK SMILES IDX 33 35 92 36 34 37 35 38 36 39 86 40 37 41 91 42 85 43 87 44
REMARK SMILES IDX 38 45 90 46 84 47 83 48 39 50 71 51 51 52 70 53 52 54 55 55
REMARK SMILES IDX 69 56 88 57 53 58 54 59 68 61 89 62 56 63 40 64 41 65 49 66
REMARK SMILES IDX 42 67 43 68 47 69 50 70 44 71 45 72 48 73 46 74 72 75 73 76
REMARK SMILES IDX 81 77 74 78 75 79 79 80 82 81 76 82 77 83 80 84 78 85 57 86
REMARK SMILES IDX 58 87 66 88 59 89 60 90 64 91 67 92 61 93 62 94 65 95 63 96
REMARK H PARENT 5 16 87 49 55 60
REMARK Flexibility Score: inf
ROOT
ATOM      1  O   UNL A   1      34.621  20.151  24.862  1.00  0.00    -0.377 OA
ENDROOT
BRANCH   1   2
ATOM      2  C   UNL A   1      33.361  20.110  25.535  1.00  0.00     0.188 C 
BRANCH   2   3
ATOM      3  C   UNL A   1      32.326  20.709  24.547  1.00  0.00     0.188 C 
BRANCH   3   4
ATOM      4  O   UNL A   1      32.733  21.836  23.776  1.00  0.00    -0.376 OA
BRANCH   4   5
ATOM      5  C   UNL A   1      31.845  22.957  23.635  1.00  0.00     0.202 C 
BRANCH   5   6
ATOM      6  C   UNL A   1      31.143  23.648  24.831  1.00  0.00     0.261 C 
BRANCH   6   7
ATOM      7  O   UNL A   1      31.928  24.661  25.463  1.00  0.00    -0.462 OA
BRANCH   7   8
ATOM      8  C   UNL A   1      31.271  25.799  25.785  1.00  0.00     0.331 C 
ATOM      9  O   UNL A   1      30.273  25.823  26.499  1.00  0.00    -0.249 OA
BRANCH   8  10
ATOM     10  C   UNL A   1      31.981  27.077  25.263  1.00  0.00     0.136 C 
ATOM     11  C   UNL A   1      33.513  26.834  25.378  1.00  0.00     0.047 C 
BRANCH  10  12
ATOM     12  C   UNL A   1      31.609  28.243  26.234  1.00  0.00     0.037 C 
ATOM     13  C   UNL A   1      31.785  29.676  25.737  1.00  0.00     0.007 C 
ENDBRANCH  10  12
BRANCH  10  14
ATOM     14  N   UNL A   1      31.643  27.631  23.890  1.00  0.00    -0.322 N 
ATOM     15  C   UNL A   1      30.560  27.662  23.071  1.00  0.00     0.318 C 
ATOM     16  H   UNL A   1      32.414  28.092  23.487  1.00  0.00     0.166 HD
ATOM     17  O   UNL A   1      30.762  27.386  21.884  1.00  0.00    -0.249 OA
BRANCH  15  18
ATOM     18  N   UNL A   1      29.388  28.276  23.469  1.00  0.00    -0.322 N 
ATOM     19  C   UNL A   1      28.138  27.547  23.352  1.00  0.00     0.122 C 
ATOM     20  C   UNL A   1      29.129  29.667  23.084  1.00  0.00     0.083 C 
ATOM     21  C   UNL A   1      27.000  28.528  23.458  1.00  0.00     0.024 C 
ATOM     22  C   UNL A   1      27.597  29.785  22.879  1.00  0.00     0.027 C 
ATOM     23  C   UNL A   1      29.813  30.085  21.783  1.00  0.00     0.031 C 
ENDBRANCH  15  18
ENDBRANCH  10  14
ENDBRANCH   8  10
ENDBRANCH   7   8
ENDBRANCH   6   7
ENDBRANCH   5   6
ENDBRANCH   4   5
ENDBRANCH   3   4
ENDBRANCH   2   3
ENDBRANCH   1   2
BRANCH   1  24
ATOM     24  C   UNL A   1      35.660  21.014  25.308  1.00  0.00     0.188 C 
BRANCH  24  25
ATOM     25  C   UNL A   1      37.083  20.508  25.047  1.00  0.00     0.188 C 
BRANCH  25  26
ATOM     26  O   UNL A   1      38.105  21.504  25.066  1.00  0.00    -0.376 OA
BRANCH  26  27
ATOM     27  C   UNL A   1      39.285  21.187  25.798  1.00  0.00     0.202 C 
BRANCH  27  28
ATOM     28  C   UNL A   1      39.649  19.696  25.955  1.00  0.00     0.261 C 
BRANCH  28  29
ATOM     29  O   UNL A   1      40.889  19.284  25.340  1.00  0.00    -0.460 OA
BRANCH  29  30
ATOM     30  C   UNL A   1      41.956  19.212  26.175  1.00  0.00     0.338 C 
ATOM     31  O   UNL A   1      42.464  18.195  26.631  1.00  0.00    -0.246 OA
BRANCH  30  32
ATOM     32  C   UNL A   1      42.554  20.548  26.399  1.00  0.00     0.060 A 
ATOM     33  C   UNL A   1      42.498  21.098  27.688  1.00  0.00     0.016 A 
ATOM     34  C   UNL A   1      43.056  21.306  25.340  1.00  0.00     0.016 A 
ATOM     35  C   UNL A   1      42.920  22.414  27.919  1.00  0.00     0.010 A 
ATOM     36  C   UNL A   1      43.457  22.632  25.569  1.00  0.00     0.010 A 
ATOM     37  C   UNL A   1      43.365  23.205  26.853  1.00  0.00    -0.014 A 
BRANCH  37  38
ATOM     38  C   UNL A   1      43.556  24.672  27.017  1.00  0.00     0.031 A 
ATOM     39  C   UNL A   1      44.935  25.243  26.808  1.00  0.00     0.074 A 
ATOM     40  C   UNL A   1      42.550  25.490  27.380  1.00  0.00     0.049 A 
ATOM     41  N   UNL A   1      45.389  26.444  27.066  1.00  0.00    -0.248 NA
ATOM     42  C   UNL A   1      45.937  24.331  26.235  1.00  0.00     0.031 C 
ATOM     43  C   UNL A   1      41.158  25.087  27.553  1.00  0.00     0.029 A 
ATOM     44  N   UNL A   1      42.555  26.828  27.701  1.00  0.00    -0.354 N 
ATOM     45  C   UNL A   1      46.731  26.423  26.711  1.00  0.00     0.074 A 
ATOM     46  C   UNL A   1      47.021  25.094  26.218  1.00  0.00     0.031 C 
ATOM     47  C   UNL A   1      40.449  26.143  27.990  1.00  0.00     0.029 A 
ATOM     48  C   UNL A   1      41.347  27.284  28.175  1.00  0.00     0.049 A 
ATOM     49  H   UNL A   1      43.347  27.404  27.601  1.00  0.00     0.167 HD
ATOM     50  C   UNL A   1      47.642  27.421  26.795  1.00  0.00     0.037 A 
ATOM     51  C   UNL A   1      41.019  28.464  28.742  1.00  0.00     0.037 A 
ATOM     52  C   UNL A   1      47.355  28.747  27.275  1.00  0.00     0.049 A 
ATOM     53  C   UNL A   1      42.079  29.529  28.911  1.00  0.00     0.074 A 
ATOM     54  C   UNL A   1      48.206  29.836  27.357  1.00  0.00     0.029 A 
ATOM     55  N   UNL A   1      46.128  29.160  27.767  1.00  0.00    -0.354 N 
ATOM     56  N   UNL A   1      43.337  29.516  28.544  1.00  0.00    -0.248 NA
ATOM     57  C   UNL A   1      41.673  30.773  29.587  1.00  0.00     0.031 C 
ATOM     58  C   UNL A   1      47.513  30.888  27.960  1.00  0.00     0.029 A 
ATOM     59  C   UNL A   1      46.212  30.475  28.197  1.00  0.00     0.049 A 
ATOM     60  H   UNL A   1      45.317  28.603  27.805  1.00  0.00     0.167 HD
ATOM     61  C   UNL A   1      43.862  30.746  28.921  1.00  0.00     0.074 A 
ATOM     62  C   UNL A   1      42.783  31.496  29.525  1.00  0.00     0.031 C 
ATOM     63  C   UNL A   1      45.127  31.214  28.787  1.00  0.00     0.037 A 
BRANCH  50  64
ATOM     64  C   UNL A   1      49.056  27.119  26.400  1.00  0.00     0.064 A 
ATOM     65  C   UNL A   1      49.994  26.630  27.320  1.00  0.00     0.173 A 
ATOM     66  C   UNL A   1      49.453  27.245  25.060  1.00  0.00     0.173 A 
ATOM     67  F   UNL A   1      49.668  26.502  28.615  1.00  0.00    -0.203 F 
ATOM     68  C   UNL A   1      51.281  26.285  26.913  1.00  0.00     0.198 A 
ATOM     69  C   UNL A   1      50.730  26.874  24.652  1.00  0.00     0.198 A 
ATOM     70  F   UNL A   1      48.590  27.705  24.140  1.00  0.00    -0.203 F 
ATOM     71  F   UNL A   1      52.171  25.843  27.812  1.00  0.00    -0.200 F 
ATOM     72  C   UNL A   1      51.644  26.396  25.579  1.00  0.00     0.200 A 
ATOM     73  F   UNL A   1      51.073  26.968  23.360  1.00  0.00    -0.200 F 
ATOM     74  F   UNL A   1      52.875  26.043  25.186  1.00  0.00    -0.200 F 
ENDBRANCH  50  64
BRANCH  51  75
ATOM     75  C   UNL A   1      39.643  28.698  29.268  1.00  0.00     0.064 A 
ATOM     76  C   UNL A   1      38.661  29.321  28.486  1.00  0.00     0.173 A 
ATOM     77  C   UNL A   1      39.309  28.377  30.593  1.00  0.00     0.173 A 
ATOM     78  F   UNL A   1      38.940  29.683  27.224  1.00  0.00    -0.203 F 
ATOM     79  C   UNL A   1      37.412  29.644  29.016  1.00  0.00     0.198 A 
ATOM     80  C   UNL A   1      38.048  28.667  31.111  1.00  0.00     0.198 A 
ATOM     81  F   UNL A   1      40.212  27.790  31.392  1.00  0.00    -0.203 F 
ATOM     82  F   UNL A   1      36.520  30.308  28.268  1.00  0.00    -0.200 F 
ATOM     83  C   UNL A   1      37.106  29.313  30.327  1.00  0.00     0.200 A 
ATOM     84  F   UNL A   1      37.753  28.336  32.375  1.00  0.00    -0.200 F 
ATOM     85  F   UNL A   1      35.909  29.632  30.840  1.00  0.00    -0.200 F 
ENDBRANCH  51  75
BRANCH  63  86
ATOM     86  C   UNL A   1      45.416  32.606  29.274  1.00  0.00     0.064 A 
ATOM     87  C   UNL A   1      45.855  32.851  30.583  1.00  0.00     0.173 A 
ATOM     88  C   UNL A   1      45.314  33.701  28.402  1.00  0.00     0.173 A 
ATOM     89  F   UNL A   1      45.957  31.841  31.461  1.00  0.00    -0.203 F 
ATOM     90  C   UNL A   1      46.160  34.141  31.008  1.00  0.00     0.198 A 
ATOM     91  C   UNL A   1      45.652  34.986  28.820  1.00  0.00     0.198 A 
ATOM     92  F   UNL A   1      44.908  33.523  27.136  1.00  0.00    -0.203 F 
ATOM     93  F   UNL A   1      46.537  34.357  32.276  1.00  0.00    -0.200 F 
ATOM     94  C   UNL A   1      46.069  35.207  30.123  1.00  0.00     0.200 A 
ATOM     95  F   UNL A   1      45.579  36.010  27.958  1.00  0.00    -0.200 F 
ATOM     96  F   UNL A   1      46.378  36.446  30.529  1.00  0.00    -0.200 F 
ENDBRANCH  63  86
ENDBRANCH  37  38
ENDBRANCH  30  32
ENDBRANCH  29  30
ENDBRANCH  28  29
ENDBRANCH  27  28
ENDBRANCH  26  27
ENDBRANCH  25  26
ENDBRANCH  24  25
ENDBRANCH   1  24
TORSDOF 23
ENDMDL
MODEL 2
REMARK VINA RESULT:     -10.0      1.124      2.201
REMARK SMILES CC[C@](C)(NC(=O)N1CCC[C@@H]1C)C(=O)OCCOCCOCCOCCOC(=O)c1ccc(-c2c3nc(c(-c4c(F)c(F)c(F)c(F)c4F)c4ccc([nH]4)c(-c4c(F)c(F)c(F)c(F)c4F)c4nc(c(-c5c(F)c(F)c(F)c(F)c5F)c5ccc2[nH]5)C=C4)C=C3)cc1
REMARK SMILES IDX 22 1 21 2 20 3 19 4 18 5 17 6 16 7 14 8 15 9 3 10 4 11 2 12
REMARK SMILES IDX 1 13 5 14 6 15 7 17 8 18 9 19 12 20 10 21 11 22 13 23 23 24
REMARK SMILES IDX 24 25 25 26 26 27 27 28 28 29 29 30 30 31 31 32 32 33 93 34
REMARK SMILES IDX 33 35 92 36 34 37 35 38 36 39 86 40 37 41 91 42 85 43 87 44
REMARK SMILES IDX 38 45 90 46 84 47 83 48 39 50 71 51 51 52 70 53 52 54 55 55
REMARK SMILES IDX 69 56 88 57 53 58 54 59 68 61 89 62 56 63 40 64 41 65 49 66
REMARK SMILES IDX 42 67 43 68 47 69 50 70 44 71 45 72 48 73 46 74 72 75 73 76
REMARK SMILES IDX 81 77 74 78 75 79 79 80 82 81 76 82 77 83 80 84 78 85 57 86
REMARK SMILES IDX 58 87 66 88 59 89 60 90 64 91 67 92 61 93 62 94 65 95 63 96
REMARK H PARENT 5 16 87 49 55 60
REMARK Flexibility Score: inf
ROOT
ATOM      1  O   UNL A   1      34.823  19.820  24.620  1.00  0.00    -0.377 OA
ENDROOT
BRANCH   1   2
ATOM      2  C   UNL A   1      33.466  19.585  24.998  1.00  0.00     0.188 C 
BRANCH   2   3
ATOM      3  C   UNL A   1      32.796  20.982  25.087  1.00  0.00     0.188 C 
BRANCH   3   4
ATOM      4  O   UNL A   1      31.405  21.023  25.392  1.00  0.00    -0.376 OA
BRANCH   4   5
ATOM      5  C   UNL A   1      30.744  22.291  25.522  1.00  0.00     0.202 C 
BRANCH   5   6
ATOM      6  C   UNL A   1      30.432  22.958  26.885  1.00  0.00     0.261 C 
BRANCH   6   7
ATOM      7  O   UNL A   1      31.284  24.059  27.205  1.00  0.00    -0.462 OA
BRANCH   7   8
ATOM      8  C   UNL A   1      31.081  25.188  26.489  1.00  0.00     0.331 C 
ATOM      9  O   UNL A   1      30.026  25.816  26.503  1.00  0.00    -0.249 OA
BRANCH   8  10
ATOM     10  C   UNL A   1      32.356  25.676  25.750  1.00  0.00     0.136 C 
ATOM     11  C   UNL A   1      32.091  25.526  24.225  1.00  0.00     0.047 C 
BRANCH  10  12
ATOM     12  C   UNL A   1      33.515  24.698  26.131  1.00  0.00     0.037 C 
ATOM     13  C   UNL A   1      34.777  24.710  25.272  1.00  0.00     0.007 C 
ENDBRANCH  10  12
BRANCH  10  14
ATOM     14  N   UNL A   1      32.934  27.048  26.047  1.00  0.00    -0.322 N 
ATOM     15  C   UNL A   1      33.332  28.134  25.335  1.00  0.00     0.318 C 
ATOM     16  H   UNL A   1      33.049  27.189  27.015  1.00  0.00     0.166 HD
ATOM     17  O   UNL A   1      34.415  28.633  25.657  1.00  0.00    -0.249 OA
BRANCH  15  18
ATOM     18  N   UNL A   1      32.442  28.821  24.533  1.00  0.00    -0.322 N 
ATOM     19  C   UNL A   1      31.019  28.578  24.696  1.00  0.00     0.122 C 
ATOM     20  C   UNL A   1      32.708  28.954  23.097  1.00  0.00     0.083 C 
ATOM     21  C   UNL A   1      30.301  29.113  23.485  1.00  0.00     0.024 C 
ATOM     22  C   UNL A   1      31.328  28.941  22.394  1.00  0.00     0.027 C 
ATOM     23  C   UNL A   1      33.544  27.814  22.517  1.00  0.00     0.031 C 
ENDBRANCH  15  18
ENDBRANCH  10  14
ENDBRANCH   8  10
ENDBRANCH   7   8
ENDBRANCH   6   7
ENDBRANCH   5   6
ENDBRANCH   4   5
ENDBRANCH   3   4
ENDBRANCH   2   3
ENDBRANCH   1   2
BRANCH   1  24
ATOM     24  C   UNL A   1      35.414  21.104  24.777  1.00  0.00     0.188 C 
BRANCH  24  25
ATOM     25  C   UNL A   1      36.622  21.153  25.720  1.00  0.00     0.188 C 
BRANCH  25  26
ATOM     26  O   UNL A   1      37.821  21.686  25.160  1.00  0.00    -0.376 OA
BRANCH  26  27
ATOM     27  C   UNL A   1      39.042  21.274  25.767  1.00  0.00     0.202 C 
BRANCH  27  28
ATOM     28  C   UNL A   1      39.514  19.828  25.511  1.00  0.00     0.261 C 
BRANCH  28  29
ATOM     29  O   UNL A   1      40.364  19.255  26.528  1.00  0.00    -0.460 OA
BRANCH  29  30
ATOM     30  C   UNL A   1      41.684  19.197  26.218  1.00  0.00     0.338 C 
ATOM     31  O   UNL A   1      42.286  18.237  25.753  1.00  0.00    -0.246 OA
BRANCH  30  32
ATOM     32  C   UNL A   1      42.335  20.515  26.392  1.00  0.00     0.060 A 
ATOM     33  C   UNL A   1      42.290  21.122  27.655  1.00  0.00     0.016 A 
ATOM     34  C   UNL A   1      42.879  21.207  25.308  1.00  0.00     0.016 A 
ATOM     35  C   UNL A   1      42.764  22.427  27.836  1.00  0.00     0.010 A 
ATOM     36  C   UNL A   1      43.334  22.522  25.486  1.00  0.00     0.010 A 
ATOM     37  C   UNL A   1      43.252  23.153  26.743  1.00  0.00    -0.014 A 
BRANCH  37  38
ATOM     38  C   UNL A   1      43.504  24.617  26.847  1.00  0.00     0.031 A 
ATOM     39  C   UNL A   1      44.900  25.124  26.597  1.00  0.00     0.074 A 
ATOM     40  C   UNL A   1      42.536  25.487  27.192  1.00  0.00     0.049 A 
ATOM     41  N   UNL A   1      45.405  26.315  26.801  1.00  0.00    -0.248 NA
ATOM     42  C   UNL A   1      45.857  24.152  26.045  1.00  0.00     0.031 C 
ATOM     43  C   UNL A   1      41.132  25.147  27.401  1.00  0.00     0.029 A 
ATOM     44  N   UNL A   1      42.599  26.835  27.461  1.00  0.00    -0.354 N 
ATOM     45  C   UNL A   1      46.740  26.227  26.428  1.00  0.00     0.074 A 
ATOM     46  C   UNL A   1      46.970  24.869  25.983  1.00  0.00     0.031 C 
ATOM     47  C   UNL A   1      40.472  26.247  27.806  1.00  0.00     0.029 A 
ATOM     48  C   UNL A   1      41.417  27.357  27.934  1.00  0.00     0.049 A 
ATOM     49  H   UNL A   1      43.411  27.375  27.327  1.00  0.00     0.167 HD
ATOM     50  C   UNL A   1      47.691  27.191  26.461  1.00  0.00     0.037 A 
ATOM     51  C   UNL A   1      41.145  28.570  28.459  1.00  0.00     0.037 A 
ATOM     52  C   UNL A   1      47.463  28.544  26.893  1.00  0.00     0.049 A 
ATOM     53  C   UNL A   1      42.248  29.598  28.572  1.00  0.00     0.074 A 
ATOM     54  C   UNL A   1      48.357  29.601  26.920  1.00  0.00     0.029 A 
ATOM     55  N   UNL A   1      46.261  29.024  27.386  1.00  0.00    -0.354 N 
ATOM     56  N   UNL A   1      43.499  29.520  28.187  1.00  0.00    -0.248 NA
ATOM     57  C   UNL A   1      41.902  30.882  29.205  1.00  0.00     0.031 C 
ATOM     58  C   UNL A   1      47.715  30.702  27.492  1.00  0.00     0.029 A 
ATOM     59  C   UNL A   1      46.403  30.350  27.763  1.00  0.00     0.049 A 
ATOM     60  H   UNL A   1      45.429  28.502  27.457  1.00  0.00     0.167 HD
ATOM     61  C   UNL A   1      44.077  30.743  28.509  1.00  0.00     0.074 A 
ATOM     62  C   UNL A   1      43.038  31.557  29.099  1.00  0.00     0.031 C 
ATOM     63  C   UNL A   1      45.358  31.154  28.339  1.00  0.00     0.037 A 
BRANCH  50  64
ATOM     64  C   UNL A   1      49.085  26.818  26.058  1.00  0.00     0.064 A 
ATOM     65  C   UNL A   1      49.552  26.999  24.749  1.00  0.00     0.173 A 
ATOM     66  C   UNL A   1      49.992  26.347  27.021  1.00  0.00     0.173 A 
ATOM     67  F   UNL A   1      48.722  27.435  23.789  1.00  0.00    -0.203 F 
ATOM     68  C   UNL A   1      50.875  26.715  24.416  1.00  0.00     0.198 A 
ATOM     69  C   UNL A   1      51.319  26.091  26.692  1.00  0.00     0.198 A 
ATOM     70  F   UNL A   1      49.594  26.162  28.289  1.00  0.00    -0.203 F 
ATOM     71  F   UNL A   1      51.295  26.871  23.154  1.00  0.00    -0.200 F 
ATOM     72  C   UNL A   1      51.760  26.273  25.390  1.00  0.00     0.200 A 
ATOM     73  F   UNL A   1      52.174  25.679  27.637  1.00  0.00    -0.200 F 
ATOM     74  F   UNL A   1      53.036  26.022  25.073  1.00  0.00    -0.200 F 
ENDBRANCH  50  64
BRANCH  51  75
ATOM     75  C   UNL A   1      39.788  28.878  28.995  1.00  0.00     0.064 A 
ATOM     76  C   UNL A   1      39.464  28.639  30.338  1.00  0.00     0.173 A 
ATOM     77  C   UNL A   1      38.763  29.341  28.155  1.00  0.00     0.173 A 
ATOM     78  F   UNL A   1      40.396  28.162  31.177  1.00  0.00    -0.203 F 
ATOM     79  C   UNL A   1      38.164  28.817  30.811  1.00  0.00     0.198 A 
ATOM     80  C   UNL A   1      37.473  29.553  28.636  1.00  0.00     0.198 A 
ATOM     81  F   UNL A   1      39.011  29.575  26.858  1.00  0.00    -0.203 F 
ATOM     82  F   UNL A   1      37.867  28.509  32.081  1.00  0.00    -0.200 F 
ATOM     83  C   UNL A   1      37.171  29.278  29.960  1.00  0.00     0.200 A 
ATOM     84  F   UNL A   1      36.519  30.008  27.812  1.00  0.00    -0.200 F 
ATOM     85  F   UNL A   1      35.919  29.440  30.412  1.00  0.00    -0.200 F 
ENDBRANCH  51  75
BRANCH  63  86
ATOM     86  C   UNL A   1      45.709  32.551  28.767  1.00  0.00     0.064 A 
ATOM     87  C   UNL A   1      46.258  32.817  30.030  1.00  0.00     0.173 A 
ATOM     88  C   UNL A   1      45.553  33.628  27.881  1.00  0.00     0.173 A 
ATOM     89  F   UNL A   1      46.416  31.825  30.920  1.00  0.00    -0.203 F 
ATOM     90  C   UNL A   1      46.618  34.111  30.398  1.00  0.00     0.198 A 
ATOM     91  C   UNL A   1      45.945  34.916  28.239  1.00  0.00     0.198 A 
ATOM     92  F   UNL A   1      45.040  33.429  26.657  1.00  0.00    -0.203 F 
ATOM     93  F   UNL A   1      47.101  34.348  31.625  1.00  0.00    -0.200 F 
ATOM     94  C   UNL A   1      46.471  35.158  29.498  1.00  0.00     0.200 A 
ATOM     95  F   UNL A   1      45.818  35.922  27.362  1.00  0.00    -0.200 F 
ATOM     96  F   UNL A   1      46.833  36.400  29.848  1.00  0.00    -0.200 F 
ENDBRANCH  63  86
ENDBRANCH  37  38
ENDBRANCH  30  32
ENDBRANCH  29  30
ENDBRANCH  28  29
ENDBRANCH  27  28
ENDBRANCH  26  27
ENDBRANCH  25  26
ENDBRANCH  24  25
ENDBRANCH   1  24
TORSDOF 23
ENDMDL
MODEL 3
REMARK VINA RESULT:     -10.0      0.870      7.154
REMARK SMILES CC[C@](C)(NC(=O)N1CCC[C@@H]1C)C(=O)OCCOCCOCCOCCOC(=O)c1ccc(-c2c3nc(c(-c4c(F)c(F)c(F)c(F)c4F)c4ccc([nH]4)c(-c4c(F)c(F)c(F)c(F)c4F)c4nc(c(-c5c(F)c(F)c(F)c(F)c5F)c5ccc2[nH]5)C=C4)C=C3)cc1
REMARK SMILES IDX 22 1 21 2 20 3 19 4 18 5 17 6 16 7 14 8 15 9 3 10 4 11 2 12
REMARK SMILES IDX 1 13 5 14 6 15 7 17 8 18 9 19 12 20 10 21 11 22 13 23 23 24
REMARK SMILES IDX 24 25 25 26 26 27 27 28 28 29 29 30 30 31 31 32 32 33 93 34
REMARK SMILES IDX 33 35 92 36 34 37 35 38 36 39 86 40 37 41 91 42 85 43 87 44
REMARK SMILES IDX 38 45 90 46 84 47 83 48 39 50 71 51 51 52 70 53 52 54 55 55
REMARK SMILES IDX 69 56 88 57 53 58 54 59 68 61 89 62 56 63 40 64 41 65 49 66
REMARK SMILES IDX 42 67 43 68 47 69 50 70 44 71 45 72 48 73 46 74 72 75 73 76
REMARK SMILES IDX 81 77 74 78 75 79 79 80 82 81 76 82 77 83 80 84 78 85 57 86
REMARK SMILES IDX 58 87 66 88 59 89 60 90 64 91 67 92 61 93 62 94 65 95 63 96
REMARK H PARENT 5 16 87 49 55 60
REMARK Flexibility Score: inf
ROOT
ATOM      1  O   UNL A   1      34.759  20.691  24.636  1.00  0.00    -0.377 OA
ENDROOT
BRANCH   1   2
ATOM      2  C   UNL A   1      34.018  19.518  24.975  1.00  0.00     0.188 C 
BRANCH   2   3
ATOM      3  C   UNL A   1      32.522  19.893  24.815  1.00  0.00     0.188 C 
BRANCH   3   4
ATOM      4  O   UNL A   1      32.223  21.194  24.319  1.00  0.00    -0.376 OA
BRANCH   4   5
ATOM      5  C   UNL A   1      31.557  22.143  25.169  1.00  0.00     0.202 C 
BRANCH   5   6
ATOM      6  C   UNL A   1      32.191  23.483  25.617  1.00  0.00     0.261 C 
BRANCH   6   7
ATOM      7  O   UNL A   1      31.670  24.630  24.944  1.00  0.00    -0.462 OA
BRANCH   7   8
ATOM      8  C   UNL A   1      31.368  25.687  25.731  1.00  0.00     0.331 C 
ATOM      9  O   UNL A   1      30.726  25.592  26.773  1.00  0.00    -0.249 OA
BRANCH   8  10
ATOM     10  C   UNL A   1      32.024  27.009  25.248  1.00  0.00     0.136 C 
ATOM     11  C   UNL A   1      33.564  26.834  25.375  1.00  0.00     0.047 C 
BRANCH  10  12
ATOM     12  C   UNL A   1      31.588  28.134  26.242  1.00  0.00     0.037 C 
ATOM     13  C   UNL A   1      32.251  29.503  26.114  1.00  0.00     0.007 C 
ENDBRANCH  10  12
BRANCH  10  14
ATOM     14  N   UNL A   1      31.674  27.581  23.885  1.00  0.00    -0.322 N 
ATOM     15  C   UNL A   1      30.586  27.618  23.073  1.00  0.00     0.318 C 
ATOM     16  H   UNL A   1      32.440  28.051  23.483  1.00  0.00     0.166 HD
ATOM     17  O   UNL A   1      30.782  27.359  21.882  1.00  0.00    -0.249 OA
BRANCH  15  18
ATOM     18  N   UNL A   1      29.414  28.220  23.487  1.00  0.00    -0.322 N 
ATOM     19  C   UNL A   1      28.168  27.483  23.375  1.00  0.00     0.122 C 
ATOM     20  C   UNL A   1      29.141  29.612  23.115  1.00  0.00     0.083 C 
ATOM     21  C   UNL A   1      27.024  28.455  23.499  1.00  0.00     0.024 C 
ATOM     22  C   UNL A   1      27.607  29.721  22.925  1.00  0.00     0.027 C 
ATOM     23  C   UNL A   1      29.811  30.045  21.811  1.00  0.00     0.031 C 
ENDBRANCH  15  18
ENDBRANCH  10  14
ENDBRANCH   8  10
ENDBRANCH   7   8
ENDBRANCH   6   7
ENDBRANCH   5   6
ENDBRANCH   4   5
ENDBRANCH   3   4
ENDBRANCH   2   3
ENDBRANCH   1   2
BRANCH   1  24
ATOM     24  C   UNL A   1      35.629  21.304  25.579  1.00  0.00     0.188 C 
BRANCH  24  25
ATOM     25  C   UNL A   1      37.107  21.339  25.175  1.00  0.00     0.188 C 
BRANCH  25  26
ATOM     26  O   UNL A   1      37.900  22.335  25.820  1.00  0.00    -0.376 OA
BRANCH  26  27
ATOM     27  C   UNL A   1      39.240  21.971  26.137  1.00  0.00     0.202 C 
BRANCH  27  28
ATOM     28  C   UNL A   1      39.579  20.466  26.185  1.00  0.00     0.261 C 
BRANCH  28  29
ATOM     29  O   UNL A   1      40.636  20.031  25.303  1.00  0.00    -0.460 OA
BRANCH  29  30
ATOM     30  C   UNL A   1      41.783  19.644  25.917  1.00  0.00     0.338 C 
ATOM     31  O   UNL A   1      42.216  18.502  26.009  1.00  0.00    -0.246 OA
BRANCH  30  32
ATOM     32  C   UNL A   1      42.562  20.812  26.386  1.00  0.00     0.060 A 
ATOM     33  C   UNL A   1      42.588  21.091  27.760  1.00  0.00     0.016 A 
ATOM     34  C   UNL A   1      43.161  21.695  25.486  1.00  0.00     0.016 A 
ATOM     35  C   UNL A   1      43.190  22.262  28.238  1.00  0.00     0.010 A 
ATOM     36  C   UNL A   1      43.744  22.879  25.964  1.00  0.00     0.010 A 
ATOM     37  C   UNL A   1      43.737  23.186  27.339  1.00  0.00    -0.014 A 
BRANCH  37  38
ATOM     38  C   UNL A   1      44.132  24.549  27.789  1.00  0.00     0.031 A 
ATOM     39  C   UNL A   1      43.045  25.530  28.145  1.00  0.00     0.074 A 
ATOM     40  C   UNL A   1      45.420  24.938  27.848  1.00  0.00     0.049 A 
ATOM     41  N   UNL A   1      43.126  26.814  28.386  1.00  0.00    -0.248 NA
ATOM     42  C   UNL A   1      41.682  24.985  28.238  1.00  0.00     0.031 C 
ATOM     43  C   UNL A   1      46.572  24.080  27.594  1.00  0.00     0.029 A 
ATOM     44  N   UNL A   1      45.971  26.172  28.111  1.00  0.00    -0.354 N 
ATOM     45  C   UNL A   1      41.825  27.233  28.632  1.00  0.00     0.074 A 
ATOM     46  C   UNL A   1      40.973  26.070  28.514  1.00  0.00     0.031 C 
ATOM     47  C   UNL A   1      47.693  24.820  27.670  1.00  0.00     0.029 A 
ATOM     48  C   UNL A   1      47.333  26.214  27.930  1.00  0.00     0.049 A 
ATOM     49  H   UNL A   1      45.441  26.949  28.401  1.00  0.00     0.167 HD
ATOM     50  C   UNL A   1      41.380  28.479  28.923  1.00  0.00     0.037 A 
ATOM     51  C   UNL A   1      48.182  27.264  27.920  1.00  0.00     0.037 A 
ATOM     52  C   UNL A   1      42.226  29.636  29.051  1.00  0.00     0.049 A 
ATOM     53  C   UNL A   1      47.645  28.658  28.154  1.00  0.00     0.074 A 
ATOM     54  C   UNL A   1      41.869  30.931  29.385  1.00  0.00     0.029 A 
ATOM     55  N   UNL A   1      43.595  29.641  28.836  1.00  0.00    -0.354 N 
ATOM     56  N   UNL A   1      46.421  29.044  28.419  1.00  0.00    -0.248 NA
ATOM     57  C   UNL A   1      48.611  29.767  28.076  1.00  0.00     0.031 C 
ATOM     58  C   UNL A   1      43.010  31.733  29.307  1.00  0.00     0.029 A 
ATOM     59  C   UNL A   1      44.089  30.927  28.987  1.00  0.00     0.049 A 
ATOM     60  H   UNL A   1      44.135  28.849  28.612  1.00  0.00     0.167 HD
ATOM     61  C   UNL A   1      46.475  30.426  28.560  1.00  0.00     0.074 A 
ATOM     62  C   UNL A   1      47.855  30.814  28.376  1.00  0.00     0.031 C 
ATOM     63  C   UNL A   1      45.468  31.299  28.812  1.00  0.00     0.037 A 
BRANCH  50  64
ATOM     64  C   UNL A   1      39.904  28.680  29.085  1.00  0.00     0.064 A 
ATOM     65  C   UNL A   1      39.264  28.507  30.320  1.00  0.00     0.173 A 
ATOM     66  C   UNL A   1      39.134  29.131  28.002  1.00  0.00     0.173 A 
ATOM     67  F   UNL A   1      39.953  28.066  31.383  1.00  0.00    -0.203 F 
ATOM     68  C   UNL A   1      37.904  28.772  30.463  1.00  0.00     0.198 A 
ATOM     69  C   UNL A   1      37.782  29.422  28.154  1.00  0.00     0.198 A 
ATOM     70  F   UNL A   1      39.701  29.316  26.800  1.00  0.00    -0.203 F 
ATOM     71  F   UNL A   1      37.305  28.577  31.646  1.00  0.00    -0.200 F 
ATOM     72  C   UNL A   1      37.167  29.240  29.384  1.00  0.00     0.200 A 
ATOM     73  F   UNL A   1      37.076  29.887  27.115  1.00  0.00    -0.200 F 
ATOM     74  F   UNL A   1      35.864  29.516  29.529  1.00  0.00    -0.200 F 
ENDBRANCH  50  64
BRANCH  51  75
ATOM     75  C   UNL A   1      49.627  27.069  27.609  1.00  0.00     0.064 A 
ATOM     76  C   UNL A   1      50.079  26.964  26.286  1.00  0.00     0.173 A 
ATOM     77  C   UNL A   1      50.574  26.902  28.631  1.00  0.00     0.173 A 
ATOM     78  F   UNL A   1      49.210  27.080  25.270  1.00  0.00    -0.203 F 
ATOM     79  C   UNL A   1      51.411  26.666  25.998  1.00  0.00     0.198 A 
ATOM     80  C   UNL A   1      51.912  26.640  28.342  1.00  0.00     0.198 A 
ATOM     81  F   UNL A   1      50.198  26.979  29.916  1.00  0.00    -0.203 F 
ATOM     82  F   UNL A   1      51.798  26.497  24.726  1.00  0.00    -0.200 F 
ATOM     83  C   UNL A   1      52.327  26.508  27.027  1.00  0.00     0.200 A 
ATOM     84  F   UNL A   1      52.795  26.498  29.340  1.00  0.00    -0.200 F 
ATOM     85  F   UNL A   1      53.604  26.212  26.751  1.00  0.00    -0.200 F 
ENDBRANCH  51  75
BRANCH  63  86
ATOM     86  C   UNL A   1      45.818  32.756  28.932  1.00  0.00     0.064 A 
ATOM     87  C   UNL A   1      45.756  33.620  27.829  1.00  0.00     0.173 A 
ATOM     88  C   UNL A   1      46.158  33.307  30.177  1.00  0.00     0.173 A 
ATOM     89  F   UNL A   1      45.449  33.142  26.613  1.00  0.00    -0.203 F 
ATOM     90  C   UNL A   1      46.041  34.976  27.964  1.00  0.00     0.198 A 
ATOM     91  C   UNL A   1      46.410  34.670  30.315  1.00  0.00     0.198 A 
ATOM     92  F   UNL A   1      46.223  32.527  31.267  1.00  0.00    -0.203 F 
ATOM     93  F   UNL A   1      46.017  35.775  26.888  1.00  0.00    -0.200 F 
ATOM     94  C   UNL A   1      46.357  35.502  29.209  1.00  0.00     0.200 A 
ATOM     95  F   UNL A   1      46.698  35.177  31.522  1.00  0.00    -0.200 F 
ATOM     96  F   UNL A   1      46.616  36.810  29.339  1.00  0.00    -0.200 F 
ENDBRANCH  63  86
ENDBRANCH  37  38
ENDBRANCH  30  32
ENDBRANCH  29  30
ENDBRANCH  28  29
ENDBRANCH  27  28
ENDBRANCH  26  27
ENDBRANCH  25  26
ENDBRANCH  24  25
ENDBRANCH   1  24
TORSDOF 23
ENDMDL
