MODEL 1
REMARK VINA RESULT:      -8.3      0.000      0.000
REMARK SMILES CCCCCCNC(=O)Oc1cccc(-c2ccc([C@@H](C)C(=O)OCCOCCOCCOCCOC(=O)c3ccc(-c4c5nc(c(-c6c(F)c(F)c(F)c(F)c6F)c6ccc([nH]6)c(-c6c(F)c(F)c(F)c(F)c6F)c6nc(c(-c7c(F)c(F)c(F)c(F)c7F)c7ccc4[nH]7)C=C6)C=C5)cc3)cc2)c1
REMARK SMILES IDX 26 1 25 2 24 3 22 4 23 5 20 6 21 7 19 8 16 9 17 10 103 11
REMARK SMILES IDX 18 12 102 13 15 14 11 15 12 16 104 17 13 18 14 19 10 20 8 21
REMARK SMILES IDX 7 22 9 24 6 25 5 26 4 27 3 28 2 29 1 30 27 31 28 32 29 33
REMARK SMILES IDX 30 34 31 35 32 36 33 37 34 38 35 39 36 40 37 41 38 42 39 43
REMARK SMILES IDX 40 44 101 45 41 46 100 47 42 48 43 49 44 50 94 51 45 52
REMARK SMILES IDX 99 53 93 54 95 55 46 56 98 57 92 58 91 59 47 61 79 62 59 63
REMARK SMILES IDX 78 64 60 65 63 66 77 67 96 68 61 69 62 70 76 72 97 73 64 74
REMARK SMILES IDX 48 75 49 76 57 77 50 78 51 79 55 80 58 81 52 82 53 83 56 84
REMARK SMILES IDX 54 85 80 86 81 87 89 88 82 89 83 90 87 91 90 92 84 93 85 94
REMARK SMILES IDX 88 95 86 96 65 97 66 98 74 99 67 100 68 101 72 102 75 103
REMARK SMILES IDX 69 104 70 105 73 106 71 107
REMARK H PARENT 7 23 95 60 63 71
REMARK Flexibility Score: inf
ROOT
ATOM      1  C   UNL A   1      42.540  26.738  26.938  1.00  0.00     0.202 C 
ENDROOT
BRANCH   1   2
ATOM      2  C   UNL A   1      41.396  25.921  26.306  1.00  0.00     0.261 C 
BRANCH   2   3
ATOM      3  O   UNL A   1      40.983  24.722  26.997  1.00  0.00    -0.463 OA
BRANCH   3   4
ATOM      4  C   UNL A   1      41.283  23.550  26.391  1.00  0.00     0.313 C 
ATOM      5  O   UNL A   1      42.256  23.404  25.652  1.00  0.00    -0.252 OA
BRANCH   4   6
ATOM      6  C   UNL A   1      40.316  22.392  26.641  1.00  0.00     0.126 C 
ATOM      7  C   UNL A   1      40.969  21.107  26.144  1.00  0.00     0.025 C 
BRANCH   6   8
ATOM      8  C   UNL A   1      38.847  22.466  26.219  1.00  0.00    -0.034 A 
ATOM      9  C   UNL A   1      36.094  22.464  25.404  1.00  0.00    -0.018 A 
ATOM     10  C   UNL A   1      36.693  23.596  25.986  1.00  0.00     0.009 A 
ATOM     11  C   UNL A   1      36.899  21.330  25.238  1.00  0.00     0.009 A 
ATOM     12  C   UNL A   1      38.045  23.602  26.384  1.00  0.00     0.005 A 
ATOM     13  C   UNL A   1      38.248  21.335  25.627  1.00  0.00     0.005 A 
BRANCH   9  14
ATOM     14  C   UNL A   1      34.696  22.483  24.916  1.00  0.00    -0.015 A 
ATOM     15  C   UNL A   1      32.502  23.520  24.702  1.00  0.00     0.133 A 
ATOM     16  C   UNL A   1      31.994  22.387  24.072  1.00  0.00     0.047 A 
ATOM     17  C   UNL A   1      33.834  23.577  25.131  1.00  0.00     0.056 A 
ATOM     18  C   UNL A   1      32.833  21.300  23.847  1.00  0.00     0.004 A 
ATOM     19  C   UNL A   1      34.167  21.350  24.266  1.00  0.00     0.009 A 
BRANCH  15  20
ATOM     20  O   UNL A   1      31.566  24.531  25.004  1.00  0.00    -0.410 OA
BRANCH  20  21
ATOM     21  C   UNL A   1      31.269  24.801  26.331  1.00  0.00     0.412 C 
ATOM     22  N   UNL A   1      31.081  26.134  26.588  1.00  0.00    -0.321 N 
ATOM     23  H   UNL A   1      30.813  26.368  27.505  1.00  0.00     0.167 HD
ATOM     24  O   UNL A   1      31.186  23.971  27.230  1.00  0.00    -0.224 OA
BRANCH  22  25
ATOM     25  C   UNL A   1      31.231  27.238  25.658  1.00  0.00     0.119 C 
BRANCH  25  26
ATOM     26  C   UNL A   1      32.678  27.722  25.554  1.00  0.00     0.021 C 
BRANCH  26  27
ATOM     27  C   UNL A   1      32.848  29.161  25.049  1.00  0.00     0.002 C 
BRANCH  27  28
ATOM     28  C   UNL A   1      32.088  30.237  25.834  1.00  0.00    -0.000 C 
BRANCH  28  29
ATOM     29  C   UNL A   1      32.626  30.535  27.236  1.00  0.00    -0.003 C 
ATOM     30  C   UNL A   1      34.140  30.670  27.289  1.00  0.00     0.004 C 
ENDBRANCH  28  29
ENDBRANCH  27  28
ENDBRANCH  26  27
ENDBRANCH  25  26
ENDBRANCH  22  25
ENDBRANCH  20  21
ENDBRANCH  15  20
ENDBRANCH   9  14
ENDBRANCH   6   8
ENDBRANCH   4   6
ENDBRANCH   3   4
ENDBRANCH   2   3
ENDBRANCH   1   2
BRANCH   1  31
ATOM     31  O   UNL A   1      43.056  26.407  28.219  1.00  0.00    -0.376 OA
BRANCH  31  32
ATOM     32  C   UNL A   1      43.085  27.373  29.262  1.00  0.00     0.188 C 
BRANCH  32  33
ATOM     33  C   UNL A   1      42.467  28.766  29.070  1.00  0.00     0.188 C 
BRANCH  33  34
ATOM     34  O   UNL A   1      41.495  29.129  30.029  1.00  0.00    -0.377 OA
BRANCH  34  35
ATOM     35  C   UNL A   1      40.276  29.649  29.523  1.00  0.00     0.188 C 
BRANCH  35  36
ATOM     36  C   UNL A   1      39.042  28.731  29.598  1.00  0.00     0.188 C 
BRANCH  36  37
ATOM     37  O   UNL A   1      38.112  29.091  30.613  1.00  0.00    -0.376 OA
BRANCH  37  38
ATOM     38  C   UNL A   1      36.867  29.657  30.229  1.00  0.00     0.202 C 
BRANCH  38  39
ATOM     39  C   UNL A   1      36.779  31.185  30.070  1.00  0.00     0.261 C 
BRANCH  39  40
ATOM     40  O   UNL A   1      37.689  31.963  30.861  1.00  0.00    -0.460 OA
BRANCH  40  41
ATOM     41  C   UNL A   1      37.520  33.301  30.894  1.00  0.00     0.338 C 
ATOM     42  O   UNL A   1      36.560  33.914  31.309  1.00  0.00    -0.246 OA
BRANCH  41  43
ATOM     43  C   UNL A   1      38.821  33.923  30.552  1.00  0.00     0.060 A 
ATOM     44  C   UNL A   1      38.995  34.441  29.262  1.00  0.00     0.016 A 
ATOM     45  C   UNL A   1      39.859  33.988  31.484  1.00  0.00     0.016 A 
ATOM     46  C   UNL A   1      40.225  34.977  28.881  1.00  0.00     0.010 A 
ATOM     47  C   UNL A   1      41.102  34.503  31.093  1.00  0.00     0.010 A 
ATOM     48  C   UNL A   1      41.302  34.958  29.777  1.00  0.00    -0.014 A 
BRANCH  48  49
ATOM     49  C   UNL A   1      42.673  35.202  29.258  1.00  0.00     0.031 A 
ATOM     50  C   UNL A   1      43.572  34.015  29.039  1.00  0.00     0.074 A 
ATOM     51  C   UNL A   1      43.096  36.435  28.930  1.00  0.00     0.049 A 
ATOM     52  N   UNL A   1      44.805  33.968  28.603  1.00  0.00    -0.248 NA
ATOM     53  C   UNL A   1      42.997  32.697  29.356  1.00  0.00     0.031 C 
ATOM     54  C   UNL A   1      42.308  37.659  29.045  1.00  0.00     0.029 A 
ATOM     55  N   UNL A   1      44.306  36.856  28.432  1.00  0.00    -0.354 N 
ATOM     56  C   UNL A   1      45.153  32.623  28.600  1.00  0.00     0.074 A 
ATOM     57  C   UNL A   1      44.016  31.888  29.109  1.00  0.00     0.031 C 
ATOM     58  C   UNL A   1      43.058  38.699  28.638  1.00  0.00     0.029 A 
ATOM     59  C   UNL A   1      44.388  38.217  28.264  1.00  0.00     0.049 A 
ATOM     60  H   UNL A   1      45.044  36.241  28.216  1.00  0.00     0.167 HD
ATOM     61  C   UNL A   1      46.312  32.048  28.199  1.00  0.00     0.037 A 
ATOM     62  C   UNL A   1      45.426  38.984  27.875  1.00  0.00     0.037 A 
ATOM     63  C   UNL A   1      47.444  32.780  27.695  1.00  0.00     0.049 A 
ATOM     64  C   UNL A   1      46.735  38.327  27.510  1.00  0.00     0.074 A 
ATOM     65  C   UNL A   1      48.660  32.290  27.250  1.00  0.00     0.029 A 
ATOM     66  N   UNL A   1      47.504  34.162  27.579  1.00  0.00    -0.354 N 
ATOM     67  N   UNL A   1      47.049  37.054  27.484  1.00  0.00    -0.248 NA
ATOM     68  C   UNL A   1      47.835  39.219  27.109  1.00  0.00     0.031 C 
ATOM     69  C   UNL A   1      49.478  33.377  26.927  1.00  0.00     0.029 A 
ATOM     70  C   UNL A   1      48.747  34.543  27.100  1.00  0.00     0.049 A 
ATOM     71  H   UNL A   1      46.772  34.779  27.804  1.00  0.00     0.167 HD
ATOM     72  C   UNL A   1      48.364  36.990  27.036  1.00  0.00     0.074 A 
ATOM     73  C   UNL A   1      48.784  38.353  26.785  1.00  0.00     0.031 C 
ATOM     74  C   UNL A   1      49.152  35.902  26.847  1.00  0.00     0.037 A 
BRANCH  61  75
ATOM     75  C   UNL A   1      46.427  30.557  28.326  1.00  0.00     0.064 A 
ATOM     76  C   UNL A   1      46.055  29.692  27.285  1.00  0.00     0.173 A 
ATOM     77  C   UNL A   1      46.943  29.985  29.498  1.00  0.00     0.173 A 
ATOM     78  F   UNL A   1      45.541  30.185  26.147  1.00  0.00    -0.203 F 
ATOM     79  C   UNL A   1      46.168  28.310  27.425  1.00  0.00     0.198 A 
ATOM     80  C   UNL A   1      47.087  28.605  29.621  1.00  0.00     0.198 A 
ATOM     81  F   UNL A   1      47.317  30.764  30.524  1.00  0.00    -0.203 F 
ATOM     82  F   UNL A   1      45.757  27.502  26.438  1.00  0.00    -0.200 F 
ATOM     83  C   UNL A   1      46.691  27.769  28.589  1.00  0.00     0.200 A 
ATOM     84  F   UNL A   1      47.607  28.085  30.743  1.00  0.00    -0.200 F 
ATOM     85  F   UNL A   1      46.808  26.441  28.719  1.00  0.00    -0.200 F 
ENDBRANCH  61  75
BRANCH  62  86
ATOM     86  C   UNL A   1      45.284  40.464  27.824  1.00  0.00     0.064 A 
ATOM     87  C   UNL A   1      44.774  41.107  26.686  1.00  0.00     0.173 A 
ATOM     88  C   UNL A   1      45.687  41.270  28.900  1.00  0.00     0.173 A 
ATOM     89  F   UNL A   1      44.402  40.386  25.619  1.00  0.00    -0.203 F 
ATOM     90  C   UNL A   1      44.696  42.498  26.619  1.00  0.00     0.198 A 
ATOM     91  C   UNL A   1      45.576  42.657  28.844  1.00  0.00     0.198 A 
ATOM     92  F   UNL A   1      46.186  40.707  30.010  1.00  0.00    -0.203 F 
ATOM     93  F   UNL A   1      44.259  43.088  25.498  1.00  0.00    -0.200 F 
ATOM     94  C   UNL A   1      45.090  43.271  27.700  1.00  0.00     0.200 A 
ATOM     95  F   UNL A   1      45.949  43.400  29.896  1.00  0.00    -0.200 F 
ATOM     96  F   UNL A   1      45.015  44.607  27.635  1.00  0.00    -0.200 F 
ENDBRANCH  62  86
BRANCH  74  97
ATOM     97  C   UNL A   1      50.533  36.132  26.299  1.00  0.00     0.064 A 
ATOM     98  C   UNL A   1      51.653  36.263  27.133  1.00  0.00     0.173 A 
ATOM     99  C   UNL A   1      50.744  36.190  24.911  1.00  0.00     0.173 A 
ATOM    100  F   UNL A   1      51.509  36.226  28.467  1.00  0.00    -0.203 F 
ATOM    101  C   UNL A   1      52.923  36.479  26.603  1.00  0.00     0.198 A 
ATOM    102  C   UNL A   1      52.019  36.369  24.383  1.00  0.00     0.198 A 
ATOM    103  F   UNL A   1      49.711  36.060  24.064  1.00  0.00    -0.203 F 
ATOM    104  F   UNL A   1      53.968  36.662  27.422  1.00  0.00    -0.200 F 
ATOM    105  C   UNL A   1      53.106  36.525  25.229  1.00  0.00     0.200 A 
ATOM    106  F   UNL A   1      52.196  36.392  23.054  1.00  0.00    -0.200 F 
ATOM    107  F   UNL A   1      54.329  36.727  24.720  1.00  0.00    -0.200 F 
ENDBRANCH  74  97
ENDBRANCH  48  49
ENDBRANCH  41  43
ENDBRANCH  40  41
ENDBRANCH  39  40
ENDBRANCH  38  39
ENDBRANCH  37  38
ENDBRANCH  36  37
ENDBRANCH  35  36
ENDBRANCH  34  35
ENDBRANCH  33  34
ENDBRANCH  32  33
ENDBRANCH  31  32
ENDBRANCH   1  31
TORSDOF 29
ENDMDL
MODEL 2
REMARK VINA RESULT:      -8.1      7.624     11.662
REMARK SMILES CCCCCCNC(=O)Oc1cccc(-c2ccc([C@@H](C)C(=O)OCCOCCOCCOCCOC(=O)c3ccc(-c4c5nc(c(-c6c(F)c(F)c(F)c(F)c6F)c6ccc([nH]6)c(-c6c(F)c(F)c(F)c(F)c6F)c6nc(c(-c7c(F)c(F)c(F)c(F)c7F)c7ccc4[nH]7)C=C6)C=C5)cc3)cc2)c1
REMARK SMILES IDX 26 1 25 2 24 3 22 4 23 5 20 6 21 7 19 8 16 9 17 10 103 11
REMARK SMILES IDX 18 12 102 13 15 14 11 15 12 16 104 17 13 18 14 19 10 20 8 21
REMARK SMILES IDX 7 22 9 24 6 25 5 26 4 27 3 28 2 29 1 30 27 31 28 32 29 33
REMARK SMILES IDX 30 34 31 35 32 36 33 37 34 38 35 39 36 40 37 41 38 42 39 43
REMARK SMILES IDX 40 44 101 45 41 46 100 47 42 48 43 49 44 50 94 51 45 52
REMARK SMILES IDX 99 53 93 54 95 55 46 56 98 57 92 58 91 59 47 61 79 62 59 63
REMARK SMILES IDX 78 64 60 65 63 66 77 67 96 68 61 69 62 70 76 72 97 73 64 74
REMARK SMILES IDX 48 75 49 76 57 77 50 78 51 79 55 80 58 81 52 82 53 83 56 84
REMARK SMILES IDX 54 85 80 86 81 87 89 88 82 89 83 90 87 91 90 92 84 93 85 94
REMARK SMILES IDX 88 95 86 96 65 97 66 98 74 99 67 100 68 101 72 102 75 103
REMARK SMILES IDX 69 104 70 105 73 106 71 107
REMARK H PARENT 7 23 95 60 63 71
REMARK Flexibility Score: inf
ROOT
ATOM      1  C   UNL A   1      43.136  26.653  27.368  1.00  0.00     0.202 C 
ENDROOT
BRANCH   1   2
ATOM      2  C   UNL A   1      42.097  26.464  26.245  1.00  0.00     0.261 C 
BRANCH   2   3
ATOM      3  O   UNL A   1      40.998  25.567  26.509  1.00  0.00    -0.463 OA
BRANCH   3   4
ATOM      4  C   UNL A   1      41.257  24.246  26.370  1.00  0.00     0.313 C 
ATOM      5  O   UNL A   1      42.234  23.813  25.760  1.00  0.00    -0.252 OA
BRANCH   4   6
ATOM      6  C   UNL A   1      40.238  23.287  26.987  1.00  0.00     0.126 C 
ATOM      7  C   UNL A   1      40.940  21.965  27.278  1.00  0.00     0.025 C 
BRANCH   6   8
ATOM      8  C   UNL A   1      38.864  23.058  26.353  1.00  0.00    -0.034 A 
ATOM      9  C   UNL A   1      36.321  22.488  25.148  1.00  0.00    -0.018 A 
ATOM     10  C   UNL A   1      36.591  23.728  25.756  1.00  0.00     0.009 A 
ATOM     11  C   UNL A   1      37.347  21.536  25.156  1.00  0.00     0.009 A 
ATOM     12  C   UNL A   1      37.840  24.012  26.345  1.00  0.00     0.005 A 
ATOM     13  C   UNL A   1      38.595  21.818  25.736  1.00  0.00     0.005 A 
BRANCH   9  14
ATOM     14  C   UNL A   1      35.037  22.217  24.463  1.00  0.00    -0.015 A 
ATOM     15  C   UNL A   1      33.200  22.857  22.994  1.00  0.00     0.133 A 
ATOM     16  C   UNL A   1      32.511  21.685  23.297  1.00  0.00     0.047 A 
ATOM     17  C   UNL A   1      34.446  23.135  23.571  1.00  0.00     0.056 A 
ATOM     18  C   UNL A   1      33.082  20.766  24.171  1.00  0.00     0.004 A 
ATOM     19  C   UNL A   1      34.329  21.032  24.746  1.00  0.00     0.009 A 
BRANCH  15  20
ATOM     20  O   UNL A   1      32.509  23.793  22.199  1.00  0.00    -0.410 OA
BRANCH  20  21
ATOM     21  C   UNL A   1      32.852  25.134  22.283  1.00  0.00     0.412 C 
ATOM     22  N   UNL A   1      31.977  25.875  23.033  1.00  0.00    -0.321 N 
ATOM     23  H   UNL A   1      32.210  26.822  23.166  1.00  0.00     0.167 HD
ATOM     24  O   UNL A   1      33.822  25.660  21.748  1.00  0.00    -0.224 OA
BRANCH  22  25
ATOM     25  C   UNL A   1      30.745  25.421  23.652  1.00  0.00     0.119 C 
BRANCH  25  26
ATOM     26  C   UNL A   1      29.752  26.561  23.884  1.00  0.00     0.021 C 
BRANCH  26  27
ATOM     27  C   UNL A   1      30.017  27.831  23.065  1.00  0.00     0.002 C 
BRANCH  27  28
ATOM     28  C   UNL A   1      30.371  29.085  23.874  1.00  0.00    -0.000 C 
BRANCH  28  29
ATOM     29  C   UNL A   1      31.494  28.913  24.901  1.00  0.00    -0.003 C 
ATOM     30  C   UNL A   1      32.862  29.314  24.375  1.00  0.00     0.004 C 
ENDBRANCH  28  29
ENDBRANCH  27  28
ENDBRANCH  26  27
ENDBRANCH  25  26
ENDBRANCH  22  25
ENDBRANCH  20  21
ENDBRANCH  15  20
ENDBRANCH   9  14
ENDBRANCH   6   8
ENDBRANCH   4   6
ENDBRANCH   3   4
ENDBRANCH   2   3
ENDBRANCH   1   2
BRANCH   1  31
ATOM     31  O   UNL A   1      43.097  25.858  28.544  1.00  0.00    -0.376 OA
BRANCH  31  32
ATOM     32  C   UNL A   1      43.177  26.459  29.829  1.00  0.00     0.188 C 
BRANCH  32  33
ATOM     33  C   UNL A   1      43.087  27.983  30.000  1.00  0.00     0.188 C 
BRANCH  33  34
ATOM     34  O   UNL A   1      41.931  28.445  30.670  1.00  0.00    -0.377 OA
BRANCH  34  35
ATOM     35  C   UNL A   1      41.248  29.533  30.069  1.00  0.00     0.188 C 
BRANCH  35  36
ATOM     36  C   UNL A   1      40.531  29.256  28.735  1.00  0.00     0.188 C 
BRANCH  36  37
ATOM     37  O   UNL A   1      39.336  28.495  28.866  1.00  0.00    -0.376 OA
BRANCH  37  38
ATOM     38  C   UNL A   1      38.243  28.788  28.007  1.00  0.00     0.202 C 
BRANCH  38  39
ATOM     39  C   UNL A   1      37.221  29.844  28.463  1.00  0.00     0.261 C 
BRANCH  39  40
ATOM     40  O   UNL A   1      36.868  29.834  29.854  1.00  0.00    -0.460 OA
BRANCH  40  41
ATOM     41  C   UNL A   1      36.641  31.016  30.462  1.00  0.00     0.338 C 
ATOM     42  O   UNL A   1      35.760  31.813  30.221  1.00  0.00    -0.246 OA
BRANCH  41  43
ATOM     43  C   UNL A   1      37.518  31.079  31.655  1.00  0.00     0.060 A 
ATOM     44  C   UNL A   1      38.745  31.748  31.547  1.00  0.00     0.016 A 
ATOM     45  C   UNL A   1      37.145  30.481  32.861  1.00  0.00     0.016 A 
ATOM     46  C   UNL A   1      39.626  31.774  32.627  1.00  0.00     0.010 A 
ATOM     47  C   UNL A   1      38.041  30.487  33.937  1.00  0.00     0.010 A 
ATOM     48  C   UNL A   1      39.303  31.096  33.809  1.00  0.00    -0.014 A 
BRANCH  48  49
ATOM     49  C   UNL A   1      40.374  30.837  34.806  1.00  0.00     0.031 A 
ATOM     50  C   UNL A   1      40.579  31.843  35.907  1.00  0.00     0.074 A 
ATOM     51  C   UNL A   1      41.109  29.712  34.779  1.00  0.00     0.049 A 
ATOM     52  N   UNL A   1      41.446  31.846  36.888  1.00  0.00    -0.248 NA
ATOM     53  C   UNL A   1      39.678  33.008  35.899  1.00  0.00     0.031 C 
ATOM     54  C   UNL A   1      40.975  28.637  33.800  1.00  0.00     0.029 A 
ATOM     55  N   UNL A   1      42.122  29.291  35.608  1.00  0.00    -0.354 N 
ATOM     56  C   UNL A   1      41.199  33.009  37.605  1.00  0.00     0.074 A 
ATOM     57  C   UNL A   1      40.126  33.706  36.931  1.00  0.00     0.031 C 
ATOM     58  C   UNL A   1      41.881  27.682  34.077  1.00  0.00     0.029 A 
ATOM     59  C   UNL A   1      42.677  28.093  35.233  1.00  0.00     0.049 A 
ATOM     60  H   UNL A   1      42.421  29.801  36.395  1.00  0.00     0.167 HD
ATOM     61  C   UNL A   1      41.805  33.454  38.733  1.00  0.00     0.037 A 
ATOM     62  C   UNL A   1      43.722  27.419  35.753  1.00  0.00     0.037 A 
ATOM     63  C   UNL A   1      42.874  32.762  39.402  1.00  0.00     0.049 A 
ATOM     64  C   UNL A   1      44.435  27.975  36.962  1.00  0.00     0.074 A 
ATOM     65  C   UNL A   1      43.546  33.123  40.557  1.00  0.00     0.029 A 
ATOM     66  N   UNL A   1      43.438  31.571  38.968  1.00  0.00    -0.354 N 
ATOM     67  N   UNL A   1      44.180  29.061  37.651  1.00  0.00    -0.248 NA
ATOM     68  C   UNL A   1      45.578  27.202  37.472  1.00  0.00     0.031 C 
ATOM     69  C   UNL A   1      44.558  32.185  40.786  1.00  0.00     0.029 A 
ATOM     70  C   UNL A   1      44.470  31.199  39.815  1.00  0.00     0.049 A 
ATOM     71  H   UNL A   1      43.148  31.065  38.176  1.00  0.00     0.167 HD
ATOM     72  C   UNL A   1      45.105  29.085  38.689  1.00  0.00     0.074 A 
ATOM     73  C   UNL A   1      45.917  27.894  38.549  1.00  0.00     0.031 C 
ATOM     74  C   UNL A   1      45.267  30.008  39.670  1.00  0.00     0.037 A 
BRANCH  61  75
ATOM     75  C   UNL A   1      41.349  34.771  39.292  1.00  0.00     0.064 A 
ATOM     76  C   UNL A   1      41.916  35.989  38.883  1.00  0.00     0.173 A 
ATOM     77  C   UNL A   1      40.308  34.818  40.232  1.00  0.00     0.173 A 
ATOM     78  F   UNL A   1      42.926  36.000  37.998  1.00  0.00    -0.203 F 
ATOM     79  C   UNL A   1      41.479  37.199  39.417  1.00  0.00     0.198 A 
ATOM     80  C   UNL A   1      39.851  36.032  40.736  1.00  0.00     0.198 A 
ATOM     81  F   UNL A   1      39.728  33.686  40.655  1.00  0.00    -0.203 F 
ATOM     82  F   UNL A   1      42.072  38.344  39.051  1.00  0.00    -0.200 F 
ATOM     83  C   UNL A   1      40.442  37.219  40.336  1.00  0.00     0.200 A 
ATOM     84  F   UNL A   1      38.838  36.051  41.615  1.00  0.00    -0.200 F 
ATOM     85  F   UNL A   1      40.016  38.385  40.842  1.00  0.00    -0.200 F 
ENDBRANCH  61  75
BRANCH  62  86
ATOM     86  C   UNL A   1      44.178  26.147  35.127  1.00  0.00     0.064 A 
ATOM     87  C   UNL A   1      43.768  24.902  35.626  1.00  0.00     0.173 A 
ATOM     88  C   UNL A   1      45.061  26.151  34.036  1.00  0.00     0.173 A 
ATOM     89  F   UNL A   1      42.948  24.843  36.686  1.00  0.00    -0.203 F 
ATOM     90  C   UNL A   1      44.241  23.713  35.074  1.00  0.00     0.198 A 
ATOM     91  C   UNL A   1      45.506  24.961  33.464  1.00  0.00     0.198 A 
ATOM     92  F   UNL A   1      45.489  27.313  33.523  1.00  0.00    -0.203 F 
ATOM     93  F   UNL A   1      43.879  22.539  35.608  1.00  0.00    -0.200 F 
ATOM     94  C   UNL A   1      45.105  23.743  33.990  1.00  0.00     0.200 A 
ATOM     95  F   UNL A   1      46.332  24.996  32.409  1.00  0.00    -0.200 F 
ATOM     96  F   UNL A   1      45.560  22.600  33.460  1.00  0.00    -0.200 F 
ENDBRANCH  62  86
BRANCH  74  97
ATOM     97  C   UNL A   1      46.330  29.746  40.701  1.00  0.00     0.064 A 
ATOM     98  C   UNL A   1      46.099  28.929  41.818  1.00  0.00     0.173 A 
ATOM     99  C   UNL A   1      47.613  30.297  40.551  1.00  0.00     0.173 A 
ATOM    100  F   UNL A   1      44.888  28.384  42.016  1.00  0.00    -0.203 F 
ATOM    101  C   UNL A   1      47.097  28.703  42.762  1.00  0.00     0.198 A 
ATOM    102  C   UNL A   1      48.621  30.039  41.477  1.00  0.00     0.198 A 
ATOM    103  F   UNL A   1      47.895  31.077  39.497  1.00  0.00    -0.203 F 
ATOM    104  F   UNL A   1      46.834  27.968  43.851  1.00  0.00    -0.200 F 
ATOM    105  C   UNL A   1      48.359  29.252  42.587  1.00  0.00     0.200 A 
ATOM    106  F   UNL A   1      49.845  30.554  41.295  1.00  0.00    -0.200 F 
ATOM    107  F   UNL A   1      49.321  29.029  43.494  1.00  0.00    -0.200 F 
ENDBRANCH  74  97
ENDBRANCH  48  49
ENDBRANCH  41  43
ENDBRANCH  40  41
ENDBRANCH  39  40
ENDBRANCH  38  39
ENDBRANCH  37  38
ENDBRANCH  36  37
ENDBRANCH  35  36
ENDBRANCH  34  35
ENDBRANCH  33  34
ENDBRANCH  32  33
ENDBRANCH  31  32
ENDBRANCH   1  31
TORSDOF 29
ENDMDL
MODEL 3
REMARK VINA RESULT:      -7.8      8.436     14.575
REMARK SMILES CCCCCCNC(=O)Oc1cccc(-c2ccc([C@@H](C)C(=O)OCCOCCOCCOCCOC(=O)c3ccc(-c4c5nc(c(-c6c(F)c(F)c(F)c(F)c6F)c6ccc([nH]6)c(-c6c(F)c(F)c(F)c(F)c6F)c6nc(c(-c7c(F)c(F)c(F)c(F)c7F)c7ccc4[nH]7)C=C6)C=C5)cc3)cc2)c1
REMARK SMILES IDX 26 1 25 2 24 3 22 4 23 5 20 6 21 7 19 8 16 9 17 10 103 11
REMARK SMILES IDX 18 12 102 13 15 14 11 15 12 16 104 17 13 18 14 19 10 20 8 21
REMARK SMILES IDX 7 22 9 24 6 25 5 26 4 27 3 28 2 29 1 30 27 31 28 32 29 33
REMARK SMILES IDX 30 34 31 35 32 36 33 37 34 38 35 39 36 40 37 41 38 42 39 43
REMARK SMILES IDX 40 44 101 45 41 46 100 47 42 48 43 49 44 50 94 51 45 52
REMARK SMILES IDX 99 53 93 54 95 55 46 56 98 57 92 58 91 59 47 61 79 62 59 63
REMARK SMILES IDX 78 64 60 65 63 66 77 67 96 68 61 69 62 70 76 72 97 73 64 74
REMARK SMILES IDX 48 75 49 76 57 77 50 78 51 79 55 80 58 81 52 82 53 83 56 84
REMARK SMILES IDX 54 85 80 86 81 87 89 88 82 89 83 90 87 91 90 92 84 93 85 94
REMARK SMILES IDX 88 95 86 96 65 97 66 98 74 99 67 100 68 101 72 102 75 103
REMARK SMILES IDX 69 104 70 105 73 106 71 107
REMARK H PARENT 7 23 95 60 63 71
REMARK Flexibility Score: inf
ROOT
ATOM      1  C   UNL A   1      50.531  22.474  33.797  1.00  0.00     0.202 C 
ENDROOT
BRANCH   1   2
ATOM      2  C   UNL A   1      49.716  21.183  34.008  1.00  0.00     0.261 C 
BRANCH   2   3
ATOM      3  O   UNL A   1      48.565  21.265  34.875  1.00  0.00    -0.463 OA
BRANCH   3   4
ATOM      4  C   UNL A   1      47.538  20.433  34.585  1.00  0.00     0.313 C 
ATOM      5  O   UNL A   1      47.596  19.572  33.709  1.00  0.00    -0.252 OA
BRANCH   4   6
ATOM      6  C   UNL A   1      46.253  20.639  35.389  1.00  0.00     0.126 C 
ATOM      7  C   UNL A   1      45.355  19.425  35.176  1.00  0.00     0.025 C 
BRANCH   6   8
ATOM      8  C   UNL A   1      45.453  21.940  35.306  1.00  0.00    -0.034 A 
ATOM      9  C   UNL A   1      43.992  24.413  35.286  1.00  0.00    -0.018 A 
ATOM     10  C   UNL A   1      44.176  23.652  34.117  1.00  0.00     0.009 A 
ATOM     11  C   UNL A   1      44.554  23.914  36.467  1.00  0.00     0.009 A 
ATOM     12  C   UNL A   1      44.889  22.436  34.124  1.00  0.00     0.005 A 
ATOM     13  C   UNL A   1      45.259  22.699  36.479  1.00  0.00     0.005 A 
BRANCH   9  14
ATOM     14  C   UNL A   1      43.178  25.650  35.293  1.00  0.00    -0.015 A 
ATOM     15  C   UNL A   1      41.966  27.438  34.168  1.00  0.00     0.133 A 
ATOM     16  C   UNL A   1      41.746  28.091  35.378  1.00  0.00     0.047 A 
ATOM     17  C   UNL A   1      42.679  26.235  34.112  1.00  0.00     0.056 A 
ATOM     18  C   UNL A   1      42.227  27.525  36.554  1.00  0.00     0.004 A 
ATOM     19  C   UNL A   1      42.935  26.319  36.509  1.00  0.00     0.009 A 
BRANCH  15  20
ATOM     20  O   UNL A   1      41.556  28.130  33.010  1.00  0.00    -0.410 OA
BRANCH  20  21
ATOM     21  C   UNL A   1      40.694  29.210  33.138  1.00  0.00     0.412 C 
ATOM     22  N   UNL A   1      39.450  28.980  32.613  1.00  0.00    -0.321 N 
ATOM     23  H   UNL A   1      38.788  29.698  32.730  1.00  0.00     0.167 HD
ATOM     24  O   UNL A   1      40.971  30.290  33.648  1.00  0.00    -0.224 OA
BRANCH  22  25
ATOM     25  C   UNL A   1      38.999  27.796  31.903  1.00  0.00     0.119 C 
BRANCH  25  26
ATOM     26  C   UNL A   1      38.132  28.137  30.690  1.00  0.00     0.021 C 
BRANCH  26  27
ATOM     27  C   UNL A   1      37.283  29.407  30.833  1.00  0.00     0.002 C 
BRANCH  27  28
ATOM     28  C   UNL A   1      36.417  29.770  29.621  1.00  0.00    -0.000 C 
BRANCH  28  29
ATOM     29  C   UNL A   1      36.256  31.268  29.349  1.00  0.00    -0.003 C 
ATOM     30  C   UNL A   1      35.833  31.582  27.923  1.00  0.00     0.004 C 
ENDBRANCH  28  29
ENDBRANCH  27  28
ENDBRANCH  26  27
ENDBRANCH  25  26
ENDBRANCH  22  25
ENDBRANCH  20  21
ENDBRANCH  15  20
ENDBRANCH   9  14
ENDBRANCH   6   8
ENDBRANCH   4   6
ENDBRANCH   3   4
ENDBRANCH   2   3
ENDBRANCH   1   2
BRANCH   1  31
ATOM     31  O   UNL A   1      50.907  22.899  32.495  1.00  0.00    -0.376 OA
BRANCH  31  32
ATOM     32  C   UNL A   1      50.716  24.247  32.088  1.00  0.00     0.188 C 
BRANCH  32  33
ATOM     33  C   UNL A   1      51.911  25.190  31.884  1.00  0.00     0.188 C 
BRANCH  33  34
ATOM     34  O   UNL A   1      51.576  26.517  31.533  1.00  0.00    -0.377 OA
BRANCH  34  35
ATOM     35  C   UNL A   1      52.163  27.021  30.345  1.00  0.00     0.188 C 
BRANCH  35  36
ATOM     36  C   UNL A   1      51.812  26.298  29.032  1.00  0.00     0.188 C 
BRANCH  36  37
ATOM     37  O   UNL A   1      50.415  26.217  28.770  1.00  0.00    -0.376 OA
BRANCH  37  38
ATOM     38  C   UNL A   1      49.903  25.041  28.159  1.00  0.00     0.202 C 
BRANCH  38  39
ATOM     39  C   UNL A   1      48.639  25.163  27.290  1.00  0.00     0.261 C 
BRANCH  39  40
ATOM     40  O   UNL A   1      47.691  26.167  27.679  1.00  0.00    -0.460 OA
BRANCH  40  41
ATOM     41  C   UNL A   1      46.475  25.765  28.103  1.00  0.00     0.338 C 
ATOM     42  O   UNL A   1      45.720  24.993  27.554  1.00  0.00    -0.246 OA
BRANCH  41  43
ATOM     43  C   UNL A   1      46.308  26.247  29.494  1.00  0.00     0.060 A 
ATOM     44  C   UNL A   1      47.258  27.137  30.011  1.00  0.00     0.016 A 
ATOM     45  C   UNL A   1      45.237  25.823  30.284  1.00  0.00     0.016 A 
ATOM     46  C   UNL A   1      47.172  27.565  31.336  1.00  0.00     0.010 A 
ATOM     47  C   UNL A   1      45.165  26.232  31.622  1.00  0.00     0.010 A 
ATOM     48  C   UNL A   1      46.157  27.069  32.164  1.00  0.00    -0.014 A 
BRANCH  48  49
ATOM     49  C   UNL A   1      46.276  27.250  33.635  1.00  0.00     0.031 A 
ATOM     50  C   UNL A   1      45.616  28.451  34.260  1.00  0.00     0.074 A 
ATOM     51  C   UNL A   1      46.898  26.345  34.410  1.00  0.00     0.049 A 
ATOM     52  N   UNL A   1      45.582  28.829  35.511  1.00  0.00    -0.248 NA
ATOM     53  C   UNL A   1      44.895  29.347  33.341  1.00  0.00     0.031 C 
ATOM     54  C   UNL A   1      47.530  25.117  33.937  1.00  0.00     0.029 A 
ATOM     55  N   UNL A   1      47.099  26.328  35.770  1.00  0.00    -0.354 N 
ATOM     56  C   UNL A   1      44.844  30.006  35.529  1.00  0.00     0.074 A 
ATOM     57  C   UNL A   1      44.478  30.300  34.162  1.00  0.00     0.031 C 
ATOM     58  C   UNL A   1      48.060  24.468  34.989  1.00  0.00     0.029 A 
ATOM     59  C   UNL A   1      47.831  25.251  36.204  1.00  0.00     0.049 A 
ATOM     60  H   UNL A   1      46.751  27.023  36.375  1.00  0.00     0.167 HD
ATOM     61  C   UNL A   1      44.494  30.770  36.592  1.00  0.00     0.037 A 
ATOM     62  C   UNL A   1      48.281  24.945  37.438  1.00  0.00     0.037 A 
ATOM     63  C   UNL A   1      44.860  30.479  37.952  1.00  0.00     0.049 A 
ATOM     64  C   UNL A   1      47.945  25.856  38.594  1.00  0.00     0.074 A 
ATOM     65  C   UNL A   1      44.543  31.184  39.101  1.00  0.00     0.029 A 
ATOM     66  N   UNL A   1      45.638  29.401  38.348  1.00  0.00    -0.354 N 
ATOM     67  N   UNL A   1      47.226  26.952  38.609  1.00  0.00    -0.248 NA
ATOM     68  C   UNL A   1      48.479  25.478  39.912  1.00  0.00     0.031 C 
ATOM     69  C   UNL A   1      45.182  30.569  40.182  1.00  0.00     0.029 A 
ATOM     70  C   UNL A   1      45.837  29.438  39.718  1.00  0.00     0.049 A 
ATOM     71  H   UNL A   1      45.995  28.711  37.744  1.00  0.00     0.167 HD
ATOM     72  C   UNL A   1      47.193  27.374  39.933  1.00  0.00     0.074 A 
ATOM     73  C   UNL A   1      47.952  26.406  40.697  1.00  0.00     0.031 C 
ATOM     74  C   UNL A   1      46.588  28.464  40.469  1.00  0.00     0.037 A 
BRANCH  61  75
ATOM     75  C   UNL A   1      43.702  32.017  36.318  1.00  0.00     0.064 A 
ATOM     76  C   UNL A   1      42.302  32.044  36.415  1.00  0.00     0.173 A 
ATOM     77  C   UNL A   1      44.357  33.210  35.979  1.00  0.00     0.173 A 
ATOM     78  F   UNL A   1      41.624  30.926  36.721  1.00  0.00    -0.203 F 
ATOM     79  C   UNL A   1      41.587  33.211  36.155  1.00  0.00     0.198 A 
ATOM     80  C   UNL A   1      43.641  34.383  35.753  1.00  0.00     0.198 A 
ATOM     81  F   UNL A   1      45.694  33.242  35.874  1.00  0.00    -0.203 F 
ATOM     82  F   UNL A   1      40.247  33.199  36.202  1.00  0.00    -0.200 F 
ATOM     83  C   UNL A   1      42.258  34.380  35.832  1.00  0.00     0.200 A 
ATOM     84  F   UNL A   1      44.293  35.516  35.455  1.00  0.00    -0.200 F 
ATOM     85  F   UNL A   1      41.570  35.505  35.590  1.00  0.00    -0.200 F 
ENDBRANCH  61  75
BRANCH  62  86
ATOM     86  C   UNL A   1      49.115  23.732  37.650  1.00  0.00     0.064 A 
ATOM     87  C   UNL A   1      50.470  23.707  37.289  1.00  0.00     0.173 A 
ATOM     88  C   UNL A   1      48.564  22.558  38.189  1.00  0.00     0.173 A 
ATOM     89  F   UNL A   1      51.037  24.792  36.744  1.00  0.00    -0.203 F 
ATOM     90  C   UNL A   1      51.234  22.550  37.437  1.00  0.00     0.198 A 
ATOM     91  C   UNL A   1      49.339  21.414  38.367  1.00  0.00     0.198 A 
ATOM     92  F   UNL A   1      47.272  22.525  38.546  1.00  0.00    -0.203 F 
ATOM     93  F   UNL A   1      52.511  22.538  37.030  1.00  0.00    -0.200 F 
ATOM     94  C   UNL A   1      50.670  21.407  37.982  1.00  0.00     0.200 A 
ATOM     95  F   UNL A   1      48.791  20.314  38.905  1.00  0.00    -0.200 F 
ATOM     96  F   UNL A   1      51.405  20.296  38.123  1.00  0.00    -0.200 F 
ENDBRANCH  62  86
BRANCH  74  97
ATOM     97  C   UNL A   1      46.679  28.646  41.960  1.00  0.00     0.064 A 
ATOM     98  C   UNL A   1      47.717  29.374  42.559  1.00  0.00     0.173 A 
ATOM     99  C   UNL A   1      45.691  28.107  42.800  1.00  0.00     0.173 A 
ATOM    100  F   UNL A   1      48.693  29.903  41.805  1.00  0.00    -0.203 F 
ATOM    101  C   UNL A   1      47.782  29.526  43.942  1.00  0.00     0.198 A 
ATOM    102  C   UNL A   1      45.739  28.291  44.179  1.00  0.00     0.198 A 
ATOM    103  F   UNL A   1      44.668  27.409  42.281  1.00  0.00    -0.203 F 
ATOM    104  F   UNL A   1      48.816  30.175  44.495  1.00  0.00    -0.200 F 
ATOM    105  C   UNL A   1      46.790  28.991  44.749  1.00  0.00     0.200 A 
ATOM    106  F   UNL A   1      44.767  27.791  44.955  1.00  0.00    -0.200 F 
ATOM    107  F   UNL A   1      46.851  29.143  46.080  1.00  0.00    -0.200 F 
ENDBRANCH  74  97
ENDBRANCH  48  49
ENDBRANCH  41  43
ENDBRANCH  40  41
ENDBRANCH  39  40
ENDBRANCH  38  39
ENDBRANCH  37  38
ENDBRANCH  36  37
ENDBRANCH  35  36
ENDBRANCH  34  35
ENDBRANCH  33  34
ENDBRANCH  32  33
ENDBRANCH  31  32
ENDBRANCH   1  31
TORSDOF 29
ENDMDL
