MODEL 1
REMARK VINA RESULT:      -7.4      0.000      0.000
REMARK SMILES CCCCCCC(=O)N[C@@H](C)C(=O)OCCOCCOCCOCCOC(=O)c1ccc(-c2c3nc(c(-c4c(F)c(F)c(F)c(F)c4F)c4ccc([nH]4)c(-c4c(F)c(F)c(F)c(F)c4F)c4nc(c(-c5c(F)c(F)c(F)c(F)c5F)c5ccc2[nH]5)C=C4)C=C3)cc1
REMARK SMILES IDX 18 1 17 2 16 3 15 4 14 5 12 6 13 7 10 8 11 9 9 10 7 11 8 12
REMARK SMILES IDX 6 14 5 15 4 16 3 17 2 18 1 19 19 20 20 21 21 22 22 23 23 24
REMARK SMILES IDX 24 25 25 26 26 27 27 28 28 29 29 30 30 31 91 32 31 33 90 34
REMARK SMILES IDX 32 35 33 36 34 37 84 38 35 39 89 40 83 41 85 42 36 43 88 44
REMARK SMILES IDX 82 45 81 46 37 48 69 49 49 50 68 51 50 52 53 53 67 54 86 55
REMARK SMILES IDX 51 56 52 57 66 59 87 60 54 61 38 62 39 63 47 64 40 65 41 66
REMARK SMILES IDX 45 67 48 68 42 69 43 70 46 71 44 72 70 73 71 74 79 75 72 76
REMARK SMILES IDX 73 77 77 78 80 79 74 80 75 81 78 82 76 83 55 84 56 85 64 86
REMARK SMILES IDX 57 87 58 88 62 89 65 90 59 91 60 92 63 93 61 94
REMARK H PARENT 9 13 85 47 53 58
REMARK Flexibility Score: inf
ROOT
ATOM      1  C   UNL A   1      54.289  23.062  34.089  1.00  0.00     0.188 C 
ENDROOT
BRANCH   1   2
ATOM      2  O   UNL A   1      54.735  21.841  34.652  1.00  0.00    -0.376 OA
BRANCH   2   3
ATOM      3  C   UNL A   1      53.822  20.947  35.273  1.00  0.00     0.202 C 
BRANCH   3   4
ATOM      4  C   UNL A   1      52.921  19.981  34.481  1.00  0.00     0.261 C 
BRANCH   4   5
ATOM      5  O   UNL A   1      51.521  20.312  34.433  1.00  0.00    -0.462 OA
BRANCH   5   6
ATOM      6  C   UNL A   1      50.721  19.575  35.232  1.00  0.00     0.328 C 
ATOM      7  O   UNL A   1      51.110  18.603  35.874  1.00  0.00    -0.250 OA
BRANCH   6   8
ATOM      8  C   UNL A   1      49.266  20.076  35.358  1.00  0.00     0.189 C 
ATOM      9  C   UNL A   1      49.234  21.470  34.740  1.00  0.00     0.043 C 
BRANCH   8  10
ATOM     10  N   UNL A   1      48.432  20.102  36.560  1.00  0.00    -0.343 N 
ATOM     11  C   UNL A   1      47.060  20.131  36.642  1.00  0.00     0.220 C 
ATOM     12  O   UNL A   1      46.555  20.524  37.697  1.00  0.00    -0.275 OA
ATOM     13  H   UNL A   1      48.913  20.099  37.419  1.00  0.00     0.164 HD
BRANCH  11  14
ATOM     14  C   UNL A   1      46.161  19.557  35.535  1.00  0.00     0.100 C 
BRANCH  14  15
ATOM     15  C   UNL A   1      45.100  20.429  34.861  1.00  0.00     0.010 C 
BRANCH  15  16
ATOM     16  C   UNL A   1      45.300  21.951  34.858  1.00  0.00     0.001 C 
BRANCH  16  17
ATOM     17  C   UNL A   1      44.053  22.797  35.183  1.00  0.00    -0.000 C 
BRANCH  17  18
ATOM     18  C   UNL A   1      43.478  23.573  34.005  1.00  0.00    -0.003 C 
ATOM     19  C   UNL A   1      44.325  23.420  32.752  1.00  0.00     0.004 C 
ENDBRANCH  17  18
ENDBRANCH  16  17
ENDBRANCH  15  16
ENDBRANCH  14  15
ENDBRANCH  11  14
ENDBRANCH   8  10
ENDBRANCH   6   8
ENDBRANCH   5   6
ENDBRANCH   4   5
ENDBRANCH   3   4
ENDBRANCH   2   3
ENDBRANCH   1   2
BRANCH   1  20
ATOM     20  C   UNL A   1      54.251  23.237  32.565  1.00  0.00     0.188 C 
BRANCH  20  21
ATOM     21  O   UNL A   1      53.530  24.353  32.096  1.00  0.00    -0.377 OA
BRANCH  21  22
ATOM     22  C   UNL A   1      54.123  25.633  32.214  1.00  0.00     0.188 C 
BRANCH  22  23
ATOM     23  C   UNL A   1      53.357  26.753  32.942  1.00  0.00     0.188 C 
BRANCH  23  24
ATOM     24  O   UNL A   1      51.979  26.838  32.613  1.00  0.00    -0.376 OA
BRANCH  24  25
ATOM     25  C   UNL A   1      51.023  26.766  33.662  1.00  0.00     0.202 C 
BRANCH  25  26
ATOM     26  C   UNL A   1      49.676  26.082  33.369  1.00  0.00     0.261 C 
BRANCH  26  27
ATOM     27  O   UNL A   1      49.084  25.333  34.443  1.00  0.00    -0.460 OA
BRANCH  27  28
ATOM     28  C   UNL A   1      48.642  26.004  35.525  1.00  0.00     0.338 C 
ATOM     29  O   UNL A   1      49.236  26.177  36.577  1.00  0.00    -0.246 OA
BRANCH  28  30
ATOM     30  C   UNL A   1      47.384  26.690  35.157  1.00  0.00     0.060 A 
ATOM     31  C   UNL A   1      46.189  25.960  35.174  1.00  0.00     0.016 A 
ATOM     32  C   UNL A   1      47.377  28.042  34.804  1.00  0.00     0.016 A 
ATOM     33  C   UNL A   1      44.991  26.563  34.792  1.00  0.00     0.010 A 
ATOM     34  C   UNL A   1      46.180  28.640  34.397  1.00  0.00     0.010 A 
ATOM     35  C   UNL A   1      44.989  27.893  34.350  1.00  0.00    -0.014 A 
BRANCH  35  36
ATOM     36  C   UNL A   1      43.794  28.420  33.645  1.00  0.00     0.031 A 
ATOM     37  C   UNL A   1      43.593  28.042  32.202  1.00  0.00     0.074 A 
ATOM     38  C   UNL A   1      42.879  29.177  34.277  1.00  0.00     0.049 A 
ATOM     39  N   UNL A   1      42.637  28.382  31.375  1.00  0.00    -0.248 NA
ATOM     40  C   UNL A   1      44.612  27.161  31.613  1.00  0.00     0.031 C 
ATOM     41  C   UNL A   1      42.936  29.577  35.680  1.00  0.00     0.029 A 
ATOM     42  N   UNL A   1      41.720  29.747  33.809  1.00  0.00    -0.354 N 
ATOM     43  C   UNL A   1      42.945  27.761  30.170  1.00  0.00     0.074 A 
ATOM     44  C   UNL A   1      44.192  27.055  30.363  1.00  0.00     0.031 C 
ATOM     45  C   UNL A   1      41.863  30.339  35.958  1.00  0.00     0.029 A 
ATOM     46  C   UNL A   1      41.062  30.505  34.746  1.00  0.00     0.049 A 
ATOM     47  H   UNL A   1      41.393  29.624  32.888  1.00  0.00     0.167 HD
ATOM     48  C   UNL A   1      42.245  27.771  29.011  1.00  0.00     0.037 A 
ATOM     49  C   UNL A   1      39.953  31.260  34.628  1.00  0.00     0.037 A 
ATOM     50  C   UNL A   1      41.006  28.478  28.819  1.00  0.00     0.049 A 
ATOM     51  C   UNL A   1      39.230  31.315  33.304  1.00  0.00     0.074 A 
ATOM     52  C   UNL A   1      40.210  28.534  27.689  1.00  0.00     0.029 A 
ATOM     53  N   UNL A   1      40.389  29.265  29.782  1.00  0.00    -0.354 N 
ATOM     54  N   UNL A   1      39.508  30.700  32.180  1.00  0.00    -0.248 NA
ATOM     55  C   UNL A   1      38.032  32.165  33.239  1.00  0.00     0.031 C 
ATOM     56  C   UNL A   1      39.149  29.408  27.945  1.00  0.00     0.029 A 
ATOM     57  C   UNL A   1      39.240  29.837  29.259  1.00  0.00     0.049 A 
ATOM     58  H   UNL A   1      40.719  29.398  30.700  1.00  0.00     0.167 HD
ATOM     59  C   UNL A   1      38.507  31.062  31.286  1.00  0.00     0.074 A 
ATOM     60  C   UNL A   1      37.603  31.935  32.006  1.00  0.00     0.031 C 
ATOM     61  C   UNL A   1      38.347  30.703  29.987  1.00  0.00     0.037 A 
BRANCH  48  62
ATOM     62  C   UNL A   1      42.826  27.022  27.844  1.00  0.00     0.064 A 
ATOM     63  C   UNL A   1      43.732  27.619  26.954  1.00  0.00     0.173 A 
ATOM     64  C   UNL A   1      42.490  25.676  27.631  1.00  0.00     0.173 A 
ATOM     65  F   UNL A   1      44.074  28.908  27.103  1.00  0.00    -0.203 F 
ATOM     66  C   UNL A   1      44.255  26.906  25.878  1.00  0.00     0.198 A 
ATOM     67  C   UNL A   1      43.042  24.956  26.575  1.00  0.00     0.198 A 
ATOM     68  F   UNL A   1      41.630  25.054  28.453  1.00  0.00    -0.203 F 
ATOM     69  F   UNL A   1      45.075  27.514  25.009  1.00  0.00    -0.200 F 
ATOM     70  C   UNL A   1      43.916  25.574  25.694  1.00  0.00     0.200 A 
ATOM     71  F   UNL A   1      42.725  23.665  26.408  1.00  0.00    -0.200 F 
ATOM     72  F   UNL A   1      44.427  24.887  24.663  1.00  0.00    -0.200 F 
ENDBRANCH  48  62
BRANCH  49  73
ATOM     73  C   UNL A   1      39.457  32.045  35.793  1.00  0.00     0.064 A 
ATOM     74  C   UNL A   1      38.454  31.544  36.633  1.00  0.00     0.173 A 
ATOM     75  C   UNL A   1      39.958  33.326  36.070  1.00  0.00     0.173 A 
ATOM     76  F   UNL A   1      37.922  30.336  36.396  1.00  0.00    -0.203 F 
ATOM     77  C   UNL A   1      37.954  32.302  37.691  1.00  0.00     0.198 A 
ATOM     78  C   UNL A   1      39.482  34.070  37.147  1.00  0.00     0.198 A 
ATOM     79  F   UNL A   1      40.916  33.855  35.295  1.00  0.00    -0.203 F 
ATOM     80  F   UNL A   1      36.956  31.821  38.445  1.00  0.00    -0.200 F 
ATOM     81  C   UNL A   1      38.473  33.562  37.951  1.00  0.00     0.200 A 
ATOM     82  F   UNL A   1      39.997  35.279  37.403  1.00  0.00    -0.200 F 
ATOM     83  F   UNL A   1      37.996  34.288  38.970  1.00  0.00    -0.200 F 
ENDBRANCH  49  73
BRANCH  61  84
ATOM     84  C   UNL A   1      37.129  31.219  29.270  1.00  0.00     0.064 A 
ATOM     85  C   UNL A   1      36.023  30.398  28.999  1.00  0.00     0.173 A 
ATOM     86  C   UNL A   1      37.057  32.563  28.871  1.00  0.00     0.173 A 
ATOM     87  F   UNL A   1      36.042  29.103  29.349  1.00  0.00    -0.203 F 
ATOM     88  C   UNL A   1      34.911  30.892  28.321  1.00  0.00     0.198 A 
ATOM     89  C   UNL A   1      35.928  33.064  28.228  1.00  0.00     0.198 A 
ATOM     90  F   UNL A   1      38.080  33.397  29.113  1.00  0.00    -0.203 F 
ATOM     91  F   UNL A   1      33.896  30.074  28.016  1.00  0.00    -0.200 F 
ATOM     92  C   UNL A   1      34.862  32.225  27.942  1.00  0.00     0.200 A 
ATOM     93  F   UNL A   1      35.875  34.358  27.880  1.00  0.00    -0.200 F 
ATOM     94  F   UNL A   1      33.790  32.700  27.292  1.00  0.00    -0.200 F 
ENDBRANCH  61  84
ENDBRANCH  35  36
ENDBRANCH  28  30
ENDBRANCH  27  28
ENDBRANCH  26  27
ENDBRANCH  25  26
ENDBRANCH  24  25
ENDBRANCH  23  24
ENDBRANCH  22  23
ENDBRANCH  21  22
ENDBRANCH  20  21
ENDBRANCH   1  20
TORSDOF 26
ENDMDL
MODEL 2
REMARK VINA RESULT:      -7.0      8.061     15.473
REMARK SMILES CCCCCCC(=O)N[C@@H](C)C(=O)OCCOCCOCCOCCOC(=O)c1ccc(-c2c3nc(c(-c4c(F)c(F)c(F)c(F)c4F)c4ccc([nH]4)c(-c4c(F)c(F)c(F)c(F)c4F)c4nc(c(-c5c(F)c(F)c(F)c(F)c5F)c5ccc2[nH]5)C=C4)C=C3)cc1
REMARK SMILES IDX 18 1 17 2 16 3 15 4 14 5 12 6 13 7 10 8 11 9 9 10 7 11 8 12
REMARK SMILES IDX 6 14 5 15 4 16 3 17 2 18 1 19 19 20 20 21 21 22 22 23 23 24
REMARK SMILES IDX 24 25 25 26 26 27 27 28 28 29 29 30 30 31 91 32 31 33 90 34
REMARK SMILES IDX 32 35 33 36 34 37 84 38 35 39 89 40 83 41 85 42 36 43 88 44
REMARK SMILES IDX 82 45 81 46 37 48 69 49 49 50 68 51 50 52 53 53 67 54 86 55
REMARK SMILES IDX 51 56 52 57 66 59 87 60 54 61 38 62 39 63 47 64 40 65 41 66
REMARK SMILES IDX 45 67 48 68 42 69 43 70 46 71 44 72 70 73 71 74 79 75 72 76
REMARK SMILES IDX 73 77 77 78 80 79 74 80 75 81 78 82 76 83 55 84 56 85 64 86
REMARK SMILES IDX 57 87 58 88 62 89 65 90 59 91 60 92 63 93 61 94
REMARK H PARENT 9 13 85 47 53 58
REMARK Flexibility Score: inf
ROOT
ATOM      1  C   UNL A   1      36.660  30.260  27.973  1.00  0.00     0.188 C 
ENDROOT
BRANCH   1   2
ATOM      2  O   UNL A   1      35.559  29.378  27.843  1.00  0.00    -0.376 OA
BRANCH   2   3
ATOM      3  C   UNL A   1      34.248  29.877  27.614  1.00  0.00     0.202 C 
BRANCH   3   4
ATOM      4  C   UNL A   1      33.356  29.396  26.453  1.00  0.00     0.261 C 
BRANCH   4   5
ATOM      5  O   UNL A   1      34.034  28.767  25.349  1.00  0.00    -0.462 OA
BRANCH   5   6
ATOM      6  C   UNL A   1      33.784  27.452  25.185  1.00  0.00     0.328 C 
ATOM      7  O   UNL A   1      33.606  26.672  26.118  1.00  0.00    -0.250 OA
BRANCH   6   8
ATOM      8  C   UNL A   1      33.656  26.977  23.722  1.00  0.00     0.189 C 
ATOM      9  C   UNL A   1      33.363  28.221  22.889  1.00  0.00     0.043 C 
BRANCH   8  10
ATOM     10  N   UNL A   1      32.825  25.889  23.206  1.00  0.00    -0.343 N 
ATOM     11  C   UNL A   1      31.603  25.462  23.666  1.00  0.00     0.220 C 
ATOM     12  O   UNL A   1      31.238  24.323  23.359  1.00  0.00    -0.275 OA
ATOM     13  H   UNL A   1      33.187  25.401  22.431  1.00  0.00     0.164 HD
BRANCH  11  14
ATOM     14  C   UNL A   1      30.634  26.397  24.406  1.00  0.00     0.100 C 
BRANCH  14  15
ATOM     15  C   UNL A   1      29.424  26.997  23.686  1.00  0.00     0.010 C 
BRANCH  15  16
ATOM     16  C   UNL A   1      29.374  28.518  23.486  1.00  0.00     0.001 C 
BRANCH  16  17
ATOM     17  C   UNL A   1      29.835  29.035  22.109  1.00  0.00    -0.000 C 
BRANCH  17  18
ATOM     18  C   UNL A   1      29.466  30.482  21.809  1.00  0.00    -0.003 C 
ATOM     19  C   UNL A   1      28.052  30.610  21.265  1.00  0.00     0.004 C 
ENDBRANCH  17  18
ENDBRANCH  16  17
ENDBRANCH  15  16
ENDBRANCH  14  15
ENDBRANCH  11  14
ENDBRANCH   8  10
ENDBRANCH   6   8
ENDBRANCH   5   6
ENDBRANCH   4   5
ENDBRANCH   3   4
ENDBRANCH   2   3
ENDBRANCH   1   2
BRANCH   1  20
ATOM     20  C   UNL A   1      37.825  29.903  28.904  1.00  0.00     0.188 C 
BRANCH  20  21
ATOM     21  O   UNL A   1      38.209  28.547  28.908  1.00  0.00    -0.377 OA
BRANCH  21  22
ATOM     22  C   UNL A   1      39.528  28.222  28.508  1.00  0.00     0.188 C 
BRANCH  22  23
ATOM     23  C   UNL A   1      39.769  26.952  27.671  1.00  0.00     0.188 C 
BRANCH  23  24
ATOM     24  O   UNL A   1      38.916  25.863  27.989  1.00  0.00    -0.376 OA
BRANCH  24  25
ATOM     25  C   UNL A   1      39.042  24.661  27.243  1.00  0.00     0.202 C 
BRANCH  25  26
ATOM     26  C   UNL A   1      40.329  23.834  27.414  1.00  0.00     0.261 C 
BRANCH  26  27
ATOM     27  O   UNL A   1      41.092  23.569  26.225  1.00  0.00    -0.460 OA
BRANCH  27  28
ATOM     28  C   UNL A   1      42.392  23.242  26.358  1.00  0.00     0.338 C 
ATOM     29  O   UNL A   1      42.891  22.137  26.224  1.00  0.00    -0.246 OA
BRANCH  28  30
ATOM     30  C   UNL A   1      43.168  24.496  26.488  1.00  0.00     0.060 A 
ATOM     31  C   UNL A   1      43.400  25.267  25.341  1.00  0.00     0.016 A 
ATOM     32  C   UNL A   1      43.657  24.915  27.727  1.00  0.00     0.016 A 
ATOM     33  C   UNL A   1      44.162  26.431  25.420  1.00  0.00     0.010 A 
ATOM     34  C   UNL A   1      44.443  26.070  27.802  1.00  0.00     0.010 A 
ATOM     35  C   UNL A   1      44.733  26.811  26.643  1.00  0.00    -0.014 A 
BRANCH  35  36
ATOM     36  C   UNL A   1      45.794  27.849  26.655  1.00  0.00     0.031 A 
ATOM     37  C   UNL A   1      45.391  29.280  26.887  1.00  0.00     0.074 A 
ATOM     38  C   UNL A   1      47.093  27.530  26.514  1.00  0.00     0.049 A 
ATOM     39  N   UNL A   1      46.129  30.359  26.933  1.00  0.00    -0.248 NA
ATOM     40  C   UNL A   1      43.955  29.524  27.094  1.00  0.00     0.031 C 
ATOM     41  C   UNL A   1      47.617  26.180  26.325  1.00  0.00     0.029 A 
ATOM     42  N   UNL A   1      48.210  28.330  26.502  1.00  0.00    -0.354 N 
ATOM     43  C   UNL A   1      45.247  31.408  27.168  1.00  0.00     0.074 A 
ATOM     44  C   UNL A   1      43.919  30.842  27.218  1.00  0.00     0.031 C 
ATOM     45  C   UNL A   1      48.955  26.246  26.206  1.00  0.00     0.029 A 
ATOM     46  C   UNL A   1      49.377  27.644  26.279  1.00  0.00     0.049 A 
ATOM     47  H   UNL A   1      48.175  29.304  26.642  1.00  0.00     0.167 HD
ATOM     48  C   UNL A   1      45.524  32.723  27.336  1.00  0.00     0.037 A 
ATOM     49  C   UNL A   1      50.637  28.098  26.130  1.00  0.00     0.037 A 
ATOM     50  C   UNL A   1      46.847  33.286  27.281  1.00  0.00     0.049 A 
ATOM     51  C   UNL A   1      50.910  29.578  26.248  1.00  0.00     0.074 A 
ATOM     52  C   UNL A   1      47.234  34.602  27.458  1.00  0.00     0.029 A 
ATOM     53  N   UNL A   1      48.002  32.563  27.016  1.00  0.00    -0.354 N 
ATOM     54  N   UNL A   1      50.077  30.559  26.503  1.00  0.00    -0.248 NA
ATOM     55  C   UNL A   1      52.303  30.010  26.066  1.00  0.00     0.031 C 
ATOM     56  C   UNL A   1      48.611  34.687  27.234  1.00  0.00     0.029 A 
ATOM     57  C   UNL A   1      49.097  33.413  26.991  1.00  0.00     0.049 A 
ATOM     58  H   UNL A   1      48.039  31.590  26.866  1.00  0.00     0.167 HD
ATOM     59  C   UNL A   1      50.847  31.716  26.542  1.00  0.00     0.074 A 
ATOM     60  C   UNL A   1      52.217  31.311  26.305  1.00  0.00     0.031 C 
ATOM     61  C   UNL A   1      50.457  32.997  26.757  1.00  0.00     0.037 A 
BRANCH  48  62
ATOM     62  C   UNL A   1      44.363  33.652  27.558  1.00  0.00     0.064 A 
ATOM     63  C   UNL A   1      43.827  34.432  26.522  1.00  0.00     0.173 A 
ATOM     64  C   UNL A   1      43.762  33.742  28.823  1.00  0.00     0.173 A 
ATOM     65  F   UNL A   1      44.374  34.396  25.297  1.00  0.00    -0.203 F 
ATOM     66  C   UNL A   1      42.753  35.288  26.752  1.00  0.00     0.198 A 
ATOM     67  C   UNL A   1      42.666  34.572  29.040  1.00  0.00     0.198 A 
ATOM     68  F   UNL A   1      44.233  33.016  29.849  1.00  0.00    -0.203 F 
ATOM     69  F   UNL A   1      42.293  36.064  25.760  1.00  0.00    -0.200 F 
ATOM     70  C   UNL A   1      42.168  35.351  28.008  1.00  0.00     0.200 A 
ATOM     71  F   UNL A   1      42.094  34.620  30.251  1.00  0.00    -0.200 F 
ATOM     72  F   UNL A   1      41.129  36.170  28.225  1.00  0.00    -0.200 F 
ENDBRANCH  48  62
BRANCH  49  73
ATOM     73  C   UNL A   1      51.744  27.147  25.837  1.00  0.00     0.064 A 
ATOM     74  C   UNL A   1      52.511  26.584  26.866  1.00  0.00     0.173 A 
ATOM     75  C   UNL A   1      52.075  26.804  24.516  1.00  0.00     0.173 A 
ATOM     76  F   UNL A   1      52.254  26.899  28.143  1.00  0.00    -0.203 F 
ATOM     77  C   UNL A   1      53.581  25.735  26.586  1.00  0.00     0.198 A 
ATOM     78  C   UNL A   1      53.123  25.929  24.239  1.00  0.00     0.198 A 
ATOM     79  F   UNL A   1      51.376  27.317  23.494  1.00  0.00    -0.203 F 
ATOM     80  F   UNL A   1      54.332  25.255  27.585  1.00  0.00    -0.200 F 
ATOM     81  C   UNL A   1      53.881  25.403  25.273  1.00  0.00     0.200 A 
ATOM     82  F   UNL A   1      53.400  25.601  22.970  1.00  0.00    -0.200 F 
ATOM     83  F   UNL A   1      54.907  24.584  25.004  1.00  0.00    -0.200 F 
ENDBRANCH  49  73
BRANCH  61  84
ATOM     84  C   UNL A   1      51.529  34.052  26.789  1.00  0.00     0.064 A 
ATOM     85  C   UNL A   1      52.221  34.374  27.967  1.00  0.00     0.173 A 
ATOM     86  C   UNL A   1      51.888  34.735  25.615  1.00  0.00     0.173 A 
ATOM     87  F   UNL A   1      51.913  33.760  29.119  1.00  0.00    -0.203 F 
ATOM     88  C   UNL A   1      53.200  35.365  27.977  1.00  0.00     0.198 A 
ATOM     89  C   UNL A   1      52.893  35.697  25.621  1.00  0.00     0.198 A 
ATOM     90  F   UNL A   1      51.267  34.463  24.457  1.00  0.00    -0.203 F 
ATOM     91  F   UNL A   1      53.800  35.699  29.127  1.00  0.00    -0.200 F 
ATOM     92  C   UNL A   1      53.540  36.021  26.804  1.00  0.00     0.200 A 
ATOM     93  F   UNL A   1      53.234  36.317  24.481  1.00  0.00    -0.200 F 
ATOM     94  F   UNL A   1      54.485  36.971  26.814  1.00  0.00    -0.200 F 
ENDBRANCH  61  84
ENDBRANCH  35  36
ENDBRANCH  28  30
ENDBRANCH  27  28
ENDBRANCH  26  27
ENDBRANCH  25  26
ENDBRANCH  24  25
ENDBRANCH  23  24
ENDBRANCH  22  23
ENDBRANCH  21  22
ENDBRANCH  20  21
ENDBRANCH   1  20
TORSDOF 26
ENDMDL
MODEL 3
REMARK VINA RESULT:      -6.8      7.210     14.533
REMARK SMILES CCCCCCC(=O)N[C@@H](C)C(=O)OCCOCCOCCOCCOC(=O)c1ccc(-c2c3nc(c(-c4c(F)c(F)c(F)c(F)c4F)c4ccc([nH]4)c(-c4c(F)c(F)c(F)c(F)c4F)c4nc(c(-c5c(F)c(F)c(F)c(F)c5F)c5ccc2[nH]5)C=C4)C=C3)cc1
REMARK SMILES IDX 18 1 17 2 16 3 15 4 14 5 12 6 13 7 10 8 11 9 9 10 7 11 8 12
REMARK SMILES IDX 6 14 5 15 4 16 3 17 2 18 1 19 19 20 20 21 21 22 22 23 23 24
REMARK SMILES IDX 24 25 25 26 26 27 27 28 28 29 29 30 30 31 91 32 31 33 90 34
REMARK SMILES IDX 32 35 33 36 34 37 84 38 35 39 89 40 83 41 85 42 36 43 88 44
REMARK SMILES IDX 82 45 81 46 37 48 69 49 49 50 68 51 50 52 53 53 67 54 86 55
REMARK SMILES IDX 51 56 52 57 66 59 87 60 54 61 38 62 39 63 47 64 40 65 41 66
REMARK SMILES IDX 45 67 48 68 42 69 43 70 46 71 44 72 70 73 71 74 79 75 72 76
REMARK SMILES IDX 73 77 77 78 80 79 74 80 75 81 78 82 76 83 55 84 56 85 64 86
REMARK SMILES IDX 57 87 58 88 62 89 65 90 59 91 60 92 63 93 61 94
REMARK H PARENT 9 13 85 47 53 58
REMARK Flexibility Score: inf
ROOT
ATOM      1  C   UNL A   1      43.056  22.618  25.862  1.00  0.00     0.188 C 
ENDROOT
BRANCH   1   2
ATOM      2  O   UNL A   1      42.780  21.293  25.442  1.00  0.00    -0.376 OA
BRANCH   2   3
ATOM      3  C   UNL A   1      41.640  20.597  25.925  1.00  0.00     0.202 C 
BRANCH   3   4
ATOM      4  C   UNL A   1      40.539  21.269  26.768  1.00  0.00     0.261 C 
BRANCH   4   5
ATOM      5  O   UNL A   1      39.667  22.176  26.069  1.00  0.00    -0.462 OA
BRANCH   5   6
ATOM      6  C   UNL A   1      38.528  21.635  25.590  1.00  0.00     0.328 C 
ATOM      7  O   UNL A   1      38.452  20.493  25.144  1.00  0.00    -0.250 OA
BRANCH   6   8
ATOM      8  C   UNL A   1      37.272  22.526  25.701  1.00  0.00     0.189 C 
ATOM      9  C   UNL A   1      37.761  23.913  26.104  1.00  0.00     0.043 C 
BRANCH   8  10
ATOM     10  N   UNL A   1      36.046  22.251  26.451  1.00  0.00    -0.343 N 
ATOM     11  C   UNL A   1      34.950  23.064  26.615  1.00  0.00     0.220 C 
ATOM     12  O   UNL A   1      34.196  22.829  27.564  1.00  0.00    -0.275 OA
ATOM     13  H   UNL A   1      35.999  21.373  26.894  1.00  0.00     0.164 HD
BRANCH  11  14
ATOM     14  C   UNL A   1      34.565  24.138  25.585  1.00  0.00     0.100 C 
BRANCH  14  15
ATOM     15  C   UNL A   1      33.932  23.745  24.248  1.00  0.00     0.010 C 
BRANCH  15  16
ATOM     16  C   UNL A   1      33.875  24.795  23.130  1.00  0.00     0.001 C 
BRANCH  16  17
ATOM     17  C   UNL A   1      32.678  24.691  22.165  1.00  0.00    -0.000 C 
BRANCH  17  18
ATOM     18  C   UNL A   1      31.386  25.315  22.674  1.00  0.00    -0.003 C 
ATOM     19  C   UNL A   1      30.484  24.292  23.347  1.00  0.00     0.004 C 
ENDBRANCH  17  18
ENDBRANCH  16  17
ENDBRANCH  15  16
ENDBRANCH  14  15
ENDBRANCH  11  14
ENDBRANCH   8  10
ENDBRANCH   6   8
ENDBRANCH   5   6
ENDBRANCH   4   5
ENDBRANCH   3   4
ENDBRANCH   2   3
ENDBRANCH   1   2
BRANCH   1  20
ATOM     20  C   UNL A   1      44.227  22.894  26.813  1.00  0.00     0.188 C 
BRANCH  20  21
ATOM     21  O   UNL A   1      45.092  23.938  26.431  1.00  0.00    -0.377 OA
BRANCH  21  22
ATOM     22  C   UNL A   1      44.742  24.720  25.304  1.00  0.00     0.188 C 
BRANCH  22  23
ATOM     23  C   UNL A   1      44.774  26.256  25.414  1.00  0.00     0.188 C 
BRANCH  23  24
ATOM     24  O   UNL A   1      43.497  26.868  25.521  1.00  0.00    -0.376 OA
BRANCH  24  25
ATOM     25  C   UNL A   1      42.350  26.114  25.156  1.00  0.00     0.202 C 
BRANCH  25  26
ATOM     26  C   UNL A   1      41.049  26.349  25.944  1.00  0.00     0.261 C 
BRANCH  26  27
ATOM     27  O   UNL A   1      41.103  27.306  27.014  1.00  0.00    -0.460 OA
BRANCH  27  28
ATOM     28  C   UNL A   1      40.742  26.908  28.249  1.00  0.00     0.338 C 
ATOM     29  O   UNL A   1      39.615  26.646  28.639  1.00  0.00    -0.246 OA
BRANCH  28  30
ATOM     30  C   UNL A   1      41.975  26.629  29.019  1.00  0.00     0.060 A 
ATOM     31  C   UNL A   1      42.538  27.659  29.784  1.00  0.00     0.016 A 
ATOM     32  C   UNL A   1      42.568  25.365  28.996  1.00  0.00     0.016 A 
ATOM     33  C   UNL A   1      43.723  27.443  30.487  1.00  0.00     0.010 A 
ATOM     34  C   UNL A   1      43.770  25.156  29.682  1.00  0.00     0.010 A 
ATOM     35  C   UNL A   1      44.374  26.205  30.398  1.00  0.00    -0.014 A 
BRANCH  35  36
ATOM     36  C   UNL A   1      45.775  26.088  30.871  1.00  0.00     0.031 A 
ATOM     37  C   UNL A   1      46.015  25.648  32.290  1.00  0.00     0.074 A 
ATOM     38  C   UNL A   1      46.818  26.317  30.052  1.00  0.00     0.049 A 
ATOM     39  N   UNL A   1      47.142  25.481  32.935  1.00  0.00    -0.248 NA
ATOM     40  C   UNL A   1      44.816  25.360  33.092  1.00  0.00     0.031 C 
ATOM     41  C   UNL A   1      46.720  26.706  28.648  1.00  0.00     0.029 A 
ATOM     42  N   UNL A   1      48.168  26.257  30.294  1.00  0.00    -0.354 N 
ATOM     43  C   UNL A   1      46.785  25.075  34.215  1.00  0.00     0.074 A 
ATOM     44  C   UNL A   1      45.341  25.056  34.268  1.00  0.00     0.031 C 
ATOM     45  C   UNL A   1      47.961  26.861  28.153  1.00  0.00     0.029 A 
ATOM     46  C   UNL A   1      48.938  26.612  29.213  1.00  0.00     0.049 A 
ATOM     47  H   UNL A   1      48.549  25.984  31.160  1.00  0.00     0.167 HD
ATOM     48  C   UNL A   1      47.591  24.738  35.250  1.00  0.00     0.037 A 
ATOM     49  C   UNL A   1      50.274  26.741  29.104  1.00  0.00     0.037 A 
ATOM     50  C   UNL A   1      49.030  24.761  35.197  1.00  0.00     0.049 A 
ATOM     51  C   UNL A   1      51.149  26.432  30.294  1.00  0.00     0.074 A 
ATOM     52  C   UNL A   1      49.936  24.419  36.185  1.00  0.00     0.029 A 
ATOM     53  N   UNL A   1      49.773  25.163  34.095  1.00  0.00    -0.354 N 
ATOM     54  N   UNL A   1      50.808  26.017  31.491  1.00  0.00    -0.248 NA
ATOM     55  C   UNL A   1      52.598  26.602  30.112  1.00  0.00     0.031 C 
ATOM     56  C   UNL A   1      51.223  24.678  35.705  1.00  0.00     0.029 A 
ATOM     57  C   UNL A   1      51.125  25.109  34.392  1.00  0.00     0.049 A 
ATOM     58  H   UNL A   1      49.395  25.445  33.231  1.00  0.00     0.167 HD
ATOM     59  C   UNL A   1      51.996  25.847  32.191  1.00  0.00     0.074 A 
ATOM     60  C   UNL A   1      53.069  26.184  31.279  1.00  0.00     0.031 C 
ATOM     61  C   UNL A   1      52.184  25.445  33.474  1.00  0.00     0.037 A 
BRANCH  48  62
ATOM     62  C   UNL A   1      46.932  24.351  36.544  1.00  0.00     0.064 A 
ATOM     63  C   UNL A   1      46.531  25.308  37.489  1.00  0.00     0.173 A 
ATOM     64  C   UNL A   1      46.675  23.001  36.830  1.00  0.00     0.173 A 
ATOM     65  F   UNL A   1      46.767  26.611  37.272  1.00  0.00    -0.203 F 
ATOM     66  C   UNL A   1      45.925  24.926  38.683  1.00  0.00     0.198 A 
ATOM     67  C   UNL A   1      46.037  22.626  38.009  1.00  0.00     0.198 A 
ATOM     68  F   UNL A   1      47.036  22.045  35.961  1.00  0.00    -0.203 F 
ATOM     69  F   UNL A   1      45.600  25.854  39.594  1.00  0.00    -0.200 F 
ATOM     70  C   UNL A   1      45.671  23.586  38.938  1.00  0.00     0.200 A 
ATOM     71  F   UNL A   1      45.780  21.332  38.246  1.00  0.00    -0.200 F 
ATOM     72  F   UNL A   1      45.079  23.221  40.084  1.00  0.00    -0.200 F 
ENDBRANCH  48  62
BRANCH  49  73
ATOM     73  C   UNL A   1      50.876  27.200  27.822  1.00  0.00     0.064 A 
ATOM     74  C   UNL A   1      51.186  26.295  26.797  1.00  0.00     0.173 A 
ATOM     75  C   UNL A   1      51.183  28.553  27.608  1.00  0.00     0.173 A 
ATOM     76  F   UNL A   1      50.938  24.987  26.962  1.00  0.00    -0.203 F 
ATOM     77  C   UNL A   1      51.798  26.720  25.620  1.00  0.00     0.198 A 
ATOM     78  C   UNL A   1      51.765  28.982  26.417  1.00  0.00     0.198 A 
ATOM     79  F   UNL A   1      50.913  29.461  28.557  1.00  0.00    -0.203 F 
ATOM     80  F   UNL A   1      52.133  25.825  24.681  1.00  0.00    -0.200 F 
ATOM     81  C   UNL A   1      52.081  28.064  25.428  1.00  0.00     0.200 A 
ATOM     82  F   UNL A   1      52.024  30.283  26.231  1.00  0.00    -0.200 F 
ATOM     83  F   UNL A   1      52.667  28.472  24.294  1.00  0.00    -0.200 F 
ENDBRANCH  49  73
BRANCH  61  84
ATOM     84  C   UNL A   1      53.603  25.306  33.956  1.00  0.00     0.064 A 
ATOM     85  C   UNL A   1      54.303  26.381  34.525  1.00  0.00     0.173 A 
ATOM     86  C   UNL A   1      54.263  24.070  33.868  1.00  0.00     0.173 A 
ATOM     87  F   UNL A   1      53.724  27.587  34.625  1.00  0.00    -0.203 F 
ATOM     88  C   UNL A   1      55.621  26.233  34.951  1.00  0.00     0.198 A 
ATOM     89  C   UNL A   1      55.567  23.916  34.330  1.00  0.00     0.198 A 
ATOM     90  F   UNL A   1      53.640  23.005  33.342  1.00  0.00    -0.203 F 
ATOM     91  F   UNL A   1      56.290  27.290  35.432  1.00  0.00    -0.200 F 
ATOM     92  C   UNL A   1      56.250  25.001  34.859  1.00  0.00     0.200 A 
ATOM     93  F   UNL A   1      56.166  22.719  34.259  1.00  0.00    -0.200 F 
ATOM     94  F   UNL A   1      57.517  24.860  35.273  1.00  0.00    -0.200 F 
ENDBRANCH  61  84
ENDBRANCH  35  36
ENDBRANCH  28  30
ENDBRANCH  27  28
ENDBRANCH  26  27
ENDBRANCH  25  26
ENDBRANCH  24  25
ENDBRANCH  23  24
ENDBRANCH  22  23
ENDBRANCH  21  22
ENDBRANCH  20  21
ENDBRANCH   1  20
TORSDOF 26
ENDMDL
