MODEL 1
REMARK VINA RESULT:     -10.0      0.000      0.000
REMARK SMILES C[C@@](NC(=O)c1cc(Br)c[nH]1)(C(=O)OCCOCCOCCOCCOC(=O)c1ccc(-c2c3nc(c(-c4c(F)c(F)c(F)c(F)c4F)c4ccc([nH]4)c(-c4c(F)c(F)c(F)c(F)c4F)c4nc(c(-c5c(F)c(F)c(F)c(F)c5F)c5ccc2[nH]5)C=C4)C=C3)cc1)C(F)(F)F
REMARK SMILES IDX 20 1 19 2 18 3 17 4 16 5 15 6 14 7 12 8 13 9 2 10 1 11 3 12
REMARK SMILES IDX 4 13 5 15 6 16 7 17 11 18 8 19 10 20 9 22 92 23 93 24 94 25
REMARK SMILES IDX 95 26 21 27 22 28 23 29 24 30 25 31 26 32 27 33 28 34 29 35
REMARK SMILES IDX 30 36 91 37 31 38 90 39 32 40 33 41 34 42 84 43 35 44 89 45
REMARK SMILES IDX 83 46 85 47 36 48 88 49 82 50 81 51 37 53 69 54 49 55 68 56
REMARK SMILES IDX 50 57 53 58 67 59 86 60 51 61 52 62 66 64 87 65 54 66 38 67
REMARK SMILES IDX 39 68 47 69 40 70 41 71 45 72 48 73 42 74 43 75 46 76 44 77
REMARK SMILES IDX 70 78 71 79 79 80 72 81 73 82 77 83 80 84 74 85 75 86 78 87
REMARK SMILES IDX 76 88 55 89 56 90 64 91 57 92 58 93 62 94 65 95 59 96 60 97
REMARK SMILES IDX 63 98 61 99
REMARK H PARENT 3 14 11 21 85 52 53 63
REMARK Flexibility Score: inf
ROOT
ATOM      1  O   UNL A   1      36.238  31.569  28.043  1.00  0.00    -0.377 OA
ENDROOT
BRANCH   1   2
ATOM      2  C   UNL A   1      35.129  30.724  28.295  1.00  0.00     0.188 C 
BRANCH   2   3
ATOM      3  C   UNL A   1      34.280  30.339  27.070  1.00  0.00     0.188 C 
BRANCH   3   4
ATOM      4  O   UNL A   1      34.095  28.940  26.905  1.00  0.00    -0.376 OA
BRANCH   4   5
ATOM      5  C   UNL A   1      32.871  28.365  27.333  1.00  0.00     0.202 C 
BRANCH   5   6
ATOM      6  C   UNL A   1      31.809  28.090  26.269  1.00  0.00     0.261 C 
BRANCH   6   7
ATOM      7  O   UNL A   1      32.206  27.468  25.034  1.00  0.00    -0.461 OA
BRANCH   7   8
ATOM      8  C   UNL A   1      31.304  27.113  24.088  1.00  0.00     0.341 C 
ATOM      9  O   UNL A   1      30.457  26.240  24.219  1.00  0.00    -0.249 OA
BRANCH   8  10
ATOM     10  C   UNL A   1      31.613  27.800  22.765  1.00  0.00     0.231 C 
ATOM     11  C   UNL A   1      32.946  28.577  22.768  1.00  0.00     0.058 C 
BRANCH  10  12
ATOM     12  N   UNL A   1      31.584  26.818  21.626  1.00  0.00    -0.328 N 
ATOM     13  C   UNL A   1      32.477  25.812  21.346  1.00  0.00     0.268 C 
ATOM     14  H   UNL A   1      30.829  26.908  21.001  1.00  0.00     0.165 HD
ATOM     15  O   UNL A   1      32.907  25.740  20.199  1.00  0.00    -0.268 OA
BRANCH  13  16
ATOM     16  C   UNL A   1      32.799  24.833  22.363  1.00  0.00     0.105 A 
ATOM     17  C   UNL A   1      33.992  24.682  23.062  1.00  0.00     0.049 A 
ATOM     18  N   UNL A   1      31.991  23.779  22.758  1.00  0.00    -0.356 N 
ATOM     19  C   UNL A   1      33.829  23.609  23.962  1.00  0.00     0.036 A 
ATOM     20  C   UNL A   1      32.582  23.078  23.780  1.00  0.00     0.098 A 
ATOM     21  H   UNL A   1      31.116  23.565  22.361  1.00  0.00     0.166 HD
ATOM     22  Br  UNL A   1      35.082  23.111  25.260  1.00  0.00    -0.049 Br
ENDBRANCH  13  16
ENDBRANCH  10  12
BRANCH  10  23
ATOM     23  C   UNL A   1      30.472  28.831  22.634  1.00  0.00     0.422 C 
ATOM     24  F   UNL A   1      30.671  29.708  21.626  1.00  0.00    -0.168 F 
ATOM     25  F   UNL A   1      29.296  28.200  22.376  1.00  0.00    -0.168 F 
ATOM     26  F   UNL A   1      30.281  29.543  23.768  1.00  0.00    -0.168 F 
ENDBRANCH  10  23
ENDBRANCH   8  10
ENDBRANCH   7   8
ENDBRANCH   6   7
ENDBRANCH   5   6
ENDBRANCH   4   5
ENDBRANCH   3   4
ENDBRANCH   2   3
ENDBRANCH   1   2
BRANCH   1  27
ATOM     27  C   UNL A   1      36.142  32.964  28.325  1.00  0.00     0.188 C 
BRANCH  27  28
ATOM     28  C   UNL A   1      34.787  33.698  28.371  1.00  0.00     0.188 C 
BRANCH  28  29
ATOM     29  O   UNL A   1      34.886  35.076  28.674  1.00  0.00    -0.376 OA
BRANCH  29  30
ATOM     30  C   UNL A   1      33.782  35.912  28.380  1.00  0.00     0.202 C 
BRANCH  30  31
ATOM     31  C   UNL A   1      32.904  36.397  29.542  1.00  0.00     0.261 C 
BRANCH  31  32
ATOM     32  O   UNL A   1      32.526  35.436  30.546  1.00  0.00    -0.460 OA
BRANCH  32  33
ATOM     33  C   UNL A   1      32.654  35.748  31.853  1.00  0.00     0.338 C 
ATOM     34  O   UNL A   1      31.879  36.396  32.535  1.00  0.00    -0.246 OA
BRANCH  33  35
ATOM     35  C   UNL A   1      33.813  34.981  32.378  1.00  0.00     0.060 A 
ATOM     36  C   UNL A   1      35.114  35.486  32.225  1.00  0.00     0.016 A 
ATOM     37  C   UNL A   1      33.606  33.787  33.072  1.00  0.00     0.016 A 
ATOM     38  C   UNL A   1      36.209  34.793  32.752  1.00  0.00     0.010 A 
ATOM     39  C   UNL A   1      34.705  33.078  33.567  1.00  0.00     0.010 A 
ATOM     40  C   UNL A   1      36.014  33.563  33.392  1.00  0.00    -0.014 A 
BRANCH  40  41
ATOM     41  C   UNL A   1      37.163  32.681  33.721  1.00  0.00     0.031 A 
ATOM     42  C   UNL A   1      37.924  32.955  34.989  1.00  0.00     0.074 A 
ATOM     43  C   UNL A   1      37.561  31.695  32.896  1.00  0.00     0.049 A 
ATOM     44  N   UNL A   1      39.059  32.458  35.405  1.00  0.00    -0.248 NA
ATOM     45  C   UNL A   1      37.321  33.935  35.910  1.00  0.00     0.031 C 
ATOM     46  C   UNL A   1      36.883  31.292  31.668  1.00  0.00     0.029 A 
ATOM     47  N   UNL A   1      38.663  30.873  32.958  1.00  0.00    -0.354 N 
ATOM     48  C   UNL A   1      39.322  33.084  36.617  1.00  0.00     0.074 A 
ATOM     49  C   UNL A   1      38.231  33.999  36.871  1.00  0.00     0.031 C 
ATOM     50  C   UNL A   1      37.605  30.327  31.069  1.00  0.00     0.029 A 
ATOM     51  C   UNL A   1      38.820  30.081  31.845  1.00  0.00     0.049 A 
ATOM     52  H   UNL A   1      39.280  30.854  33.724  1.00  0.00     0.167 HD
ATOM     53  C   UNL A   1      40.385  32.916  37.437  1.00  0.00     0.037 A 
ATOM     54  C   UNL A   1      39.851  29.293  31.473  1.00  0.00     0.037 A 
ATOM     55  C   UNL A   1      41.460  31.993  37.189  1.00  0.00     0.049 A 
ATOM     56  C   UNL A   1      41.062  29.183  32.372  1.00  0.00     0.074 A 
ATOM     57  C   UNL A   1      42.551  31.709  37.990  1.00  0.00     0.029 A 
ATOM     58  N   UNL A   1      41.587  31.220  36.046  1.00  0.00    -0.354 N 
ATOM     59  N   UNL A   1      41.284  29.741  33.538  1.00  0.00    -0.248 NA
ATOM     60  C   UNL A   1      42.171  28.340  31.898  1.00  0.00     0.031 C 
ATOM     61  C   UNL A   1      43.379  30.820  37.300  1.00  0.00     0.029 A 
ATOM     62  C   UNL A   1      42.768  30.496  36.100  1.00  0.00     0.049 A 
ATOM     63  H   UNL A   1      40.938  31.189  35.307  1.00  0.00     0.167 HD
ATOM     64  C   UNL A   1      42.539  29.299  33.943  1.00  0.00     0.074 A 
ATOM     65  C   UNL A   1      43.021  28.409  32.912  1.00  0.00     0.031 C 
ATOM     66  C   UNL A   1      43.231  29.605  35.069  1.00  0.00     0.037 A 
BRANCH  53  67
ATOM     67  C   UNL A   1      40.472  33.770  38.666  1.00  0.00     0.064 A 
ATOM     68  C   UNL A   1      39.846  33.414  39.868  1.00  0.00     0.173 A 
ATOM     69  C   UNL A   1      41.271  34.925  38.659  1.00  0.00     0.173 A 
ATOM     70  F   UNL A   1      39.061  32.327  39.924  1.00  0.00    -0.203 F 
ATOM     71  C   UNL A   1      40.010  34.186  41.016  1.00  0.00     0.198 A 
ATOM     72  C   UNL A   1      41.456  35.678  39.814  1.00  0.00     0.198 A 
ATOM     73  F   UNL A   1      41.893  35.309  37.533  1.00  0.00    -0.203 F 
ATOM     74  F   UNL A   1      39.380  33.842  42.147  1.00  0.00    -0.200 F 
ATOM     75  C   UNL A   1      40.824  35.309  40.990  1.00  0.00     0.200 A 
ATOM     76  F   UNL A   1      42.254  36.753  39.789  1.00  0.00    -0.200 F 
ATOM     77  F   UNL A   1      40.999  36.036  42.102  1.00  0.00    -0.200 F 
ENDBRANCH  53  67
BRANCH  54  78
ATOM     78  C   UNL A   1      39.832  28.592  30.158  1.00  0.00     0.064 A 
ATOM     79  C   UNL A   1      39.284  27.307  30.025  1.00  0.00     0.173 A 
ATOM     80  C   UNL A   1      40.428  29.162  29.023  1.00  0.00     0.173 A 
ATOM     81  F   UNL A   1      38.732  26.702  31.087  1.00  0.00    -0.203 F 
ATOM     82  C   UNL A   1      39.364  26.610  28.820  1.00  0.00     0.198 A 
ATOM     83  C   UNL A   1      40.473  28.479  27.809  1.00  0.00     0.198 A 
ATOM     84  F   UNL A   1      40.976  30.384  29.093  1.00  0.00    -0.203 F 
ATOM     85  F   UNL A   1      38.900  25.355  28.744  1.00  0.00    -0.200 F 
ATOM     86  C   UNL A   1      39.954  27.198  27.712  1.00  0.00     0.200 A 
ATOM     87  F   UNL A   1      41.037  29.057  26.739  1.00  0.00    -0.200 F 
ATOM     88  F   UNL A   1      40.041  26.522  26.558  1.00  0.00    -0.200 F 
ENDBRANCH  54  78
BRANCH  66  89
ATOM     89  C   UNL A   1      44.572  28.956  35.264  1.00  0.00     0.064 A 
ATOM     90  C   UNL A   1      44.704  27.719  35.911  1.00  0.00     0.173 A 
ATOM     91  C   UNL A   1      45.731  29.546  34.734  1.00  0.00     0.173 A 
ATOM     92  F   UNL A   1      43.630  27.119  36.447  1.00  0.00    -0.203 F 
ATOM     93  C   UNL A   1      45.949  27.107  36.038  1.00  0.00     0.198 A 
ATOM     94  C   UNL A   1      46.967  28.914  34.831  1.00  0.00     0.198 A 
ATOM     95  F   UNL A   1      45.659  30.723  34.096  1.00  0.00    -0.203 F 
ATOM     96  F   UNL A   1      46.058  25.944  36.697  1.00  0.00    -0.200 F 
ATOM     97  C   UNL A   1      47.077  27.698  35.489  1.00  0.00     0.200 A 
ATOM     98  F   UNL A   1      48.052  29.478  34.283  1.00  0.00    -0.200 F 
ATOM     99  F   UNL A   1      48.270  27.098  35.595  1.00  0.00    -0.200 F 
ENDBRANCH  66  89
ENDBRANCH  40  41
ENDBRANCH  33  35
ENDBRANCH  32  33
ENDBRANCH  31  32
ENDBRANCH  30  31
ENDBRANCH  29  30
ENDBRANCH  28  29
ENDBRANCH  27  28
ENDBRANCH   1  27
TORSDOF 23
ENDMDL
MODEL 2
REMARK VINA RESULT:      -9.9      3.595      8.877
REMARK SMILES C[C@@](NC(=O)c1cc(Br)c[nH]1)(C(=O)OCCOCCOCCOCCOC(=O)c1ccc(-c2c3nc(c(-c4c(F)c(F)c(F)c(F)c4F)c4ccc([nH]4)c(-c4c(F)c(F)c(F)c(F)c4F)c4nc(c(-c5c(F)c(F)c(F)c(F)c5F)c5ccc2[nH]5)C=C4)C=C3)cc1)C(F)(F)F
REMARK SMILES IDX 20 1 19 2 18 3 17 4 16 5 15 6 14 7 12 8 13 9 2 10 1 11 3 12
REMARK SMILES IDX 4 13 5 15 6 16 7 17 11 18 8 19 10 20 9 22 92 23 93 24 94 25
REMARK SMILES IDX 95 26 21 27 22 28 23 29 24 30 25 31 26 32 27 33 28 34 29 35
REMARK SMILES IDX 30 36 91 37 31 38 90 39 32 40 33 41 34 42 84 43 35 44 89 45
REMARK SMILES IDX 83 46 85 47 36 48 88 49 82 50 81 51 37 53 69 54 49 55 68 56
REMARK SMILES IDX 50 57 53 58 67 59 86 60 51 61 52 62 66 64 87 65 54 66 38 67
REMARK SMILES IDX 39 68 47 69 40 70 41 71 45 72 48 73 42 74 43 75 46 76 44 77
REMARK SMILES IDX 70 78 71 79 79 80 72 81 73 82 77 83 80 84 74 85 75 86 78 87
REMARK SMILES IDX 76 88 55 89 56 90 64 91 57 92 58 93 62 94 65 95 59 96 60 97
REMARK SMILES IDX 63 98 61 99
REMARK H PARENT 3 14 11 21 85 52 53 63
REMARK Flexibility Score: inf
ROOT
ATOM      1  O   UNL A   1      39.126  22.825  26.084  1.00  0.00    -0.377 OA
ENDROOT
BRANCH   1   2
ATOM      2  C   UNL A   1      38.032  23.720  26.173  1.00  0.00     0.188 C 
BRANCH   2   3
ATOM      3  C   UNL A   1      36.682  23.190  25.659  1.00  0.00     0.188 C 
BRANCH   3   4
ATOM      4  O   UNL A   1      35.862  24.177  25.048  1.00  0.00    -0.376 OA
BRANCH   4   5
ATOM      5  C   UNL A   1      35.024  23.789  23.972  1.00  0.00     0.202 C 
BRANCH   5   6
ATOM      6  C   UNL A   1      34.393  24.899  23.132  1.00  0.00     0.261 C 
BRANCH   6   7
ATOM      7  O   UNL A   1      33.563  25.878  23.782  1.00  0.00    -0.461 OA
BRANCH   7   8
ATOM      8  C   UNL A   1      32.434  26.357  23.207  1.00  0.00     0.341 C 
ATOM      9  O   UNL A   1      31.993  25.999  22.124  1.00  0.00    -0.249 OA
BRANCH   8  10
ATOM     10  C   UNL A   1      31.896  27.548  23.988  1.00  0.00     0.231 C 
ATOM     11  C   UNL A   1      30.385  27.787  23.787  1.00  0.00     0.058 C 
BRANCH  10  12
ATOM     12  N   UNL A   1      32.215  27.423  25.452  1.00  0.00    -0.328 N 
ATOM     13  C   UNL A   1      31.614  26.619  26.389  1.00  0.00     0.268 C 
ATOM     14  H   UNL A   1      32.948  27.992  25.781  1.00  0.00     0.165 HD
ATOM     15  O   UNL A   1      31.262  27.142  27.442  1.00  0.00    -0.268 OA
BRANCH  13  16
ATOM     16  C   UNL A   1      31.506  25.194  26.151  1.00  0.00     0.105 A 
ATOM     17  C   UNL A   1      32.502  24.230  26.250  1.00  0.00     0.049 A 
ATOM     18  N   UNL A   1      30.386  24.537  25.669  1.00  0.00    -0.356 N 
ATOM     19  C   UNL A   1      31.922  22.981  25.947  1.00  0.00     0.036 A 
ATOM     20  C   UNL A   1      30.611  23.183  25.613  1.00  0.00     0.098 A 
ATOM     21  H   UNL A   1      29.547  24.979  25.404  1.00  0.00     0.166 HD
ATOM     22  Br  UNL A   1      32.797  21.335  26.110  1.00  0.00    -0.049 Br
ENDBRANCH  13  16
ENDBRANCH  10  12
BRANCH  10  23
ATOM     23  C   UNL A   1      32.645  28.742  23.359  1.00  0.00     0.422 C 
ATOM     24  F   UNL A   1      33.808  28.382  22.772  1.00  0.00    -0.168 F 
ATOM     25  F   UNL A   1      31.882  29.318  22.393  1.00  0.00    -0.168 F 
ATOM     26  F   UNL A   1      32.921  29.715  24.257  1.00  0.00    -0.168 F 
ENDBRANCH  10  23
ENDBRANCH   8  10
ENDBRANCH   7   8
ENDBRANCH   6   7
ENDBRANCH   5   6
ENDBRANCH   4   5
ENDBRANCH   3   4
ENDBRANCH   2   3
ENDBRANCH   1   2
BRANCH   1  27
ATOM     27  C   UNL A   1      38.887  21.437  25.854  1.00  0.00     0.188 C 
BRANCH  27  28
ATOM     28  C   UNL A   1      40.036  20.413  25.760  1.00  0.00     0.188 C 
BRANCH  28  29
ATOM     29  O   UNL A   1      40.751  20.235  26.967  1.00  0.00    -0.376 OA
BRANCH  29  30
ATOM     30  C   UNL A   1      42.132  19.932  26.893  1.00  0.00     0.202 C 
BRANCH  30  31
ATOM     31  C   UNL A   1      42.998  20.712  25.892  1.00  0.00     0.261 C 
BRANCH  31  32
ATOM     32  O   UNL A   1      43.511  21.993  26.303  1.00  0.00    -0.460 OA
BRANCH  32  33
ATOM     33  C   UNL A   1      43.340  23.069  25.506  1.00  0.00     0.338 C 
ATOM     34  O   UNL A   1      43.399  23.101  24.289  1.00  0.00    -0.246 OA
BRANCH  33  35
ATOM     35  C   UNL A   1      42.855  24.181  26.363  1.00  0.00     0.060 A 
ATOM     36  C   UNL A   1      43.353  25.479  26.174  1.00  0.00     0.016 A 
ATOM     37  C   UNL A   1      41.864  23.947  27.319  1.00  0.00     0.016 A 
ATOM     38  C   UNL A   1      42.873  26.542  26.948  1.00  0.00     0.010 A 
ATOM     39  C   UNL A   1      41.410  25.004  28.116  1.00  0.00     0.010 A 
ATOM     40  C   UNL A   1      41.926  26.302  27.952  1.00  0.00    -0.014 A 
BRANCH  40  41
ATOM     41  C   UNL A   1      41.598  27.344  28.958  1.00  0.00     0.031 A 
ATOM     42  C   UNL A   1      42.374  27.350  30.247  1.00  0.00     0.074 A 
ATOM     43  C   UNL A   1      40.606  28.232  28.766  1.00  0.00     0.049 A 
ATOM     44  N   UNL A   1      42.162  28.026  31.346  1.00  0.00    -0.248 NA
ATOM     45  C   UNL A   1      43.547  26.461  30.304  1.00  0.00     0.031 C 
ATOM     46  C   UNL A   1      39.815  28.367  27.546  1.00  0.00     0.029 A 
ATOM     47  N   UNL A   1      40.071  29.169  29.620  1.00  0.00    -0.354 N 
ATOM     48  C   UNL A   1      43.152  27.623  32.232  1.00  0.00     0.074 A 
ATOM     49  C   UNL A   1      43.967  26.643  31.547  1.00  0.00     0.031 C 
ATOM     50  C   UNL A   1      38.869  29.304  27.742  1.00  0.00     0.029 A 
ATOM     51  C   UNL A   1      38.956  29.796  29.117  1.00  0.00     0.049 A 
ATOM     52  H   UNL A   1      40.450  29.372  30.505  1.00  0.00     0.167 HD
ATOM     53  C   UNL A   1      43.356  28.029  33.506  1.00  0.00     0.037 A 
ATOM     54  C   UNL A   1      38.077  30.627  29.717  1.00  0.00     0.037 A 
ATOM     55  C   UNL A   1      42.554  29.016  34.179  1.00  0.00     0.049 A 
ATOM     56  C   UNL A   1      38.285  31.004  31.166  1.00  0.00     0.074 A 
ATOM     57  C   UNL A   1      42.718  29.537  35.449  1.00  0.00     0.029 A 
ATOM     58  N   UNL A   1      41.427  29.617  33.640  1.00  0.00    -0.354 N 
ATOM     59  N   UNL A   1      39.248  30.656  31.985  1.00  0.00    -0.248 NA
ATOM     60  C   UNL A   1      37.275  31.882  31.779  1.00  0.00     0.031 C 
ATOM     61  C   UNL A   1      41.648  30.396  35.710  1.00  0.00     0.029 A 
ATOM     62  C   UNL A   1      40.857  30.465  34.575  1.00  0.00     0.049 A 
ATOM     63  H   UNL A   1      41.083  29.464  32.731  1.00  0.00     0.167 HD
ATOM     64  C   UNL A   1      38.975  31.290  33.192  1.00  0.00     0.074 A 
ATOM     65  C   UNL A   1      37.768  32.061  32.996  1.00  0.00     0.031 C 
ATOM     66  C   UNL A   1      39.660  31.236  34.362  1.00  0.00     0.037 A 
BRANCH  53  67
ATOM     67  C   UNL A   1      44.463  27.386  34.286  1.00  0.00     0.064 A 
ATOM     68  C   UNL A   1      44.288  26.174  34.968  1.00  0.00     0.173 A 
ATOM     69  C   UNL A   1      45.747  27.955  34.276  1.00  0.00     0.173 A 
ATOM     70  F   UNL A   1      43.078  25.597  35.020  1.00  0.00    -0.203 F 
ATOM     71  C   UNL A   1      45.356  25.560  35.618  1.00  0.00     0.198 A 
ATOM     72  C   UNL A   1      46.818  27.323  34.901  1.00  0.00     0.198 A 
ATOM     73  F   UNL A   1      45.968  29.114  33.636  1.00  0.00    -0.203 F 
ATOM     74  F   UNL A   1      45.160  24.415  36.288  1.00  0.00    -0.200 F 
ATOM     75  C   UNL A   1      46.621  26.128  35.573  1.00  0.00     0.200 A 
ATOM     76  F   UNL A   1      48.040  27.868  34.843  1.00  0.00    -0.200 F 
ATOM     77  F   UNL A   1      47.651  25.522  36.179  1.00  0.00    -0.200 F 
ENDBRANCH  53  67
BRANCH  54  78
ATOM     78  C   UNL A   1      36.874  31.115  28.984  1.00  0.00     0.064 A 
ATOM     79  C   UNL A   1      36.752  32.458  28.597  1.00  0.00     0.173 A 
ATOM     80  C   UNL A   1      35.791  30.263  28.719  1.00  0.00     0.173 A 
ATOM     81  F   UNL A   1      37.744  33.322  28.856  1.00  0.00    -0.203 F 
ATOM     82  C   UNL A   1      35.581  32.935  28.008  1.00  0.00     0.198 A 
ATOM     83  C   UNL A   1      34.636  30.733  28.096  1.00  0.00     0.198 A 
ATOM     84  F   UNL A   1      35.848  28.971  29.074  1.00  0.00    -0.203 F 
ATOM     85  F   UNL A   1      35.463  34.238  27.720  1.00  0.00    -0.200 F 
ATOM     86  C   UNL A   1      34.526  32.072  27.754  1.00  0.00     0.200 A 
ATOM     87  F   UNL A   1      33.623  29.892  27.845  1.00  0.00    -0.200 F 
ATOM     88  F   UNL A   1      33.398  32.534  27.199  1.00  0.00    -0.200 F 
ENDBRANCH  54  78
BRANCH  66  89
ATOM     89  C   UNL A   1      39.144  32.050  35.514  1.00  0.00     0.064 A 
ATOM     90  C   UNL A   1      38.310  31.494  36.494  1.00  0.00     0.173 A 
ATOM     91  C   UNL A   1      39.547  33.385  35.677  1.00  0.00     0.173 A 
ATOM     92  F   UNL A   1      37.885  30.227  36.379  1.00  0.00    -0.203 F 
ATOM     93  C   UNL A   1      37.883  32.249  37.584  1.00  0.00     0.198 A 
ATOM     94  C   UNL A   1      39.148  34.126  36.786  1.00  0.00     0.198 A 
ATOM     95  F   UNL A   1      40.353  33.964  34.774  1.00  0.00    -0.203 F 
ATOM     96  F   UNL A   1      37.053  31.709  38.487  1.00  0.00    -0.200 F 
ATOM     97  C   UNL A   1      38.311  33.560  37.735  1.00  0.00     0.200 A 
ATOM     98  F   UNL A   1      39.579  35.386  36.939  1.00  0.00    -0.200 F 
ATOM     99  F   UNL A   1      37.915  34.278  38.794  1.00  0.00    -0.200 F 
ENDBRANCH  66  89
ENDBRANCH  40  41
ENDBRANCH  33  35
ENDBRANCH  32  33
ENDBRANCH  31  32
ENDBRANCH  30  31
ENDBRANCH  29  30
ENDBRANCH  28  29
ENDBRANCH  27  28
ENDBRANCH   1  27
TORSDOF 23
ENDMDL
MODEL 3
REMARK VINA RESULT:      -9.8      3.070      8.568
REMARK SMILES C[C@@](NC(=O)c1cc(Br)c[nH]1)(C(=O)OCCOCCOCCOCCOC(=O)c1ccc(-c2c3nc(c(-c4c(F)c(F)c(F)c(F)c4F)c4ccc([nH]4)c(-c4c(F)c(F)c(F)c(F)c4F)c4nc(c(-c5c(F)c(F)c(F)c(F)c5F)c5ccc2[nH]5)C=C4)C=C3)cc1)C(F)(F)F
REMARK SMILES IDX 20 1 19 2 18 3 17 4 16 5 15 6 14 7 12 8 13 9 2 10 1 11 3 12
REMARK SMILES IDX 4 13 5 15 6 16 7 17 11 18 8 19 10 20 9 22 92 23 93 24 94 25
REMARK SMILES IDX 95 26 21 27 22 28 23 29 24 30 25 31 26 32 27 33 28 34 29 35
REMARK SMILES IDX 30 36 91 37 31 38 90 39 32 40 33 41 34 42 84 43 35 44 89 45
REMARK SMILES IDX 83 46 85 47 36 48 88 49 82 50 81 51 37 53 69 54 49 55 68 56
REMARK SMILES IDX 50 57 53 58 67 59 86 60 51 61 52 62 66 64 87 65 54 66 38 67
REMARK SMILES IDX 39 68 47 69 40 70 41 71 45 72 48 73 42 74 43 75 46 76 44 77
REMARK SMILES IDX 70 78 71 79 79 80 72 81 73 82 77 83 80 84 74 85 75 86 78 87
REMARK SMILES IDX 76 88 55 89 56 90 64 91 57 92 58 93 62 94 65 95 59 96 60 97
REMARK SMILES IDX 63 98 61 99
REMARK H PARENT 3 14 11 21 85 52 53 63
REMARK Flexibility Score: inf
ROOT
ATOM      1  O   UNL A   1      33.462  26.553  22.171  1.00  0.00    -0.377 OA
ENDROOT
BRANCH   1   2
ATOM      2  C   UNL A   1      32.566  25.463  22.298  1.00  0.00     0.188 C 
BRANCH   2   3
ATOM      3  C   UNL A   1      31.291  25.727  23.118  1.00  0.00     0.188 C 
BRANCH   3   4
ATOM      4  O   UNL A   1      30.689  24.558  23.653  1.00  0.00    -0.376 OA
BRANCH   4   5
ATOM      5  C   UNL A   1      30.795  24.318  25.047  1.00  0.00     0.202 C 
BRANCH   5   6
ATOM      6  C   UNL A   1      30.914  22.866  25.508  1.00  0.00     0.261 C 
BRANCH   6   7
ATOM      7  O   UNL A   1      32.223  22.297  25.685  1.00  0.00    -0.461 OA
BRANCH   7   8
ATOM      8  C   UNL A   1      33.186  22.406  24.739  1.00  0.00     0.341 C 
ATOM      9  O   UNL A   1      33.000  22.304  23.533  1.00  0.00    -0.249 OA
BRANCH   8  10
ATOM     10  C   UNL A   1      34.566  22.467  25.379  1.00  0.00     0.231 C 
ATOM     11  C   UNL A   1      34.566  22.116  26.882  1.00  0.00     0.058 C 
BRANCH  10  12
ATOM     12  N   UNL A   1      35.545  21.598  24.639  1.00  0.00    -0.328 N 
ATOM     13  C   UNL A   1      35.810  20.263  24.827  1.00  0.00     0.268 C 
ATOM     14  H   UNL A   1      36.062  22.043  23.929  1.00  0.00     0.165 HD
ATOM     15  O   UNL A   1      36.986  19.930  24.932  1.00  0.00    -0.268 OA
BRANCH  13  16
ATOM     16  C   UNL A   1      34.726  19.304  24.798  1.00  0.00     0.105 A 
ATOM     17  C   UNL A   1      34.803  17.919  24.895  1.00  0.00     0.049 A 
ATOM     18  N   UNL A   1      33.393  19.595  24.559  1.00  0.00    -0.356 N 
ATOM     19  C   UNL A   1      33.489  17.411  24.840  1.00  0.00     0.036 A 
ATOM     20  C   UNL A   1      32.628  18.458  24.656  1.00  0.00     0.098 A 
ATOM     21  H   UNL A   1      33.044  20.491  24.349  1.00  0.00     0.166 HD
ATOM     22  Br  UNL A   1      33.031  15.616  25.106  1.00  0.00    -0.049 Br
ENDBRANCH  13  16
ENDBRANCH  10  12
BRANCH  10  23
ATOM     23  C   UNL A   1      34.943  23.959  25.249  1.00  0.00     0.422 C 
ATOM     24  F   UNL A   1      36.074  24.274  25.918  1.00  0.00    -0.168 F 
ATOM     25  F   UNL A   1      35.159  24.276  23.945  1.00  0.00    -0.168 F 
ATOM     26  F   UNL A   1      33.963  24.783  25.684  1.00  0.00    -0.168 F 
ENDBRANCH  10  23
ENDBRANCH   8  10
ENDBRANCH   7   8
ENDBRANCH   6   7
ENDBRANCH   5   6
ENDBRANCH   4   5
ENDBRANCH   3   4
ENDBRANCH   2   3
ENDBRANCH   1   2
BRANCH   1  27
ATOM     27  C   UNL A   1      33.048  27.858  22.570  1.00  0.00     0.188 C 
BRANCH  27  28
ATOM     28  C   UNL A   1      33.470  28.475  23.918  1.00  0.00     0.188 C 
BRANCH  28  29
ATOM     29  O   UNL A   1      32.429  28.547  24.872  1.00  0.00    -0.376 OA
BRANCH  29  30
ATOM     30  C   UNL A   1      31.565  29.668  24.843  1.00  0.00     0.202 C 
BRANCH  30  31
ATOM     31  C   UNL A   1      31.617  30.660  26.014  1.00  0.00     0.261 C 
BRANCH  31  32
ATOM     32  O   UNL A   1      32.755  30.601  26.894  1.00  0.00    -0.460 OA
BRANCH  32  33
ATOM     33  C   UNL A   1      33.339  31.745  27.311  1.00  0.00     0.338 C 
ATOM     34  O   UNL A   1      32.831  32.851  27.374  1.00  0.00    -0.246 OA
BRANCH  33  35
ATOM     35  C   UNL A   1      34.660  31.381  27.885  1.00  0.00     0.060 A 
ATOM     36  C   UNL A   1      34.921  30.052  28.255  1.00  0.00     0.016 A 
ATOM     37  C   UNL A   1      35.660  32.348  28.007  1.00  0.00     0.016 A 
ATOM     38  C   UNL A   1      36.175  29.691  28.758  1.00  0.00     0.010 A 
ATOM     39  C   UNL A   1      36.903  31.991  28.543  1.00  0.00     0.010 A 
ATOM     40  C   UNL A   1      37.162  30.668  28.942  1.00  0.00    -0.014 A 
BRANCH  40  41
ATOM     41  C   UNL A   1      38.395  30.373  29.716  1.00  0.00     0.031 A 
ATOM     42  C   UNL A   1      39.364  29.373  29.145  1.00  0.00     0.074 A 
ATOM     43  C   UNL A   1      38.632  30.931  30.917  1.00  0.00     0.049 A 
ATOM     44  N   UNL A   1      40.406  28.811  29.700  1.00  0.00    -0.248 NA
ATOM     45  C   UNL A   1      39.114  28.943  27.759  1.00  0.00     0.031 C 
ATOM     46  C   UNL A   1      37.804  31.949  31.556  1.00  0.00     0.029 A 
ATOM     47  N   UNL A   1      39.632  30.687  31.830  1.00  0.00    -0.354 N 
ATOM     48  C   UNL A   1      40.916  27.941  28.745  1.00  0.00     0.074 A 
ATOM     49  C   UNL A   1      40.072  28.047  27.575  1.00  0.00     0.031 C 
ATOM     50  C   UNL A   1      38.305  32.215  32.776  1.00  0.00     0.029 A 
ATOM     51  C   UNL A   1      39.458  31.349  33.022  1.00  0.00     0.049 A 
ATOM     52  H   UNL A   1      40.397  30.096  31.648  1.00  0.00     0.167 HD
ATOM     53  C   UNL A   1      41.989  27.122  28.841  1.00  0.00     0.037 A 
ATOM     54  C   UNL A   1      40.121  31.227  34.192  1.00  0.00     0.037 A 
ATOM     55  C   UNL A   1      42.837  27.033  30.000  1.00  0.00     0.049 A 
ATOM     56  C   UNL A   1      41.267  30.247  34.296  1.00  0.00     0.074 A 
ATOM     57  C   UNL A   1      43.981  26.276  30.171  1.00  0.00     0.029 A 
ATOM     58  N   UNL A   1      42.620  27.709  31.190  1.00  0.00    -0.354 N 
ATOM     59  N   UNL A   1      41.774  29.461  33.377  1.00  0.00    -0.248 NA
ATOM     60  C   UNL A   1      41.928  30.129  35.606  1.00  0.00     0.031 C 
ATOM     61  C   UNL A   1      44.416  26.435  31.490  1.00  0.00     0.029 A 
ATOM     62  C   UNL A   1      43.583  27.346  32.117  1.00  0.00     0.049 A 
ATOM     63  H   UNL A   1      41.892  28.352  31.352  1.00  0.00     0.167 HD
ATOM     64  C   UNL A   1      42.822  28.781  33.988  1.00  0.00     0.074 A 
ATOM     65  C   UNL A   1      42.894  29.259  35.349  1.00  0.00     0.031 C 
ATOM     66  C   UNL A   1      43.649  27.839  33.468  1.00  0.00     0.037 A 
BRANCH  53  67
ATOM     67  C   UNL A   1      42.297  26.220  27.684  1.00  0.00     0.064 A 
ATOM     68  C   UNL A   1      43.275  26.536  26.731  1.00  0.00     0.173 A 
ATOM     69  C   UNL A   1      41.656  24.975  27.579  1.00  0.00     0.173 A 
ATOM     70  F   UNL A   1      43.906  27.719  26.779  1.00  0.00    -0.203 F 
ATOM     71  C   UNL A   1      43.594  25.643  25.712  1.00  0.00     0.198 A 
ATOM     72  C   UNL A   1      41.998  24.073  26.577  1.00  0.00     0.198 A 
ATOM     73  F   UNL A   1      40.713  24.623  28.468  1.00  0.00    -0.203 F 
ATOM     74  F   UNL A   1      44.513  25.977  24.795  1.00  0.00    -0.200 F 
ATOM     75  C   UNL A   1      42.965  24.408  25.644  1.00  0.00     0.200 A 
ATOM     76  F   UNL A   1      41.399  22.876  26.524  1.00  0.00    -0.200 F 
ATOM     77  F   UNL A   1      43.292  23.541  24.676  1.00  0.00    -0.200 F 
ENDBRANCH  53  67
BRANCH  54  78
ATOM     78  C   UNL A   1      39.686  31.997  35.393  1.00  0.00     0.064 A 
ATOM     79  C   UNL A   1      38.734  31.481  36.284  1.00  0.00     0.173 A 
ATOM     80  C   UNL A   1      40.161  33.296  35.633  1.00  0.00     0.173 A 
ATOM     81  F   UNL A   1      38.222  30.258  36.082  1.00  0.00    -0.203 F 
ATOM     82  C   UNL A   1      38.249  32.246  37.345  1.00  0.00     0.198 A 
ATOM     83  C   UNL A   1      39.704  34.045  36.716  1.00  0.00     0.198 A 
ATOM     84  F   UNL A   1      41.066  33.844  34.809  1.00  0.00    -0.203 F 
ATOM     85  F   UNL A   1      37.284  31.755  38.134  1.00  0.00    -0.200 F 
ATOM     86  C   UNL A   1      38.738  33.525  37.562  1.00  0.00     0.200 A 
ATOM     87  F   UNL A   1      40.187  35.277  36.926  1.00  0.00    -0.200 F 
ATOM     88  F   UNL A   1      38.263  34.263  38.575  1.00  0.00    -0.200 F 
ENDBRANCH  54  78
BRANCH  66  89
ATOM     89  C   UNL A   1      44.722  27.281  34.359  1.00  0.00     0.064 A 
ATOM     90  C   UNL A   1      44.514  26.129  35.130  1.00  0.00     0.173 A 
ATOM     91  C   UNL A   1      45.998  27.867  34.387  1.00  0.00     0.173 A 
ATOM     92  F   UNL A   1      43.310  25.537  35.149  1.00  0.00    -0.203 F 
ATOM     93  C   UNL A   1      45.537  25.595  35.910  1.00  0.00     0.198 A 
ATOM     94  C   UNL A   1      47.028  27.311  35.140  1.00  0.00     0.198 A 
ATOM     95  F   UNL A   1      46.254  28.965  33.660  1.00  0.00    -0.203 F 
ATOM     96  F   UNL A   1      45.304  24.516  36.671  1.00  0.00    -0.200 F 
ATOM     97  C   UNL A   1      46.795  26.179  35.906  1.00  0.00     0.200 A 
ATOM     98  F   UNL A   1      48.247  27.866  35.119  1.00  0.00    -0.200 F 
ATOM     99  F   UNL A   1      47.783  25.653  36.643  1.00  0.00    -0.200 F 
ENDBRANCH  66  89
ENDBRANCH  40  41
ENDBRANCH  33  35
ENDBRANCH  32  33
ENDBRANCH  31  32
ENDBRANCH  30  31
ENDBRANCH  29  30
ENDBRANCH  28  29
ENDBRANCH  27  28
ENDBRANCH   1  27
TORSDOF 23
ENDMDL
