MODEL 1
REMARK VINA RESULT:      -9.6      0.000      0.000
REMARK SMILES COCCC(=O)NC[C@@H]1CC[C@@H](C(=O)OCCOCCOCCOCCOC(=O)c2ccc(-c3c4nc(c(-c5c(F)c(F)c(F)c(F)c5F)c5ccc([nH]5)c(-c5c(F)c(F)c(F)c(F)c5F)c5nc(c(-c6c(F)c(F)c(F)c(F)c6F)c6ccc3[nH]6)C=C5)C=C4)cc2)O1
REMARK SMILES IDX 19 1 18 2 17 3 16 4 15 5 13 6 14 7 12 8 9 9 10 10 93 11
REMARK SMILES IDX 11 12 8 13 7 14 5 15 6 16 4 18 3 19 2 20 1 21 20 22 21 23
REMARK SMILES IDX 22 24 23 25 24 26 25 27 26 28 27 29 28 30 29 31 30 32 31 33
REMARK SMILES IDX 92 34 32 35 91 36 33 37 34 38 35 39 85 40 36 41 90 42 84 43
REMARK SMILES IDX 86 44 37 45 89 46 83 47 82 48 38 50 70 51 50 52 69 53 51 54
REMARK SMILES IDX 54 55 68 56 87 57 52 58 53 59 67 61 88 62 55 63 39 64 40 65
REMARK SMILES IDX 48 66 41 67 42 68 46 69 49 70 43 71 44 72 47 73 45 74 71 75
REMARK SMILES IDX 72 76 80 77 73 78 74 79 78 80 81 81 75 82 76 83 79 84 77 85
REMARK SMILES IDX 56 86 57 87 65 88 58 89 59 90 63 91 66 92 60 93 61 94 64 95
REMARK SMILES IDX 62 96
REMARK H PARENT 7 17 86 49 54 60
REMARK Flexibility Score: inf
ROOT
ATOM      1  C   UNL A   1      40.500  21.720  27.367  1.00  0.00     0.188 C 
ENDROOT
BRANCH   1   2
ATOM      2  O   UNL A   1      39.815  22.284  26.256  1.00  0.00    -0.376 OA
BRANCH   2   3
ATOM      3  C   UNL A   1      38.561  21.767  25.819  1.00  0.00     0.202 C 
BRANCH   3   4
ATOM      4  C   UNL A   1      37.311  22.651  25.696  1.00  0.00     0.261 C 
BRANCH   4   5
ATOM      5  O   UNL A   1      37.323  23.488  24.538  1.00  0.00    -0.461 OA
BRANCH   5   6
ATOM      6  C   UNL A   1      36.301  23.335  23.656  1.00  0.00     0.335 C 
ATOM      7  O   UNL A   1      36.407  22.899  22.518  1.00  0.00    -0.249 OA
BRANCH   6   8
ATOM      8  C   UNL A   1      34.970  23.656  24.341  1.00  0.00     0.228 C 
ATOM      9  C   UNL A   1      33.160  24.296  23.073  1.00  0.00     0.138 C 
ATOM     10  C   UNL A   1      32.691  23.114  23.885  1.00  0.00     0.037 C 
ATOM     11  O   UNL A   1      34.330  24.785  23.739  1.00  0.00    -0.361 OA
ATOM     12  C   UNL A   1      34.004  22.465  24.214  1.00  0.00     0.047 C 
BRANCH   9  13
ATOM     13  C   UNL A   1      32.129  25.406  22.964  1.00  0.00     0.147 C 
BRANCH  13  14
ATOM     14  N   UNL A   1      31.066  25.172  23.929  1.00  0.00    -0.353 N 
ATOM     15  C   UNL A   1      30.254  26.093  24.519  1.00  0.00     0.222 C 
ATOM     16  O   UNL A   1      29.601  25.772  25.511  1.00  0.00    -0.275 OA
ATOM     17  H   UNL A   1      30.915  24.233  24.186  1.00  0.00     0.163 HD
BRANCH  15  18
ATOM     18  C   UNL A   1      30.165  27.485  23.939  1.00  0.00     0.128 C 
BRANCH  18  19
ATOM     19  C   UNL A   1      31.179  28.425  24.569  1.00  0.00     0.169 C 
BRANCH  19  20
ATOM     20  O   UNL A   1      31.909  27.785  25.618  1.00  0.00    -0.384 OA
ATOM     21  C   UNL A   1      33.318  27.932  25.446  1.00  0.00     0.194 C 
ENDBRANCH  19  20
ENDBRANCH  18  19
ENDBRANCH  15  18
ENDBRANCH  13  14
ENDBRANCH   9  13
ENDBRANCH   6   8
ENDBRANCH   5   6
ENDBRANCH   4   5
ENDBRANCH   3   4
ENDBRANCH   2   3
ENDBRANCH   1   2
BRANCH   1  22
ATOM     22  C   UNL A   1      41.401  20.480  27.189  1.00  0.00     0.188 C 
BRANCH  22  23
ATOM     23  O   UNL A   1      41.951  20.356  25.897  1.00  0.00    -0.377 OA
BRANCH  23  24
ATOM     24  C   UNL A   1      42.800  19.236  25.679  1.00  0.00     0.188 C 
BRANCH  24  25
ATOM     25  C   UNL A   1      44.062  19.410  24.800  1.00  0.00     0.188 C 
BRANCH  25  26
ATOM     26  O   UNL A   1      45.054  20.273  25.337  1.00  0.00    -0.376 OA
BRANCH  26  27
ATOM     27  C   UNL A   1      45.490  21.382  24.564  1.00  0.00     0.202 C 
BRANCH  27  28
ATOM     28  C   UNL A   1      44.411  22.283  23.940  1.00  0.00     0.261 C 
BRANCH  28  29
ATOM     29  O   UNL A   1      43.810  23.248  24.816  1.00  0.00    -0.460 OA
BRANCH  29  30
ATOM     30  C   UNL A   1      44.509  24.381  25.058  1.00  0.00     0.338 C 
ATOM     31  O   UNL A   1      45.508  24.760  24.490  1.00  0.00    -0.246 OA
BRANCH  30  32
ATOM     32  C   UNL A   1      43.722  25.202  26.006  1.00  0.00     0.060 A 
ATOM     33  C   UNL A   1      43.963  26.581  26.055  1.00  0.00     0.016 A 
ATOM     34  C   UNL A   1      42.756  24.625  26.834  1.00  0.00     0.016 A 
ATOM     35  C   UNL A   1      43.264  27.382  26.957  1.00  0.00     0.010 A 
ATOM     36  C   UNL A   1      42.074  25.425  27.757  1.00  0.00     0.010 A 
ATOM     37  C   UNL A   1      42.351  26.801  27.845  1.00  0.00    -0.014 A 
BRANCH  37  38
ATOM     38  C   UNL A   1      41.839  27.604  28.985  1.00  0.00     0.031 A 
ATOM     39  C   UNL A   1      42.576  27.538  30.294  1.00  0.00     0.074 A 
ATOM     40  C   UNL A   1      40.778  28.418  28.845  1.00  0.00     0.049 A 
ATOM     41  N   UNL A   1      42.316  28.136  31.430  1.00  0.00    -0.248 NA
ATOM     42  C   UNL A   1      43.774  26.681  30.328  1.00  0.00     0.031 C 
ATOM     43  C   UNL A   1      40.011  28.606  27.617  1.00  0.00     0.029 A 
ATOM     44  N   UNL A   1      40.162  29.241  29.757  1.00  0.00    -0.354 N 
ATOM     45  C   UNL A   1      43.314  27.731  32.306  1.00  0.00     0.074 A 
ATOM     46  C   UNL A   1      44.164  26.808  31.588  1.00  0.00     0.031 C 
ATOM     47  C   UNL A   1      39.018  29.482  27.853  1.00  0.00     0.029 A 
ATOM     48  C   UNL A   1      39.061  29.891  29.256  1.00  0.00     0.049 A 
ATOM     49  H   UNL A   1      40.481  29.355  30.681  1.00  0.00     0.167 HD
ATOM     50  C   UNL A   1      43.512  28.106  33.592  1.00  0.00     0.037 A 
ATOM     51  C   UNL A   1      38.178  30.701  29.871  1.00  0.00     0.037 A 
ATOM     52  C   UNL A   1      42.662  29.022  34.309  1.00  0.00     0.049 A 
ATOM     53  C   UNL A   1      38.371  31.031  31.332  1.00  0.00     0.074 A 
ATOM     54  C   UNL A   1      42.780  29.467  35.613  1.00  0.00     0.029 A 
ATOM     55  N   UNL A   1      41.531  29.626  33.781  1.00  0.00    -0.354 N 
ATOM     56  N   UNL A   1      39.331  30.665  32.147  1.00  0.00    -0.248 NA
ATOM     57  C   UNL A   1      37.358  31.894  31.956  1.00  0.00     0.031 C 
ATOM     58  C   UNL A   1      41.689  30.295  35.894  1.00  0.00     0.029 A 
ATOM     59  C   UNL A   1      40.926  30.419  34.744  1.00  0.00     0.049 A 
ATOM     60  H   UNL A   1      41.205  29.509  32.860  1.00  0.00     0.167 HD
ATOM     61  C   UNL A   1      39.056  31.278  33.364  1.00  0.00     0.074 A 
ATOM     62  C   UNL A   1      37.853  32.058  33.173  1.00  0.00     0.031 C 
ATOM     63  C   UNL A   1      39.734  31.199  34.537  1.00  0.00     0.037 A 
BRANCH  50  64
ATOM     64  C   UNL A   1      44.682  27.512  34.320  1.00  0.00     0.064 A 
ATOM     65  C   UNL A   1      45.930  28.154  34.357  1.00  0.00     0.173 A 
ATOM     66  C   UNL A   1      44.538  26.315  35.037  1.00  0.00     0.173 A 
ATOM     67  F   UNL A   1      46.125  29.292  33.675  1.00  0.00    -0.203 F 
ATOM     68  C   UNL A   1      46.994  27.609  35.072  1.00  0.00     0.198 A 
ATOM     69  C   UNL A   1      45.595  25.790  35.776  1.00  0.00     0.198 A 
ATOM     70  F   UNL A   1      43.366  25.663  35.036  1.00  0.00    -0.203 F 
ATOM     71  F   UNL A   1      48.188  28.218  35.062  1.00  0.00    -0.200 F 
ATOM     72  C   UNL A   1      46.822  26.434  35.789  1.00  0.00     0.200 A 
ATOM     73  F   UNL A   1      45.423  24.662  36.479  1.00  0.00    -0.200 F 
ATOM     74  F   UNL A   1      47.843  25.920  36.490  1.00  0.00    -0.200 F 
ENDBRANCH  50  64
BRANCH  51  75
ATOM     75  C   UNL A   1      37.007  31.247  29.128  1.00  0.00     0.064 A 
ATOM     76  C   UNL A   1      36.958  32.592  28.735  1.00  0.00     0.173 A 
ATOM     77  C   UNL A   1      35.887  30.449  28.854  1.00  0.00     0.173 A 
ATOM     78  F   UNL A   1      37.991  33.405  28.998  1.00  0.00    -0.203 F 
ATOM     79  C   UNL A   1      35.820  33.126  28.131  1.00  0.00     0.198 A 
ATOM     80  C   UNL A   1      34.764  30.974  28.217  1.00  0.00     0.198 A 
ATOM     81  F   UNL A   1      35.878  29.157  29.213  1.00  0.00    -0.203 F 
ATOM     82  F   UNL A   1      35.773  34.431  27.833  1.00  0.00    -0.200 F 
ATOM     83  C   UNL A   1      34.726  32.315  27.869  1.00  0.00     0.200 A 
ATOM     84  F   UNL A   1      33.714  30.184  27.956  1.00  0.00    -0.200 F 
ATOM     85  F   UNL A   1      33.630  32.831  27.296  1.00  0.00    -0.200 F 
ENDBRANCH  51  75
BRANCH  63  86
ATOM     86  C   UNL A   1      39.214  32.012  35.691  1.00  0.00     0.064 A 
ATOM     87  C   UNL A   1      39.553  33.363  35.858  1.00  0.00     0.173 A 
ATOM     88  C   UNL A   1      38.346  31.435  36.631  1.00  0.00     0.173 A 
ATOM     89  F   UNL A   1      40.388  33.961  34.995  1.00  0.00    -0.203 F 
ATOM     90  C   UNL A   1      39.078  34.093  36.945  1.00  0.00     0.198 A 
ATOM     91  C   UNL A   1      37.840  32.178  37.694  1.00  0.00     0.198 A 
ATOM     92  F   UNL A   1      37.977  30.150  36.514  1.00  0.00    -0.203 F 
ATOM     93  F   UNL A   1      39.470  35.363  37.119  1.00  0.00    -0.200 F 
ATOM     94  C   UNL A   1      38.217  33.502  37.858  1.00  0.00     0.200 A 
ATOM     95  F   UNL A   1      36.993  31.611  38.565  1.00  0.00    -0.200 F 
ATOM     96  F   UNL A   1      37.758  34.207  38.901  1.00  0.00    -0.200 F 
ENDBRANCH  63  86
ENDBRANCH  37  38
ENDBRANCH  30  32
ENDBRANCH  29  30
ENDBRANCH  28  29
ENDBRANCH  27  28
ENDBRANCH  26  27
ENDBRANCH  25  26
ENDBRANCH  24  25
ENDBRANCH  23  24
ENDBRANCH  22  23
ENDBRANCH   1  22
TORSDOF 25
ENDMDL
MODEL 2
REMARK VINA RESULT:      -8.8      1.099      2.220
REMARK SMILES COCCC(=O)NC[C@@H]1CC[C@@H](C(=O)OCCOCCOCCOCCOC(=O)c2ccc(-c3c4nc(c(-c5c(F)c(F)c(F)c(F)c5F)c5ccc([nH]5)c(-c5c(F)c(F)c(F)c(F)c5F)c5nc(c(-c6c(F)c(F)c(F)c(F)c6F)c6ccc3[nH]6)C=C5)C=C4)cc2)O1
REMARK SMILES IDX 19 1 18 2 17 3 16 4 15 5 13 6 14 7 12 8 9 9 10 10 93 11
REMARK SMILES IDX 11 12 8 13 7 14 5 15 6 16 4 18 3 19 2 20 1 21 20 22 21 23
REMARK SMILES IDX 22 24 23 25 24 26 25 27 26 28 27 29 28 30 29 31 30 32 31 33
REMARK SMILES IDX 92 34 32 35 91 36 33 37 34 38 35 39 85 40 36 41 90 42 84 43
REMARK SMILES IDX 86 44 37 45 89 46 83 47 82 48 38 50 70 51 50 52 69 53 51 54
REMARK SMILES IDX 54 55 68 56 87 57 52 58 53 59 67 61 88 62 55 63 39 64 40 65
REMARK SMILES IDX 48 66 41 67 42 68 46 69 49 70 43 71 44 72 47 73 45 74 71 75
REMARK SMILES IDX 72 76 80 77 73 78 74 79 78 80 81 81 75 82 76 83 79 84 77 85
REMARK SMILES IDX 56 86 57 87 65 88 58 89 59 90 63 91 66 92 60 93 61 94 64 95
REMARK SMILES IDX 62 96
REMARK H PARENT 7 17 86 49 54 60
REMARK Flexibility Score: inf
ROOT
ATOM      1  C   UNL A   1      40.431  21.608  27.181  1.00  0.00     0.188 C 
ENDROOT
BRANCH   1   2
ATOM      2  O   UNL A   1      39.706  21.960  26.009  1.00  0.00    -0.376 OA
BRANCH   2   3
ATOM      3  C   UNL A   1      38.467  21.334  25.689  1.00  0.00     0.202 C 
BRANCH   3   4
ATOM      4  C   UNL A   1      37.147  22.117  25.627  1.00  0.00     0.261 C 
BRANCH   4   5
ATOM      5  O   UNL A   1      36.109  21.418  24.938  1.00  0.00    -0.461 OA
BRANCH   5   6
ATOM      6  C   UNL A   1      34.876  21.990  24.938  1.00  0.00     0.335 C 
ATOM      7  O   UNL A   1      33.836  21.432  24.613  1.00  0.00    -0.249 OA
BRANCH   6   8
ATOM      8  C   UNL A   1      34.954  23.396  25.538  1.00  0.00     0.228 C 
ATOM      9  C   UNL A   1      33.646  25.080  24.675  1.00  0.00     0.138 C 
ATOM     10  C   UNL A   1      33.332  25.036  26.150  1.00  0.00     0.037 C 
ATOM     11  O   UNL A   1      34.898  24.403  24.524  1.00  0.00    -0.361 OA
ATOM     12  C   UNL A   1      33.766  23.639  26.485  1.00  0.00     0.047 C 
BRANCH   9  13
ATOM     13  C   UNL A   1      33.751  26.489  24.118  1.00  0.00     0.147 C 
BRANCH  13  14
ATOM     14  N   UNL A   1      32.996  26.575  22.879  1.00  0.00    -0.353 N 
ATOM     15  C   UNL A   1      31.667  26.827  22.724  1.00  0.00     0.222 C 
ATOM     16  O   UNL A   1      31.130  26.592  21.642  1.00  0.00    -0.275 OA
ATOM     17  H   UNL A   1      33.510  26.436  22.050  1.00  0.00     0.163 HD
BRANCH  15  18
ATOM     18  C   UNL A   1      30.879  27.396  23.882  1.00  0.00     0.128 C 
BRANCH  18  19
ATOM     19  C   UNL A   1      30.866  28.916  23.861  1.00  0.00     0.169 C 
BRANCH  19  20
ATOM     20  O   UNL A   1      32.121  29.459  24.275  1.00  0.00    -0.384 OA
ATOM     21  C   UNL A   1      32.137  29.746  25.673  1.00  0.00     0.194 C 
ENDBRANCH  19  20
ENDBRANCH  18  19
ENDBRANCH  15  18
ENDBRANCH  13  14
ENDBRANCH   9  13
ENDBRANCH   6   8
ENDBRANCH   5   6
ENDBRANCH   4   5
ENDBRANCH   3   4
ENDBRANCH   2   3
ENDBRANCH   1   2
BRANCH   1  22
ATOM     22  C   UNL A   1      41.511  20.507  27.136  1.00  0.00     0.188 C 
BRANCH  22  23
ATOM     23  O   UNL A   1      41.974  20.215  25.837  1.00  0.00    -0.377 OA
BRANCH  23  24
ATOM     24  C   UNL A   1      42.954  19.189  25.734  1.00  0.00     0.188 C 
BRANCH  24  25
ATOM     25  C   UNL A   1      44.009  19.270  24.605  1.00  0.00     0.188 C 
BRANCH  25  26
ATOM     26  O   UNL A   1      45.175  20.018  24.923  1.00  0.00    -0.376 OA
BRANCH  26  27
ATOM     27  C   UNL A   1      45.434  21.220  24.213  1.00  0.00     0.202 C 
BRANCH  27  28
ATOM     28  C   UNL A   1      44.314  22.272  24.162  1.00  0.00     0.261 C 
BRANCH  28  29
ATOM     29  O   UNL A   1      44.001  22.922  25.403  1.00  0.00    -0.460 OA
BRANCH  29  30
ATOM     30  C   UNL A   1      44.795  23.951  25.778  1.00  0.00     0.338 C 
ATOM     31  O   UNL A   1      45.884  24.236  25.333  1.00  0.00    -0.246 OA
BRANCH  30  32
ATOM     32  C   UNL A   1      44.013  24.813  26.694  1.00  0.00     0.060 A 
ATOM     33  C   UNL A   1      44.280  26.188  26.707  1.00  0.00     0.016 A 
ATOM     34  C   UNL A   1      43.026  24.277  27.525  1.00  0.00     0.016 A 
ATOM     35  C   UNL A   1      43.586  27.027  27.578  1.00  0.00     0.010 A 
ATOM     36  C   UNL A   1      42.350  25.117  28.418  1.00  0.00     0.010 A 
ATOM     37  C   UNL A   1      42.652  26.489  28.471  1.00  0.00    -0.014 A 
BRANCH  37  38
ATOM     38  C   UNL A   1      42.142  27.333  29.580  1.00  0.00     0.031 A 
ATOM     39  C   UNL A   1      42.876  27.307  30.893  1.00  0.00     0.074 A 
ATOM     40  C   UNL A   1      41.086  28.148  29.411  1.00  0.00     0.049 A 
ATOM     41  N   UNL A   1      42.616  27.945  32.007  1.00  0.00    -0.248 NA
ATOM     42  C   UNL A   1      44.068  26.445  30.959  1.00  0.00     0.031 C 
ATOM     43  C   UNL A   1      40.323  28.299  28.175  1.00  0.00     0.029 A 
ATOM     44  N   UNL A   1      40.473  29.006  30.292  1.00  0.00    -0.354 N 
ATOM     45  C   UNL A   1      43.610  27.564  32.899  1.00  0.00     0.074 A 
ATOM     46  C   UNL A   1      44.457  26.613  32.215  1.00  0.00     0.031 C 
ATOM     47  C   UNL A   1      39.335  29.189  28.378  1.00  0.00     0.029 A 
ATOM     48  C   UNL A   1      39.377  29.644  29.767  1.00  0.00     0.049 A 
ATOM     49  H   UNL A   1      40.791  29.148  31.213  1.00  0.00     0.167 HD
ATOM     50  C   UNL A   1      43.807  27.982  34.172  1.00  0.00     0.037 A 
ATOM     51  C   UNL A   1      38.497  30.481  30.352  1.00  0.00     0.037 A 
ATOM     52  C   UNL A   1      42.962  28.927  34.855  1.00  0.00     0.049 A 
ATOM     53  C   UNL A   1      38.690  30.858  31.802  1.00  0.00     0.074 A 
ATOM     54  C   UNL A   1      43.080  29.415  36.144  1.00  0.00     0.029 A 
ATOM     55  N   UNL A   1      41.835  29.519  34.305  1.00  0.00    -0.354 N 
ATOM     56  N   UNL A   1      39.646  30.514  32.631  1.00  0.00    -0.248 NA
ATOM     57  C   UNL A   1      37.680  31.748  32.394  1.00  0.00     0.031 C 
ATOM     58  C   UNL A   1      41.993  30.258  36.394  1.00  0.00     0.029 A 
ATOM     59  C   UNL A   1      41.233  30.347  35.239  1.00  0.00     0.049 A 
ATOM     60  H   UNL A   1      41.511  29.373  33.387  1.00  0.00     0.167 HD
ATOM     61  C   UNL A   1      39.371  31.170  33.826  1.00  0.00     0.074 A 
ATOM     62  C   UNL A   1      38.173  31.951  33.606  1.00  0.00     0.031 C 
ATOM     63  C   UNL A   1      40.046  31.128  35.002  1.00  0.00     0.037 A 
BRANCH  50  64
ATOM     64  C   UNL A   1      44.973  27.406  34.923  1.00  0.00     0.064 A 
ATOM     65  C   UNL A   1      44.884  26.174  35.589  1.00  0.00     0.173 A 
ATOM     66  C   UNL A   1      46.210  28.068  34.929  1.00  0.00     0.173 A 
ATOM     67  F   UNL A   1      43.720  25.509  35.628  1.00  0.00    -0.203 F 
ATOM     68  C   UNL A   1      45.987  25.634  36.246  1.00  0.00     0.198 A 
ATOM     69  C   UNL A   1      47.319  27.510  35.560  1.00  0.00     0.198 A 
ATOM     70  F   UNL A   1      46.348  29.248  34.306  1.00  0.00    -0.203 F 
ATOM     71  F   UNL A   1      45.869  24.475  36.909  1.00  0.00    -0.200 F 
ATOM     72  C   UNL A   1      47.205  26.297  36.222  1.00  0.00     0.200 A 
ATOM     73  F   UNL A   1      48.498  28.146  35.523  1.00  0.00    -0.200 F 
ATOM     74  F   UNL A   1      48.270  25.768  36.840  1.00  0.00    -0.200 F 
ENDBRANCH  50  64
BRANCH  51  75
ATOM     75  C   UNL A   1      37.332  31.007  29.588  1.00  0.00     0.064 A 
ATOM     76  C   UNL A   1      36.220  30.200  29.310  1.00  0.00     0.173 A 
ATOM     77  C   UNL A   1      37.336  32.309  29.067  1.00  0.00     0.173 A 
ATOM     78  F   UNL A   1      36.178  28.938  29.761  1.00  0.00    -0.203 F 
ATOM     79  C   UNL A   1      35.176  30.662  28.508  1.00  0.00     0.198 A 
ATOM     80  C   UNL A   1      36.275  32.782  28.297  1.00  0.00     0.198 A 
ATOM     81  F   UNL A   1      38.377  33.123  29.298  1.00  0.00    -0.203 F 
ATOM     82  F   UNL A   1      34.162  29.844  28.198  1.00  0.00    -0.200 F 
ATOM     83  C   UNL A   1      35.203  31.954  28.006  1.00  0.00     0.200 A 
ATOM     84  F   UNL A   1      36.301  34.035  27.823  1.00  0.00    -0.200 F 
ATOM     85  F   UNL A   1      34.204  32.393  27.229  1.00  0.00    -0.200 F 
ENDBRANCH  51  75
BRANCH  63  86
ATOM     86  C   UNL A   1      39.529  31.982  36.127  1.00  0.00     0.064 A 
ATOM     87  C   UNL A   1      38.423  31.600  36.900  1.00  0.00     0.173 A 
ATOM     88  C   UNL A   1      40.165  33.192  36.448  1.00  0.00     0.173 A 
ATOM     89  F   UNL A   1      37.770  30.460  36.629  1.00  0.00    -0.203 F 
ATOM     90  C   UNL A   1      37.947  32.416  37.924  1.00  0.00     0.198 A 
ATOM     91  C   UNL A   1      39.712  33.986  37.498  1.00  0.00     0.198 A 
ATOM     92  F   UNL A   1      41.236  33.601  35.751  1.00  0.00    -0.203 F 
ATOM     93  F   UNL A   1      36.848  32.061  38.605  1.00  0.00    -0.200 F 
ATOM     94  C   UNL A   1      38.596  33.604  38.226  1.00  0.00     0.200 A 
ATOM     95  F   UNL A   1      40.352  35.124  37.802  1.00  0.00    -0.200 F 
ATOM     96  F   UNL A   1      38.138  34.386  39.214  1.00  0.00    -0.200 F 
ENDBRANCH  63  86
ENDBRANCH  37  38
ENDBRANCH  30  32
ENDBRANCH  29  30
ENDBRANCH  28  29
ENDBRANCH  27  28
ENDBRANCH  26  27
ENDBRANCH  25  26
ENDBRANCH  24  25
ENDBRANCH  23  24
ENDBRANCH  22  23
ENDBRANCH   1  22
TORSDOF 25
ENDMDL
MODEL 3
REMARK VINA RESULT:      -7.9      4.248      5.894
REMARK SMILES COCCC(=O)NC[C@@H]1CC[C@@H](C(=O)OCCOCCOCCOCCOC(=O)c2ccc(-c3c4nc(c(-c5c(F)c(F)c(F)c(F)c5F)c5ccc([nH]5)c(-c5c(F)c(F)c(F)c(F)c5F)c5nc(c(-c6c(F)c(F)c(F)c(F)c6F)c6ccc3[nH]6)C=C5)C=C4)cc2)O1
REMARK SMILES IDX 19 1 18 2 17 3 16 4 15 5 13 6 14 7 12 8 9 9 10 10 93 11
REMARK SMILES IDX 11 12 8 13 7 14 5 15 6 16 4 18 3 19 2 20 1 21 20 22 21 23
REMARK SMILES IDX 22 24 23 25 24 26 25 27 26 28 27 29 28 30 29 31 30 32 31 33
REMARK SMILES IDX 92 34 32 35 91 36 33 37 34 38 35 39 85 40 36 41 90 42 84 43
REMARK SMILES IDX 86 44 37 45 89 46 83 47 82 48 38 50 70 51 50 52 69 53 51 54
REMARK SMILES IDX 54 55 68 56 87 57 52 58 53 59 67 61 88 62 55 63 39 64 40 65
REMARK SMILES IDX 48 66 41 67 42 68 46 69 49 70 43 71 44 72 47 73 45 74 71 75
REMARK SMILES IDX 72 76 80 77 73 78 74 79 78 80 81 81 75 82 76 83 79 84 77 85
REMARK SMILES IDX 56 86 57 87 65 88 58 89 59 90 63 91 66 92 60 93 61 94 64 95
REMARK SMILES IDX 62 96
REMARK H PARENT 7 17 86 49 54 60
REMARK Flexibility Score: inf
ROOT
ATOM      1  C   UNL A   1      36.751  23.303  25.262  1.00  0.00     0.188 C 
ENDROOT
BRANCH   1   2
ATOM      2  O   UNL A   1      36.287  24.120  24.195  1.00  0.00    -0.376 OA
BRANCH   2   3
ATOM      3  C   UNL A   1      34.997  23.928  23.621  1.00  0.00     0.202 C 
BRANCH   3   4
ATOM      4  C   UNL A   1      33.867  24.956  23.784  1.00  0.00     0.261 C 
BRANCH   4   5
ATOM      5  O   UNL A   1      32.655  24.388  24.282  1.00  0.00    -0.461 OA
BRANCH   5   6
ATOM      6  C   UNL A   1      32.512  24.327  25.632  1.00  0.00     0.335 C 
ATOM      7  O   UNL A   1      32.424  25.292  26.379  1.00  0.00    -0.249 OA
BRANCH   6   8
ATOM      8  C   UNL A   1      32.334  22.871  26.071  1.00  0.00     0.228 C 
ATOM      9  C   UNL A   1      34.013  21.348  25.679  1.00  0.00     0.138 C 
ATOM     10  C   UNL A   1      33.739  21.279  27.161  1.00  0.00     0.037 C 
ATOM     11  O   UNL A   1      32.857  21.962  25.098  1.00  0.00    -0.361 OA
ATOM     12  C   UNL A   1      33.091  22.614  27.386  1.00  0.00     0.047 C 
BRANCH   9  13
ATOM     13  C   UNL A   1      34.248  19.989  25.041  1.00  0.00     0.147 C 
BRANCH  13  14
ATOM     14  N   UNL A   1      33.265  19.044  25.544  1.00  0.00    -0.353 N 
ATOM     15  C   UNL A   1      32.784  17.929  24.927  1.00  0.00     0.222 C 
ATOM     16  O   UNL A   1      31.763  17.395  25.359  1.00  0.00    -0.275 OA
ATOM     17  H   UNL A   1      32.905  19.232  26.442  1.00  0.00     0.163 HD
BRANCH  15  18
ATOM     18  C   UNL A   1      33.517  17.367  23.731  1.00  0.00     0.128 C 
BRANCH  18  19
ATOM     19  C   UNL A   1      34.131  16.010  24.033  1.00  0.00     0.169 C 
BRANCH  19  20
ATOM     20  O   UNL A   1      34.511  15.897  25.406  1.00  0.00    -0.384 OA
ATOM     21  C   UNL A   1      35.923  16.011  25.574  1.00  0.00     0.194 C 
ENDBRANCH  19  20
ENDBRANCH  18  19
ENDBRANCH  15  18
ENDBRANCH  13  14
ENDBRANCH   9  13
ENDBRANCH   6   8
ENDBRANCH   5   6
ENDBRANCH   4   5
ENDBRANCH   3   4
ENDBRANCH   2   3
ENDBRANCH   1   2
BRANCH   1  22
ATOM     22  C   UNL A   1      37.649  22.081  24.984  1.00  0.00     0.188 C 
BRANCH  22  23
ATOM     23  O   UNL A   1      38.382  21.644  26.106  1.00  0.00    -0.377 OA
BRANCH  23  24
ATOM     24  C   UNL A   1      39.699  22.164  26.240  1.00  0.00     0.188 C 
BRANCH  24  25
ATOM     25  C   UNL A   1      40.886  21.179  26.365  1.00  0.00     0.188 C 
BRANCH  25  26
ATOM     26  O   UNL A   1      42.166  21.746  26.123  1.00  0.00    -0.376 OA
BRANCH  26  27
ATOM     27  C   UNL A   1      42.246  23.087  25.659  1.00  0.00     0.202 C 
BRANCH  27  28
ATOM     28  C   UNL A   1      43.610  23.583  25.152  1.00  0.00     0.261 C 
BRANCH  28  29
ATOM     29  O   UNL A   1      43.706  24.987  24.869  1.00  0.00    -0.460 OA
BRANCH  29  30
ATOM     30  C   UNL A   1      44.894  25.587  25.115  1.00  0.00     0.338 C 
ATOM     31  O   UNL A   1      45.957  25.349  24.588  1.00  0.00    -0.246 OA
BRANCH  30  32
ATOM     32  C   UNL A   1      44.638  26.747  26.000  1.00  0.00     0.060 A 
ATOM     33  C   UNL A   1      45.727  27.345  26.648  1.00  0.00     0.016 A 
ATOM     34  C   UNL A   1      43.346  27.244  26.186  1.00  0.00     0.016 A 
ATOM     35  C   UNL A   1      45.522  28.419  27.512  1.00  0.00     0.010 A 
ATOM     36  C   UNL A   1      43.139  28.304  27.075  1.00  0.00     0.010 A 
ATOM     37  C   UNL A   1      44.223  28.874  27.767  1.00  0.00    -0.014 A 
BRANCH  37  38
ATOM     38  C   UNL A   1      43.991  29.807  28.898  1.00  0.00     0.031 A 
ATOM     39  C   UNL A   1      43.785  29.230  30.271  1.00  0.00     0.074 A 
ATOM     40  C   UNL A   1      44.021  31.140  28.721  1.00  0.00     0.049 A 
ATOM     41  N   UNL A   1      43.554  29.839  31.407  1.00  0.00    -0.248 NA
ATOM     42  C   UNL A   1      43.849  27.762  30.380  1.00  0.00     0.031 C 
ATOM     43  C   UNL A   1      44.259  31.821  27.451  1.00  0.00     0.029 A 
ATOM     44  N   UNL A   1      43.845  32.161  29.623  1.00  0.00    -0.354 N 
ATOM     45  C   UNL A   1      43.450  28.834  32.359  1.00  0.00     0.074 A 
ATOM     46  C   UNL A   1      43.604  27.573  31.668  1.00  0.00     0.031 C 
ATOM     47  C   UNL A   1      44.206  33.149  27.652  1.00  0.00     0.029 A 
ATOM     48  C   UNL A   1      43.896  33.411  29.057  1.00  0.00     0.049 A 
ATOM     49  H   UNL A   1      43.697  32.011  30.585  1.00  0.00     0.167 HD
ATOM     50  C   UNL A   1      43.257  28.952  33.695  1.00  0.00     0.037 A 
ATOM     51  C   UNL A   1      43.691  34.623  29.609  1.00  0.00     0.037 A 
ATOM     52  C   UNL A   1      43.100  30.208  34.382  1.00  0.00     0.049 A 
ATOM     53  C   UNL A   1      43.387  34.719  31.085  1.00  0.00     0.074 A 
ATOM     54  C   UNL A   1      42.902  30.433  35.733  1.00  0.00     0.029 A 
ATOM     55  N   UNL A   1      43.114  31.451  33.768  1.00  0.00    -0.354 N 
ATOM     56  N   UNL A   1      43.315  33.767  31.984  1.00  0.00    -0.248 NA
ATOM     57  C   UNL A   1      43.141  36.065  31.624  1.00  0.00     0.031 C 
ATOM     58  C   UNL A   1      42.739  31.807  35.928  1.00  0.00     0.029 A 
ATOM     59  C   UNL A   1      42.900  32.446  34.710  1.00  0.00     0.049 A 
ATOM     60  H   UNL A   1      43.254  31.605  32.806  1.00  0.00     0.167 HD
ATOM     61  C   UNL A   1      43.050  34.400  33.194  1.00  0.00     0.074 A 
ATOM     62  C   UNL A   1      42.999  35.818  32.917  1.00  0.00     0.031 C 
ATOM     63  C   UNL A   1      42.862  33.856  34.423  1.00  0.00     0.037 A 
BRANCH  50  64
ATOM     64  C   UNL A   1      43.184  27.690  34.504  1.00  0.00     0.064 A 
ATOM     65  C   UNL A   1      44.311  27.165  35.154  1.00  0.00     0.173 A 
ATOM     66  C   UNL A   1      41.958  27.030  34.678  1.00  0.00     0.173 A 
ATOM     67  F   UNL A   1      45.510  27.749  35.007  1.00  0.00    -0.203 F 
ATOM     68  C   UNL A   1      44.216  26.015  35.935  1.00  0.00     0.198 A 
ATOM     69  C   UNL A   1      41.861  25.898  35.484  1.00  0.00     0.198 A 
ATOM     70  F   UNL A   1      40.850  27.491  34.079  1.00  0.00    -0.203 F 
ATOM     71  F   UNL A   1      45.313  25.508  36.514  1.00  0.00    -0.200 F 
ATOM     72  C   UNL A   1      42.990  25.390  36.107  1.00  0.00     0.200 A 
ATOM     73  F   UNL A   1      40.673  25.304  35.661  1.00  0.00    -0.200 F 
ATOM     74  F   UNL A   1      42.898  24.293  36.873  1.00  0.00    -0.200 F 
ENDBRANCH  50  64
BRANCH  51  75
ATOM     75  C   UNL A   1      43.738  35.854  28.771  1.00  0.00     0.064 A 
ATOM     76  C   UNL A   1      42.584  36.356  28.153  1.00  0.00     0.173 A 
ATOM     77  C   UNL A   1      44.949  36.515  28.520  1.00  0.00     0.173 A 
ATOM     78  F   UNL A   1      41.405  35.745  28.336  1.00  0.00    -0.203 F 
ATOM     79  C   UNL A   1      42.647  37.448  27.286  1.00  0.00     0.198 A 
ATOM     80  C   UNL A   1      45.005  37.628  27.684  1.00  0.00     0.198 A 
ATOM     81  F   UNL A   1      46.084  36.074  29.083  1.00  0.00    -0.203 F 
ATOM     82  F   UNL A   1      41.542  37.860  26.652  1.00  0.00    -0.200 F 
ATOM     83  C   UNL A   1      43.857  38.085  27.057  1.00  0.00     0.200 A 
ATOM     84  F   UNL A   1      46.174  38.247  27.475  1.00  0.00    -0.200 F 
ATOM     85  F   UNL A   1      43.918  39.128  26.218  1.00  0.00    -0.200 F 
ENDBRANCH  51  75
BRANCH  63  86
ATOM     86  C   UNL A   1      42.627  34.802  35.568  1.00  0.00     0.064 A 
ATOM     87  C   UNL A   1      41.338  35.212  35.938  1.00  0.00     0.173 A 
ATOM     88  C   UNL A   1      43.709  35.289  36.319  1.00  0.00     0.173 A 
ATOM     89  F   UNL A   1      40.269  34.787  35.247  1.00  0.00    -0.203 F 
ATOM     90  C   UNL A   1      41.143  36.105  36.989  1.00  0.00     0.198 A 
ATOM     91  C   UNL A   1      43.508  36.150  37.395  1.00  0.00     0.198 A 
ATOM     92  F   UNL A   1      44.963  34.920  36.019  1.00  0.00    -0.203 F 
ATOM     93  F   UNL A   1      39.907  36.534  37.281  1.00  0.00    -0.200 F 
ATOM     94  C   UNL A   1      42.227  36.568  37.720  1.00  0.00     0.200 A 
ATOM     95  F   UNL A   1      44.555  36.580  38.112  1.00  0.00    -0.200 F 
ATOM     96  F   UNL A   1      42.037  37.424  38.733  1.00  0.00    -0.200 F 
ENDBRANCH  63  86
ENDBRANCH  37  38
ENDBRANCH  30  32
ENDBRANCH  29  30
ENDBRANCH  28  29
ENDBRANCH  27  28
ENDBRANCH  26  27
ENDBRANCH  25  26
ENDBRANCH  24  25
ENDBRANCH  23  24
ENDBRANCH  22  23
ENDBRANCH   1  22
TORSDOF 25
ENDMDL
