MODEL 1
REMARK VINA RESULT:     -10.5      0.000      0.000
REMARK SMILES Cc1n[nH]c(C[N@H+]2CCC[C@H](c3cccc(C(=O)OCCOCCOCCOCCOC(=O)c4ccc(-c5c6nc(c(-c7c(F)c(F)c(F)c(F)c7F)c7ccc([nH]7)c(-c7c(F)c(F)c(F)c(F)c7F)c7nc(c(-c8c(F)c(F)c(F)c(F)c8F)c8ccc5[nH]8)C=C7)C=C6)cc4)c3)C2)n1
REMARK SMILES IDX 24 1 23 2 22 3 21 4 20 5 19 6 17 7 18 8 16 9 12 10 13 11
REMARK SMILES IDX 97 12 14 13 15 14 11 15 7 16 8 17 98 18 9 20 10 21 6 22 5 23
REMARK SMILES IDX 1 24 2 25 3 26 99 27 4 28 25 30 26 31 27 32 28 33 29 34
REMARK SMILES IDX 30 35 31 36 32 37 33 38 34 39 35 40 96 41 36 42 95 43 37 44
REMARK SMILES IDX 38 45 39 46 89 47 40 48 94 49 88 50 90 51 41 52 93 53 87 54
REMARK SMILES IDX 86 55 42 57 74 58 54 59 73 60 55 61 58 62 72 63 91 64 56 65
REMARK SMILES IDX 57 66 71 68 92 69 59 70 43 71 44 72 52 73 45 74 46 75 50 76
REMARK SMILES IDX 53 77 47 78 48 79 51 80 49 81 75 82 76 83 84 84 77 85 78 86
REMARK SMILES IDX 82 87 85 88 79 89 80 90 83 91 81 92 60 93 61 94 69 95 62 96
REMARK SMILES IDX 63 97 67 98 70 99 64 100 65 101 68 102 66 103
REMARK H PARENT 7 19 4 29 90 56 58 67
REMARK Flexibility Score: inf
ROOT
ATOM      1  C   UNL A   1      32.211  32.615  26.917  1.00  0.00     0.188 C 
ENDROOT
BRANCH   1   2
ATOM      2  C   UNL A   1      32.945  31.258  27.018  1.00  0.00     0.188 C 
BRANCH   2   3
ATOM      3  O   UNL A   1      32.097  30.135  27.217  1.00  0.00    -0.376 OA
BRANCH   3   4
ATOM      4  C   UNL A   1      32.668  28.859  26.978  1.00  0.00     0.202 C 
BRANCH   4   5
ATOM      5  C   UNL A   1      33.600  28.866  25.763  1.00  0.00     0.261 C 
BRANCH   5   6
ATOM      6  O   UNL A   1      32.912  29.048  24.517  1.00  0.00    -0.460 OA
BRANCH   6   7
ATOM      7  C   UNL A   1      33.450  28.443  23.431  1.00  0.00     0.338 C 
ATOM      8  O   UNL A   1      34.392  28.833  22.767  1.00  0.00    -0.246 OA
BRANCH   7   9
ATOM      9  C   UNL A   1      32.839  27.100  23.323  1.00  0.00     0.060 A 
ATOM     10  C   UNL A   1      33.082  24.689  23.047  1.00  0.00    -0.038 A 
ATOM     11  C   UNL A   1      31.683  24.603  22.956  1.00  0.00     0.004 A 
ATOM     12  C   UNL A   1      33.645  25.967  23.172  1.00  0.00     0.020 A 
ATOM     13  C   UNL A   1      30.872  25.738  23.075  1.00  0.00     0.001 A 
ATOM     14  C   UNL A   1      31.449  26.986  23.287  1.00  0.00     0.016 A 
BRANCH  10  15
ATOM     15  C   UNL A   1      33.996  23.457  23.023  1.00  0.00     0.074 C 
ATOM     16  N   UNL A   1      32.883  22.164  24.856  1.00  0.00    -0.328 N 
ATOM     17  C   UNL A   1      34.006  22.394  25.773  1.00  0.00     0.262 C 
ATOM     18  C   UNL A   1      33.319  22.128  23.444  1.00  0.00     0.270 C 
ATOM     19  H   UNL A   1      32.266  22.969  24.959  1.00  0.00     0.348 HD
ATOM     20  C   UNL A   1      34.812  23.643  25.407  1.00  0.00     0.062 C 
ATOM     21  C   UNL A   1      35.233  23.614  23.938  1.00  0.00     0.020 C 
BRANCH  16  22
ATOM     22  C   UNL A   1      32.074  20.988  25.218  1.00  0.00     0.340 C 
BRANCH  22  23
ATOM     23  C   UNL A   1      32.764  19.679  25.045  1.00  0.00     0.179 A 
ATOM     24  C   UNL A   1      33.126  16.192  24.676  1.00  0.00     0.092 C 
ATOM     25  C   UNL A   1      33.289  17.654  24.778  1.00  0.00     0.147 A 
ATOM     26  N   UNL A   1      34.417  18.295  24.451  1.00  0.00    -0.159 NA
ATOM     27  N   UNL A   1      32.262  18.466  25.174  1.00  0.00    -0.211 NA
ATOM     28  N   UNL A   1      34.064  19.575  24.642  1.00  0.00    -0.258 N 
ATOM     29  H   UNL A   1      34.667  20.343  24.511  1.00  0.00     0.192 HD
ENDBRANCH  22  23
ENDBRANCH  16  22
ENDBRANCH  10  15
ENDBRANCH   7   9
ENDBRANCH   6   7
ENDBRANCH   5   6
ENDBRANCH   4   5
ENDBRANCH   3   4
ENDBRANCH   2   3
ENDBRANCH   1   2
BRANCH   1  30
ATOM     30  O   UNL A   1      32.195  33.567  27.979  1.00  0.00    -0.377 OA
BRANCH  30  31
ATOM     31  C   UNL A   1      33.396  34.226  28.342  1.00  0.00     0.188 C 
BRANCH  31  32
ATOM     32  C   UNL A   1      34.217  33.652  29.519  1.00  0.00     0.188 C 
BRANCH  32  33
ATOM     33  O   UNL A   1      35.453  34.317  29.771  1.00  0.00    -0.376 OA
BRANCH  33  34
ATOM     34  C   UNL A   1      36.646  33.731  29.272  1.00  0.00     0.202 C 
BRANCH  34  35
ATOM     35  C   UNL A   1      37.238  32.673  30.202  1.00  0.00     0.261 C 
BRANCH  35  36
ATOM     36  O   UNL A   1      37.011  31.352  29.737  1.00  0.00    -0.460 OA
BRANCH  36  37
ATOM     37  C   UNL A   1      36.712  30.455  30.693  1.00  0.00     0.338 C 
ATOM     38  O   UNL A   1      36.142  30.662  31.751  1.00  0.00    -0.246 OA
BRANCH  37  39
ATOM     39  C   UNL A   1      37.269  29.153  30.313  1.00  0.00     0.060 A 
ATOM     40  C   UNL A   1      37.976  28.513  31.331  1.00  0.00     0.016 A 
ATOM     41  C   UNL A   1      37.519  28.929  28.954  1.00  0.00     0.016 A 
ATOM     42  C   UNL A   1      39.194  27.984  30.999  1.00  0.00     0.010 A 
ATOM     43  C   UNL A   1      38.752  28.435  28.625  1.00  0.00     0.010 A 
ATOM     44  C   UNL A   1      39.609  28.096  29.669  1.00  0.00    -0.014 A 
BRANCH  44  45
ATOM     45  C   UNL A   1      41.022  27.970  29.422  1.00  0.00     0.031 A 
ATOM     46  C   UNL A   1      41.446  26.659  28.913  1.00  0.00     0.074 A 
ATOM     47  C   UNL A   1      41.847  29.024  29.562  1.00  0.00     0.049 A 
ATOM     48  N   UNL A   1      42.302  25.844  29.431  1.00  0.00    -0.248 NA
ATOM     49  C   UNL A   1      40.755  26.152  27.719  1.00  0.00     0.031 C 
ATOM     50  C   UNL A   1      41.495  30.437  29.731  1.00  0.00     0.029 A 
ATOM     51  N   UNL A   1      43.198  29.053  29.440  1.00  0.00    -0.354 N 
ATOM     52  C   UNL A   1      42.373  24.778  28.545  1.00  0.00     0.074 A 
ATOM     53  C   UNL A   1      41.309  24.950  27.590  1.00  0.00     0.031 C 
ATOM     54  C   UNL A   1      42.582  31.192  29.452  1.00  0.00     0.029 A 
ATOM     55  C   UNL A   1      43.711  30.312  29.187  1.00  0.00     0.049 A 
ATOM     56  H   UNL A   1      43.762  28.250  29.524  1.00  0.00     0.167 HD
ATOM     57  C   UNL A   1      43.438  23.939  28.527  1.00  0.00     0.037 A 
ATOM     58  C   UNL A   1      44.935  30.573  28.666  1.00  0.00     0.037 A 
ATOM     59  C   UNL A   1      44.179  23.973  29.757  1.00  0.00     0.049 A 
ATOM     60  C   UNL A   1      45.766  29.346  28.818  1.00  0.00     0.074 A 
ATOM     61  C   UNL A   1      43.842  23.758  31.082  1.00  0.00     0.029 A 
ATOM     62  N   UNL A   1      45.395  24.611  29.789  1.00  0.00    -0.354 N 
ATOM     63  N   UNL A   1      46.228  28.898  29.953  1.00  0.00    -0.248 NA
ATOM     64  C   UNL A   1      45.721  28.367  27.738  1.00  0.00     0.031 C 
ATOM     65  C   UNL A   1      44.609  24.705  31.821  1.00  0.00     0.029 A 
ATOM     66  C   UNL A   1      45.382  25.413  30.904  1.00  0.00     0.049 A 
ATOM     67  H   UNL A   1      46.131  24.513  29.142  1.00  0.00     0.167 HD
ATOM     68  C   UNL A   1      46.147  27.516  29.852  1.00  0.00     0.074 A 
ATOM     69  C   UNL A   1      45.916  27.246  28.437  1.00  0.00     0.031 C 
ATOM     70  C   UNL A   1      45.983  26.725  30.952  1.00  0.00     0.037 A 
BRANCH  57  71
ATOM     71  C   UNL A   1      43.957  23.326  27.261  1.00  0.00     0.064 A 
ATOM     72  C   UNL A   1      44.717  24.103  26.373  1.00  0.00     0.173 A 
ATOM     73  C   UNL A   1      43.515  22.076  26.768  1.00  0.00     0.173 A 
ATOM     74  F   UNL A   1      45.142  25.324  26.729  1.00  0.00    -0.203 F 
ATOM     75  C   UNL A   1      44.986  23.672  25.072  1.00  0.00     0.198 A 
ATOM     76  C   UNL A   1      43.840  21.623  25.494  1.00  0.00     0.198 A 
ATOM     77  F   UNL A   1      42.667  21.301  27.458  1.00  0.00    -0.203 F 
ATOM     78  F   UNL A   1      45.618  24.491  24.221  1.00  0.00    -0.200 F 
ATOM     79  C   UNL A   1      44.552  22.432  24.636  1.00  0.00     0.200 A 
ATOM     80  F   UNL A   1      43.390  20.429  25.084  1.00  0.00    -0.200 F 
ATOM     81  F   UNL A   1      44.773  22.038  23.375  1.00  0.00    -0.200 F 
ENDBRANCH  57  71
BRANCH  58  82
ATOM     82  C   UNL A   1      45.315  31.690  27.768  1.00  0.00     0.064 A 
ATOM     83  C   UNL A   1      44.571  31.968  26.611  1.00  0.00     0.173 A 
ATOM     84  C   UNL A   1      46.273  32.657  28.139  1.00  0.00     0.173 A 
ATOM     85  F   UNL A   1      43.598  31.134  26.218  1.00  0.00    -0.203 F 
ATOM     86  C   UNL A   1      44.771  33.140  25.874  1.00  0.00     0.198 A 
ATOM     87  C   UNL A   1      46.487  33.814  27.391  1.00  0.00     0.198 A 
ATOM     88  F   UNL A   1      46.959  32.550  29.285  1.00  0.00    -0.203 F 
ATOM     89  F   UNL A   1      44.000  33.398  24.808  1.00  0.00    -0.200 F 
ATOM     90  C   UNL A   1      45.729  34.062  26.265  1.00  0.00     0.200 A 
ATOM     91  F   UNL A   1      47.393  34.713  27.804  1.00  0.00    -0.200 F 
ATOM     92  F   UNL A   1      45.892  35.204  25.582  1.00  0.00    -0.200 F 
ENDBRANCH  58  82
BRANCH  70  93
ATOM     93  C   UNL A   1      46.158  27.341  32.309  1.00  0.00     0.064 A 
ATOM     94  C   UNL A   1      45.133  28.015  32.995  1.00  0.00     0.173 A 
ATOM     95  C   UNL A   1      47.353  27.107  33.004  1.00  0.00     0.173 A 
ATOM     96  F   UNL A   1      43.921  28.172  32.444  1.00  0.00    -0.203 F 
ATOM     97  C   UNL A   1      45.321  28.483  34.294  1.00  0.00     0.198 A 
ATOM     98  C   UNL A   1      47.524  27.541  34.316  1.00  0.00     0.198 A 
ATOM     99  F   UNL A   1      48.345  26.411  32.423  1.00  0.00    -0.203 F 
ATOM    100  F   UNL A   1      44.332  29.139  34.921  1.00  0.00    -0.200 F 
ATOM    101  C   UNL A   1      46.513  28.241  34.955  1.00  0.00     0.200 A 
ATOM    102  F   UNL A   1      48.658  27.257  34.970  1.00  0.00    -0.200 F 
ATOM    103  F   UNL A   1      46.679  28.655  36.220  1.00  0.00    -0.200 F 
ENDBRANCH  70  93
ENDBRANCH  44  45
ENDBRANCH  37  39
ENDBRANCH  36  37
ENDBRANCH  35  36
ENDBRANCH  34  35
ENDBRANCH  33  34
ENDBRANCH  32  33
ENDBRANCH  31  32
ENDBRANCH  30  31
ENDBRANCH   1  30
TORSDOF 23
ENDMDL
MODEL 2
REMARK VINA RESULT:     -10.3      4.130      8.187
REMARK SMILES Cc1n[nH]c(C[N@H+]2CCC[C@H](c3cccc(C(=O)OCCOCCOCCOCCOC(=O)c4ccc(-c5c6nc(c(-c7c(F)c(F)c(F)c(F)c7F)c7ccc([nH]7)c(-c7c(F)c(F)c(F)c(F)c7F)c7nc(c(-c8c(F)c(F)c(F)c(F)c8F)c8ccc5[nH]8)C=C7)C=C6)cc4)c3)C2)n1
REMARK SMILES IDX 24 1 23 2 22 3 21 4 20 5 19 6 17 7 18 8 16 9 12 10 13 11
REMARK SMILES IDX 97 12 14 13 15 14 11 15 7 16 8 17 98 18 9 20 10 21 6 22 5 23
REMARK SMILES IDX 1 24 2 25 3 26 99 27 4 28 25 30 26 31 27 32 28 33 29 34
REMARK SMILES IDX 30 35 31 36 32 37 33 38 34 39 35 40 96 41 36 42 95 43 37 44
REMARK SMILES IDX 38 45 39 46 89 47 40 48 94 49 88 50 90 51 41 52 93 53 87 54
REMARK SMILES IDX 86 55 42 57 74 58 54 59 73 60 55 61 58 62 72 63 91 64 56 65
REMARK SMILES IDX 57 66 71 68 92 69 59 70 43 71 44 72 52 73 45 74 46 75 50 76
REMARK SMILES IDX 53 77 47 78 48 79 51 80 49 81 75 82 76 83 84 84 77 85 78 86
REMARK SMILES IDX 82 87 85 88 79 89 80 90 83 91 81 92 60 93 61 94 69 95 62 96
REMARK SMILES IDX 63 97 67 98 70 99 64 100 65 101 68 102 66 103
REMARK H PARENT 7 19 4 29 90 56 58 67
REMARK Flexibility Score: inf
ROOT
ATOM      1  C   UNL A   1      34.747  21.216  24.888  1.00  0.00     0.188 C 
ENDROOT
BRANCH   1   2
ATOM      2  C   UNL A   1      34.058  21.636  26.207  1.00  0.00     0.188 C 
BRANCH   2   3
ATOM      3  O   UNL A   1      32.639  21.553  26.191  1.00  0.00    -0.376 OA
BRANCH   3   4
ATOM      4  C   UNL A   1      31.986  22.087  25.050  1.00  0.00     0.202 C 
BRANCH   4   5
ATOM      5  C   UNL A   1      31.936  23.617  25.082  1.00  0.00     0.261 C 
BRANCH   5   6
ATOM      6  O   UNL A   1      30.658  24.153  24.713  1.00  0.00    -0.460 OA
BRANCH   6   7
ATOM      7  C   UNL A   1      30.089  25.025  25.581  1.00  0.00     0.338 C 
ATOM      8  O   UNL A   1      30.238  25.059  26.787  1.00  0.00    -0.246 OA
BRANCH   7   9
ATOM      9  C   UNL A   1      29.432  26.083  24.781  1.00  0.00     0.060 A 
ATOM     10  C   UNL A   1      29.513  28.270  23.706  1.00  0.00    -0.038 A 
ATOM     11  C   UNL A   1      28.144  28.132  23.422  1.00  0.00     0.004 A 
ATOM     12  C   UNL A   1      30.127  27.249  24.445  1.00  0.00     0.020 A 
ATOM     13  C   UNL A   1      27.436  26.980  23.784  1.00  0.00     0.001 A 
ATOM     14  C   UNL A   1      28.087  25.940  24.440  1.00  0.00     0.016 A 
BRANCH  10  15
ATOM     15  C   UNL A   1      30.344  29.471  23.237  1.00  0.00     0.074 C 
ATOM     16  N   UNL A   1      32.610  28.423  23.427  1.00  0.00    -0.328 N 
ATOM     17  C   UNL A   1      32.950  29.243  24.595  1.00  0.00     0.262 C 
ATOM     18  C   UNL A   1      31.671  29.114  22.519  1.00  0.00     0.270 C 
ATOM     19  H   UNL A   1      32.126  27.602  23.790  1.00  0.00     0.348 HD
ATOM     20  C   UNL A   1      31.710  29.733  25.347  1.00  0.00     0.062 C 
ATOM     21  C   UNL A   1      30.729  30.420  24.397  1.00  0.00     0.020 C 
BRANCH  16  22
ATOM     22  C   UNL A   1      33.793  27.910  22.716  1.00  0.00     0.340 C 
BRANCH  22  23
ATOM     23  C   UNL A   1      33.587  26.609  22.019  1.00  0.00     0.179 A 
ATOM     24  C   UNL A   1      33.121  23.136  21.639  1.00  0.00     0.092 C 
ATOM     25  C   UNL A   1      33.265  24.596  21.484  1.00  0.00     0.147 A 
ATOM     26  N   UNL A   1      32.960  25.250  20.357  1.00  0.00    -0.159 NA
ATOM     27  N   UNL A   1      33.680  25.392  22.516  1.00  0.00    -0.211 NA
ATOM     28  N   UNL A   1      33.186  26.523  20.717  1.00  0.00    -0.258 N 
ATOM     29  H   UNL A   1      33.078  27.297  20.117  1.00  0.00     0.192 HD
ENDBRANCH  22  23
ENDBRANCH  16  22
ENDBRANCH  10  15
ENDBRANCH   7   9
ENDBRANCH   6   7
ENDBRANCH   5   6
ENDBRANCH   4   5
ENDBRANCH   3   4
ENDBRANCH   2   3
ENDBRANCH   1   2
BRANCH   1  30
ATOM     30  O   UNL A   1      35.214  22.158  23.924  1.00  0.00    -0.377 OA
BRANCH  30  31
ATOM     31  C   UNL A   1      36.587  22.509  23.902  1.00  0.00     0.188 C 
BRANCH  31  32
ATOM     32  C   UNL A   1      37.161  23.286  25.109  1.00  0.00     0.188 C 
BRANCH  32  33
ATOM     33  O   UNL A   1      37.779  22.476  26.106  1.00  0.00    -0.376 OA
BRANCH  33  34
ATOM     34  C   UNL A   1      38.643  21.431  25.683  1.00  0.00     0.202 C 
BRANCH  34  35
ATOM     35  C   UNL A   1      40.024  21.482  26.338  1.00  0.00     0.261 C 
BRANCH  35  36
ATOM     36  O   UNL A   1      40.041  22.289  27.504  1.00  0.00    -0.460 OA
BRANCH  36  37
ATOM     37  C   UNL A   1      41.208  22.912  27.747  1.00  0.00     0.338 C 
ATOM     38  O   UNL A   1      42.102  22.548  28.491  1.00  0.00    -0.246 OA
BRANCH  37  39
ATOM     39  C   UNL A   1      41.220  24.193  27.032  1.00  0.00     0.060 A 
ATOM     40  C   UNL A   1      42.458  24.836  27.029  1.00  0.00     0.016 A 
ATOM     41  C   UNL A   1      40.005  24.877  26.913  1.00  0.00     0.016 A 
ATOM     42  C   UNL A   1      42.462  26.171  27.331  1.00  0.00     0.010 A 
ATOM     43  C   UNL A   1      40.007  26.203  27.252  1.00  0.00     0.010 A 
ATOM     44  C   UNL A   1      41.231  26.783  27.579  1.00  0.00    -0.014 A 
BRANCH  44  45
ATOM     45  C   UNL A   1      41.262  28.015  28.324  1.00  0.00     0.031 A 
ATOM     46  C   UNL A   1      42.349  28.932  27.956  1.00  0.00     0.074 A 
ATOM     47  C   UNL A   1      40.295  28.313  29.211  1.00  0.00     0.049 A 
ATOM     48  N   UNL A   1      43.276  29.411  28.715  1.00  0.00    -0.248 NA
ATOM     49  C   UNL A   1      42.470  29.287  26.535  1.00  0.00     0.031 C 
ATOM     50  C   UNL A   1      39.005  27.643  29.409  1.00  0.00     0.029 A 
ATOM     51  N   UNL A   1      40.218  29.386  30.038  1.00  0.00    -0.354 N 
ATOM     52  C   UNL A   1      44.017  30.253  27.899  1.00  0.00     0.074 A 
ATOM     53  C   UNL A   1      43.568  30.036  26.548  1.00  0.00     0.031 C 
ATOM     54  C   UNL A   1      38.192  28.467  30.109  1.00  0.00     0.029 A 
ATOM     55  C   UNL A   1      38.938  29.660  30.483  1.00  0.00     0.049 A 
ATOM     56  H   UNL A   1      41.003  29.921  30.297  1.00  0.00     0.167 HD
ATOM     57  C   UNL A   1      44.800  31.233  28.414  1.00  0.00     0.037 A 
ATOM     58  C   UNL A   1      38.518  30.843  30.994  1.00  0.00     0.037 A 
ATOM     59  C   UNL A   1      45.140  30.993  29.789  1.00  0.00     0.049 A 
ATOM     60  C   UNL A   1      39.725  31.623  31.386  1.00  0.00     0.074 A 
ATOM     61  C   UNL A   1      45.755  29.946  30.452  1.00  0.00     0.029 A 
ATOM     62  N   UNL A   1      44.532  31.738  30.769  1.00  0.00    -0.354 N 
ATOM     63  N   UNL A   1      40.497  31.340  32.399  1.00  0.00    -0.248 NA
ATOM     64  C   UNL A   1      40.324  32.486  30.374  1.00  0.00     0.031 C 
ATOM     65  C   UNL A   1      45.076  29.843  31.700  1.00  0.00     0.029 A 
ATOM     66  C   UNL A   1      44.112  30.849  31.728  1.00  0.00     0.049 A 
ATOM     67  H   UNL A   1      44.420  32.717  30.783  1.00  0.00     0.167 HD
ATOM     68  C   UNL A   1      41.781  31.637  31.965  1.00  0.00     0.074 A 
ATOM     69  C   UNL A   1      41.604  32.425  30.749  1.00  0.00     0.031 C 
ATOM     70  C   UNL A   1      42.874  30.984  32.457  1.00  0.00     0.037 A 
BRANCH  57  71
ATOM     71  C   UNL A   1      44.989  32.554  27.730  1.00  0.00     0.064 A 
ATOM     72  C   UNL A   1      46.217  32.851  27.118  1.00  0.00     0.173 A 
ATOM     73  C   UNL A   1      44.093  33.638  27.879  1.00  0.00     0.173 A 
ATOM     74  F   UNL A   1      47.154  31.902  26.974  1.00  0.00    -0.203 F 
ATOM     75  C   UNL A   1      46.537  34.150  26.716  1.00  0.00     0.198 A 
ATOM     76  C   UNL A   1      44.391  34.916  27.419  1.00  0.00     0.198 A 
ATOM     77  F   UNL A   1      42.951  33.524  28.570  1.00  0.00    -0.203 F 
ATOM     78  F   UNL A   1      47.761  34.413  26.239  1.00  0.00    -0.200 F 
ATOM     79  C   UNL A   1      45.623  35.179  26.862  1.00  0.00     0.200 A 
ATOM     80  F   UNL A   1      43.500  35.902  27.591  1.00  0.00    -0.200 F 
ATOM     81  F   UNL A   1      45.947  36.431  26.516  1.00  0.00    -0.200 F 
ENDBRANCH  57  71
BRANCH  58  82
ATOM     82  C   UNL A   1      37.176  31.459  30.863  1.00  0.00     0.064 A 
ATOM     83  C   UNL A   1      36.382  31.701  31.996  1.00  0.00     0.173 A 
ATOM     84  C   UNL A   1      36.730  32.038  29.657  1.00  0.00     0.173 A 
ATOM     85  F   UNL A   1      36.762  31.240  33.196  1.00  0.00    -0.203 F 
ATOM     86  C   UNL A   1      35.220  32.475  31.926  1.00  0.00     0.198 A 
ATOM     87  C   UNL A   1      35.559  32.791  29.584  1.00  0.00     0.198 A 
ATOM     88  F   UNL A   1      37.467  31.966  28.540  1.00  0.00    -0.203 F 
ATOM     89  F   UNL A   1      34.521  32.733  33.040  1.00  0.00    -0.200 F 
ATOM     90  C   UNL A   1      34.809  33.020  30.719  1.00  0.00     0.200 A 
ATOM     91  F   UNL A   1      35.196  33.341  28.415  1.00  0.00    -0.200 F 
ATOM     92  F   UNL A   1      33.718  33.796  30.660  1.00  0.00    -0.200 F 
ENDBRANCH  58  82
BRANCH  70  93
ATOM     93  C   UNL A   1      42.704  30.120  33.671  1.00  0.00     0.064 A 
ATOM     94  C   UNL A   1      42.848  30.590  34.988  1.00  0.00     0.173 A 
ATOM     95  C   UNL A   1      42.226  28.812  33.503  1.00  0.00     0.173 A 
ATOM     96  F   UNL A   1      43.184  31.864  35.232  1.00  0.00    -0.203 F 
ATOM     97  C   UNL A   1      42.582  29.769  36.081  1.00  0.00     0.198 A 
ATOM     98  C   UNL A   1      41.923  28.006  34.597  1.00  0.00     0.198 A 
ATOM     99  F   UNL A   1      42.005  28.329  32.269  1.00  0.00    -0.203 F 
ATOM    100  F   UNL A   1      42.743  30.237  37.328  1.00  0.00    -0.200 F 
ATOM    101  C   UNL A   1      42.114  28.480  35.885  1.00  0.00     0.200 A 
ATOM    102  F   UNL A   1      41.418  26.780  34.403  1.00  0.00    -0.200 F 
ATOM    103  F   UNL A   1      41.818  27.703  36.938  1.00  0.00    -0.200 F 
ENDBRANCH  70  93
ENDBRANCH  44  45
ENDBRANCH  37  39
ENDBRANCH  36  37
ENDBRANCH  35  36
ENDBRANCH  34  35
ENDBRANCH  33  34
ENDBRANCH  32  33
ENDBRANCH  31  32
ENDBRANCH  30  31
ENDBRANCH   1  30
TORSDOF 23
ENDMDL
MODEL 3
REMARK VINA RESULT:     -10.2      6.483     13.956
REMARK SMILES Cc1n[nH]c(C[N@H+]2CCC[C@H](c3cccc(C(=O)OCCOCCOCCOCCOC(=O)c4ccc(-c5c6nc(c(-c7c(F)c(F)c(F)c(F)c7F)c7ccc([nH]7)c(-c7c(F)c(F)c(F)c(F)c7F)c7nc(c(-c8c(F)c(F)c(F)c(F)c8F)c8ccc5[nH]8)C=C7)C=C6)cc4)c3)C2)n1
REMARK SMILES IDX 24 1 23 2 22 3 21 4 20 5 19 6 17 7 18 8 16 9 12 10 13 11
REMARK SMILES IDX 97 12 14 13 15 14 11 15 7 16 8 17 98 18 9 20 10 21 6 22 5 23
REMARK SMILES IDX 1 24 2 25 3 26 99 27 4 28 25 30 26 31 27 32 28 33 29 34
REMARK SMILES IDX 30 35 31 36 32 37 33 38 34 39 35 40 96 41 36 42 95 43 37 44
REMARK SMILES IDX 38 45 39 46 89 47 40 48 94 49 88 50 90 51 41 52 93 53 87 54
REMARK SMILES IDX 86 55 42 57 74 58 54 59 73 60 55 61 58 62 72 63 91 64 56 65
REMARK SMILES IDX 57 66 71 68 92 69 59 70 43 71 44 72 52 73 45 74 46 75 50 76
REMARK SMILES IDX 53 77 47 78 48 79 51 80 49 81 75 82 76 83 84 84 77 85 78 86
REMARK SMILES IDX 82 87 85 88 79 89 80 90 83 91 81 92 60 93 61 94 69 95 62 96
REMARK SMILES IDX 63 97 67 98 70 99 64 100 65 101 68 102 66 103
REMARK H PARENT 7 19 4 29 90 56 58 67
REMARK Flexibility Score: inf
ROOT
ATOM      1  C   UNL A   1      44.149  34.083  26.616  1.00  0.00     0.188 C 
ENDROOT
BRANCH   1   2
ATOM      2  C   UNL A   1      45.322  35.068  26.832  1.00  0.00     0.188 C 
BRANCH   2   3
ATOM      3  O   UNL A   1      44.975  36.271  27.503  1.00  0.00    -0.376 OA
BRANCH   3   4
ATOM      4  C   UNL A   1      43.589  36.523  27.675  1.00  0.00     0.202 C 
BRANCH   4   5
ATOM      5  C   UNL A   1      43.072  37.583  26.699  1.00  0.00     0.261 C 
BRANCH   5   6
ATOM      6  O   UNL A   1      42.138  38.496  27.291  1.00  0.00    -0.460 OA
BRANCH   6   7
ATOM      7  C   UNL A   1      41.755  39.552  26.534  1.00  0.00     0.338 C 
ATOM      8  O   UNL A   1      40.669  39.727  26.017  1.00  0.00    -0.246 OA
BRANCH   7   9
ATOM      9  C   UNL A   1      42.818  40.578  26.632  1.00  0.00     0.060 A 
ATOM     10  C   UNL A   1      44.405  41.846  27.982  1.00  0.00    -0.038 A 
ATOM     11  C   UNL A   1      44.692  42.615  26.841  1.00  0.00     0.004 A 
ATOM     12  C   UNL A   1      43.412  40.863  27.866  1.00  0.00     0.020 A 
ATOM     13  C   UNL A   1      44.077  42.354  25.611  1.00  0.00     0.001 A 
ATOM     14  C   UNL A   1      43.158  41.316  25.498  1.00  0.00     0.016 A 
BRANCH  10  15
ATOM     15  C   UNL A   1      45.132  42.037  29.319  1.00  0.00     0.074 C 
ATOM     16  N   UNL A   1      43.144  42.654  30.710  1.00  0.00    -0.328 N 
ATOM     17  C   UNL A   1      43.582  44.051  30.812  1.00  0.00     0.262 C 
ATOM     18  C   UNL A   1      44.285  41.724  30.579  1.00  0.00     0.270 C 
ATOM     19  H   UNL A   1      42.604  42.590  29.847  1.00  0.00     0.348 HD
ATOM     20  C   UNL A   1      44.502  44.460  29.659  1.00  0.00     0.062 C 
ATOM     21  C   UNL A   1      45.663  43.477  29.509  1.00  0.00     0.020 C 
BRANCH  16  22
ATOM     22  C   UNL A   1      42.225  42.257  31.790  1.00  0.00     0.340 C 
BRANCH  22  23
ATOM     23  C   UNL A   1      42.853  41.458  32.881  1.00  0.00     0.179 A 
ATOM     24  C   UNL A   1      44.039  38.611  34.589  1.00  0.00     0.092 C 
ATOM     25  C   UNL A   1      43.676  39.961  34.116  1.00  0.00     0.147 A 
ATOM     26  N   UNL A   1      44.153  41.086  34.661  1.00  0.00    -0.159 NA
ATOM     27  N   UNL A   1      42.853  40.149  33.040  1.00  0.00    -0.211 NA
ATOM     28  N   UNL A   1      43.606  42.021  33.870  1.00  0.00    -0.258 N 
ATOM     29  H   UNL A   1      43.730  42.991  33.989  1.00  0.00     0.192 HD
ENDBRANCH  22  23
ENDBRANCH  16  22
ENDBRANCH  10  15
ENDBRANCH   7   9
ENDBRANCH   6   7
ENDBRANCH   5   6
ENDBRANCH   4   5
ENDBRANCH   3   4
ENDBRANCH   2   3
ENDBRANCH   1   2
BRANCH   1  30
ATOM     30  O   UNL A   1      44.025  32.858  27.336  1.00  0.00    -0.377 OA
BRANCH  30  31
ATOM     31  C   UNL A   1      44.719  31.709  26.880  1.00  0.00     0.188 C 
BRANCH  31  32
ATOM     32  C   UNL A   1      43.976  30.353  26.897  1.00  0.00     0.188 C 
BRANCH  32  33
ATOM     33  O   UNL A   1      44.789  29.227  27.219  1.00  0.00    -0.376 OA
BRANCH  33  34
ATOM     34  C   UNL A   1      45.525  28.608  26.174  1.00  0.00     0.202 C 
BRANCH  34  35
ATOM     35  C   UNL A   1      44.896  27.308  25.675  1.00  0.00     0.261 C 
BRANCH  35  36
ATOM     36  O   UNL A   1      43.711  26.974  26.380  1.00  0.00    -0.460 OA
BRANCH  36  37
ATOM     37  C   UNL A   1      42.721  26.470  25.621  1.00  0.00     0.338 C 
ATOM     38  O   UNL A   1      42.827  25.717  24.669  1.00  0.00    -0.246 OA
BRANCH  37  39
ATOM     39  C   UNL A   1      41.446  27.048  26.061  1.00  0.00     0.060 A 
ATOM     40  C   UNL A   1      41.317  28.413  25.806  1.00  0.00     0.016 A 
ATOM     41  C   UNL A   1      40.766  26.398  27.097  1.00  0.00     0.016 A 
ATOM     42  C   UNL A   1      40.851  29.192  26.831  1.00  0.00     0.010 A 
ATOM     43  C   UNL A   1      40.335  27.177  28.137  1.00  0.00     0.010 A 
ATOM     44  C   UNL A   1      40.511  28.555  28.026  1.00  0.00    -0.014 A 
BRANCH  44  45
ATOM     45  C   UNL A   1      40.471  29.378  29.207  1.00  0.00     0.031 A 
ATOM     46  C   UNL A   1      39.313  30.277  29.294  1.00  0.00     0.074 A 
ATOM     47  C   UNL A   1      41.387  29.235  30.182  1.00  0.00     0.049 A 
ATOM     48  N   UNL A   1      39.312  31.563  29.401  1.00  0.00    -0.248 NA
ATOM     49  C   UNL A   1      37.984  29.668  29.151  1.00  0.00     0.031 C 
ATOM     50  C   UNL A   1      42.368  28.160  30.358  1.00  0.00     0.029 A 
ATOM     51  N   UNL A   1      41.531  29.974  31.312  1.00  0.00    -0.354 N 
ATOM     52  C   UNL A   1      37.974  31.920  29.490  1.00  0.00     0.074 A 
ATOM     53  C   UNL A   1      37.200  30.742  29.195  1.00  0.00     0.031 C 
ATOM     54  C   UNL A   1      42.820  28.188  31.633  1.00  0.00     0.029 A 
ATOM     55  C   UNL A   1      42.235  29.333  32.314  1.00  0.00     0.049 A 
ATOM     56  H   UNL A   1      41.167  30.884  31.407  1.00  0.00     0.167 HD
ATOM     57  C   UNL A   1      37.589  33.110  30.016  1.00  0.00     0.037 A 
ATOM     58  C   UNL A   1      42.210  29.664  33.629  1.00  0.00     0.037 A 
ATOM     59  C   UNL A   1      38.650  34.079  30.001  1.00  0.00     0.049 A 
ATOM     60  C   UNL A   1      41.666  31.047  33.740  1.00  0.00     0.074 A 
ATOM     61  C   UNL A   1      39.447  34.608  29.002  1.00  0.00     0.029 A 
ATOM     62  N   UNL A   1      39.279  34.400  31.179  1.00  0.00    -0.354 N 
ATOM     63  N   UNL A   1      42.299  32.127  33.372  1.00  0.00    -0.248 NA
ATOM     64  C   UNL A   1      40.220  31.190  33.869  1.00  0.00     0.031 C 
ATOM     65  C   UNL A   1      40.733  34.769  29.596  1.00  0.00     0.029 A 
ATOM     66  C   UNL A   1      40.628  34.355  30.922  1.00  0.00     0.049 A 
ATOM     67  H   UNL A   1      38.850  34.620  32.038  1.00  0.00     0.167 HD
ATOM     68  C   UNL A   1      41.319  32.951  32.835  1.00  0.00     0.074 A 
ATOM     69  C   UNL A   1      40.051  32.362  33.252  1.00  0.00     0.031 C 
ATOM     70  C   UNL A   1      41.605  33.867  31.864  1.00  0.00     0.037 A 
BRANCH  57  71
ATOM     71  C   UNL A   1      36.331  33.266  30.816  1.00  0.00     0.064 A 
ATOM     72  C   UNL A   1      35.252  33.988  30.281  1.00  0.00     0.173 A 
ATOM     73  C   UNL A   1      36.244  32.952  32.191  1.00  0.00     0.173 A 
ATOM     74  F   UNL A   1      35.262  34.376  28.997  1.00  0.00    -0.203 F 
ATOM     75  C   UNL A   1      34.179  34.395  31.077  1.00  0.00     0.198 A 
ATOM     76  C   UNL A   1      35.144  33.303  32.965  1.00  0.00     0.198 A 
ATOM     77  F   UNL A   1      37.264  32.393  32.857  1.00  0.00    -0.203 F 
ATOM     78  F   UNL A   1      33.226  35.177  30.554  1.00  0.00    -0.200 F 
ATOM     79  C   UNL A   1      34.124  34.048  32.416  1.00  0.00     0.200 A 
ATOM     80  F   UNL A   1      35.121  32.977  34.265  1.00  0.00    -0.200 F 
ATOM     81  F   UNL A   1      33.116  34.475  33.188  1.00  0.00    -0.200 F 
ENDBRANCH  57  71
BRANCH  58  82
ATOM     82  C   UNL A   1      42.321  28.752  34.792  1.00  0.00     0.064 A 
ATOM     83  C   UNL A   1      41.584  27.558  34.842  1.00  0.00     0.173 A 
ATOM     84  C   UNL A   1      43.320  28.909  35.775  1.00  0.00     0.173 A 
ATOM     85  F   UNL A   1      40.656  27.299  33.911  1.00  0.00    -0.203 F 
ATOM     86  C   UNL A   1      41.835  26.582  35.812  1.00  0.00     0.198 A 
ATOM     87  C   UNL A   1      43.553  27.944  36.755  1.00  0.00     0.198 A 
ATOM     88  F   UNL A   1      44.156  29.955  35.754  1.00  0.00    -0.203 F 
ATOM     89  F   UNL A   1      41.151  25.429  35.791  1.00  0.00    -0.200 F 
ATOM     90  C   UNL A   1      42.819  26.776  36.768  1.00  0.00     0.200 A 
ATOM     91  F   UNL A   1      44.534  28.133  37.650  1.00  0.00    -0.200 F 
ATOM     92  F   UNL A   1      43.087  25.823  37.671  1.00  0.00    -0.200 F 
ENDBRANCH  58  82
BRANCH  70  93
ATOM     93  C   UNL A   1      43.045  34.165  31.565  1.00  0.00     0.064 A 
ATOM     94  C   UNL A   1      43.872  33.321  30.804  1.00  0.00     0.173 A 
ATOM     95  C   UNL A   1      43.560  35.418  31.925  1.00  0.00     0.173 A 
ATOM     96  F   UNL A   1      43.413  32.159  30.319  1.00  0.00    -0.203 F 
ATOM     97  C   UNL A   1      45.173  33.693  30.473  1.00  0.00     0.198 A 
ATOM     98  C   UNL A   1      44.847  35.804  31.559  1.00  0.00     0.198 A 
ATOM     99  F   UNL A   1      42.794  36.294  32.596  1.00  0.00    -0.203 F 
ATOM    100  F   UNL A   1      45.949  32.862  29.760  1.00  0.00    -0.200 F 
ATOM    101  C   UNL A   1      45.657  34.936  30.845  1.00  0.00     0.200 A 
ATOM    102  F   UNL A   1      45.291  37.029  31.874  1.00  0.00    -0.200 F 
ATOM    103  F   UNL A   1      46.895  35.311  30.491  1.00  0.00    -0.200 F 
ENDBRANCH  70  93
ENDBRANCH  44  45
ENDBRANCH  37  39
ENDBRANCH  36  37
ENDBRANCH  35  36
ENDBRANCH  34  35
ENDBRANCH  33  34
ENDBRANCH  32  33
ENDBRANCH  31  32
ENDBRANCH  30  31
ENDBRANCH   1  30
TORSDOF 23
ENDMDL
