MODEL 1
REMARK VINA RESULT:      -7.6      0.000      0.000
REMARK SMILES COc1cc([C@H]2CC(c3ccc(S(C)(=O)=O)cc3)=NN2c2ccc(C(=O)OCCOCCOCCOCCOC(=O)c3ccc(-c4c5nc(c(-c6c(F)c(F)c(F)c(F)c6F)c6ccc([nH]6)c(-c6c(F)c(F)c(F)c(F)c6F)c6nc(c(-c7c(F)c(F)c(F)c(F)c7F)c7ccc4[nH]7)C=C6)C=C5)cc3)cc2)cc(OC)c1OC
REMARK SMILES IDX 32 1 31 2 30 3 29 4 28 5 27 6 25 7 26 8 24 9 21 10 22 11
REMARK SMILES IDX 106 12 23 13 105 14 20 15 6 16 7 17 8 18 19 19 5 20 3 21
REMARK SMILES IDX 4 22 111 23 108 24 107 25 2 26 1 27 112 28 113 29 109 30
REMARK SMILES IDX 110 31 9 32 10 33 18 34 11 35 17 36 12 37 13 38 14 39 15 40
REMARK SMILES IDX 16 41 33 42 34 43 35 44 36 45 37 46 38 47 39 48 40 49 41 50
REMARK SMILES IDX 42 51 43 52 104 53 44 54 103 55 45 56 46 57 47 58 97 59
REMARK SMILES IDX 48 60 102 61 96 62 98 63 49 64 101 65 95 66 94 67 50 69
REMARK SMILES IDX 82 70 62 71 81 72 63 73 66 74 80 75 99 76 64 77 65 78 79 80
REMARK SMILES IDX 100 81 67 82 51 83 52 84 60 85 53 86 54 87 58 88 61 89 55 90
REMARK SMILES IDX 56 91 59 92 57 93 83 94 84 95 92 96 85 97 86 98 90 99 93 100
REMARK SMILES IDX 87 101 88 102 91 103 89 104 68 105 69 106 77 107 70 108
REMARK SMILES IDX 71 109 75 110 78 111 72 112 73 113 76 114 74 115
REMARK H PARENT 98 68 66 79
REMARK Flexibility Score: inf
ROOT
ATOM      1  C   UNL A   1      37.350  33.002  33.386  1.00  0.00     0.188 C 
ENDROOT
BRANCH   1   2
ATOM      2  C   UNL A   1      38.617  33.650  32.783  1.00  0.00     0.188 C 
BRANCH   2   3
ATOM      3  O   UNL A   1      39.299  34.518  33.670  1.00  0.00    -0.376 OA
BRANCH   3   4
ATOM      4  C   UNL A   1      40.643  34.861  33.394  1.00  0.00     0.202 C 
BRANCH   4   5
ATOM      5  C   UNL A   1      41.343  34.170  32.215  1.00  0.00     0.261 C 
BRANCH   5   6
ATOM      6  O   UNL A   1      42.190  34.999  31.413  1.00  0.00    -0.460 OA
BRANCH   6   7
ATOM      7  C   UNL A   1      41.926  35.037  30.087  1.00  0.00     0.338 C 
ATOM      8  O   UNL A   1      40.938  34.589  29.532  1.00  0.00    -0.246 OA
BRANCH   7   9
ATOM      9  C   UNL A   1      42.943  35.903  29.444  1.00  0.00     0.060 A 
ATOM     10  C   UNL A   1      44.879  37.578  28.284  1.00  0.00     0.060 A 
ATOM     11  C   UNL A   1      44.660  37.594  29.669  1.00  0.00     0.029 A 
ATOM     12  C   UNL A   1      44.172  36.651  27.504  1.00  0.00     0.029 A 
ATOM     13  C   UNL A   1      43.674  36.787  30.245  1.00  0.00     0.018 A 
ATOM     14  C   UNL A   1      43.221  35.803  28.078  1.00  0.00     0.018 A 
BRANCH  10  15
ATOM     15  N   UNL A   1      45.680  38.544  27.674  1.00  0.00    -0.257 N 
ATOM     16  C   UNL A   1      47.137  38.573  27.910  1.00  0.00     0.144 C 
ATOM     17  C   UNL A   1      47.633  39.481  26.774  1.00  0.00     0.091 C 
ATOM     18  C   UNL A   1      46.343  39.735  26.036  1.00  0.00     0.071 C 
ATOM     19  N   UNL A   1      45.284  39.176  26.535  1.00  0.00    -0.176 NA
BRANCH  16  20
ATOM     20  C   UNL A   1      47.743  37.168  27.930  1.00  0.00    -0.015 A 
ATOM     21  C   UNL A   1      48.728  35.280  26.715  1.00  0.00     0.164 A 
ATOM     22  C   UNL A   1      47.968  36.467  26.734  1.00  0.00     0.056 A 
ATOM     23  C   UNL A   1      49.299  34.765  27.893  1.00  0.00     0.203 A 
ATOM     24  C   UNL A   1      49.030  35.440  29.104  1.00  0.00     0.164 A 
ATOM     25  C   UNL A   1      48.260  36.616  29.107  1.00  0.00     0.056 A 
BRANCH  21  26
ATOM     26  O   UNL A   1      49.023  34.774  25.472  1.00  0.00    -0.493 OA
ATOM     27  C   UNL A   1      49.751  35.702  24.668  1.00  0.00     0.278 C 
ENDBRANCH  21  26
BRANCH  23  28
ATOM     28  O   UNL A   1      50.151  33.701  27.980  1.00  0.00    -0.490 OA
ATOM     29  C   UNL A   1      51.503  33.786  27.580  1.00  0.00     0.278 C 
ENDBRANCH  23  28
BRANCH  24  30
ATOM     30  O   UNL A   1      49.453  35.126  30.374  1.00  0.00    -0.493 OA
ATOM     31  C   UNL A   1      50.369  35.985  31.036  1.00  0.00     0.278 C 
ENDBRANCH  24  30
ENDBRANCH  16  20
BRANCH  18  32
ATOM     32  C   UNL A   1      46.302  40.630  24.865  1.00  0.00    -0.002 A 
ATOM     33  C   UNL A   1      45.503  41.779  24.927  1.00  0.00     0.011 A 
ATOM     34  C   UNL A   1      47.072  40.366  23.730  1.00  0.00     0.011 A 
ATOM     35  C   UNL A   1      45.495  42.686  23.862  1.00  0.00     0.021 A 
ATOM     36  C   UNL A   1      47.045  41.257  22.650  1.00  0.00     0.021 A 
ATOM     37  C   UNL A   1      46.262  42.417  22.724  1.00  0.00     0.067 A 
BRANCH  37  38
ATOM     38  S   UNL A   1      46.299  43.601  21.394  1.00  0.00     0.175 S 
ATOM     39  C   UNL A   1      44.598  43.970  21.062  1.00  0.00     0.163 C 
ATOM     40  O   UNL A   1      46.931  44.795  21.921  1.00  0.00    -0.224 OA
ATOM     41  O   UNL A   1      46.835  42.929  20.225  1.00  0.00    -0.224 OA
ENDBRANCH  37  38
ENDBRANCH  18  32
ENDBRANCH  10  15
ENDBRANCH   7   9
ENDBRANCH   6   7
ENDBRANCH   5   6
ENDBRANCH   4   5
ENDBRANCH   3   4
ENDBRANCH   2   3
ENDBRANCH   1   2
BRANCH   1  42
ATOM     42  O   UNL A   1      36.091  33.654  33.271  1.00  0.00    -0.377 OA
BRANCH  42  43
ATOM     43  C   UNL A   1      35.862  34.587  32.220  1.00  0.00     0.188 C 
BRANCH  43  44
ATOM     44  C   UNL A   1      34.662  34.431  31.257  1.00  0.00     0.188 C 
BRANCH  44  45
ATOM     45  O   UNL A   1      34.105  33.130  31.221  1.00  0.00    -0.376 OA
BRANCH  45  46
ATOM     46  C   UNL A   1      34.768  32.144  30.453  1.00  0.00     0.202 C 
BRANCH  46  47
ATOM     47  C   UNL A   1      34.687  32.255  28.924  1.00  0.00     0.261 C 
BRANCH  47  48
ATOM     48  O   UNL A   1      35.708  31.573  28.178  1.00  0.00    -0.460 OA
BRANCH  48  49
ATOM     49  C   UNL A   1      35.663  30.226  28.145  1.00  0.00     0.338 C 
ATOM     50  O   UNL A   1      34.690  29.522  27.921  1.00  0.00    -0.246 OA
BRANCH  49  51
ATOM     51  C   UNL A   1      37.051  29.732  28.247  1.00  0.00     0.060 A 
ATOM     52  C   UNL A   1      37.505  29.203  29.464  1.00  0.00     0.016 A 
ATOM     53  C   UNL A   1      37.898  29.779  27.137  1.00  0.00     0.016 A 
ATOM     54  C   UNL A   1      38.819  28.748  29.581  1.00  0.00     0.010 A 
ATOM     55  C   UNL A   1      39.220  29.346  27.262  1.00  0.00     0.010 A 
ATOM     56  C   UNL A   1      39.696  28.859  28.494  1.00  0.00    -0.014 A 
BRANCH  56  57
ATOM     57  C   UNL A   1      41.153  28.656  28.694  1.00  0.00     0.031 A 
ATOM     58  C   UNL A   1      41.771  27.389  28.169  1.00  0.00     0.074 A 
ATOM     59  C   UNL A   1      41.912  29.573  29.319  1.00  0.00     0.049 A 
ATOM     60  N   UNL A   1      42.999  26.954  28.279  1.00  0.00    -0.248 NA
ATOM     61  C   UNL A   1      40.878  26.489  27.422  1.00  0.00     0.031 C 
ATOM     62  C   UNL A   1      41.437  30.854  29.838  1.00  0.00     0.029 A 
ATOM     63  N   UNL A   1      43.248  29.554  29.637  1.00  0.00    -0.354 N 
ATOM     64  C   UNL A   1      43.021  25.724  27.633  1.00  0.00     0.074 A 
ATOM     65  C   UNL A   1      41.681  25.472  27.152  1.00  0.00     0.031 C 
ATOM     66  C   UNL A   1      42.464  31.492  30.425  1.00  0.00     0.029 A 
ATOM     67  C   UNL A   1      43.657  30.648  30.359  1.00  0.00     0.049 A 
ATOM     68  H   UNL A   1      43.854  28.826  29.371  1.00  0.00     0.167 HD
ATOM     69  C   UNL A   1      44.067  24.884  27.455  1.00  0.00     0.037 A 
ATOM     70  C   UNL A   1      44.850  30.918  30.926  1.00  0.00     0.037 A 
ATOM     71  C   UNL A   1      45.401  25.145  27.926  1.00  0.00     0.049 A 
ATOM     72  C   UNL A   1      45.983  29.932  30.768  1.00  0.00     0.074 A 
ATOM     73  C   UNL A   1      46.540  24.376  27.758  1.00  0.00     0.029 A 
ATOM     74  N   UNL A   1      45.773  26.254  28.671  1.00  0.00    -0.354 N 
ATOM     75  N   UNL A   1      46.009  28.793  30.117  1.00  0.00    -0.248 NA
ATOM     76  C   UNL A   1      47.255  30.272  31.422  1.00  0.00     0.031 C 
ATOM     77  C   UNL A   1      47.584  24.984  28.462  1.00  0.00     0.029 A 
ATOM     78  C   UNL A   1      47.115  26.170  29.003  1.00  0.00     0.049 A 
ATOM     79  H   UNL A   1      45.172  26.992  28.925  1.00  0.00     0.167 HD
ATOM     80  C   UNL A   1      47.303  28.303  30.251  1.00  0.00     0.074 A 
ATOM     81  C   UNL A   1      48.037  29.275  31.034  1.00  0.00     0.031 C 
ATOM     82  C   UNL A   1      47.837  27.153  29.770  1.00  0.00     0.037 A 
BRANCH  69  83
ATOM     83  C   UNL A   1      43.809  23.582  26.755  1.00  0.00     0.064 A 
ATOM     84  C   UNL A   1      44.250  23.340  25.445  1.00  0.00     0.173 A 
ATOM     85  C   UNL A   1      43.154  22.540  27.429  1.00  0.00     0.173 A 
ATOM     86  F   UNL A   1      44.869  24.307  24.751  1.00  0.00    -0.203 F 
ATOM     87  C   UNL A   1      44.028  22.110  24.831  1.00  0.00     0.198 A 
ATOM     88  C   UNL A   1      42.962  21.301  26.823  1.00  0.00     0.198 A 
ATOM     89  F   UNL A   1      42.713  22.717  28.683  1.00  0.00    -0.203 F 
ATOM     90  F   UNL A   1      44.420  21.915  23.564  1.00  0.00    -0.200 F 
ATOM     91  C   UNL A   1      43.394  21.088  25.523  1.00  0.00     0.200 A 
ATOM     92  F   UNL A   1      42.363  20.312  27.501  1.00  0.00    -0.200 F 
ATOM     93  F   UNL A   1      43.195  19.901  24.937  1.00  0.00    -0.200 F 
ENDBRANCH  69  83
BRANCH  70  94
ATOM     94  C   UNL A   1      45.039  32.159  31.728  1.00  0.00     0.064 A 
ATOM     95  C   UNL A   1      44.573  32.249  33.048  1.00  0.00     0.173 A 
ATOM     96  C   UNL A   1      45.641  33.298  31.173  1.00  0.00     0.173 A 
ATOM     97  F   UNL A   1      43.965  31.199  33.617  1.00  0.00    -0.203 F 
ATOM     98  C   UNL A   1      44.670  33.439  33.767  1.00  0.00     0.198 A 
ATOM     99  C   UNL A   1      45.771  34.476  31.905  1.00  0.00     0.198 A 
ATOM    100  F   UNL A   1      46.102  33.269  29.913  1.00  0.00    -0.203 F 
ATOM    101  F   UNL A   1      44.152  33.519  35.001  1.00  0.00    -0.200 F 
ATOM    102  C   UNL A   1      45.272  34.551  33.197  1.00  0.00     0.200 A 
ATOM    103  F   UNL A   1      46.365  35.543  31.355  1.00  0.00    -0.200 F 
ATOM    104  F   UNL A   1      45.360  35.697  33.886  1.00  0.00    -0.200 F 
ENDBRANCH  70  94
BRANCH  82 105
ATOM    105  C   UNL A   1      49.297  26.903  30.027  1.00  0.00     0.064 A 
ATOM    106  C   UNL A   1      50.297  27.404  29.180  1.00  0.00     0.173 A 
ATOM    107  C   UNL A   1      49.703  26.187  31.166  1.00  0.00     0.173 A 
ATOM    108  F   UNL A   1      49.965  28.085  28.073  1.00  0.00    -0.203 F 
ATOM    109  C   UNL A   1      51.645  27.172  29.447  1.00  0.00     0.198 A 
ATOM    110  C   UNL A   1      51.051  25.990  31.449  1.00  0.00     0.198 A 
ATOM    111  F   UNL A   1      48.789  25.695  32.016  1.00  0.00    -0.203 F 
ATOM    112  F   UNL A   1      52.580  27.613  28.594  1.00  0.00    -0.200 F 
ATOM    113  C   UNL A   1      52.020  26.473  30.585  1.00  0.00     0.200 A 
ATOM    114  F   UNL A   1      51.412  25.332  32.560  1.00  0.00    -0.200 F 
ATOM    115  F   UNL A   1      53.318  26.260  30.845  1.00  0.00    -0.200 F 
ENDBRANCH  82 105
ENDBRANCH  56  57
ENDBRANCH  49  51
ENDBRANCH  48  49
ENDBRANCH  47  48
ENDBRANCH  46  47
ENDBRANCH  45  46
ENDBRANCH  44  45
ENDBRANCH  43  44
ENDBRANCH  42  43
ENDBRANCH   1  42
TORSDOF 27
ENDMDL
MODEL 2
REMARK VINA RESULT:      -7.4      8.911     15.015
REMARK SMILES COc1cc([C@H]2CC(c3ccc(S(C)(=O)=O)cc3)=NN2c2ccc(C(=O)OCCOCCOCCOCCOC(=O)c3ccc(-c4c5nc(c(-c6c(F)c(F)c(F)c(F)c6F)c6ccc([nH]6)c(-c6c(F)c(F)c(F)c(F)c6F)c6nc(c(-c7c(F)c(F)c(F)c(F)c7F)c7ccc4[nH]7)C=C6)C=C5)cc3)cc2)cc(OC)c1OC
REMARK SMILES IDX 32 1 31 2 30 3 29 4 28 5 27 6 25 7 26 8 24 9 21 10 22 11
REMARK SMILES IDX 106 12 23 13 105 14 20 15 6 16 7 17 8 18 19 19 5 20 3 21
REMARK SMILES IDX 4 22 111 23 108 24 107 25 2 26 1 27 112 28 113 29 109 30
REMARK SMILES IDX 110 31 9 32 10 33 18 34 11 35 17 36 12 37 13 38 14 39 15 40
REMARK SMILES IDX 16 41 33 42 34 43 35 44 36 45 37 46 38 47 39 48 40 49 41 50
REMARK SMILES IDX 42 51 43 52 104 53 44 54 103 55 45 56 46 57 47 58 97 59
REMARK SMILES IDX 48 60 102 61 96 62 98 63 49 64 101 65 95 66 94 67 50 69
REMARK SMILES IDX 82 70 62 71 81 72 63 73 66 74 80 75 99 76 64 77 65 78 79 80
REMARK SMILES IDX 100 81 67 82 51 83 52 84 60 85 53 86 54 87 58 88 61 89 55 90
REMARK SMILES IDX 56 91 59 92 57 93 83 94 84 95 92 96 85 97 86 98 90 99 93 100
REMARK SMILES IDX 87 101 88 102 91 103 89 104 68 105 69 106 77 107 70 108
REMARK SMILES IDX 71 109 75 110 78 111 72 112 73 113 76 114 74 115
REMARK H PARENT 98 68 66 79
REMARK Flexibility Score: inf
ROOT
ATOM      1  C   UNL A   1      43.759  22.751  26.917  1.00  0.00     0.188 C 
ENDROOT
BRANCH   1   2
ATOM      2  C   UNL A   1      42.959  21.840  25.958  1.00  0.00     0.188 C 
BRANCH   2   3
ATOM      3  O   UNL A   1      42.406  20.693  26.579  1.00  0.00    -0.376 OA
BRANCH   3   4
ATOM      4  C   UNL A   1      41.032  20.689  26.909  1.00  0.00     0.202 C 
BRANCH   4   5
ATOM      5  C   UNL A   1      40.016  21.004  25.800  1.00  0.00     0.261 C 
BRANCH   5   6
ATOM      6  O   UNL A   1      38.798  21.626  26.222  1.00  0.00    -0.460 OA
BRANCH   6   7
ATOM      7  C   UNL A   1      38.704  22.964  26.045  1.00  0.00     0.338 C 
ATOM      8  O   UNL A   1      39.599  23.778  26.188  1.00  0.00    -0.246 OA
BRANCH   7   9
ATOM      9  C   UNL A   1      37.381  23.252  25.441  1.00  0.00     0.060 A 
ATOM     10  C   UNL A   1      34.894  23.770  24.238  1.00  0.00     0.060 A 
ATOM     11  C   UNL A   1      35.842  22.958  23.597  1.00  0.00     0.029 A 
ATOM     12  C   UNL A   1      35.181  24.246  25.525  1.00  0.00     0.029 A 
ATOM     13  C   UNL A   1      37.092  22.727  24.176  1.00  0.00     0.018 A 
ATOM     14  C   UNL A   1      36.409  23.977  26.136  1.00  0.00     0.018 A 
BRANCH  10  15
ATOM     15  N   UNL A   1      33.751  24.203  23.567  1.00  0.00    -0.257 N 
ATOM     16  C   UNL A   1      32.849  23.235  22.911  1.00  0.00     0.144 C 
ATOM     17  C   UNL A   1      31.583  24.073  22.681  1.00  0.00     0.091 C 
ATOM     18  C   UNL A   1      31.981  25.368  23.342  1.00  0.00     0.071 C 
ATOM     19  N   UNL A   1      33.172  25.401  23.855  1.00  0.00    -0.176 NA
BRANCH  16  20
ATOM     20  C   UNL A   1      32.648  21.975  23.756  1.00  0.00    -0.015 A 
ATOM     21  C   UNL A   1      32.510  19.531  23.898  1.00  0.00     0.164 A 
ATOM     22  C   UNL A   1      32.467  20.724  23.147  1.00  0.00     0.056 A 
ATOM     23  C   UNL A   1      32.750  19.556  25.284  1.00  0.00     0.203 A 
ATOM     24  C   UNL A   1      32.880  20.816  25.907  1.00  0.00     0.164 A 
ATOM     25  C   UNL A   1      32.823  21.996  25.145  1.00  0.00     0.056 A 
BRANCH  21  26
ATOM     26  O   UNL A   1      32.490  18.363  23.175  1.00  0.00    -0.493 OA
ATOM     27  C   UNL A   1      32.379  18.596  21.771  1.00  0.00     0.278 C 
ENDBRANCH  21  26
BRANCH  23  28
ATOM     28  O   UNL A   1      32.936  18.469  26.090  1.00  0.00    -0.490 OA
ATOM     29  C   UNL A   1      32.437  17.191  25.756  1.00  0.00     0.278 C 
ENDBRANCH  23  28
BRANCH  24  30
ATOM     30  O   UNL A   1      33.097  21.099  27.235  1.00  0.00    -0.493 OA
ATOM     31  C   UNL A   1      33.192  22.452  27.653  1.00  0.00     0.278 C 
ENDBRANCH  24  30
ENDBRANCH  16  20
BRANCH  18  32
ATOM     32  C   UNL A   1      31.081  26.537  23.325  1.00  0.00    -0.002 A 
ATOM     33  C   UNL A   1      31.615  27.790  23.000  1.00  0.00     0.011 A 
ATOM     34  C   UNL A   1      29.716  26.398  23.589  1.00  0.00     0.011 A 
ATOM     35  C   UNL A   1      30.779  28.907  22.907  1.00  0.00     0.021 A 
ATOM     36  C   UNL A   1      28.879  27.519  23.523  1.00  0.00     0.021 A 
ATOM     37  C   UNL A   1      29.413  28.767  23.176  1.00  0.00     0.067 A 
BRANCH  37  38
ATOM     38  S   UNL A   1      28.338  30.176  22.998  1.00  0.00     0.175 S 
ATOM     39  C   UNL A   1      28.302  30.506  21.257  1.00  0.00     0.163 C 
ATOM     40  O   UNL A   1      27.017  29.743  23.407  1.00  0.00    -0.224 OA
ATOM     41  O   UNL A   1      28.986  31.304  23.641  1.00  0.00    -0.224 OA
ENDBRANCH  37  38
ENDBRANCH  18  32
ENDBRANCH  10  15
ENDBRANCH   7   9
ENDBRANCH   6   7
ENDBRANCH   5   6
ENDBRANCH   4   5
ENDBRANCH   3   4
ENDBRANCH   2   3
ENDBRANCH   1   2
BRANCH   1  42
ATOM     42  O   UNL A   1      43.295  24.065  27.206  1.00  0.00    -0.377 OA
BRANCH  42  43
ATOM     43  C   UNL A   1      44.177  25.177  27.089  1.00  0.00     0.188 C 
BRANCH  43  44
ATOM     44  C   UNL A   1      43.637  26.625  27.037  1.00  0.00     0.188 C 
BRANCH  44  45
ATOM     45  O   UNL A   1      42.429  26.826  27.748  1.00  0.00    -0.376 OA
BRANCH  45  46
ATOM     46  C   UNL A   1      42.431  26.585  29.143  1.00  0.00     0.202 C 
BRANCH  46  47
ATOM     47  C   UNL A   1      43.545  27.228  29.979  1.00  0.00     0.261 C 
BRANCH  47  48
ATOM     48  O   UNL A   1      43.162  28.331  30.816  1.00  0.00    -0.460 OA
BRANCH  48  49
ATOM     49  C   UNL A   1      42.634  28.045  32.023  1.00  0.00     0.338 C 
ATOM     50  O   UNL A   1      41.450  27.963  32.314  1.00  0.00    -0.246 OA
BRANCH  49  51
ATOM     51  C   UNL A   1      43.746  27.661  32.915  1.00  0.00     0.060 A 
ATOM     52  C   UNL A   1      43.660  26.468  33.647  1.00  0.00     0.016 A 
ATOM     53  C   UNL A   1      44.878  28.473  33.016  1.00  0.00     0.016 A 
ATOM     54  C   UNL A   1      44.695  26.100  34.508  1.00  0.00     0.010 A 
ATOM     55  C   UNL A   1      45.903  28.116  33.896  1.00  0.00     0.010 A 
ATOM     56  C   UNL A   1      45.801  26.945  34.670  1.00  0.00    -0.014 A 
BRANCH  56  57
ATOM     57  C   UNL A   1      46.752  26.712  35.786  1.00  0.00     0.031 A 
ATOM     58  C   UNL A   1      47.924  25.801  35.541  1.00  0.00     0.074 A 
ATOM     59  C   UNL A   1      46.588  27.299  36.985  1.00  0.00     0.049 A 
ATOM     60  N   UNL A   1      48.848  25.390  36.371  1.00  0.00    -0.248 NA
ATOM     61  C   UNL A   1      48.068  25.278  34.173  1.00  0.00     0.031 C 
ATOM     62  C   UNL A   1      45.516  28.229  37.332  1.00  0.00     0.029 A 
ATOM     63  N   UNL A   1      47.321  27.180  38.140  1.00  0.00    -0.354 N 
ATOM     64  C   UNL A   1      49.669  24.548  35.631  1.00  0.00     0.074 A 
ATOM     65  C   UNL A   1      49.125  24.490  34.293  1.00  0.00     0.031 C 
ATOM     66  C   UNL A   1      45.651  28.585  38.622  1.00  0.00     0.029 A 
ATOM     67  C   UNL A   1      46.793  27.877  39.199  1.00  0.00     0.049 A 
ATOM     68  H   UNL A   1      48.146  26.648  38.202  1.00  0.00     0.167 HD
ATOM     69  C   UNL A   1      50.780  23.888  36.034  1.00  0.00     0.037 A 
ATOM     70  C   UNL A   1      47.175  27.911  40.493  1.00  0.00     0.037 A 
ATOM     71  C   UNL A   1      51.324  23.959  37.364  1.00  0.00     0.049 A 
ATOM     72  C   UNL A   1      48.379  27.113  40.929  1.00  0.00     0.074 A 
ATOM     73  C   UNL A   1      52.470  23.361  37.859  1.00  0.00     0.029 A 
ATOM     74  N   UNL A   1      50.751  24.659  38.415  1.00  0.00    -0.354 N 
ATOM     75  N   UNL A   1      49.179  26.356  40.214  1.00  0.00    -0.248 NA
ATOM     76  C   UNL A   1      48.738  27.177  42.354  1.00  0.00     0.031 C 
ATOM     77  C   UNL A   1      52.551  23.640  39.226  1.00  0.00     0.029 A 
ATOM     78  C   UNL A   1      51.500  24.476  39.566  1.00  0.00     0.049 A 
ATOM     79  H   UNL A   1      49.935  25.206  38.352  1.00  0.00     0.167 HD
ATOM     80  C   UNL A   1      50.150  25.887  41.092  1.00  0.00     0.074 A 
ATOM     81  C   UNL A   1      49.849  26.456  42.388  1.00  0.00     0.031 C 
ATOM     82  C   UNL A   1      51.197  25.061  40.847  1.00  0.00     0.037 A 
BRANCH  69  83
ATOM     83  C   UNL A   1      51.465  22.997  35.039  1.00  0.00     0.064 A 
ATOM     84  C   UNL A   1      51.038  21.682  34.798  1.00  0.00     0.173 A 
ATOM     85  C   UNL A   1      52.536  23.489  34.276  1.00  0.00     0.173 A 
ATOM     86  F   UNL A   1      50.029  21.159  35.510  1.00  0.00    -0.203 F 
ATOM     87  C   UNL A   1      51.670  20.888  33.845  1.00  0.00     0.198 A 
ATOM     88  C   UNL A   1      53.144  22.702  33.301  1.00  0.00     0.198 A 
ATOM     89  F   UNL A   1      52.983  24.739  34.465  1.00  0.00    -0.203 F 
ATOM     90  F   UNL A   1      51.273  19.621  33.661  1.00  0.00    -0.200 F 
ATOM     91  C   UNL A   1      52.715  21.402  33.090  1.00  0.00     0.200 A 
ATOM     92  F   UNL A   1      54.142  23.208  32.564  1.00  0.00    -0.200 F 
ATOM     93  F   UNL A   1      53.311  20.642  32.162  1.00  0.00    -0.200 F 
ENDBRANCH  69  83
BRANCH  70  94
ATOM     94  C   UNL A   1      46.396  28.703  41.486  1.00  0.00     0.064 A 
ATOM     95  C   UNL A   1      46.787  30.000  41.848  1.00  0.00     0.173 A 
ATOM     96  C   UNL A   1      45.278  28.157  42.134  1.00  0.00     0.173 A 
ATOM     97  F   UNL A   1      47.866  30.557  41.281  1.00  0.00    -0.203 F 
ATOM     98  C   UNL A   1      46.111  30.705  42.843  1.00  0.00     0.198 A 
ATOM     99  C   UNL A   1      44.581  28.878  43.101  1.00  0.00     0.198 A 
ATOM    100  F   UNL A   1      44.862  26.919  41.829  1.00  0.00    -0.203 F 
ATOM    101  F   UNL A   1      46.550  31.915  43.219  1.00  0.00    -0.200 F 
ATOM    102  C   UNL A   1      45.006  30.146  43.466  1.00  0.00     0.200 A 
ATOM    103  F   UNL A   1      43.506  28.337  43.691  1.00  0.00    -0.200 F 
ATOM    104  F   UNL A   1      44.360  30.822  44.425  1.00  0.00    -0.200 F 
ENDBRANCH  70  94
BRANCH  82 105
ATOM    105  C   UNL A   1      52.130  24.762  41.988  1.00  0.00     0.064 A 
ATOM    106  C   UNL A   1      53.237  25.574  42.276  1.00  0.00     0.173 A 
ATOM    107  C   UNL A   1      51.882  23.669  42.836  1.00  0.00     0.173 A 
ATOM    108  F   UNL A   1      53.525  26.624  41.492  1.00  0.00    -0.203 F 
ATOM    109  C   UNL A   1      54.078  25.285  43.348  1.00  0.00     0.198 A 
ATOM    110  C   UNL A   1      52.703  23.406  43.929  1.00  0.00     0.198 A 
ATOM    111  F   UNL A   1      50.831  22.866  42.614  1.00  0.00    -0.203 F 
ATOM    112  F   UNL A   1      55.161  26.043  43.570  1.00  0.00    -0.200 F 
ATOM    113  C   UNL A   1      53.806  24.208  44.178  1.00  0.00     0.200 A 
ATOM    114  F   UNL A   1      52.425  22.377  44.741  1.00  0.00    -0.200 F 
ATOM    115  F   UNL A   1      54.611  23.938  45.215  1.00  0.00    -0.200 F 
ENDBRANCH  82 105
ENDBRANCH  56  57
ENDBRANCH  49  51
ENDBRANCH  48  49
ENDBRANCH  47  48
ENDBRANCH  46  47
ENDBRANCH  45  46
ENDBRANCH  44  45
ENDBRANCH  43  44
ENDBRANCH  42  43
ENDBRANCH   1  42
TORSDOF 27
ENDMDL
MODEL 3
REMARK VINA RESULT:      -7.0      6.049     14.643
REMARK SMILES COc1cc([C@H]2CC(c3ccc(S(C)(=O)=O)cc3)=NN2c2ccc(C(=O)OCCOCCOCCOCCOC(=O)c3ccc(-c4c5nc(c(-c6c(F)c(F)c(F)c(F)c6F)c6ccc([nH]6)c(-c6c(F)c(F)c(F)c(F)c6F)c6nc(c(-c7c(F)c(F)c(F)c(F)c7F)c7ccc4[nH]7)C=C6)C=C5)cc3)cc2)cc(OC)c1OC
REMARK SMILES IDX 32 1 31 2 30 3 29 4 28 5 27 6 25 7 26 8 24 9 21 10 22 11
REMARK SMILES IDX 106 12 23 13 105 14 20 15 6 16 7 17 8 18 19 19 5 20 3 21
REMARK SMILES IDX 4 22 111 23 108 24 107 25 2 26 1 27 112 28 113 29 109 30
REMARK SMILES IDX 110 31 9 32 10 33 18 34 11 35 17 36 12 37 13 38 14 39 15 40
REMARK SMILES IDX 16 41 33 42 34 43 35 44 36 45 37 46 38 47 39 48 40 49 41 50
REMARK SMILES IDX 42 51 43 52 104 53 44 54 103 55 45 56 46 57 47 58 97 59
REMARK SMILES IDX 48 60 102 61 96 62 98 63 49 64 101 65 95 66 94 67 50 69
REMARK SMILES IDX 82 70 62 71 81 72 63 73 66 74 80 75 99 76 64 77 65 78 79 80
REMARK SMILES IDX 100 81 67 82 51 83 52 84 60 85 53 86 54 87 58 88 61 89 55 90
REMARK SMILES IDX 56 91 59 92 57 93 83 94 84 95 92 96 85 97 86 98 90 99 93 100
REMARK SMILES IDX 87 101 88 102 91 103 89 104 68 105 69 106 77 107 70 108
REMARK SMILES IDX 71 109 75 110 78 111 72 112 73 113 76 114 74 115
REMARK H PARENT 98 68 66 79
REMARK Flexibility Score: inf
ROOT
ATOM      1  C   UNL A   1      39.503  31.593  35.767  1.00  0.00     0.188 C 
ENDROOT
BRANCH   1   2
ATOM      2  C   UNL A   1      39.208  32.024  34.312  1.00  0.00     0.188 C 
BRANCH   2   3
ATOM      3  O   UNL A   1      37.945  31.603  33.830  1.00  0.00    -0.376 OA
BRANCH   3   4
ATOM      4  C   UNL A   1      37.824  30.313  33.263  1.00  0.00     0.202 C 
BRANCH   4   5
ATOM      5  C   UNL A   1      38.783  29.924  32.128  1.00  0.00     0.261 C 
BRANCH   5   6
ATOM      6  O   UNL A   1      38.338  28.877  31.261  1.00  0.00    -0.460 OA
BRANCH   6   7
ATOM      7  C   UNL A   1      37.981  29.235  30.006  1.00  0.00     0.338 C 
ATOM      8  O   UNL A   1      37.210  30.127  29.700  1.00  0.00    -0.246 OA
BRANCH   7   9
ATOM      9  C   UNL A   1      38.847  28.496  29.057  1.00  0.00     0.060 A 
ATOM     10  C   UNL A   1      40.500  27.049  27.304  1.00  0.00     0.060 A 
ATOM     11  C   UNL A   1      40.092  26.491  28.524  1.00  0.00     0.029 A 
ATOM     12  C   UNL A   1      39.997  28.307  26.942  1.00  0.00     0.029 A 
ATOM     13  C   UNL A   1      39.299  27.221  29.414  1.00  0.00     0.018 A 
ATOM     14  C   UNL A   1      39.161  29.024  27.801  1.00  0.00     0.018 A 
BRANCH  10  15
ATOM     15  N   UNL A   1      41.480  26.432  26.526  1.00  0.00    -0.257 N 
ATOM     16  C   UNL A   1      42.684  27.175  26.103  1.00  0.00     0.144 C 
ATOM     17  C   UNL A   1      43.623  26.045  25.654  1.00  0.00     0.091 C 
ATOM     18  C   UNL A   1      42.789  24.836  25.995  1.00  0.00     0.071 C 
ATOM     19  N   UNL A   1      41.623  25.078  26.509  1.00  0.00    -0.176 NA
BRANCH  16  20
ATOM     20  C   UNL A   1      43.229  28.067  27.219  1.00  0.00    -0.015 A 
ATOM     21  C   UNL A   1      43.788  30.308  28.044  1.00  0.00     0.164 A 
ATOM     22  C   UNL A   1      43.506  29.424  26.983  1.00  0.00     0.056 A 
ATOM     23  C   UNL A   1      43.788  29.862  29.379  1.00  0.00     0.203 A 
ATOM     24  C   UNL A   1      43.562  28.489  29.614  1.00  0.00     0.164 A 
ATOM     25  C   UNL A   1      43.294  27.618  28.543  1.00  0.00     0.056 A 
BRANCH  21  26
ATOM     26  O   UNL A   1      43.876  31.638  27.712  1.00  0.00    -0.493 OA
ATOM     27  C   UNL A   1      44.951  31.903  26.811  1.00  0.00     0.278 C 
ENDBRANCH  21  26
BRANCH  23  28
ATOM     28  O   UNL A   1      43.924  30.644  30.491  1.00  0.00    -0.490 OA
ATOM     29  C   UNL A   1      45.152  30.769  31.176  1.00  0.00     0.278 C 
ENDBRANCH  23  28
BRANCH  24  30
ATOM     30  O   UNL A   1      43.532  27.816  30.813  1.00  0.00    -0.493 OA
ATOM     31  C   UNL A   1      42.385  27.920  31.642  1.00  0.00     0.278 C 
ENDBRANCH  24  30
ENDBRANCH  16  20
BRANCH  18  32
ATOM     32  C   UNL A   1      43.262  23.475  25.683  1.00  0.00    -0.002 A 
ATOM     33  C   UNL A   1      42.646  22.389  26.318  1.00  0.00     0.011 A 
ATOM     34  C   UNL A   1      44.276  23.263  24.745  1.00  0.00     0.011 A 
ATOM     35  C   UNL A   1      43.022  21.081  25.994  1.00  0.00     0.021 A 
ATOM     36  C   UNL A   1      44.674  21.956  24.438  1.00  0.00     0.021 A 
ATOM     37  C   UNL A   1      44.041  20.871  25.059  1.00  0.00     0.067 A 
BRANCH  37  38
ATOM     38  S   UNL A   1      44.477  19.206  24.601  1.00  0.00     0.175 S 
ATOM     39  C   UNL A   1      46.070  18.933  25.328  1.00  0.00     0.163 C 
ATOM     40  O   UNL A   1      43.522  18.333  25.255  1.00  0.00    -0.224 OA
ATOM     41  O   UNL A   1      44.646  19.179  23.160  1.00  0.00    -0.224 OA
ENDBRANCH  37  38
ENDBRANCH  18  32
ENDBRANCH  10  15
ENDBRANCH   7   9
ENDBRANCH   6   7
ENDBRANCH   5   6
ENDBRANCH   4   5
ENDBRANCH   3   4
ENDBRANCH   2   3
ENDBRANCH   1   2
BRANCH   1  42
ATOM     42  O   UNL A   1      39.200  32.469  36.846  1.00  0.00    -0.377 OA
BRANCH  42  43
ATOM     43  C   UNL A   1      38.012  32.282  37.608  1.00  0.00     0.188 C 
BRANCH  43  44
ATOM     44  C   UNL A   1      37.671  33.206  38.800  1.00  0.00     0.188 C 
BRANCH  44  45
ATOM     45  O   UNL A   1      38.771  33.937  39.309  1.00  0.00    -0.376 OA
BRANCH  45  46
ATOM     46  C   UNL A   1      39.476  33.397  40.410  1.00  0.00     0.202 C 
BRANCH  46  47
ATOM     47  C   UNL A   1      40.844  32.756  40.139  1.00  0.00     0.261 C 
BRANCH  47  48
ATOM     48  O   UNL A   1      41.752  33.509  39.319  1.00  0.00    -0.460 OA
BRANCH  48  49
ATOM     49  C   UNL A   1      42.583  32.820  38.512  1.00  0.00     0.338 C 
ATOM     50  O   UNL A   1      42.881  31.637  38.589  1.00  0.00    -0.246 OA
BRANCH  49  51
ATOM     51  C   UNL A   1      42.945  33.705  37.386  1.00  0.00     0.060 A 
ATOM     52  C   UNL A   1      44.251  33.672  36.877  1.00  0.00     0.016 A 
ATOM     53  C   UNL A   1      41.989  34.555  36.826  1.00  0.00     0.016 A 
ATOM     54  C   UNL A   1      44.612  34.514  35.825  1.00  0.00     0.010 A 
ATOM     55  C   UNL A   1      42.357  35.415  35.789  1.00  0.00     0.010 A 
ATOM     56  C   UNL A   1      43.679  35.422  35.306  1.00  0.00    -0.014 A 
BRANCH  56  57
ATOM     57  C   UNL A   1      44.130  36.511  34.403  1.00  0.00     0.031 A 
ATOM     58  C   UNL A   1      44.645  37.780  35.024  1.00  0.00     0.074 A 
ATOM     59  C   UNL A   1      44.091  36.377  33.065  1.00  0.00     0.049 A 
ATOM     60  N   UNL A   1      45.030  38.892  34.452  1.00  0.00    -0.248 NA
ATOM     61  C   UNL A   1      44.732  37.798  36.493  1.00  0.00     0.031 C 
ATOM     62  C   UNL A   1      43.650  35.184  32.347  1.00  0.00     0.029 A 
ATOM     63  N   UNL A   1      44.418  37.269  32.073  1.00  0.00    -0.354 N 
ATOM     64  C   UNL A   1      45.385  39.745  35.490  1.00  0.00     0.074 A 
ATOM     65  C   UNL A   1      45.152  39.032  36.726  1.00  0.00     0.031 C 
ATOM     66  C   UNL A   1      43.716  35.425  31.025  1.00  0.00     0.029 A 
ATOM     67  C   UNL A   1      44.166  36.799  30.807  1.00  0.00     0.049 A 
ATOM     68  H   UNL A   1      44.796  38.159  32.252  1.00  0.00     0.167 HD
ATOM     69  C   UNL A   1      45.867  41.007  35.415  1.00  0.00     0.037 A 
ATOM     70  C   UNL A   1      44.261  37.422  29.615  1.00  0.00     0.037 A 
ATOM     71  C   UNL A   1      46.108  41.707  34.181  1.00  0.00     0.049 A 
ATOM     72  C   UNL A   1      44.739  38.854  29.565  1.00  0.00     0.074 A 
ATOM     73  C   UNL A   1      46.636  42.974  33.999  1.00  0.00     0.029 A 
ATOM     74  N   UNL A   1      45.823  41.207  32.920  1.00  0.00    -0.354 N 
ATOM     75  N   UNL A   1      45.118  39.638  30.546  1.00  0.00    -0.248 NA
ATOM     76  C   UNL A   1      44.807  39.485  28.239  1.00  0.00     0.031 C 
ATOM     77  C   UNL A   1      46.603  43.267  32.632  1.00  0.00     0.029 A 
ATOM     78  C   UNL A   1      46.128  42.155  31.956  1.00  0.00     0.049 A 
ATOM     79  H   UNL A   1      45.460  40.311  32.737  1.00  0.00     0.167 HD
ATOM     80  C   UNL A   1      45.502  40.836  29.954  1.00  0.00     0.074 A 
ATOM     81  C   UNL A   1      45.324  40.671  28.527  1.00  0.00     0.031 C 
ATOM     82  C   UNL A   1      45.960  41.971  30.538  1.00  0.00     0.037 A 
BRANCH  69  83
ATOM     83  C   UNL A   1      46.131  41.734  36.701  1.00  0.00     0.064 A 
ATOM     84  C   UNL A   1      47.426  41.888  37.218  1.00  0.00     0.173 A 
ATOM     85  C   UNL A   1      45.070  42.331  37.400  1.00  0.00     0.173 A 
ATOM     86  F   UNL A   1      48.473  41.325  36.597  1.00  0.00    -0.203 F 
ATOM     87  C   UNL A   1      47.647  42.597  38.396  1.00  0.00     0.198 A 
ATOM     88  C   UNL A   1      45.299  43.067  38.560  1.00  0.00     0.198 A 
ATOM     89  F   UNL A   1      43.813  42.216  36.949  1.00  0.00    -0.203 F 
ATOM     90  F   UNL A   1      48.887  42.696  38.895  1.00  0.00    -0.200 F 
ATOM     91  C   UNL A   1      46.585  43.195  39.060  1.00  0.00     0.200 A 
ATOM     92  F   UNL A   1      44.272  43.656  39.189  1.00  0.00    -0.200 F 
ATOM     93  F   UNL A   1      46.801  43.890  40.184  1.00  0.00    -0.200 F 
ENDBRANCH  69  83
BRANCH  70  94
ATOM     94  C   UNL A   1      43.867  36.716  28.364  1.00  0.00     0.064 A 
ATOM     95  C   UNL A   1      42.519  36.573  28.005  1.00  0.00     0.173 A 
ATOM     96  C   UNL A   1      44.827  36.123  27.531  1.00  0.00     0.173 A 
ATOM     97  F   UNL A   1      41.559  37.097  28.781  1.00  0.00    -0.203 F 
ATOM     98  C   UNL A   1      42.146  35.836  26.882  1.00  0.00     0.198 A 
ATOM     99  C   UNL A   1      44.455  35.418  26.388  1.00  0.00     0.198 A 
ATOM    100  F   UNL A   1      46.131  36.225  27.828  1.00  0.00    -0.203 F 
ATOM    101  F   UNL A   1      40.848  35.656  26.601  1.00  0.00    -0.200 F 
ATOM    102  C   UNL A   1      43.114  35.262  26.072  1.00  0.00     0.200 A 
ATOM    103  F   UNL A   1      45.395  34.876  25.602  1.00  0.00    -0.200 F 
ATOM    104  F   UNL A   1      42.756  34.549  24.995  1.00  0.00    -0.200 F 
ENDBRANCH  70  94
BRANCH  82 105
ATOM    105  C   UNL A   1      46.356  43.107  29.636  1.00  0.00     0.064 A 
ATOM    106  C   UNL A   1      45.476  44.157  29.334  1.00  0.00     0.173 A 
ATOM    107  C   UNL A   1      47.654  43.168  29.103  1.00  0.00     0.173 A 
ATOM    108  F   UNL A   1      44.221  44.143  29.808  1.00  0.00    -0.203 F 
ATOM    109  C   UNL A   1      45.871  45.207  28.507  1.00  0.00     0.198 A 
ATOM    110  C   UNL A   1      48.057  44.237  28.309  1.00  0.00     0.198 A 
ATOM    111  F   UNL A   1      48.540  42.196  29.369  1.00  0.00    -0.203 F 
ATOM    112  F   UNL A   1      44.995  46.170  28.188  1.00  0.00    -0.200 F 
ATOM    113  C   UNL A   1      47.161  45.251  28.003  1.00  0.00     0.200 A 
ATOM    114  F   UNL A   1      49.311  44.288  27.840  1.00  0.00    -0.200 F 
ATOM    115  F   UNL A   1      47.542  46.268  27.217  1.00  0.00    -0.200 F 
ENDBRANCH  82 105
ENDBRANCH  56  57
ENDBRANCH  49  51
ENDBRANCH  48  49
ENDBRANCH  47  48
ENDBRANCH  46  47
ENDBRANCH  45  46
ENDBRANCH  44  45
ENDBRANCH  43  44
ENDBRANCH  42  43
ENDBRANCH   1  42
TORSDOF 27
ENDMDL
