MODEL 1
REMARK VINA RESULT:      -9.7      0.000      0.000
REMARK SMILES CC(C)C[C@H](C)NS(=O)(=O)c1cc(C(=O)OCCOCCOCCOCCOC(=O)c2ccc(-c3c4nc(c(-c5c(F)c(F)c(F)c(F)c5F)c5ccc([nH]5)c(-c5c(F)c(F)c(F)c(F)c5F)c5nc(c(-c6c(F)c(F)c(F)c(F)c6F)c6ccc3[nH]6)C=C5)C=C4)cc2)ccc1Cl
REMARK SMILES IDX 20 1 19 2 18 3 17 4 16 5 14 6 15 7 13 8 11 9 12 10 96 11
REMARK SMILES IDX 95 12 97 13 94 14 8 15 9 16 10 17 7 18 5 20 6 21 4 22 2 23
REMARK SMILES IDX 1 24 3 25 21 26 22 27 23 28 24 29 25 30 26 31 27 32 28 33
REMARK SMILES IDX 29 34 30 35 31 36 32 37 93 38 33 39 92 40 34 41 35 42 36 43
REMARK SMILES IDX 86 44 37 45 91 46 85 47 87 48 38 49 90 50 84 51 83 52 39 54
REMARK SMILES IDX 71 55 51 56 70 57 52 58 55 59 69 60 88 61 53 62 54 63 68 65
REMARK SMILES IDX 89 66 56 67 40 68 41 69 49 70 42 71 43 72 47 73 50 74 44 75
REMARK SMILES IDX 45 76 48 77 46 78 72 79 73 80 81 81 74 82 75 83 79 84 82 85
REMARK SMILES IDX 76 86 77 87 80 88 78 89 57 90 58 91 66 92 59 93 60 94 64 95
REMARK SMILES IDX 67 96 61 97 62 98 65 99 63 100
REMARK H PARENT 7 19 87 53 55 64
REMARK Flexibility Score: inf
ROOT
ATOM      1  C   UNL A   1      37.799  22.535  25.661  1.00  0.00     0.188 C 
ENDROOT
BRANCH   1   2
ATOM      2  O   UNL A   1      37.498  21.192  25.313  1.00  0.00    -0.376 OA
BRANCH   2   3
ATOM      3  C   UNL A   1      36.144  20.864  25.059  1.00  0.00     0.202 C 
BRANCH   3   4
ATOM      4  C   UNL A   1      35.264  21.914  24.364  1.00  0.00     0.261 C 
BRANCH   4   5
ATOM      5  O   UNL A   1      34.001  22.200  24.984  1.00  0.00    -0.460 OA
BRANCH   5   6
ATOM      6  C   UNL A   1      33.882  23.351  25.680  1.00  0.00     0.338 C 
ATOM      7  O   UNL A   1      34.669  23.784  26.502  1.00  0.00    -0.246 OA
BRANCH   6   8
ATOM      8  C   UNL A   1      32.702  24.099  25.159  1.00  0.00     0.061 A 
ATOM      9  C   UNL A   1      31.764  25.639  23.504  1.00  0.00     0.101 A 
ATOM     10  C   UNL A   1      32.859  24.922  24.038  1.00  0.00     0.039 A 
ATOM     11  C   UNL A   1      30.519  25.557  24.124  1.00  0.00     0.061 A 
ATOM     12  C   UNL A   1      30.358  24.699  25.225  1.00  0.00     0.023 A 
ATOM     13  Cl  UNL A   1      29.142  26.475  23.656  1.00  0.00    -0.083 Cl
ATOM     14  C   UNL A   1      31.437  23.970  25.738  1.00  0.00     0.017 A 
BRANCH   9  15
ATOM     15  S   UNL A   1      32.086  26.648  22.082  1.00  0.00     0.242 S 
ATOM     16  O   UNL A   1      31.134  26.260  21.065  1.00  0.00    -0.207 OA
ATOM     17  O   UNL A   1      33.504  26.549  21.808  1.00  0.00    -0.207 OA
BRANCH  15  18
ATOM     18  N   UNL A   1      31.794  28.256  22.432  1.00  0.00    -0.208 NA
ATOM     19  H   UNL A   1      32.633  28.570  22.920  1.00  0.00     0.141 HD
BRANCH  18  20
ATOM     20  C   UNL A   1      30.685  28.823  23.200  1.00  0.00     0.067 C 
ATOM     21  C   UNL A   1      31.299  29.370  24.506  1.00  0.00     0.025 C 
BRANCH  20  22
ATOM     22  C   UNL A   1      29.966  29.997  22.512  1.00  0.00     0.022 C 
BRANCH  22  23
ATOM     23  C   UNL A   1      28.498  29.799  22.110  1.00  0.00    -0.016 C 
ATOM     24  C   UNL A   1      27.522  30.062  23.256  1.00  0.00     0.007 C 
ATOM     25  C   UNL A   1      28.150  30.706  20.926  1.00  0.00     0.007 C 
ENDBRANCH  22  23
ENDBRANCH  20  22
ENDBRANCH  18  20
ENDBRANCH  15  18
ENDBRANCH   9  15
ENDBRANCH   6   8
ENDBRANCH   5   6
ENDBRANCH   4   5
ENDBRANCH   3   4
ENDBRANCH   2   3
ENDBRANCH   1   2
BRANCH   1  26
ATOM     26  C   UNL A   1      39.197  22.690  26.288  1.00  0.00     0.188 C 
BRANCH  26  27
ATOM     27  O   UNL A   1      39.819  21.495  26.735  1.00  0.00    -0.377 OA
BRANCH  27  28
ATOM     28  C   UNL A   1      40.924  21.573  27.637  1.00  0.00     0.188 C 
BRANCH  28  29
ATOM     29  C   UNL A   1      42.230  20.760  27.452  1.00  0.00     0.188 C 
BRANCH  29  30
ATOM     30  O   UNL A   1      42.174  19.761  26.446  1.00  0.00    -0.376 OA
BRANCH  30  31
ATOM     31  C   UNL A   1      43.001  18.622  26.617  1.00  0.00     0.202 C 
BRANCH  31  32
ATOM     32  C   UNL A   1      43.626  18.096  25.321  1.00  0.00     0.261 C 
BRANCH  32  33
ATOM     33  O   UNL A   1      43.866  19.086  24.311  1.00  0.00    -0.460 OA
BRANCH  33  34
ATOM     34  C   UNL A   1      45.098  19.651  24.282  1.00  0.00     0.338 C 
ATOM     35  O   UNL A   1      46.114  19.189  23.828  1.00  0.00    -0.246 OA
BRANCH  34  36
ATOM     36  C   UNL A   1      44.944  21.039  24.769  1.00  0.00     0.060 A 
ATOM     37  C   UNL A   1      44.336  21.995  23.945  1.00  0.00     0.016 A 
ATOM     38  C   UNL A   1      45.394  21.381  26.045  1.00  0.00     0.016 A 
ATOM     39  C   UNL A   1      44.201  23.312  24.391  1.00  0.00     0.010 A 
ATOM     40  C   UNL A   1      45.275  22.699  26.482  1.00  0.00     0.010 A 
ATOM     41  C   UNL A   1      44.705  23.676  25.647  1.00  0.00    -0.014 A 
BRANCH  41  42
ATOM     42  C   UNL A   1      44.832  25.102  26.029  1.00  0.00     0.031 A 
ATOM     43  C   UNL A   1      46.194  25.732  25.951  1.00  0.00     0.074 A 
ATOM     44  C   UNL A   1      43.780  25.809  26.474  1.00  0.00     0.049 A 
ATOM     45  N   UNL A   1      46.596  26.904  26.369  1.00  0.00    -0.248 NA
ATOM     46  C   UNL A   1      47.249  24.920  25.323  1.00  0.00     0.031 C 
ATOM     47  C   UNL A   1      42.405  25.323  26.549  1.00  0.00     0.029 A 
ATOM     48  N   UNL A   1      43.716  27.087  26.973  1.00  0.00    -0.354 N 
ATOM     49  C   UNL A   1      47.950  26.963  26.069  1.00  0.00     0.074 A 
ATOM     50  C   UNL A   1      48.308  25.703  25.456  1.00  0.00     0.031 C 
ATOM     51  C   UNL A   1      41.634  26.285  27.088  1.00  0.00     0.029 A 
ATOM     52  C   UNL A   1      42.470  27.434  27.435  1.00  0.00     0.049 A 
ATOM     53  H   UNL A   1      44.489  27.696  26.996  1.00  0.00     0.167 HD
ATOM     54  C   UNL A   1      48.816  27.981  26.284  1.00  0.00     0.037 A 
ATOM     55  C   UNL A   1      42.067  28.537  28.097  1.00  0.00     0.037 A 
ATOM     56  C   UNL A   1      48.454  29.229  26.899  1.00  0.00     0.049 A 
ATOM     57  C   UNL A   1      43.071  29.622  28.406  1.00  0.00     0.074 A 
ATOM     58  C   UNL A   1      49.253  30.330  27.150  1.00  0.00     0.029 A 
ATOM     59  N   UNL A   1      47.186  29.537  27.370  1.00  0.00    -0.354 N 
ATOM     60  N   UNL A   1      44.345  29.684  28.104  1.00  0.00    -0.248 NA
ATOM     61  C   UNL A   1      42.579  30.790  29.153  1.00  0.00     0.031 C 
ATOM     62  C   UNL A   1      48.483  31.281  27.825  1.00  0.00     0.029 A 
ATOM     63  C   UNL A   1      47.187  30.800  27.936  1.00  0.00     0.049 A 
ATOM     64  H   UNL A   1      46.401  28.944  27.311  1.00  0.00     0.167 HD
ATOM     65  C   UNL A   1      44.796  30.906  28.587  1.00  0.00     0.074 A 
ATOM     66  C   UNL A   1      43.659  31.557  29.202  1.00  0.00     0.031 C 
ATOM     67  C   UNL A   1      46.040  31.443  28.521  1.00  0.00     0.037 A 
BRANCH  54  68
ATOM     68  C   UNL A   1      50.247  27.770  25.885  1.00  0.00     0.064 A 
ATOM     69  C   UNL A   1      50.668  27.896  24.552  1.00  0.00     0.173 A 
ATOM     70  C   UNL A   1      51.215  27.465  26.853  1.00  0.00     0.173 A 
ATOM     71  F   UNL A   1      49.779  28.170  23.586  1.00  0.00    -0.203 F 
ATOM     72  C   UNL A   1      52.001  27.698  24.202  1.00  0.00     0.198 A 
ATOM     73  C   UNL A   1      52.551  27.300  26.504  1.00  0.00     0.198 A 
ATOM     74  F   UNL A   1      50.865  27.335  28.142  1.00  0.00    -0.203 F 
ATOM     75  F   UNL A   1      52.373  27.774  22.916  1.00  0.00    -0.200 F 
ATOM     76  C   UNL A   1      52.943  27.408  25.178  1.00  0.00     0.200 A 
ATOM     77  F   UNL A   1      53.461  27.032  27.450  1.00  0.00    -0.200 F 
ATOM     78  F   UNL A   1      54.227  27.225  24.840  1.00  0.00    -0.200 F 
ENDBRANCH  54  68
BRANCH  55  79
ATOM     79  C   UNL A   1      40.652  28.669  28.536  1.00  0.00     0.064 A 
ATOM     80  C   UNL A   1      39.663  29.136  27.659  1.00  0.00     0.173 A 
ATOM     81  C   UNL A   1      40.263  28.354  29.847  1.00  0.00     0.173 A 
ATOM     82  F   UNL A   1      39.990  29.477  26.403  1.00  0.00    -0.203 F 
ATOM     83  C   UNL A   1      38.346  29.303  28.080  1.00  0.00     0.198 A 
ATOM     84  C   UNL A   1      38.939  28.492  30.259  1.00  0.00     0.198 A 
ATOM     85  F   UNL A   1      41.169  27.907  30.728  1.00  0.00    -0.203 F 
ATOM     86  F   UNL A   1      37.432  29.800  27.236  1.00  0.00    -0.200 F 
ATOM     87  C   UNL A   1      37.983  28.975  29.378  1.00  0.00     0.200 A 
ATOM     88  F   UNL A   1      38.591  28.162  31.510  1.00  0.00    -0.200 F 
ATOM     89  F   UNL A   1      36.715  29.133  29.782  1.00  0.00    -0.200 F 
ENDBRANCH  55  79
BRANCH  67  90
ATOM     90  C   UNL A   1      46.237  32.827  29.072  1.00  0.00     0.064 A 
ATOM     91  C   UNL A   1      46.648  33.046  30.394  1.00  0.00     0.173 A 
ATOM     92  C   UNL A   1      46.098  33.945  28.233  1.00  0.00     0.173 A 
ATOM     93  F   UNL A   1      46.784  32.013  31.240  1.00  0.00    -0.203 F 
ATOM     94  C   UNL A   1      46.901  34.334  30.860  1.00  0.00     0.198 A 
ATOM     95  C   UNL A   1      46.381  35.227  28.692  1.00  0.00     0.198 A 
ATOM     96  F   UNL A   1      45.716  33.787  26.957  1.00  0.00    -0.203 F 
ATOM     97  F   UNL A   1      47.263  34.525  32.136  1.00  0.00    -0.200 F 
ATOM     98  C   UNL A   1      46.780  35.422  30.006  1.00  0.00     0.200 A 
ATOM     99  F   UNL A   1      46.281  36.272  27.861  1.00  0.00    -0.200 F 
ATOM    100  F   UNL A   1      47.046  36.657  30.450  1.00  0.00    -0.200 F 
ENDBRANCH  67  90
ENDBRANCH  41  42
ENDBRANCH  34  36
ENDBRANCH  33  34
ENDBRANCH  32  33
ENDBRANCH  31  32
ENDBRANCH  30  31
ENDBRANCH  29  30
ENDBRANCH  28  29
ENDBRANCH  27  28
ENDBRANCH  26  27
ENDBRANCH   1  26
TORSDOF 25
ENDMDL
MODEL 2
REMARK VINA RESULT:      -9.3      2.323      4.908
REMARK SMILES CC(C)C[C@H](C)NS(=O)(=O)c1cc(C(=O)OCCOCCOCCOCCOC(=O)c2ccc(-c3c4nc(c(-c5c(F)c(F)c(F)c(F)c5F)c5ccc([nH]5)c(-c5c(F)c(F)c(F)c(F)c5F)c5nc(c(-c6c(F)c(F)c(F)c(F)c6F)c6ccc3[nH]6)C=C5)C=C4)cc2)ccc1Cl
REMARK SMILES IDX 20 1 19 2 18 3 17 4 16 5 14 6 15 7 13 8 11 9 12 10 96 11
REMARK SMILES IDX 95 12 97 13 94 14 8 15 9 16 10 17 7 18 5 20 6 21 4 22 2 23
REMARK SMILES IDX 1 24 3 25 21 26 22 27 23 28 24 29 25 30 26 31 27 32 28 33
REMARK SMILES IDX 29 34 30 35 31 36 32 37 93 38 33 39 92 40 34 41 35 42 36 43
REMARK SMILES IDX 86 44 37 45 91 46 85 47 87 48 38 49 90 50 84 51 83 52 39 54
REMARK SMILES IDX 71 55 51 56 70 57 52 58 55 59 69 60 88 61 53 62 54 63 68 65
REMARK SMILES IDX 89 66 56 67 40 68 41 69 49 70 42 71 43 72 47 73 50 74 44 75
REMARK SMILES IDX 45 76 48 77 46 78 72 79 73 80 81 81 74 82 75 83 79 84 82 85
REMARK SMILES IDX 76 86 77 87 80 88 78 89 57 90 58 91 66 92 59 93 60 94 64 95
REMARK SMILES IDX 67 96 61 97 62 98 65 99 63 100
REMARK H PARENT 7 19 87 53 55 64
REMARK Flexibility Score: inf
ROOT
ATOM      1  C   UNL A   1      33.678  26.088  25.920  1.00  0.00     0.188 C 
ENDROOT
BRANCH   1   2
ATOM      2  O   UNL A   1      33.884  27.491  25.847  1.00  0.00    -0.376 OA
BRANCH   2   3
ATOM      3  C   UNL A   1      34.156  28.054  24.575  1.00  0.00     0.202 C 
BRANCH   3   4
ATOM      4  C   UNL A   1      32.965  28.498  23.712  1.00  0.00     0.261 C 
BRANCH   4   5
ATOM      5  O   UNL A   1      32.528  27.575  22.704  1.00  0.00    -0.460 OA
BRANCH   5   6
ATOM      6  C   UNL A   1      31.225  27.221  22.690  1.00  0.00     0.338 C 
ATOM      7  O   UNL A   1      30.355  27.691  21.978  1.00  0.00    -0.246 OA
BRANCH   6   8
ATOM      8  C   UNL A   1      31.045  26.040  23.581  1.00  0.00     0.061 A 
ATOM      9  C   UNL A   1      31.459  23.667  24.020  1.00  0.00     0.101 A 
ATOM     10  C   UNL A   1      31.595  24.810  23.199  1.00  0.00     0.039 A 
ATOM     11  C   UNL A   1      30.735  23.755  25.207  1.00  0.00     0.061 A 
ATOM     12  C   UNL A   1      30.220  24.999  25.605  1.00  0.00     0.023 A 
ATOM     13  Cl  UNL A   1      30.386  22.415  26.228  1.00  0.00    -0.083 Cl
ATOM     14  C   UNL A   1      30.376  26.136  24.804  1.00  0.00     0.017 A 
BRANCH   9  15
ATOM     15  S   UNL A   1      32.198  22.168  23.430  1.00  0.00     0.242 S 
ATOM     16  O   UNL A   1      33.595  22.454  23.186  1.00  0.00    -0.207 OA
ATOM     17  O   UNL A   1      31.368  21.686  22.348  1.00  0.00    -0.207 OA
BRANCH  15  18
ATOM     18  N   UNL A   1      32.145  20.989  24.615  1.00  0.00    -0.208 NA
ATOM     19  H   UNL A   1      31.727  21.453  25.421  1.00  0.00     0.141 HD
BRANCH  18  20
ATOM     20  C   UNL A   1      33.258  20.216  25.167  1.00  0.00     0.067 C 
ATOM     21  C   UNL A   1      33.753  20.996  26.403  1.00  0.00     0.025 C 
BRANCH  20  22
ATOM     22  C   UNL A   1      32.880  18.803  25.646  1.00  0.00     0.022 C 
BRANCH  22  23
ATOM     23  C   UNL A   1      32.446  17.783  24.585  1.00  0.00    -0.016 C 
ATOM     24  C   UNL A   1      33.017  18.079  23.199  1.00  0.00     0.007 C 
ATOM     25  C   UNL A   1      32.857  16.371  25.014  1.00  0.00     0.007 C 
ENDBRANCH  22  23
ENDBRANCH  20  22
ENDBRANCH  18  20
ENDBRANCH  15  18
ENDBRANCH   9  15
ENDBRANCH   6   8
ENDBRANCH   5   6
ENDBRANCH   4   5
ENDBRANCH   3   4
ENDBRANCH   2   3
ENDBRANCH   1   2
BRANCH   1  26
ATOM     26  C   UNL A   1      34.757  25.287  25.168  1.00  0.00     0.188 C 
BRANCH  26  27
ATOM     27  O   UNL A   1      34.980  23.960  25.619  1.00  0.00    -0.377 OA
BRANCH  27  28
ATOM     28  C   UNL A   1      36.317  23.467  25.715  1.00  0.00     0.188 C 
BRANCH  28  29
ATOM     29  C   UNL A   1      36.934  22.482  24.690  1.00  0.00     0.188 C 
BRANCH  29  30
ATOM     30  O   UNL A   1      37.464  21.291  25.251  1.00  0.00    -0.376 OA
BRANCH  30  31
ATOM     31  C   UNL A   1      38.710  21.387  25.920  1.00  0.00     0.202 C 
BRANCH  31  32
ATOM     32  C   UNL A   1      39.492  20.072  25.990  1.00  0.00     0.261 C 
BRANCH  32  33
ATOM     33  O   UNL A   1      40.368  19.940  27.119  1.00  0.00    -0.460 OA
BRANCH  33  34
ATOM     34  C   UNL A   1      41.663  20.299  26.939  1.00  0.00     0.338 C 
ATOM     35  O   UNL A   1      42.582  19.603  26.585  1.00  0.00    -0.246 OA
BRANCH  34  36
ATOM     36  C   UNL A   1      41.726  21.768  27.097  1.00  0.00     0.060 A 
ATOM     37  C   UNL A   1      41.629  22.587  25.965  1.00  0.00     0.016 A 
ATOM     38  C   UNL A   1      41.872  22.323  28.369  1.00  0.00     0.016 A 
ATOM     39  C   UNL A   1      41.704  23.975  26.104  1.00  0.00     0.010 A 
ATOM     40  C   UNL A   1      41.965  23.707  28.504  1.00  0.00     0.010 A 
ATOM     41  C   UNL A   1      41.910  24.537  27.371  1.00  0.00    -0.014 A 
BRANCH  41  42
ATOM     42  C   UNL A   1      42.274  25.967  27.517  1.00  0.00     0.031 A 
ATOM     43  C   UNL A   1      43.605  26.412  26.981  1.00  0.00     0.074 A 
ATOM     44  C   UNL A   1      41.467  26.838  28.146  1.00  0.00     0.049 A 
ATOM     45  N   UNL A   1      44.217  27.559  27.117  1.00  0.00    -0.248 NA
ATOM     46  C   UNL A   1      44.351  25.419  26.192  1.00  0.00     0.031 C 
ATOM     47  C   UNL A   1      40.136  26.537  28.665  1.00  0.00     0.029 A 
ATOM     48  N   UNL A   1      41.669  28.156  28.475  1.00  0.00    -0.354 N 
ATOM     49  C   UNL A   1      45.423  27.421  26.445  1.00  0.00     0.074 A 
ATOM     50  C   UNL A   1      45.470  26.073  25.922  1.00  0.00     0.031 C 
ATOM     51  C   UNL A   1      39.648  27.634  29.271  1.00  0.00     0.029 A 
ATOM     52  C   UNL A   1      40.651  28.698  29.220  1.00  0.00     0.049 A 
ATOM     53  H   UNL A   1      42.468  28.663  28.203  1.00  0.00     0.167 HD
ATOM     54  C   UNL A   1      46.404  28.338  26.277  1.00  0.00     0.037 A 
ATOM     55  C   UNL A   1      40.562  29.901  29.822  1.00  0.00     0.037 A 
ATOM     56  C   UNL A   1      46.354  29.675  26.804  1.00  0.00     0.049 A 
ATOM     57  C   UNL A   1      41.707  30.877  29.697  1.00  0.00     0.074 A 
ATOM     58  C   UNL A   1      47.289  30.687  26.678  1.00  0.00     0.029 A 
ATOM     59  N   UNL A   1      45.313  30.181  27.568  1.00  0.00    -0.354 N 
ATOM     60  N   UNL A   1      42.837  30.751  29.044  1.00  0.00    -0.248 NA
ATOM     61  C   UNL A   1      41.565  32.164  30.396  1.00  0.00     0.031 C 
ATOM     62  C   UNL A   1      46.840  31.786  27.415  1.00  0.00     0.029 A 
ATOM     63  C   UNL A   1      45.595  31.484  27.945  1.00  0.00     0.049 A 
ATOM     64  H   UNL A   1      44.494  29.688  27.808  1.00  0.00     0.167 HD
ATOM     65  C   UNL A   1      43.520  31.948  29.221  1.00  0.00     0.074 A 
ATOM     66  C   UNL A   1      42.677  32.791  30.042  1.00  0.00     0.031 C 
ATOM     67  C   UNL A   1      44.733  32.318  28.742  1.00  0.00     0.037 A 
BRANCH  54  68
ATOM     68  C   UNL A   1      47.630  27.914  25.522  1.00  0.00     0.064 A 
ATOM     69  C   UNL A   1      48.813  27.550  26.181  1.00  0.00     0.173 A 
ATOM     70  C   UNL A   1      47.610  27.843  24.122  1.00  0.00     0.173 A 
ATOM     71  F   UNL A   1      48.889  27.616  27.519  1.00  0.00    -0.203 F 
ATOM     72  C   UNL A   1      49.940  27.158  25.463  1.00  0.00     0.198 A 
ATOM     73  C   UNL A   1      48.727  27.420  23.409  1.00  0.00     0.198 A 
ATOM     74  F   UNL A   1      46.502  28.179  23.442  1.00  0.00    -0.203 F 
ATOM     75  F   UNL A   1      51.077  26.863  26.111  1.00  0.00    -0.200 F 
ATOM     76  C   UNL A   1      49.894  27.085  24.079  1.00  0.00     0.200 A 
ATOM     77  F   UNL A   1      48.677  27.338  22.072  1.00  0.00    -0.200 F 
ATOM     78  F   UNL A   1      50.977  26.699  23.390  1.00  0.00    -0.200 F 
ENDBRANCH  54  68
BRANCH  55  79
ATOM     79  C   UNL A   1      39.356  30.249  30.619  1.00  0.00     0.064 A 
ATOM     80  C   UNL A   1      39.299  29.987  31.996  1.00  0.00     0.173 A 
ATOM     81  C   UNL A   1      38.227  30.828  30.020  1.00  0.00     0.173 A 
ATOM     82  F   UNL A   1      40.342  29.409  32.610  1.00  0.00    -0.203 F 
ATOM     83  C   UNL A   1      38.153  30.271  32.737  1.00  0.00     0.198 A 
ATOM     84  C   UNL A   1      37.093  31.140  30.768  1.00  0.00     0.198 A 
ATOM     85  F   UNL A   1      38.226  31.095  28.706  1.00  0.00    -0.203 F 
ATOM     86  F   UNL A   1      38.108  29.963  34.040  1.00  0.00    -0.200 F 
ATOM     87  C   UNL A   1      37.054  30.853  32.124  1.00  0.00     0.200 A 
ATOM     88  F   UNL A   1      36.038  31.713  30.174  1.00  0.00    -0.200 F 
ATOM     89  F   UNL A   1      35.954  31.129  32.839  1.00  0.00    -0.200 F 
ENDBRANCH  55  79
BRANCH  67  90
ATOM     90  C   UNL A   1      45.209  33.712  29.034  1.00  0.00     0.064 A 
ATOM     91  C   UNL A   1      46.021  34.001  30.140  1.00  0.00     0.173 A 
ATOM     92  C   UNL A   1      44.919  34.756  28.141  1.00  0.00     0.173 A 
ATOM     93  F   UNL A   1      46.318  33.042  31.030  1.00  0.00    -0.203 F 
ATOM     94  C   UNL A   1      46.516  35.287  30.347  1.00  0.00     0.198 A 
ATOM     95  C   UNL A   1      45.439  36.032  28.334  1.00  0.00     0.198 A 
ATOM     96  F   UNL A   1      44.153  34.529  27.063  1.00  0.00    -0.203 F 
ATOM     97  F   UNL A   1      47.264  35.549  31.426  1.00  0.00    -0.200 F 
ATOM     98  C   UNL A   1      46.235  36.298  29.438  1.00  0.00     0.200 A 
ATOM     99  F   UNL A   1      45.182  37.001  27.446  1.00  0.00    -0.200 F 
ATOM    100  F   UNL A   1      46.730  37.528  29.627  1.00  0.00    -0.200 F 
ENDBRANCH  67  90
ENDBRANCH  41  42
ENDBRANCH  34  36
ENDBRANCH  33  34
ENDBRANCH  32  33
ENDBRANCH  31  32
ENDBRANCH  30  31
ENDBRANCH  29  30
ENDBRANCH  28  29
ENDBRANCH  27  28
ENDBRANCH  26  27
ENDBRANCH   1  26
TORSDOF 25
ENDMDL
MODEL 3
REMARK VINA RESULT:      -9.0      4.630      8.771
REMARK SMILES CC(C)C[C@H](C)NS(=O)(=O)c1cc(C(=O)OCCOCCOCCOCCOC(=O)c2ccc(-c3c4nc(c(-c5c(F)c(F)c(F)c(F)c5F)c5ccc([nH]5)c(-c5c(F)c(F)c(F)c(F)c5F)c5nc(c(-c6c(F)c(F)c(F)c(F)c6F)c6ccc3[nH]6)C=C5)C=C4)cc2)ccc1Cl
REMARK SMILES IDX 20 1 19 2 18 3 17 4 16 5 14 6 15 7 13 8 11 9 12 10 96 11
REMARK SMILES IDX 95 12 97 13 94 14 8 15 9 16 10 17 7 18 5 20 6 21 4 22 2 23
REMARK SMILES IDX 1 24 3 25 21 26 22 27 23 28 24 29 25 30 26 31 27 32 28 33
REMARK SMILES IDX 29 34 30 35 31 36 32 37 93 38 33 39 92 40 34 41 35 42 36 43
REMARK SMILES IDX 86 44 37 45 91 46 85 47 87 48 38 49 90 50 84 51 83 52 39 54
REMARK SMILES IDX 71 55 51 56 70 57 52 58 55 59 69 60 88 61 53 62 54 63 68 65
REMARK SMILES IDX 89 66 56 67 40 68 41 69 49 70 42 71 43 72 47 73 50 74 44 75
REMARK SMILES IDX 45 76 48 77 46 78 72 79 73 80 81 81 74 82 75 83 79 84 82 85
REMARK SMILES IDX 76 86 77 87 80 88 78 89 57 90 58 91 66 92 59 93 60 94 64 95
REMARK SMILES IDX 67 96 61 97 62 98 65 99 63 100
REMARK H PARENT 7 19 87 53 55 64
REMARK Flexibility Score: inf
ROOT
ATOM      1  C   UNL A   1      33.751  33.689  27.973  1.00  0.00     0.188 C 
ENDROOT
BRANCH   1   2
ATOM      2  O   UNL A   1      34.976  33.056  27.635  1.00  0.00    -0.376 OA
BRANCH   2   3
ATOM      3  C   UNL A   1      35.013  31.639  27.649  1.00  0.00     0.202 C 
BRANCH   3   4
ATOM      4  C   UNL A   1      33.678  30.882  27.704  1.00  0.00     0.261 C 
BRANCH   4   5
ATOM      5  O   UNL A   1      33.306  30.156  26.523  1.00  0.00    -0.460 OA
BRANCH   5   6
ATOM      6  C   UNL A   1      32.114  30.438  25.955  1.00  0.00     0.338 C 
ATOM      7  O   UNL A   1      31.436  31.431  26.149  1.00  0.00    -0.246 OA
BRANCH   6   8
ATOM      8  C   UNL A   1      31.828  29.406  24.918  1.00  0.00     0.061 A 
ATOM      9  C   UNL A   1      32.388  27.252  23.897  1.00  0.00     0.101 A 
ATOM     10  C   UNL A   1      32.631  28.261  24.857  1.00  0.00     0.039 A 
ATOM     11  C   UNL A   1      31.357  27.415  22.974  1.00  0.00     0.061 A 
ATOM     12  C   UNL A   1      30.528  28.546  23.065  1.00  0.00     0.023 A 
ATOM     13  Cl  UNL A   1      31.037  26.329  21.679  1.00  0.00    -0.083 Cl
ATOM     14  C   UNL A   1      30.755  29.533  24.032  1.00  0.00     0.017 A 
BRANCH   9  15
ATOM     15  S   UNL A   1      33.473  25.851  23.919  1.00  0.00     0.242 S 
ATOM     16  O   UNL A   1      34.350  26.014  25.058  1.00  0.00    -0.207 OA
ATOM     17  O   UNL A   1      34.038  25.735  22.592  1.00  0.00    -0.207 OA
BRANCH  15  18
ATOM     18  N   UNL A   1      32.602  24.447  24.174  1.00  0.00    -0.208 NA
ATOM     19  H   UNL A   1      31.715  24.761  24.566  1.00  0.00     0.141 HD
BRANCH  18  20
ATOM     20  C   UNL A   1      32.977  23.289  24.988  1.00  0.00     0.067 C 
ATOM     21  C   UNL A   1      31.656  22.616  25.413  1.00  0.00     0.025 C 
BRANCH  20  22
ATOM     22  C   UNL A   1      33.808  22.228  24.245  1.00  0.00     0.022 C 
BRANCH  22  23
ATOM     23  C   UNL A   1      35.328  22.237  24.455  1.00  0.00    -0.016 C 
ATOM     24  C   UNL A   1      36.081  22.983  23.355  1.00  0.00     0.007 C 
ATOM     25  C   UNL A   1      35.668  22.854  25.815  1.00  0.00     0.007 C 
ENDBRANCH  22  23
ENDBRANCH  20  22
ENDBRANCH  18  20
ENDBRANCH  15  18
ENDBRANCH   9  15
ENDBRANCH   6   8
ENDBRANCH   5   6
ENDBRANCH   4   5
ENDBRANCH   3   4
ENDBRANCH   2   3
ENDBRANCH   1   2
BRANCH   1  26
ATOM     26  C   UNL A   1      33.858  34.556  29.241  1.00  0.00     0.188 C 
BRANCH  26  27
ATOM     27  O   UNL A   1      33.671  33.884  30.477  1.00  0.00    -0.377 OA
BRANCH  27  28
ATOM     28  C   UNL A   1      34.803  33.351  31.165  1.00  0.00     0.188 C 
BRANCH  28  29
ATOM     29  C   UNL A   1      36.252  33.843  30.925  1.00  0.00     0.188 C 
BRANCH  29  30
ATOM     30  O   UNL A   1      37.257  33.085  31.579  1.00  0.00    -0.376 OA
BRANCH  30  31
ATOM     31  C   UNL A   1      37.188  33.000  32.993  1.00  0.00     0.202 C 
BRANCH  31  32
ATOM     32  C   UNL A   1      37.083  31.571  33.534  1.00  0.00     0.261 C 
BRANCH  32  33
ATOM     33  O   UNL A   1      37.124  30.536  32.541  1.00  0.00    -0.460 OA
BRANCH  33  34
ATOM     34  C   UNL A   1      38.037  29.549  32.717  1.00  0.00     0.338 C 
ATOM     35  O   UNL A   1      37.880  28.481  33.253  1.00  0.00    -0.246 OA
BRANCH  34  36
ATOM     36  C   UNL A   1      39.249  29.950  31.971  1.00  0.00     0.060 A 
ATOM     37  C   UNL A   1      40.428  30.231  32.673  1.00  0.00     0.016 A 
ATOM     38  C   UNL A   1      39.211  30.036  30.579  1.00  0.00     0.016 A 
ATOM     39  C   UNL A   1      41.574  30.626  31.978  1.00  0.00     0.010 A 
ATOM     40  C   UNL A   1      40.350  30.447  29.888  1.00  0.00     0.010 A 
ATOM     41  C   UNL A   1      41.527  30.771  30.585  1.00  0.00    -0.014 A 
BRANCH  41  42
ATOM     42  C   UNL A   1      42.623  31.451  29.856  1.00  0.00     0.031 A 
ATOM     43  C   UNL A   1      43.807  30.627  29.437  1.00  0.00     0.074 A 
ATOM     44  C   UNL A   1      42.592  32.772  29.610  1.00  0.00     0.049 A 
ATOM     45  N   UNL A   1      44.950  31.006  28.929  1.00  0.00    -0.248 NA
ATOM     46  C   UNL A   1      43.684  29.173  29.629  1.00  0.00     0.031 C 
ATOM     47  C   UNL A   1      41.481  33.666  29.924  1.00  0.00     0.029 A 
ATOM     48  N   UNL A   1      43.543  33.594  29.056  1.00  0.00    -0.354 N 
ATOM     49  C   UNL A   1      45.687  29.843  28.755  1.00  0.00     0.074 A 
ATOM     50  C   UNL A   1      44.873  28.746  29.233  1.00  0.00     0.031 C 
ATOM     51  C   UNL A   1      41.823  34.921  29.581  1.00  0.00     0.029 A 
ATOM     52  C   UNL A   1      43.192  34.921  29.064  1.00  0.00     0.049 A 
ATOM     53  H   UNL A   1      44.394  33.263  28.689  1.00  0.00     0.167 HD
ATOM     54  C   UNL A   1      46.930  29.703  28.240  1.00  0.00     0.037 A 
ATOM     55  C   UNL A   1      43.912  36.011  28.730  1.00  0.00     0.037 A 
ATOM     56  C   UNL A   1      47.735  30.798  27.773  1.00  0.00     0.049 A 
ATOM     57  C   UNL A   1      45.331  35.838  28.242  1.00  0.00     0.074 A 
ATOM     58  C   UNL A   1      49.003  30.762  27.220  1.00  0.00     0.029 A 
ATOM     59  N   UNL A   1      47.353  32.130  27.813  1.00  0.00    -0.354 N 
ATOM     60  N   UNL A   1      46.017  34.736  28.060  1.00  0.00    -0.248 NA
ATOM     61  C   UNL A   1      46.077  37.064  27.916  1.00  0.00     0.031 C 
ATOM     62  C   UNL A   1      49.411  32.077  26.980  1.00  0.00     0.029 A 
ATOM     63  C   UNL A   1      48.372  32.929  27.322  1.00  0.00     0.049 A 
ATOM     64  H   UNL A   1      46.485  32.460  28.143  1.00  0.00     0.167 HD
ATOM     65  C   UNL A   1      47.255  35.130  27.565  1.00  0.00     0.074 A 
ATOM     66  C   UNL A   1      47.226  36.575  27.473  1.00  0.00     0.031 C 
ATOM     67  C   UNL A   1      48.316  34.364  27.213  1.00  0.00     0.037 A 
BRANCH  54  68
ATOM     68  C   UNL A   1      47.509  28.319  28.191  1.00  0.00     0.064 A 
ATOM     69  C   UNL A   1      48.210  27.773  29.277  1.00  0.00     0.173 A 
ATOM     70  C   UNL A   1      47.335  27.519  27.053  1.00  0.00     0.173 A 
ATOM     71  F   UNL A   1      48.418  28.503  30.383  1.00  0.00    -0.203 F 
ATOM     72  C   UNL A   1      48.739  26.486  29.212  1.00  0.00     0.198 A 
ATOM     73  C   UNL A   1      47.836  26.222  27.004  1.00  0.00     0.198 A 
ATOM     74  F   UNL A   1      46.670  27.993  25.987  1.00  0.00    -0.203 F 
ATOM     75  F   UNL A   1      49.449  26.003  30.242  1.00  0.00    -0.200 F 
ATOM     76  C   UNL A   1      48.545  25.709  28.081  1.00  0.00     0.200 A 
ATOM     77  F   UNL A   1      47.637  25.468  25.914  1.00  0.00    -0.200 F 
ATOM     78  F   UNL A   1      49.047  24.468  28.023  1.00  0.00    -0.200 F 
ENDBRANCH  54  68
BRANCH  55  79
ATOM     79  C   UNL A   1      43.319  37.368  28.863  1.00  0.00     0.064 A 
ATOM     80  C   UNL A   1      42.510  37.907  27.853  1.00  0.00     0.173 A 
ATOM     81  C   UNL A   1      43.567  38.165  29.992  1.00  0.00     0.173 A 
ATOM     82  F   UNL A   1      42.267  37.196  26.742  1.00  0.00    -0.203 F 
ATOM     83  C   UNL A   1      41.990  39.195  27.955  1.00  0.00     0.198 A 
ATOM     84  C   UNL A   1      43.021  39.442  30.107  1.00  0.00     0.198 A 
ATOM     85  F   UNL A   1      44.338  37.701  30.986  1.00  0.00    -0.203 F 
ATOM     86  F   UNL A   1      41.263  39.703  26.952  1.00  0.00    -0.200 F 
ATOM     87  C   UNL A   1      42.240  39.959  29.085  1.00  0.00     0.200 A 
ATOM     88  F   UNL A   1      43.255  40.172  31.206  1.00  0.00    -0.200 F 
ATOM     89  F   UNL A   1      41.736  41.198  29.184  1.00  0.00    -0.200 F 
ENDBRANCH  55  79
BRANCH  67  90
ATOM     90  C   UNL A   1      49.520  35.053  26.638  1.00  0.00     0.064 A 
ATOM     91  C   UNL A   1      49.580  35.442  25.293  1.00  0.00     0.173 A 
ATOM     92  C   UNL A   1      50.593  35.408  27.473  1.00  0.00     0.173 A 
ATOM     93  F   UNL A   1      48.587  35.117  24.451  1.00  0.00    -0.203 F 
ATOM     94  C   UNL A   1      50.674  36.151  24.801  1.00  0.00     0.198 A 
ATOM     95  C   UNL A   1      51.670  36.142  26.985  1.00  0.00     0.198 A 
ATOM     96  F   UNL A   1      50.581  35.067  28.771  1.00  0.00    -0.203 F 
ATOM     97  F   UNL A   1      50.725  36.486  23.505  1.00  0.00    -0.200 F 
ATOM     98  C   UNL A   1      51.711  36.511  25.650  1.00  0.00     0.200 A 
ATOM     99  F   UNL A   1      52.661  36.504  27.811  1.00  0.00    -0.200 F 
ATOM    100  F   UNL A   1      52.751  37.212  25.179  1.00  0.00    -0.200 F 
ENDBRANCH  67  90
ENDBRANCH  41  42
ENDBRANCH  34  36
ENDBRANCH  33  34
ENDBRANCH  32  33
ENDBRANCH  31  32
ENDBRANCH  30  31
ENDBRANCH  29  30
ENDBRANCH  28  29
ENDBRANCH  27  28
ENDBRANCH  26  27
ENDBRANCH   1  26
TORSDOF 25
ENDMDL
