MODEL 1
REMARK VINA RESULT:      -9.5      0.000      0.000
REMARK SMILES COc1ccc([C@@H](C)NC(=O)CCC(=O)OCCOCCOCCOCCOC(=O)c2ccc(-c3c4nc(c(-c5c(F)c(F)c(F)c(F)c5F)c5ccc([nH]5)c(-c5c(F)c(F)c(F)c(F)c5F)c5nc(c(-c6c(F)c(F)c(F)c(F)c6F)c6ccc3[nH]6)C=C5)C=C4)cc2)cc1OC
REMARK SMILES IDX 20 1 19 2 18 3 17 4 16 5 14 6 15 7 13 8 12 9 10 10 9 11
REMARK SMILES IDX 11 13 7 14 8 15 6 16 3 17 4 18 95 19 5 20 94 21 2 22 1 23
REMARK SMILES IDX 96 24 97 25 21 26 22 27 23 28 24 29 25 30 26 31 27 32 28 33
REMARK SMILES IDX 29 34 30 35 31 36 32 37 93 38 33 39 92 40 34 41 35 42 36 43
REMARK SMILES IDX 86 44 37 45 91 46 85 47 87 48 38 49 90 50 84 51 83 52 39 54
REMARK SMILES IDX 71 55 51 56 70 57 52 58 55 59 69 60 88 61 53 62 54 63 68 65
REMARK SMILES IDX 89 66 56 67 40 68 41 69 49 70 42 71 43 72 47 73 50 74 44 75
REMARK SMILES IDX 45 76 48 77 46 78 72 79 73 80 81 81 74 82 75 83 79 84 82 85
REMARK SMILES IDX 76 86 77 87 80 88 78 89 57 90 58 91 66 92 59 93 60 94 64 95
REMARK SMILES IDX 67 96 61 97 62 98 65 99 63 100
REMARK H PARENT 9 12 87 53 55 64
REMARK Flexibility Score: inf
ROOT
ATOM      1  C   UNL A   1      39.994  22.718  26.934  1.00  0.00     0.188 C 
ENDROOT
BRANCH   1   2
ATOM      2  O   UNL A   1      38.592  22.601  26.721  1.00  0.00    -0.376 OA
BRANCH   2   3
ATOM      3  C   UNL A   1      38.150  22.075  25.467  1.00  0.00     0.202 C 
BRANCH   3   4
ATOM      4  C   UNL A   1      36.691  21.619  25.371  1.00  0.00     0.261 C 
BRANCH   4   5
ATOM      5  O   UNL A   1      35.880  22.011  26.503  1.00  0.00    -0.463 OA
BRANCH   5   6
ATOM      6  C   UNL A   1      35.095  23.101  26.321  1.00  0.00     0.306 C 
ATOM      7  O   UNL A   1      35.499  24.166  25.866  1.00  0.00    -0.252 OA
BRANCH   6   8
ATOM      8  C   UNL A   1      33.664  22.947  26.803  1.00  0.00     0.132 C 
BRANCH   8   9
ATOM      9  C   UNL A   1      32.509  23.305  25.874  1.00  0.00     0.111 C 
BRANCH   9  10
ATOM     10  C   UNL A   1      31.366  23.932  26.644  1.00  0.00     0.221 C 
ATOM     11  N   UNL A   1      31.243  25.286  26.706  1.00  0.00    -0.350 N 
ATOM     12  H   UNL A   1      30.423  25.617  27.139  1.00  0.00     0.164 HD
ATOM     13  O   UNL A   1      30.515  23.230  27.190  1.00  0.00    -0.275 OA
BRANCH  11  14
ATOM     14  C   UNL A   1      32.153  26.313  26.222  1.00  0.00     0.109 C 
ATOM     15  C   UNL A   1      31.894  27.617  26.979  1.00  0.00     0.036 C 
BRANCH  14  16
ATOM     16  C   UNL A   1      32.145  26.387  24.702  1.00  0.00    -0.022 A 
ATOM     17  C   UNL A   1      31.717  26.326  21.907  1.00  0.00     0.160 A 
ATOM     18  C   UNL A   1      32.647  25.475  22.505  1.00  0.00     0.051 A 
ATOM     19  C   UNL A   1      30.993  27.213  22.703  1.00  0.00     0.161 A 
ATOM     20  C   UNL A   1      32.860  25.501  23.889  1.00  0.00     0.010 A 
ATOM     21  C   UNL A   1      31.259  27.282  24.072  1.00  0.00     0.056 A 
BRANCH  17  22
ATOM     22  O   UNL A   1      31.523  26.149  20.565  1.00  0.00    -0.493 OA
ATOM     23  C   UNL A   1      32.516  25.343  19.937  1.00  0.00     0.278 C 
ENDBRANCH  17  22
BRANCH  19  24
ATOM     24  O   UNL A   1      30.012  28.046  22.237  1.00  0.00    -0.493 OA
ATOM     25  C   UNL A   1      29.524  28.949  23.231  1.00  0.00     0.278 C 
ENDBRANCH  19  24
ENDBRANCH  14  16
ENDBRANCH  11  14
ENDBRANCH   9  10
ENDBRANCH   8   9
ENDBRANCH   6   8
ENDBRANCH   5   6
ENDBRANCH   4   5
ENDBRANCH   3   4
ENDBRANCH   2   3
ENDBRANCH   1   2
BRANCH   1  26
ATOM     26  C   UNL A   1      40.922  21.931  25.993  1.00  0.00     0.188 C 
BRANCH  26  27
ATOM     27  O   UNL A   1      41.190  20.607  26.418  1.00  0.00    -0.377 OA
BRANCH  27  28
ATOM     28  C   UNL A   1      42.381  20.003  25.919  1.00  0.00     0.188 C 
BRANCH  28  29
ATOM     29  C   UNL A   1      43.659  20.855  25.883  1.00  0.00     0.188 C 
BRANCH  29  30
ATOM     30  O   UNL A   1      44.130  21.083  24.550  1.00  0.00    -0.376 OA
BRANCH  30  31
ATOM     31  C   UNL A   1      43.946  22.409  24.058  1.00  0.00     0.202 C 
BRANCH  31  32
ATOM     32  C   UNL A   1      45.082  23.381  24.429  1.00  0.00     0.261 C 
BRANCH  32  33
ATOM     33  O   UNL A   1      44.834  24.149  25.616  1.00  0.00    -0.460 OA
BRANCH  33  34
ATOM     34  C   UNL A   1      44.956  25.487  25.439  1.00  0.00     0.338 C 
ATOM     35  O   UNL A   1      45.694  26.069  24.664  1.00  0.00    -0.246 OA
BRANCH  34  36
ATOM     36  C   UNL A   1      43.989  26.189  26.302  1.00  0.00     0.060 A 
ATOM     37  C   UNL A   1      44.113  27.573  26.468  1.00  0.00     0.016 A 
ATOM     38  C   UNL A   1      43.067  25.462  27.057  1.00  0.00     0.016 A 
ATOM     39  C   UNL A   1      43.368  28.226  27.455  1.00  0.00     0.010 A 
ATOM     40  C   UNL A   1      42.330  26.113  28.050  1.00  0.00     0.010 A 
ATOM     41  C   UNL A   1      42.517  27.487  28.290  1.00  0.00    -0.014 A 
BRANCH  41  42
ATOM     42  C   UNL A   1      41.993  28.087  29.544  1.00  0.00     0.031 A 
ATOM     43  C   UNL A   1      40.707  28.870  29.484  1.00  0.00     0.074 A 
ATOM     44  C   UNL A   1      42.642  27.958  30.714  1.00  0.00     0.049 A 
ATOM     45  N   UNL A   1      40.093  29.540  30.428  1.00  0.00    -0.248 NA
ATOM     46  C   UNL A   1      40.023  28.904  28.182  1.00  0.00     0.031 C 
ATOM     47  C   UNL A   1      43.873  27.202  30.919  1.00  0.00     0.029 A 
ATOM     48  N   UNL A   1      42.353  28.479  31.952  1.00  0.00    -0.354 N 
ATOM     49  C   UNL A   1      38.957  30.075  29.833  1.00  0.00     0.074 A 
ATOM     50  C   UNL A   1      38.978  29.676  28.443  1.00  0.00     0.031 C 
ATOM     51  C   UNL A   1      44.247  27.322  32.206  1.00  0.00     0.029 A 
ATOM     52  C   UNL A   1      43.295  28.185  32.906  1.00  0.00     0.049 A 
ATOM     53  H   UNL A   1      41.546  29.012  32.137  1.00  0.00     0.167 HD
ATOM     54  C   UNL A   1      37.980  30.826  30.395  1.00  0.00     0.037 A 
ATOM     55  C   UNL A   1      43.387  28.587  34.189  1.00  0.00     0.037 A 
ATOM     56  C   UNL A   1      37.953  31.230  31.775  1.00  0.00     0.049 A 
ATOM     57  C   UNL A   1      42.326  29.487  34.772  1.00  0.00     0.074 A 
ATOM     58  C   UNL A   1      36.991  31.972  32.439  1.00  0.00     0.029 A 
ATOM     59  N   UNL A   1      38.940  30.935  32.703  1.00  0.00    -0.354 N 
ATOM     60  N   UNL A   1      41.239  29.959  34.212  1.00  0.00    -0.248 NA
ATOM     61  C   UNL A   1      42.509  29.910  36.169  1.00  0.00     0.031 C 
ATOM     62  C   UNL A   1      37.417  32.163  33.757  1.00  0.00     0.029 A 
ATOM     63  C   UNL A   1      38.623  31.501  33.926  1.00  0.00     0.049 A 
ATOM     64  H   UNL A   1      39.746  30.400  32.518  1.00  0.00     0.167 HD
ATOM     65  C   UNL A   1      40.596  30.705  35.193  1.00  0.00     0.074 A 
ATOM     66  C   UNL A   1      41.409  30.618  36.386  1.00  0.00     0.031 C 
ATOM     67  C   UNL A   1      39.433  31.398  35.112  1.00  0.00     0.037 A 
BRANCH  54  68
ATOM     68  C   UNL A   1      36.863  31.282  29.504  1.00  0.00     0.064 A 
ATOM     69  C   UNL A   1      36.790  32.602  29.036  1.00  0.00     0.173 A 
ATOM     70  C   UNL A   1      35.877  30.377  29.084  1.00  0.00     0.173 A 
ATOM     71  F   UNL A   1      37.703  33.506  29.421  1.00  0.00    -0.203 F 
ATOM     72  C   UNL A   1      35.755  33.005  28.196  1.00  0.00     0.198 A 
ATOM     73  C   UNL A   1      34.858  30.778  28.224  1.00  0.00     0.198 A 
ATOM     74  F   UNL A   1      35.906  29.103  29.501  1.00  0.00    -0.203 F 
ATOM     75  F   UNL A   1      35.682  34.282  27.791  1.00  0.00    -0.200 F 
ATOM     76  C   UNL A   1      34.795  32.093  27.787  1.00  0.00     0.200 A 
ATOM     77  F   UNL A   1      33.936  29.893  27.821  1.00  0.00    -0.200 F 
ATOM     78  F   UNL A   1      33.803  32.481  26.972  1.00  0.00    -0.200 F 
ENDBRANCH  54  68
BRANCH  55  79
ATOM     79  C   UNL A   1      44.538  28.152  35.023  1.00  0.00     0.064 A 
ATOM     80  C   UNL A   1      45.730  28.888  35.048  1.00  0.00     0.173 A 
ATOM     81  C   UNL A   1      44.480  26.975  35.784  1.00  0.00     0.173 A 
ATOM     82  F   UNL A   1      45.842  30.005  34.313  1.00  0.00    -0.203 F 
ATOM     83  C   UNL A   1      46.827  28.456  35.789  1.00  0.00     0.198 A 
ATOM     84  C   UNL A   1      45.570  26.558  36.545  1.00  0.00     0.198 A 
ATOM     85  F   UNL A   1      43.364  26.232  35.789  1.00  0.00    -0.203 F 
ATOM     86  F   UNL A   1      47.970  29.155  35.758  1.00  0.00    -0.200 F 
ATOM     87  C   UNL A   1      46.745  27.294  36.541  1.00  0.00     0.200 A 
ATOM     88  F   UNL A   1      45.483  25.438  37.277  1.00  0.00    -0.200 F 
ATOM     89  F   UNL A   1      47.801  26.879  37.253  1.00  0.00    -0.200 F 
ENDBRANCH  55  79
BRANCH  67  90
ATOM     90  C   UNL A   1      38.946  32.087  36.353  1.00  0.00     0.064 A 
ATOM     91  C   UNL A   1      39.289  33.416  36.641  1.00  0.00     0.173 A 
ATOM     92  C   UNL A   1      38.085  31.423  37.241  1.00  0.00     0.173 A 
ATOM     93  F   UNL A   1      40.120  34.088  35.831  1.00  0.00    -0.203 F 
ATOM     94  C   UNL A   1      38.803  34.049  37.783  1.00  0.00     0.198 A 
ATOM     95  C   UNL A   1      37.580  32.067  38.367  1.00  0.00     0.198 A 
ATOM     96  F   UNL A   1      37.721  30.153  37.007  1.00  0.00    -0.203 F 
ATOM     97  F   UNL A   1      39.176  35.306  38.060  1.00  0.00    -0.200 F 
ATOM     98  C   UNL A   1      37.944  33.377  38.640  1.00  0.00     0.200 A 
ATOM     99  F   UNL A   1      36.741  31.421  39.188  1.00  0.00    -0.200 F 
ATOM    100  F   UNL A   1      37.472  33.990  39.735  1.00  0.00    -0.200 F 
ENDBRANCH  67  90
ENDBRANCH  41  42
ENDBRANCH  34  36
ENDBRANCH  33  34
ENDBRANCH  32  33
ENDBRANCH  31  32
ENDBRANCH  30  31
ENDBRANCH  29  30
ENDBRANCH  28  29
ENDBRANCH  27  28
ENDBRANCH  26  27
ENDBRANCH   1  26
TORSDOF 26
ENDMDL
MODEL 2
REMARK VINA RESULT:      -9.3      1.580      7.498
REMARK SMILES COc1ccc([C@@H](C)NC(=O)CCC(=O)OCCOCCOCCOCCOC(=O)c2ccc(-c3c4nc(c(-c5c(F)c(F)c(F)c(F)c5F)c5ccc([nH]5)c(-c5c(F)c(F)c(F)c(F)c5F)c5nc(c(-c6c(F)c(F)c(F)c(F)c6F)c6ccc3[nH]6)C=C5)C=C4)cc2)cc1OC
REMARK SMILES IDX 20 1 19 2 18 3 17 4 16 5 14 6 15 7 13 8 12 9 10 10 9 11
REMARK SMILES IDX 11 13 7 14 8 15 6 16 3 17 4 18 95 19 5 20 94 21 2 22 1 23
REMARK SMILES IDX 96 24 97 25 21 26 22 27 23 28 24 29 25 30 26 31 27 32 28 33
REMARK SMILES IDX 29 34 30 35 31 36 32 37 93 38 33 39 92 40 34 41 35 42 36 43
REMARK SMILES IDX 86 44 37 45 91 46 85 47 87 48 38 49 90 50 84 51 83 52 39 54
REMARK SMILES IDX 71 55 51 56 70 57 52 58 55 59 69 60 88 61 53 62 54 63 68 65
REMARK SMILES IDX 89 66 56 67 40 68 41 69 49 70 42 71 43 72 47 73 50 74 44 75
REMARK SMILES IDX 45 76 48 77 46 78 72 79 73 80 81 81 74 82 75 83 79 84 82 85
REMARK SMILES IDX 76 86 77 87 80 88 78 89 57 90 58 91 66 92 59 93 60 94 64 95
REMARK SMILES IDX 67 96 61 97 62 98 65 99 63 100
REMARK H PARENT 9 12 87 53 55 64
REMARK Flexibility Score: inf
ROOT
ATOM      1  C   UNL A   1      42.507  19.764  26.913  1.00  0.00     0.188 C 
ENDROOT
BRANCH   1   2
ATOM      2  O   UNL A   1      41.209  20.339  27.017  1.00  0.00    -0.376 OA
BRANCH   2   3
ATOM      3  C   UNL A   1      40.360  20.278  25.868  1.00  0.00     0.202 C 
BRANCH   3   4
ATOM      4  C   UNL A   1      39.066  21.096  25.906  1.00  0.00     0.261 C 
BRANCH   4   5
ATOM      5  O   UNL A   1      38.005  20.552  25.085  1.00  0.00    -0.463 OA
BRANCH   5   6
ATOM      6  C   UNL A   1      36.771  21.073  25.288  1.00  0.00     0.306 C 
ATOM      7  O   UNL A   1      35.731  20.524  24.940  1.00  0.00    -0.252 OA
BRANCH   6   8
ATOM      8  C   UNL A   1      36.755  22.453  25.919  1.00  0.00     0.132 C 
BRANCH   8   9
ATOM      9  C   UNL A   1      36.756  23.692  25.030  1.00  0.00     0.111 C 
BRANCH   9  10
ATOM     10  C   UNL A   1      35.696  23.590  23.954  1.00  0.00     0.221 C 
ATOM     11  N   UNL A   1      34.394  23.853  24.247  1.00  0.00    -0.350 N 
ATOM     12  H   UNL A   1      33.780  23.863  23.478  1.00  0.00     0.164 HD
ATOM     13  O   UNL A   1      36.000  23.304  22.795  1.00  0.00    -0.275 OA
BRANCH  11  14
ATOM     14  C   UNL A   1      33.781  24.124  25.539  1.00  0.00     0.109 C 
ATOM     15  C   UNL A   1      32.864  22.960  25.919  1.00  0.00     0.036 C 
BRANCH  14  16
ATOM     16  C   UNL A   1      33.175  25.519  25.582  1.00  0.00    -0.022 A 
ATOM     17  C   UNL A   1      31.966  28.050  25.214  1.00  0.00     0.160 A 
ATOM     18  C   UNL A   1      33.342  27.939  25.415  1.00  0.00     0.051 A 
ATOM     19  C   UNL A   1      31.185  26.895  25.193  1.00  0.00     0.161 A 
ATOM     20  C   UNL A   1      33.945  26.688  25.595  1.00  0.00     0.010 A 
ATOM     21  C   UNL A   1      31.780  25.657  25.443  1.00  0.00     0.056 A 
BRANCH  17  22
ATOM     22  O   UNL A   1      31.500  29.309  24.955  1.00  0.00    -0.493 OA
ATOM     23  C   UNL A   1      31.804  30.261  25.971  1.00  0.00     0.278 C 
ENDBRANCH  17  22
BRANCH  19  24
ATOM     24  O   UNL A   1      29.839  26.877  24.942  1.00  0.00    -0.493 OA
ATOM     25  C   UNL A   1      29.482  26.009  23.863  1.00  0.00     0.278 C 
ENDBRANCH  19  24
ENDBRANCH  14  16
ENDBRANCH  11  14
ENDBRANCH   9  10
ENDBRANCH   8   9
ENDBRANCH   6   8
ENDBRANCH   5   6
ENDBRANCH   4   5
ENDBRANCH   3   4
ENDBRANCH   2   3
ENDBRANCH   1   2
BRANCH   1  26
ATOM     26  C   UNL A   1      42.639  18.450  26.126  1.00  0.00     0.188 C 
BRANCH  26  27
ATOM     27  O   UNL A   1      43.513  18.526  25.015  1.00  0.00    -0.377 OA
BRANCH  27  28
ATOM     28  C   UNL A   1      44.830  19.012  25.269  1.00  0.00     0.188 C 
BRANCH  28  29
ATOM     29  C   UNL A   1      45.094  20.512  25.067  1.00  0.00     0.188 C 
BRANCH  29  30
ATOM     30  O   UNL A   1      44.784  20.952  23.741  1.00  0.00    -0.376 OA
BRANCH  30  31
ATOM     31  C   UNL A   1      44.280  22.284  23.645  1.00  0.00     0.202 C 
BRANCH  31  32
ATOM     32  C   UNL A   1      43.535  22.767  24.904  1.00  0.00     0.261 C 
BRANCH  32  33
ATOM     33  O   UNL A   1      43.410  24.193  25.001  1.00  0.00    -0.460 OA
BRANCH  33  34
ATOM     34  C   UNL A   1      44.569  24.826  25.307  1.00  0.00     0.338 C 
ATOM     35  O   UNL A   1      45.578  24.894  24.629  1.00  0.00    -0.246 OA
BRANCH  34  36
ATOM     36  C   UNL A   1      44.429  25.514  26.603  1.00  0.00     0.060 A 
ATOM     37  C   UNL A   1      43.727  24.876  27.632  1.00  0.00     0.016 A 
ATOM     38  C   UNL A   1      44.853  26.836  26.744  1.00  0.00     0.016 A 
ATOM     39  C   UNL A   1      43.375  25.591  28.781  1.00  0.00     0.010 A 
ATOM     40  C   UNL A   1      44.490  27.553  27.888  1.00  0.00     0.010 A 
ATOM     41  C   UNL A   1      43.705  26.950  28.887  1.00  0.00    -0.014 A 
BRANCH  41  42
ATOM     42  C   UNL A   1      43.051  27.801  29.915  1.00  0.00     0.031 A 
ATOM     43  C   UNL A   1      43.701  27.919  31.269  1.00  0.00     0.074 A 
ATOM     44  C   UNL A   1      41.900  28.449  29.669  1.00  0.00     0.049 A 
ATOM     45  N   UNL A   1      43.285  28.543  32.343  1.00  0.00    -0.248 NA
ATOM     46  C   UNL A   1      44.995  27.236  31.435  1.00  0.00     0.031 C 
ATOM     47  C   UNL A   1      41.185  28.449  28.396  1.00  0.00     0.029 A 
ATOM     48  N   UNL A   1      41.124  29.225  30.495  1.00  0.00    -0.354 N 
ATOM     49  C   UNL A   1      44.261  28.326  33.308  1.00  0.00     0.074 A 
ATOM     50  C   UNL A   1      45.277  27.492  32.704  1.00  0.00     0.031 C 
ATOM     51  C   UNL A   1      40.061  29.177  28.530  1.00  0.00     0.029 A 
ATOM     52  C   UNL A   1      39.967  29.670  29.904  1.00  0.00     0.049 A 
ATOM     53  H   UNL A   1      41.374  29.442  31.422  1.00  0.00     0.167 HD
ATOM     54  C   UNL A   1      44.312  28.786  34.581  1.00  0.00     0.037 A 
ATOM     55  C   UNL A   1      38.942  30.375  30.423  1.00  0.00     0.037 A 
ATOM     56  C   UNL A   1      43.305  29.612  35.191  1.00  0.00     0.049 A 
ATOM     57  C   UNL A   1      38.986  30.810  31.867  1.00  0.00     0.074 A 
ATOM     58  C   UNL A   1      43.283  30.146  36.468  1.00  0.00     0.029 A 
ATOM     59  N   UNL A   1      42.135  30.019  34.568  1.00  0.00    -0.354 N 
ATOM     60  N   UNL A   1      39.927  30.630  32.761  1.00  0.00    -0.248 NA
ATOM     61  C   UNL A   1      37.817  31.548  32.372  1.00  0.00     0.031 C 
ATOM     62  C   UNL A   1      42.079  30.837  36.633  1.00  0.00     0.029 A 
ATOM     63  C   UNL A   1      41.372  30.773  35.443  1.00  0.00     0.049 A 
ATOM     64  H   UNL A   1      41.885  29.803  33.640  1.00  0.00     0.167 HD
ATOM     65  C   UNL A   1      39.481  31.255  33.919  1.00  0.00     0.074 A 
ATOM     66  C   UNL A   1      38.188  31.827  33.615  1.00  0.00     0.031 C 
ATOM     67  C   UNL A   1      40.091  31.349  35.126  1.00  0.00     0.037 A 
BRANCH  54  68
ATOM     68  C   UNL A   1      45.492  28.382  35.413  1.00  0.00     0.064 A 
ATOM     69  C   UNL A   1      45.477  27.214  36.191  1.00  0.00     0.173 A 
ATOM     70  C   UNL A   1      46.665  29.151  35.402  1.00  0.00     0.173 A 
ATOM     71  F   UNL A   1      44.374  26.453  36.243  1.00  0.00    -0.203 F 
ATOM     72  C   UNL A   1      46.587  26.844  36.945  1.00  0.00     0.198 A 
ATOM     73  C   UNL A   1      47.781  28.764  36.138  1.00  0.00     0.198 A 
ATOM     74  F   UNL A   1      46.731  30.274  34.671  1.00  0.00    -0.203 F 
ATOM     75  F   UNL A   1      46.538  25.745  37.712  1.00  0.00    -0.200 F 
ATOM     76  C   UNL A   1      47.739  27.615  36.914  1.00  0.00     0.200 A 
ATOM     77  F   UNL A   1      48.898  29.505  36.099  1.00  0.00    -0.200 F 
ATOM     78  F   UNL A   1      48.810  27.254  37.635  1.00  0.00    -0.200 F 
ENDBRANCH  54  68
BRANCH  55  79
ATOM     79  C   UNL A   1      37.768  30.711  29.576  1.00  0.00     0.064 A 
ATOM     80  C   UNL A   1      36.785  29.753  29.292  1.00  0.00     0.173 A 
ATOM     81  C   UNL A   1      37.623  31.985  29.009  1.00  0.00     0.173 A 
ATOM     82  F   UNL A   1      36.898  28.512  29.789  1.00  0.00    -0.203 F 
ATOM     83  C   UNL A   1      35.711  30.051  28.458  1.00  0.00     0.198 A 
ATOM     84  C   UNL A   1      36.534  32.289  28.195  1.00  0.00     0.198 A 
ATOM     85  F   UNL A   1      38.539  32.935  29.245  1.00  0.00    -0.203 F 
ATOM     86  F   UNL A   1      34.810  29.103  28.166  1.00  0.00    -0.200 F 
ATOM     87  C   UNL A   1      35.582  31.320  27.915  1.00  0.00     0.200 A 
ATOM     88  F   UNL A   1      36.410  33.520  27.678  1.00  0.00    -0.200 F 
ATOM     89  F   UNL A   1      34.548  31.605  27.112  1.00  0.00    -0.200 F 
ENDBRANCH  55  79
BRANCH  67  90
ATOM     90  C   UNL A   1      39.391  32.130  36.200  1.00  0.00     0.064 A 
ATOM     91  C   UNL A   1      38.399  31.549  37.004  1.00  0.00     0.173 A 
ATOM     92  C   UNL A   1      39.753  33.460  36.461  1.00  0.00     0.173 A 
ATOM     93  F   UNL A   1      38.009  30.285  36.786  1.00  0.00    -0.203 F 
ATOM     94  C   UNL A   1      37.781  32.280  38.017  1.00  0.00     0.198 A 
ATOM     95  C   UNL A   1      39.152  34.179  37.490  1.00  0.00     0.198 A 
ATOM     96  F   UNL A   1      40.701  34.060  35.724  1.00  0.00    -0.203 F 
ATOM     97  F   UNL A   1      36.807  31.719  38.747  1.00  0.00    -0.200 F 
ATOM     98  C   UNL A   1      38.162  33.591  38.263  1.00  0.00     0.200 A 
ATOM     99  F   UNL A   1      39.530  35.442  37.735  1.00  0.00    -0.200 F 
ATOM    100  F   UNL A   1      37.571  34.289  39.242  1.00  0.00    -0.200 F 
ENDBRANCH  67  90
ENDBRANCH  41  42
ENDBRANCH  34  36
ENDBRANCH  33  34
ENDBRANCH  32  33
ENDBRANCH  31  32
ENDBRANCH  30  31
ENDBRANCH  29  30
ENDBRANCH  28  29
ENDBRANCH  27  28
ENDBRANCH  26  27
ENDBRANCH   1  26
TORSDOF 26
ENDMDL
MODEL 3
REMARK VINA RESULT:      -8.8      1.477      2.854
REMARK SMILES COc1ccc([C@@H](C)NC(=O)CCC(=O)OCCOCCOCCOCCOC(=O)c2ccc(-c3c4nc(c(-c5c(F)c(F)c(F)c(F)c5F)c5ccc([nH]5)c(-c5c(F)c(F)c(F)c(F)c5F)c5nc(c(-c6c(F)c(F)c(F)c(F)c6F)c6ccc3[nH]6)C=C5)C=C4)cc2)cc1OC
REMARK SMILES IDX 20 1 19 2 18 3 17 4 16 5 14 6 15 7 13 8 12 9 10 10 9 11
REMARK SMILES IDX 11 13 7 14 8 15 6 16 3 17 4 18 95 19 5 20 94 21 2 22 1 23
REMARK SMILES IDX 96 24 97 25 21 26 22 27 23 28 24 29 25 30 26 31 27 32 28 33
REMARK SMILES IDX 29 34 30 35 31 36 32 37 93 38 33 39 92 40 34 41 35 42 36 43
REMARK SMILES IDX 86 44 37 45 91 46 85 47 87 48 38 49 90 50 84 51 83 52 39 54
REMARK SMILES IDX 71 55 51 56 70 57 52 58 55 59 69 60 88 61 53 62 54 63 68 65
REMARK SMILES IDX 89 66 56 67 40 68 41 69 49 70 42 71 43 72 47 73 50 74 44 75
REMARK SMILES IDX 45 76 48 77 46 78 72 79 73 80 81 81 74 82 75 83 79 84 82 85
REMARK SMILES IDX 76 86 77 87 80 88 78 89 57 90 58 91 66 92 59 93 60 94 64 95
REMARK SMILES IDX 67 96 61 97 62 98 65 99 63 100
REMARK H PARENT 9 12 87 53 55 64
REMARK Flexibility Score: inf
ROOT
ATOM      1  C   UNL A   1      43.020  19.802  26.736  1.00  0.00     0.188 C 
ENDROOT
BRANCH   1   2
ATOM      2  O   UNL A   1      41.736  20.302  27.090  1.00  0.00    -0.376 OA
BRANCH   2   3
ATOM      3  C   UNL A   1      40.993  21.001  26.087  1.00  0.00     0.202 C 
BRANCH   3   4
ATOM      4  C   UNL A   1      39.645  21.599  26.500  1.00  0.00     0.261 C 
BRANCH   4   5
ATOM      5  O   UNL A   1      39.313  22.826  25.808  1.00  0.00    -0.463 OA
BRANCH   5   6
ATOM      6  C   UNL A   1      38.571  23.719  26.507  1.00  0.00     0.306 C 
ATOM      7  O   UNL A   1      38.920  24.213  27.573  1.00  0.00    -0.252 OA
BRANCH   6   8
ATOM      8  C   UNL A   1      37.206  24.018  25.914  1.00  0.00     0.132 C 
BRANCH   8   9
ATOM      9  C   UNL A   1      36.639  23.113  24.825  1.00  0.00     0.111 C 
BRANCH   9  10
ATOM     10  C   UNL A   1      36.159  21.799  25.406  1.00  0.00     0.221 C 
ATOM     11  N   UNL A   1      35.070  21.766  26.220  1.00  0.00    -0.350 N 
ATOM     12  H   UNL A   1      34.760  20.868  26.477  1.00  0.00     0.164 HD
ATOM     13  O   UNL A   1      36.723  20.742  25.121  1.00  0.00    -0.275 OA
BRANCH  11  14
ATOM     14  C   UNL A   1      34.297  22.874  26.762  1.00  0.00     0.109 C 
ATOM     15  C   UNL A   1      33.544  22.403  28.009  1.00  0.00     0.036 C 
BRANCH  14  16
ATOM     16  C   UNL A   1      33.474  23.556  25.679  1.00  0.00    -0.022 A 
ATOM     17  C   UNL A   1      32.281  24.697  23.382  1.00  0.00     0.160 A 
ATOM     18  C   UNL A   1      32.840  25.506  24.373  1.00  0.00     0.051 A 
ATOM     19  C   UNL A   1      32.316  23.311  23.533  1.00  0.00     0.161 A 
ATOM     20  C   UNL A   1      33.433  24.945  25.510  1.00  0.00     0.010 A 
ATOM     21  C   UNL A   1      32.847  22.760  24.701  1.00  0.00     0.056 A 
BRANCH  17  22
ATOM     22  O   UNL A   1      31.815  25.347  22.274  1.00  0.00    -0.493 OA
ATOM     23  C   UNL A   1      32.840  25.845  21.418  1.00  0.00     0.278 C 
ENDBRANCH  17  22
BRANCH  19  24
ATOM     24  O   UNL A   1      31.858  22.420  22.601  1.00  0.00    -0.493 OA
ATOM     25  C   UNL A   1      32.158  21.061  22.928  1.00  0.00     0.278 C 
ENDBRANCH  19  24
ENDBRANCH  14  16
ENDBRANCH  11  14
ENDBRANCH   9  10
ENDBRANCH   8   9
ENDBRANCH   6   8
ENDBRANCH   5   6
ENDBRANCH   4   5
ENDBRANCH   3   4
ENDBRANCH   2   3
ENDBRANCH   1   2
BRANCH   1  26
ATOM     26  C   UNL A   1      43.094  18.373  26.173  1.00  0.00     0.188 C 
BRANCH  26  27
ATOM     27  O   UNL A   1      43.934  18.240  25.041  1.00  0.00    -0.377 OA
BRANCH  27  28
ATOM     28  C   UNL A   1      45.155  18.976  25.059  1.00  0.00     0.188 C 
BRANCH  28  29
ATOM     29  C   UNL A   1      45.075  20.506  24.945  1.00  0.00     0.188 C 
BRANCH  29  30
ATOM     30  O   UNL A   1      46.317  21.093  24.543  1.00  0.00    -0.376 OA
BRANCH  30  31
ATOM     31  C   UNL A   1      46.263  22.488  24.250  1.00  0.00     0.202 C 
BRANCH  31  32
ATOM     32  C   UNL A   1      44.844  23.087  24.300  1.00  0.00     0.261 C 
BRANCH  32  33
ATOM     33  O   UNL A   1      44.727  24.250  25.131  1.00  0.00    -0.460 OA
BRANCH  33  34
ATOM     34  C   UNL A   1      44.749  23.980  26.460  1.00  0.00     0.338 C 
ATOM     35  O   UNL A   1      45.404  23.128  27.032  1.00  0.00    -0.246 OA
BRANCH  34  36
ATOM     36  C   UNL A   1      43.885  24.938  27.173  1.00  0.00     0.060 A 
ATOM     37  C   UNL A   1      44.255  26.288  27.201  1.00  0.00     0.016 A 
ATOM     38  C   UNL A   1      42.808  24.480  27.932  1.00  0.00     0.016 A 
ATOM     39  C   UNL A   1      43.593  27.173  28.057  1.00  0.00     0.010 A 
ATOM     40  C   UNL A   1      42.154  25.363  28.796  1.00  0.00     0.010 A 
ATOM     41  C   UNL A   1      42.579  26.700  28.903  1.00  0.00    -0.014 A 
BRANCH  41  42
ATOM     42  C   UNL A   1      42.112  27.525  30.046  1.00  0.00     0.031 A 
ATOM     43  C   UNL A   1      40.875  28.367  29.868  1.00  0.00     0.074 A 
ATOM     44  C   UNL A   1      42.769  27.546  31.218  1.00  0.00     0.049 A 
ATOM     45  N   UNL A   1      40.317  29.217  30.694  1.00  0.00    -0.248 NA
ATOM     46  C   UNL A   1      40.173  28.234  28.580  1.00  0.00     0.031 C 
ATOM     47  C   UNL A   1      43.956  26.758  31.536  1.00  0.00     0.029 A 
ATOM     48  N   UNL A   1      42.532  28.277  32.357  1.00  0.00    -0.354 N 
ATOM     49  C   UNL A   1      39.207  29.719  30.027  1.00  0.00     0.074 A 
ATOM     50  C   UNL A   1      39.182  29.101  28.719  1.00  0.00     0.031 C 
ATOM     51  C   UNL A   1      44.356  27.060  32.785  1.00  0.00     0.029 A 
ATOM     52  C   UNL A   1      43.469  28.082  33.341  1.00  0.00     0.049 A 
ATOM     53  H   UNL A   1      41.762  28.882  32.458  1.00  0.00     0.167 HD
ATOM     54  C   UNL A   1      38.285  30.610  30.465  1.00  0.00     0.037 A 
ATOM     55  C   UNL A   1      43.605  28.679  34.542  1.00  0.00     0.037 A 
ATOM     56  C   UNL A   1      38.304  31.232  31.762  1.00  0.00     0.049 A 
ATOM     57  C   UNL A   1      42.608  29.725  34.977  1.00  0.00     0.074 A 
ATOM     58  C   UNL A   1      37.398  32.129  32.302  1.00  0.00     0.029 A 
ATOM     59  N   UNL A   1      39.285  31.029  32.719  1.00  0.00    -0.354 N 
ATOM     60  N   UNL A   1      41.544  30.167  34.354  1.00  0.00    -0.248 NA
ATOM     61  C   UNL A   1      42.838  30.355  36.286  1.00  0.00     0.031 C 
ATOM     62  C   UNL A   1      37.856  32.503  33.569  1.00  0.00     0.029 A 
ATOM     63  C   UNL A   1      39.021  31.804  33.837  1.00  0.00     0.049 A 
ATOM     64  H   UNL A   1      40.055  30.423  32.619  1.00  0.00     0.167 HD
ATOM     65  C   UNL A   1      40.962  31.101  35.205  1.00  0.00     0.074 A 
ATOM     66  C   UNL A   1      41.787  31.156  36.392  1.00  0.00     0.031 C 
ATOM     67  C   UNL A   1      39.843  31.842  35.019  1.00  0.00     0.037 A 
BRANCH  54  68
ATOM     68  C   UNL A   1      37.184  30.985  29.518  1.00  0.00     0.064 A 
ATOM     69  C   UNL A   1      36.152  30.089  29.202  1.00  0.00     0.173 A 
ATOM     70  C   UNL A   1      37.142  32.266  28.950  1.00  0.00     0.173 A 
ATOM     71  F   UNL A   1      36.156  28.848  29.711  1.00  0.00    -0.203 F 
ATOM     72  C   UNL A   1      35.128  30.458  28.333  1.00  0.00     0.198 A 
ATOM     73  C   UNL A   1      36.104  32.639  28.102  1.00  0.00     0.198 A 
ATOM     74  F   UNL A   1      38.104  33.160  29.224  1.00  0.00    -0.203 F 
ATOM     75  F   UNL A   1      34.171  29.574  28.015  1.00  0.00    -0.200 F 
ATOM     76  C   UNL A   1      35.102  31.733  27.789  1.00  0.00     0.200 A 
ATOM     77  F   UNL A   1      36.074  33.876  27.584  1.00  0.00    -0.200 F 
ATOM     78  F   UNL A   1      34.111  32.089  26.958  1.00  0.00    -0.200 F 
ENDBRANCH  54  68
BRANCH  55  79
ATOM     79  C   UNL A   1      44.740  28.313  35.428  1.00  0.00     0.064 A 
ATOM     80  C   UNL A   1      45.976  28.965  35.324  1.00  0.00     0.173 A 
ATOM     81  C   UNL A   1      44.620  27.284  36.374  1.00  0.00     0.173 A 
ATOM     82  F   UNL A   1      46.145  29.935  34.414  1.00  0.00    -0.203 F 
ATOM     83  C   UNL A   1      47.056  28.589  36.120  1.00  0.00     0.198 A 
ATOM     84  C   UNL A   1      45.694  26.927  37.186  1.00  0.00     0.198 A 
ATOM     85  F   UNL A   1      43.460  26.626  36.509  1.00  0.00    -0.203 F 
ATOM     86  F   UNL A   1      48.240  29.198  35.967  1.00  0.00    -0.200 F 
ATOM     87  C   UNL A   1      46.913  27.575  37.054  1.00  0.00     0.200 A 
ATOM     88  F   UNL A   1      45.550  25.951  38.094  1.00  0.00    -0.200 F 
ATOM     89  F   UNL A   1      47.953  27.215  37.818  1.00  0.00    -0.200 F 
ENDBRANCH  55  79
BRANCH  67  90
ATOM     90  C   UNL A   1      39.417  32.751  36.135  1.00  0.00     0.064 A 
ATOM     91  C   UNL A   1      38.485  32.344  37.101  1.00  0.00     0.173 A 
ATOM     92  C   UNL A   1      39.985  34.027  36.268  1.00  0.00     0.173 A 
ATOM     93  F   UNL A   1      37.903  31.139  37.011  1.00  0.00    -0.203 F 
ATOM     94  C   UNL A   1      38.123  33.190  38.147  1.00  0.00     0.198 A 
ATOM     95  C   UNL A   1      39.642  34.859  37.329  1.00  0.00     0.198 A 
ATOM     96  F   UNL A   1      40.887  34.461  35.374  1.00  0.00    -0.203 F 
ATOM     97  F   UNL A   1      37.201  32.796  39.036  1.00  0.00    -0.200 F 
ATOM     98  C   UNL A   1      38.707  34.443  38.265  1.00  0.00     0.200 A 
ATOM     99  F   UNL A   1      40.215  36.065  37.448  1.00  0.00    -0.200 F 
ATOM    100  F   UNL A   1      38.363  35.252  39.276  1.00  0.00    -0.200 F 
ENDBRANCH  67  90
ENDBRANCH  41  42
ENDBRANCH  34  36
ENDBRANCH  33  34
ENDBRANCH  32  33
ENDBRANCH  31  32
ENDBRANCH  30  31
ENDBRANCH  29  30
ENDBRANCH  28  29
ENDBRANCH  27  28
ENDBRANCH  26  27
ENDBRANCH   1  26
TORSDOF 26
ENDMDL
