MODEL 1
REMARK VINA RESULT:     -10.5      0.000      0.000
REMARK SMILES Cc1ccc(-c2noc(CCC(=O)OCCOCCOCCOCCOC(=O)c3ccc(-c4c5nc(c(-c6c(F)c(F)c(F)c(F)c6F)c6ccc([nH]6)c(-c6c(F)c(F)c(F)c(F)c6F)c6nc(c(-c7c(F)c(F)c(F)c(F)c7F)c7ccc4[nH]7)C=C6)C=C5)cc3)n2)cc1C
REMARK SMILES IDX 19 1 18 2 17 3 16 4 15 5 14 6 12 7 13 8 11 9 10 10 9 11 6 12
REMARK SMILES IDX 7 13 92 14 8 15 5 16 1 17 2 18 3 19 94 20 4 21 93 22 95 23
REMARK SMILES IDX 20 24 21 25 22 26 23 27 24 28 25 29 26 30 27 31 28 32 29 33
REMARK SMILES IDX 30 34 91 35 31 36 90 37 32 38 33 39 34 40 84 41 35 42 89 43
REMARK SMILES IDX 83 44 85 45 36 46 88 47 82 48 81 49 37 51 69 52 49 53 68 54
REMARK SMILES IDX 50 55 53 56 67 57 86 58 51 59 52 60 66 62 87 63 54 64 38 65
REMARK SMILES IDX 39 66 47 67 40 68 41 69 45 70 48 71 42 72 43 73 46 74 44 75
REMARK SMILES IDX 70 76 71 77 79 78 72 79 73 80 77 81 80 82 74 83 75 84 78 85
REMARK SMILES IDX 76 86 55 87 56 88 64 89 57 90 58 91 62 92 65 93 59 94 60 95
REMARK SMILES IDX 63 96 61 97
REMARK H PARENT 85 50 53 61
REMARK Flexibility Score: inf
ROOT
ATOM      1  C   UNL A   1      33.580  27.153  25.970  1.00  0.00     0.188 C 
ENDROOT
BRANCH   1   2
ATOM      2  C   UNL A   1      34.010  26.795  24.538  1.00  0.00     0.188 C 
BRANCH   2   3
ATOM      3  O   UNL A   1      33.807  27.835  23.610  1.00  0.00    -0.376 OA
BRANCH   3   4
ATOM      4  C   UNL A   1      33.306  27.537  22.322  1.00  0.00     0.202 C 
BRANCH   4   5
ATOM      5  C   UNL A   1      32.262  26.434  22.069  1.00  0.00     0.261 C 
BRANCH   5   6
ATOM      6  O   UNL A   1      30.937  26.858  21.719  1.00  0.00    -0.463 OA
BRANCH   6   7
ATOM      7  C   UNL A   1      30.383  27.836  22.461  1.00  0.00     0.306 C 
ATOM      8  O   UNL A   1      29.945  28.883  21.996  1.00  0.00    -0.252 OA
BRANCH   7   9
ATOM      9  C   UNL A   1      30.292  27.541  23.945  1.00  0.00     0.132 C 
BRANCH   9  10
ATOM     10  C   UNL A   1      29.530  26.360  24.534  1.00  0.00     0.112 C 
BRANCH  10  11
ATOM     11  C   UNL A   1      30.302  25.305  25.222  1.00  0.00     0.227 A 
ATOM     12  C   UNL A   1      31.663  23.846  25.842  1.00  0.00     0.202 A 
ATOM     13  N   UNL A   1      30.943  24.082  26.947  1.00  0.00    -0.057 NA
ATOM     14  N   UNL A   1      31.301  24.596  24.750  1.00  0.00    -0.191 NA
ATOM     15  O   UNL A   1      30.065  25.081  26.542  1.00  0.00    -0.339 OA
BRANCH  12  16
ATOM     16  C   UNL A   1      32.615  22.769  25.726  1.00  0.00     0.023 A 
ATOM     17  C   UNL A   1      35.479  19.663  24.900  1.00  0.00     0.044 C 
ATOM     18  C   UNL A   1      34.450  20.713  25.216  1.00  0.00    -0.048 A 
ATOM     19  C   UNL A   1      34.870  21.927  25.787  1.00  0.00     0.004 A 
ATOM     20  C   UNL A   1      33.087  20.520  24.922  1.00  0.00    -0.047 A 
ATOM     21  C   UNL A   1      33.961  22.957  26.031  1.00  0.00     0.012 A 
ATOM     22  C   UNL A   1      32.180  21.550  25.199  1.00  0.00     0.015 A 
ATOM     23  C   UNL A   1      32.532  19.281  24.276  1.00  0.00     0.044 C 
ENDBRANCH  12  16
ENDBRANCH  10  11
ENDBRANCH   9  10
ENDBRANCH   7   9
ENDBRANCH   6   7
ENDBRANCH   5   6
ENDBRANCH   4   5
ENDBRANCH   3   4
ENDBRANCH   2   3
ENDBRANCH   1   2
BRANCH   1  24
ATOM     24  O   UNL A   1      34.312  28.120  26.709  1.00  0.00    -0.377 OA
BRANCH  24  25
ATOM     25  C   UNL A   1      33.845  29.469  26.781  1.00  0.00     0.188 C 
BRANCH  25  26
ATOM     26  C   UNL A   1      32.416  29.831  26.316  1.00  0.00     0.188 C 
BRANCH  26  27
ATOM     27  O   UNL A   1      31.933  31.074  26.794  1.00  0.00    -0.376 OA
BRANCH  27  28
ATOM     28  C   UNL A   1      32.859  31.925  27.454  1.00  0.00     0.202 C 
BRANCH  28  29
ATOM     29  C   UNL A   1      32.657  33.441  27.307  1.00  0.00     0.261 C 
BRANCH  29  30
ATOM     30  O   UNL A   1      32.307  34.153  28.507  1.00  0.00    -0.460 OA
BRANCH  30  31
ATOM     31  C   UNL A   1      33.070  35.205  28.859  1.00  0.00     0.338 C 
ATOM     32  O   UNL A   1      32.800  36.393  28.748  1.00  0.00    -0.246 OA
BRANCH  31  33
ATOM     33  C   UNL A   1      34.247  34.686  29.577  1.00  0.00     0.060 A 
ATOM     34  C   UNL A   1      35.492  34.678  28.937  1.00  0.00     0.016 A 
ATOM     35  C   UNL A   1      34.113  34.193  30.877  1.00  0.00     0.016 A 
ATOM     36  C   UNL A   1      36.604  34.138  29.584  1.00  0.00     0.010 A 
ATOM     37  C   UNL A   1      35.222  33.638  31.517  1.00  0.00     0.010 A 
ATOM     38  C   UNL A   1      36.464  33.573  30.859  1.00  0.00    -0.014 A 
BRANCH  38  39
ATOM     39  C   UNL A   1      37.552  32.735  31.415  1.00  0.00     0.031 A 
ATOM     40  C   UNL A   1      38.074  33.063  32.787  1.00  0.00     0.074 A 
ATOM     41  C   UNL A   1      38.052  31.689  30.736  1.00  0.00     0.049 A 
ATOM     42  N   UNL A   1      39.039  32.503  33.473  1.00  0.00    -0.248 NA
ATOM     43  C   UNL A   1      37.415  34.183  33.477  1.00  0.00     0.031 C 
ATOM     44  C   UNL A   1      37.599  31.241  29.422  1.00  0.00     0.029 A 
ATOM     45  N   UNL A   1      39.060  30.817  31.064  1.00  0.00    -0.354 N 
ATOM     46  C   UNL A   1      39.105  33.205  34.670  1.00  0.00     0.074 A 
ATOM     47  C   UNL A   1      38.113  34.257  34.599  1.00  0.00     0.031 C 
ATOM     48  C   UNL A   1      38.326  30.172  29.055  1.00  0.00     0.029 A 
ATOM     49  C   UNL A   1      39.319  29.886  30.090  1.00  0.00     0.049 A 
ATOM     50  H   UNL A   1      39.549  30.855  31.917  1.00  0.00     0.167 HD
ATOM     51  C   UNL A   1      39.910  32.986  35.736  1.00  0.00     0.037 A 
ATOM     52  C   UNL A   1      40.264  28.928  30.038  1.00  0.00     0.037 A 
ATOM     53  C   UNL A   1      40.908  31.950  35.793  1.00  0.00     0.049 A 
ATOM     54  C   UNL A   1      41.221  28.768  31.193  1.00  0.00     0.074 A 
ATOM     55  C   UNL A   1      41.775  31.642  36.825  1.00  0.00     0.029 A 
ATOM     56  N   UNL A   1      41.181  31.062  34.763  1.00  0.00    -0.354 N 
ATOM     57  N   UNL A   1      41.268  29.418  32.331  1.00  0.00    -0.248 NA
ATOM     58  C   UNL A   1      42.259  27.735  31.053  1.00  0.00     0.031 C 
ATOM     59  C   UNL A   1      42.616  30.608  36.395  1.00  0.00     0.029 A 
ATOM     60  C   UNL A   1      42.226  30.225  35.121  1.00  0.00     0.049 A 
ATOM     61  H   UNL A   1      40.702  31.030  33.903  1.00  0.00     0.167 HD
ATOM     62  C   UNL A   1      42.311  28.854  33.055  1.00  0.00     0.074 A 
ATOM     63  C   UNL A   1      42.865  27.799  32.230  1.00  0.00     0.031 C 
ATOM     64  C   UNL A   1      42.766  29.175  34.293  1.00  0.00     0.037 A 
BRANCH  51  65
ATOM     65  C   UNL A   1      39.765  33.920  36.905  1.00  0.00     0.064 A 
ATOM     66  C   UNL A   1      40.439  35.151  36.960  1.00  0.00     0.173 A 
ATOM     67  C   UNL A   1      38.952  33.573  37.995  1.00  0.00     0.173 A 
ATOM     68  F   UNL A   1      41.240  35.527  35.951  1.00  0.00    -0.203 F 
ATOM     69  C   UNL A   1      40.345  35.973  38.080  1.00  0.00     0.198 A 
ATOM     70  C   UNL A   1      38.829  34.416  39.097  1.00  0.00     0.198 A 
ATOM     71  F   UNL A   1      38.279  32.414  37.996  1.00  0.00    -0.203 F 
ATOM     72  F   UNL A   1      41.057  37.107  38.139  1.00  0.00    -0.200 F 
ATOM     73  C   UNL A   1      39.537  35.607  39.145  1.00  0.00     0.200 A 
ATOM     74  F   UNL A   1      38.036  34.068  40.120  1.00  0.00    -0.200 F 
ATOM     75  F   UNL A   1      39.450  36.397  40.224  1.00  0.00    -0.200 F 
ENDBRANCH  51  65
BRANCH  52  76
ATOM     76  C   UNL A   1      40.346  28.032  28.854  1.00  0.00     0.064 A 
ATOM     77  C   UNL A   1      41.090  28.401  27.725  1.00  0.00     0.173 A 
ATOM     78  C   UNL A   1      39.681  26.796  28.822  1.00  0.00     0.173 A 
ATOM     79  F   UNL A   1      41.718  29.586  27.695  1.00  0.00    -0.203 F 
ATOM     80  C   UNL A   1      41.159  27.575  26.605  1.00  0.00     0.198 A 
ATOM     81  C   UNL A   1      39.774  25.958  27.712  1.00  0.00     0.198 A 
ATOM     82  F   UNL A   1      38.948  26.398  29.871  1.00  0.00    -0.203 F 
ATOM     83  F   UNL A   1      41.843  27.971  25.523  1.00  0.00    -0.200 F 
ATOM     84  C   UNL A   1      40.508  26.350  26.603  1.00  0.00     0.200 A 
ATOM     85  F   UNL A   1      39.152  24.771  27.718  1.00  0.00    -0.200 F 
ATOM     86  F   UNL A   1      40.581  25.552  25.530  1.00  0.00    -0.200 F 
ENDBRANCH  52  76
BRANCH  64  87
ATOM     87  C   UNL A   1      43.891  28.350  34.855  1.00  0.00     0.064 A 
ATOM     88  C   UNL A   1      45.235  28.715  34.690  1.00  0.00     0.173 A 
ATOM     89  C   UNL A   1      43.615  27.196  35.607  1.00  0.00     0.173 A 
ATOM     90  F   UNL A   1      45.558  29.801  33.971  1.00  0.00    -0.203 F 
ATOM     91  C   UNL A   1      46.261  27.941  35.229  1.00  0.00     0.198 A 
ATOM     92  C   UNL A   1      44.640  26.446  36.175  1.00  0.00     0.198 A 
ATOM     93  F   UNL A   1      42.347  26.805  35.804  1.00  0.00    -0.203 F 
ATOM     94  F   UNL A   1      47.539  28.280  35.013  1.00  0.00    -0.200 F 
ATOM     95  C   UNL A   1      45.962  26.813  35.979  1.00  0.00     0.200 A 
ATOM     96  F   UNL A   1      44.349  25.365  36.913  1.00  0.00    -0.200 F 
ATOM     97  F   UNL A   1      46.950  26.075  36.504  1.00  0.00    -0.200 F 
ENDBRANCH  64  87
ENDBRANCH  38  39
ENDBRANCH  31  33
ENDBRANCH  30  31
ENDBRANCH  29  30
ENDBRANCH  28  29
ENDBRANCH  27  28
ENDBRANCH  26  27
ENDBRANCH  25  26
ENDBRANCH  24  25
ENDBRANCH   1  24
TORSDOF 23
ENDMDL
MODEL 2
REMARK VINA RESULT:     -10.4      4.503      7.147
REMARK SMILES Cc1ccc(-c2noc(CCC(=O)OCCOCCOCCOCCOC(=O)c3ccc(-c4c5nc(c(-c6c(F)c(F)c(F)c(F)c6F)c6ccc([nH]6)c(-c6c(F)c(F)c(F)c(F)c6F)c6nc(c(-c7c(F)c(F)c(F)c(F)c7F)c7ccc4[nH]7)C=C6)C=C5)cc3)n2)cc1C
REMARK SMILES IDX 19 1 18 2 17 3 16 4 15 5 14 6 12 7 13 8 11 9 10 10 9 11 6 12
REMARK SMILES IDX 7 13 92 14 8 15 5 16 1 17 2 18 3 19 94 20 4 21 93 22 95 23
REMARK SMILES IDX 20 24 21 25 22 26 23 27 24 28 25 29 26 30 27 31 28 32 29 33
REMARK SMILES IDX 30 34 91 35 31 36 90 37 32 38 33 39 34 40 84 41 35 42 89 43
REMARK SMILES IDX 83 44 85 45 36 46 88 47 82 48 81 49 37 51 69 52 49 53 68 54
REMARK SMILES IDX 50 55 53 56 67 57 86 58 51 59 52 60 66 62 87 63 54 64 38 65
REMARK SMILES IDX 39 66 47 67 40 68 41 69 45 70 48 71 42 72 43 73 46 74 44 75
REMARK SMILES IDX 70 76 71 77 79 78 72 79 73 80 77 81 80 82 74 83 75 84 78 85
REMARK SMILES IDX 76 86 55 87 56 88 64 89 57 90 58 91 62 92 65 93 59 94 60 95
REMARK SMILES IDX 63 96 61 97
REMARK H PARENT 85 50 53 61
REMARK Flexibility Score: inf
ROOT
ATOM      1  C   UNL A   1      33.234  30.726  27.390  1.00  0.00     0.188 C 
ENDROOT
BRANCH   1   2
ATOM      2  C   UNL A   1      34.263  29.603  27.180  1.00  0.00     0.188 C 
BRANCH   2   3
ATOM      3  O   UNL A   1      34.007  28.807  26.046  1.00  0.00    -0.376 OA
BRANCH   3   4
ATOM      4  C   UNL A   1      33.300  27.591  26.190  1.00  0.00     0.202 C 
BRANCH   4   5
ATOM      5  C   UNL A   1      31.793  27.535  26.500  1.00  0.00     0.261 C 
BRANCH   5   6
ATOM      6  O   UNL A   1      30.915  27.207  25.414  1.00  0.00    -0.463 OA
BRANCH   6   7
ATOM      7  C   UNL A   1      30.749  28.132  24.450  1.00  0.00     0.306 C 
ATOM      8  O   UNL A   1      30.972  29.329  24.605  1.00  0.00    -0.252 OA
BRANCH   7   9
ATOM      9  C   UNL A   1      30.296  27.588  23.110  1.00  0.00     0.132 C 
BRANCH   9  10
ATOM     10  C   UNL A   1      31.238  26.997  22.069  1.00  0.00     0.112 C 
BRANCH  10  11
ATOM     11  C   UNL A   1      32.148  25.911  22.488  1.00  0.00     0.227 A 
ATOM     12  C   UNL A   1      33.111  24.109  22.930  1.00  0.00     0.202 A 
ATOM     13  N   UNL A   1      34.091  25.016  23.046  1.00  0.00    -0.057 NA
ATOM     14  N   UNL A   1      31.889  24.627  22.573  1.00  0.00    -0.191 NA
ATOM     15  O   UNL A   1      33.456  26.208  22.711  1.00  0.00    -0.339 OA
BRANCH  12  16
ATOM     16  C   UNL A   1      33.251  22.730  23.326  1.00  0.00     0.023 A 
ATOM     17  C   UNL A   1      33.554  18.760  24.961  1.00  0.00     0.044 C 
ATOM     18  C   UNL A   1      33.494  20.139  24.366  1.00  0.00    -0.048 A 
ATOM     19  C   UNL A   1      32.340  20.526  23.661  1.00  0.00     0.004 A 
ATOM     20  C   UNL A   1      34.549  21.057  24.527  1.00  0.00    -0.047 A 
ATOM     21  C   UNL A   1      32.211  21.818  23.152  1.00  0.00     0.012 A 
ATOM     22  C   UNL A   1      34.419  22.342  23.986  1.00  0.00     0.015 A 
ATOM     23  C   UNL A   1      35.809  20.766  25.293  1.00  0.00     0.044 C 
ENDBRANCH  12  16
ENDBRANCH  10  11
ENDBRANCH   9  10
ENDBRANCH   7   9
ENDBRANCH   6   7
ENDBRANCH   5   6
ENDBRANCH   4   5
ENDBRANCH   3   4
ENDBRANCH   2   3
ENDBRANCH   1   2
BRANCH   1  24
ATOM     24  O   UNL A   1      33.627  32.084  27.249  1.00  0.00    -0.377 OA
BRANCH  24  25
ATOM     25  C   UNL A   1      34.720  32.595  28.016  1.00  0.00     0.188 C 
BRANCH  25  26
ATOM     26  C   UNL A   1      34.642  34.001  28.653  1.00  0.00     0.188 C 
BRANCH  26  27
ATOM     27  O   UNL A   1      35.206  34.098  29.948  1.00  0.00    -0.376 OA
BRANCH  27  28
ATOM     28  C   UNL A   1      34.334  34.434  31.018  1.00  0.00     0.202 C 
BRANCH  28  29
ATOM     29  C   UNL A   1      34.312  33.495  32.235  1.00  0.00     0.261 C 
BRANCH  29  30
ATOM     30  O   UNL A   1      35.029  32.257  32.094  1.00  0.00    -0.460 OA
BRANCH  30  31
ATOM     31  C   UNL A   1      36.099  32.056  32.887  1.00  0.00     0.338 C 
ATOM     32  O   UNL A   1      36.204  32.313  34.078  1.00  0.00    -0.246 OA
BRANCH  31  33
ATOM     33  C   UNL A   1      37.095  31.295  32.112  1.00  0.00     0.060 A 
ATOM     34  C   UNL A   1      38.092  30.583  32.789  1.00  0.00     0.016 A 
ATOM     35  C   UNL A   1      37.050  31.303  30.716  1.00  0.00     0.016 A 
ATOM     36  C   UNL A   1      39.075  29.905  32.067  1.00  0.00     0.010 A 
ATOM     37  C   UNL A   1      38.043  30.638  29.995  1.00  0.00     0.010 A 
ATOM     38  C   UNL A   1      39.081  29.968  30.667  1.00  0.00    -0.014 A 
BRANCH  38  39
ATOM     39  C   UNL A   1      40.277  29.516  29.916  1.00  0.00     0.031 A 
ATOM     40  C   UNL A   1      41.406  30.490  29.721  1.00  0.00     0.074 A 
ATOM     41  C   UNL A   1      40.375  28.265  29.439  1.00  0.00     0.049 A 
ATOM     42  N   UNL A   1      42.535  30.345  29.075  1.00  0.00    -0.248 NA
ATOM     43  C   UNL A   1      41.232  31.813  30.340  1.00  0.00     0.031 C 
ATOM     44  C   UNL A   1      39.373  27.216  29.604  1.00  0.00     0.029 A 
ATOM     45  N   UNL A   1      41.375  27.668  28.711  1.00  0.00    -0.354 N 
ATOM     46  C   UNL A   1      43.201  31.557  29.206  1.00  0.00     0.074 A 
ATOM     47  C   UNL A   1      42.332  32.439  29.956  1.00  0.00     0.031 C 
ATOM     48  C   UNL A   1      39.809  26.100  28.995  1.00  0.00     0.029 A 
ATOM     49  C   UNL A   1      41.103  26.368  28.367  1.00  0.00     0.049 A 
ATOM     50  H   UNL A   1      42.208  28.129  28.461  1.00  0.00     0.167 HD
ATOM     51  C   UNL A   1      44.430  31.901  28.754  1.00  0.00     0.037 A 
ATOM     52  C   UNL A   1      41.811  25.505  27.614  1.00  0.00     0.037 A 
ATOM     53  C   UNL A   1      45.282  31.026  27.992  1.00  0.00     0.049 A 
ATOM     54  C   UNL A   1      43.132  25.944  27.031  1.00  0.00     0.074 A 
ATOM     55  C   UNL A   1      46.546  31.275  27.486  1.00  0.00     0.029 A 
ATOM     56  N   UNL A   1      44.948  29.734  27.613  1.00  0.00    -0.354 N 
ATOM     57  N   UNL A   1      43.768  27.081  27.173  1.00  0.00    -0.248 NA
ATOM     58  C   UNL A   1      43.833  24.970  26.180  1.00  0.00     0.031 C 
ATOM     59  C   UNL A   1      46.948  30.156  26.747  1.00  0.00     0.029 A 
ATOM     60  C   UNL A   1      45.967  29.183  26.851  1.00  0.00     0.049 A 
ATOM     61  H   UNL A   1      44.109  29.275  27.851  1.00  0.00     0.167 HD
ATOM     62  C   UNL A   1      44.955  26.950  26.463  1.00  0.00     0.074 A 
ATOM     63  C   UNL A   1      44.955  25.616  25.897  1.00  0.00     0.031 C 
ATOM     64  C   UNL A   1      45.957  27.851  26.298  1.00  0.00     0.037 A 
BRANCH  51  65
ATOM     65  C   UNL A   1      44.897  33.302  29.039  1.00  0.00     0.064 A 
ATOM     66  C   UNL A   1      44.604  34.371  28.177  1.00  0.00     0.173 A 
ATOM     67  C   UNL A   1      45.661  33.576  30.183  1.00  0.00     0.173 A 
ATOM     68  F   UNL A   1      43.887  34.163  27.061  1.00  0.00    -0.203 F 
ATOM     69  C   UNL A   1      45.099  35.649  28.424  1.00  0.00     0.198 A 
ATOM     70  C   UNL A   1      46.122  34.864  30.447  1.00  0.00     0.198 A 
ATOM     71  F   UNL A   1      45.966  32.596  31.045  1.00  0.00    -0.203 F 
ATOM     72  F   UNL A   1      44.869  36.636  27.547  1.00  0.00    -0.200 F 
ATOM     73  C   UNL A   1      45.855  35.895  29.560  1.00  0.00     0.200 A 
ATOM     74  F   UNL A   1      46.840  35.103  31.553  1.00  0.00    -0.200 F 
ATOM     75  F   UNL A   1      46.335  37.124  29.794  1.00  0.00    -0.200 F 
ENDBRANCH  51  65
BRANCH  52  76
ATOM     76  C   UNL A   1      41.295  24.131  27.379  1.00  0.00     0.064 A 
ATOM     77  C   UNL A   1      41.926  23.019  27.955  1.00  0.00     0.173 A 
ATOM     78  C   UNL A   1      40.170  23.897  26.574  1.00  0.00     0.173 A 
ATOM     79  F   UNL A   1      43.023  23.187  28.709  1.00  0.00    -0.203 F 
ATOM     80  C   UNL A   1      41.459  21.727  27.727  1.00  0.00     0.198 A 
ATOM     81  C   UNL A   1      39.687  22.606  26.370  1.00  0.00     0.198 A 
ATOM     82  F   UNL A   1      39.534  24.924  25.991  1.00  0.00    -0.203 F 
ATOM     83  F   UNL A   1      42.106  20.679  28.256  1.00  0.00    -0.200 F 
ATOM     84  C   UNL A   1      40.334  21.521  26.942  1.00  0.00     0.200 A 
ATOM     85  F   UNL A   1      38.594  22.413  25.617  1.00  0.00    -0.200 F 
ATOM     86  F   UNL A   1      39.880  20.279  26.729  1.00  0.00    -0.200 F 
ENDBRANCH  52  76
BRANCH  64  87
ATOM     87  C   UNL A   1      47.162  27.413  25.511  1.00  0.00     0.064 A 
ATOM     88  C   UNL A   1      47.309  27.710  24.149  1.00  0.00     0.173 A 
ATOM     89  C   UNL A   1      48.207  26.719  26.144  1.00  0.00     0.173 A 
ATOM     90  F   UNL A   1      46.337  28.360  23.490  1.00  0.00    -0.203 F 
ATOM     91  C   UNL A   1      48.439  27.303  23.442  1.00  0.00     0.198 A 
ATOM     92  C   UNL A   1      49.351  26.346  25.445  1.00  0.00     0.198 A 
ATOM     93  F   UNL A   1      48.124  26.416  27.449  1.00  0.00    -0.203 F 
ATOM     94  F   UNL A   1      48.533  27.552  22.129  1.00  0.00    -0.200 F 
ATOM     95  C   UNL A   1      49.463  26.630  24.093  1.00  0.00     0.200 A 
ATOM     96  F   UNL A   1      50.346  25.711  26.080  1.00  0.00    -0.200 F 
ATOM     97  F   UNL A   1      50.553  26.248  23.414  1.00  0.00    -0.200 F 
ENDBRANCH  64  87
ENDBRANCH  38  39
ENDBRANCH  31  33
ENDBRANCH  30  31
ENDBRANCH  29  30
ENDBRANCH  28  29
ENDBRANCH  27  28
ENDBRANCH  26  27
ENDBRANCH  25  26
ENDBRANCH  24  25
ENDBRANCH   1  24
TORSDOF 23
ENDMDL
MODEL 3
REMARK VINA RESULT:     -10.4      2.050      7.538
REMARK SMILES Cc1ccc(-c2noc(CCC(=O)OCCOCCOCCOCCOC(=O)c3ccc(-c4c5nc(c(-c6c(F)c(F)c(F)c(F)c6F)c6ccc([nH]6)c(-c6c(F)c(F)c(F)c(F)c6F)c6nc(c(-c7c(F)c(F)c(F)c(F)c7F)c7ccc4[nH]7)C=C6)C=C5)cc3)n2)cc1C
REMARK SMILES IDX 19 1 18 2 17 3 16 4 15 5 14 6 12 7 13 8 11 9 10 10 9 11 6 12
REMARK SMILES IDX 7 13 92 14 8 15 5 16 1 17 2 18 3 19 94 20 4 21 93 22 95 23
REMARK SMILES IDX 20 24 21 25 22 26 23 27 24 28 25 29 26 30 27 31 28 32 29 33
REMARK SMILES IDX 30 34 91 35 31 36 90 37 32 38 33 39 34 40 84 41 35 42 89 43
REMARK SMILES IDX 83 44 85 45 36 46 88 47 82 48 81 49 37 51 69 52 49 53 68 54
REMARK SMILES IDX 50 55 53 56 67 57 86 58 51 59 52 60 66 62 87 63 54 64 38 65
REMARK SMILES IDX 39 66 47 67 40 68 41 69 45 70 48 71 42 72 43 73 46 74 44 75
REMARK SMILES IDX 70 76 71 77 79 78 72 79 73 80 77 81 80 82 74 83 75 84 78 85
REMARK SMILES IDX 76 86 55 87 56 88 64 89 57 90 58 91 62 92 65 93 59 94 60 95
REMARK SMILES IDX 63 96 61 97
REMARK H PARENT 85 50 53 61
REMARK Flexibility Score: inf
ROOT
ATOM      1  C   UNL A   1      33.648  26.081  26.139  1.00  0.00     0.188 C 
ENDROOT
BRANCH   1   2
ATOM      2  C   UNL A   1      34.182  26.532  24.770  1.00  0.00     0.188 C 
BRANCH   2   3
ATOM      3  O   UNL A   1      33.653  27.764  24.335  1.00  0.00    -0.376 OA
BRANCH   3   4
ATOM      4  C   UNL A   1      33.262  27.921  22.986  1.00  0.00     0.202 C 
BRANCH   4   5
ATOM      5  C   UNL A   1      33.941  27.167  21.828  1.00  0.00     0.261 C 
BRANCH   5   6
ATOM      6  O   UNL A   1      33.488  25.832  21.564  1.00  0.00    -0.463 OA
BRANCH   6   7
ATOM      7  C   UNL A   1      32.158  25.635  21.477  1.00  0.00     0.306 C 
ATOM      8  O   UNL A   1      31.483  25.954  20.505  1.00  0.00    -0.252 OA
BRANCH   7   9
ATOM      9  C   UNL A   1      31.533  24.940  22.670  1.00  0.00     0.132 C 
BRANCH   9  10
ATOM     10  C   UNL A   1      31.567  23.432  22.891  1.00  0.00     0.112 C 
BRANCH  10  11
ATOM     11  C   UNL A   1      32.619  22.878  23.767  1.00  0.00     0.227 A 
ATOM     12  C   UNL A   1      34.369  22.391  24.800  1.00  0.00     0.202 A 
ATOM     13  N   UNL A   1      33.412  21.793  25.521  1.00  0.00    -0.057 NA
ATOM     14  N   UNL A   1      33.914  23.086  23.705  1.00  0.00    -0.191 NA
ATOM     15  O   UNL A   1      32.246  22.153  24.855  1.00  0.00    -0.339 OA
BRANCH  12  16
ATOM     16  C   UNL A   1      35.779  22.182  25.018  1.00  0.00     0.023 A 
ATOM     17  C   UNL A   1      39.874  21.474  26.140  1.00  0.00     0.044 C 
ATOM     18  C   UNL A   1      38.460  21.765  25.723  1.00  0.00    -0.048 A 
ATOM     19  C   UNL A   1      37.719  20.757  25.079  1.00  0.00     0.004 A 
ATOM     20  C   UNL A   1      37.853  23.006  25.992  1.00  0.00    -0.047 A 
ATOM     21  C   UNL A   1      36.382  20.958  24.737  1.00  0.00     0.012 A 
ATOM     22  C   UNL A   1      36.518  23.205  25.618  1.00  0.00     0.015 A 
ATOM     23  C   UNL A   1      38.534  24.139  26.708  1.00  0.00     0.044 C 
ENDBRANCH  12  16
ENDBRANCH  10  11
ENDBRANCH   9  10
ENDBRANCH   7   9
ENDBRANCH   6   7
ENDBRANCH   5   6
ENDBRANCH   4   5
ENDBRANCH   3   4
ENDBRANCH   2   3
ENDBRANCH   1   2
BRANCH   1  24
ATOM     24  O   UNL A   1      32.617  25.107  26.212  1.00  0.00    -0.377 OA
BRANCH  24  25
ATOM     25  C   UNL A   1      31.248  25.516  26.249  1.00  0.00     0.188 C 
BRANCH  25  26
ATOM     26  C   UNL A   1      30.876  27.017  26.220  1.00  0.00     0.188 C 
BRANCH  26  27
ATOM     27  O   UNL A   1      30.894  27.657  27.483  1.00  0.00    -0.376 OA
BRANCH  27  28
ATOM     28  C   UNL A   1      31.728  28.797  27.626  1.00  0.00     0.202 C 
BRANCH  28  29
ATOM     29  C   UNL A   1      31.871  29.728  26.411  1.00  0.00     0.261 C 
BRANCH  29  30
ATOM     30  O   UNL A   1      33.157  30.347  26.235  1.00  0.00    -0.460 OA
BRANCH  30  31
ATOM     31  C   UNL A   1      33.496  31.343  27.075  1.00  0.00     0.338 C 
ATOM     32  O   UNL A   1      32.810  32.296  27.418  1.00  0.00    -0.246 OA
BRANCH  31  33
ATOM     33  C   UNL A   1      34.802  31.004  27.669  1.00  0.00     0.060 A 
ATOM     34  C   UNL A   1      35.117  29.662  27.910  1.00  0.00     0.016 A 
ATOM     35  C   UNL A   1      35.704  32.017  28.000  1.00  0.00     0.016 A 
ATOM     36  C   UNL A   1      36.326  29.329  28.522  1.00  0.00     0.010 A 
ATOM     37  C   UNL A   1      36.906  31.685  28.628  1.00  0.00     0.010 A 
ATOM     38  C   UNL A   1      37.205  30.343  28.926  1.00  0.00    -0.014 A 
BRANCH  38  39
ATOM     39  C   UNL A   1      38.328  30.022  29.839  1.00  0.00     0.031 A 
ATOM     40  C   UNL A   1      39.413  29.109  29.340  1.00  0.00     0.074 A 
ATOM     41  C   UNL A   1      38.402  30.545  31.074  1.00  0.00     0.049 A 
ATOM     42  N   UNL A   1      40.474  28.654  29.956  1.00  0.00    -0.248 NA
ATOM     43  C   UNL A   1      39.276  28.642  27.951  1.00  0.00     0.031 C 
ATOM     44  C   UNL A   1      37.440  31.479  31.655  1.00  0.00     0.029 A 
ATOM     45  N   UNL A   1      39.335  30.358  32.063  1.00  0.00    -0.354 N 
ATOM     46  C   UNL A   1      41.127  27.846  29.033  1.00  0.00     0.074 A 
ATOM     47  C   UNL A   1      40.320  27.839  27.831  1.00  0.00     0.031 C 
ATOM     48  C   UNL A   1      37.835  31.786  32.902  1.00  0.00     0.029 A 
ATOM     49  C   UNL A   1      39.054  31.042  33.219  1.00  0.00     0.049 A 
ATOM     50  H   UNL A   1      40.130  29.788  31.953  1.00  0.00     0.167 HD
ATOM     51  C   UNL A   1      42.298  27.180  29.169  1.00  0.00     0.037 A 
ATOM     52  C   UNL A   1      39.701  31.047  34.401  1.00  0.00     0.037 A 
ATOM     53  C   UNL A   1      43.086  27.175  30.374  1.00  0.00     0.049 A 
ATOM     54  C   UNL A   1      40.948  30.214  34.565  1.00  0.00     0.074 A 
ATOM     55  C   UNL A   1      44.288  26.534  30.617  1.00  0.00     0.029 A 
ATOM     56  N   UNL A   1      42.740  27.834  31.545  1.00  0.00    -0.354 N 
ATOM     57  N   UNL A   1      41.574  29.469  33.687  1.00  0.00    -0.248 NA
ATOM     58  C   UNL A   1      41.579  30.226  35.894  1.00  0.00     0.031 C 
ATOM     59  C   UNL A   1      44.636  26.753  31.956  1.00  0.00     0.029 A 
ATOM     60  C   UNL A   1      43.688  27.588  32.526  1.00  0.00     0.049 A 
ATOM     61  H   UNL A   1      41.939  28.393  31.662  1.00  0.00     0.167 HD
ATOM     62  C   UNL A   1      42.686  28.954  34.340  1.00  0.00     0.074 A 
ATOM     63  C   UNL A   1      42.655  29.480  35.690  1.00  0.00     0.031 C 
ATOM     64  C   UNL A   1      43.649  28.123  33.865  1.00  0.00     0.037 A 
BRANCH  51  65
ATOM     65  C   UNL A   1      42.764  26.367  27.993  1.00  0.00     0.064 A 
ATOM     66  C   UNL A   1      43.609  26.905  27.008  1.00  0.00     0.173 A 
ATOM     67  C   UNL A   1      42.346  25.036  27.839  1.00  0.00     0.173 A 
ATOM     68  F   UNL A   1      44.028  28.177  27.098  1.00  0.00    -0.203 F 
ATOM     69  C   UNL A   1      43.977  26.158  25.892  1.00  0.00     0.198 A 
ATOM     70  C   UNL A   1      42.748  24.280  26.741  1.00  0.00     0.198 A 
ATOM     71  F   UNL A   1      41.545  24.469  28.751  1.00  0.00    -0.203 F 
ATOM     72  F   UNL A   1      44.722  26.717  24.929  1.00  0.00    -0.200 F 
ATOM     73  C   UNL A   1      43.550  24.845  25.762  1.00  0.00     0.200 A 
ATOM     74  F   UNL A   1      42.346  23.007  26.624  1.00  0.00    -0.200 F 
ATOM     75  F   UNL A   1      43.900  24.129  24.685  1.00  0.00    -0.200 F 
ENDBRANCH  51  65
BRANCH  52  76
ATOM     76  C   UNL A   1      39.190  31.881  35.520  1.00  0.00     0.064 A 
ATOM     77  C   UNL A   1      39.560  33.228  35.639  1.00  0.00     0.173 A 
ATOM     78  C   UNL A   1      38.331  31.353  36.496  1.00  0.00     0.173 A 
ATOM     79  F   UNL A   1      40.403  33.772  34.748  1.00  0.00    -0.203 F 
ATOM     80  C   UNL A   1      39.099  34.012  36.694  1.00  0.00     0.198 A 
ATOM     81  C   UNL A   1      37.847  32.146  37.535  1.00  0.00     0.198 A 
ATOM     82  F   UNL A   1      37.953  30.068  36.437  1.00  0.00    -0.203 F 
ATOM     83  F   UNL A   1      39.501  35.286  36.805  1.00  0.00    -0.200 F 
ATOM     84  C   UNL A   1      38.236  33.473  37.636  1.00  0.00     0.200 A 
ATOM     85  F   UNL A   1      37.006  31.624  38.439  1.00  0.00    -0.200 F 
ATOM     86  F   UNL A   1      37.786  34.230  38.646  1.00  0.00    -0.200 F 
ENDBRANCH  52  76
BRANCH  64  87
ATOM     87  C   UNL A   1      44.777  27.766  34.793  1.00  0.00     0.064 A 
ATOM     88  C   UNL A   1      45.930  28.557  34.901  1.00  0.00     0.173 A 
ATOM     89  C   UNL A   1      44.683  26.633  35.619  1.00  0.00     0.173 A 
ATOM     90  F   UNL A   1      46.080  29.643  34.128  1.00  0.00    -0.203 F 
ATOM     91  C   UNL A   1      46.959  28.212  35.776  1.00  0.00     0.198 A 
ATOM     92  C   UNL A   1      45.696  26.313  36.519  1.00  0.00     0.198 A 
ATOM     93  F   UNL A   1      43.599  25.845  35.565  1.00  0.00    -0.203 F 
ATOM     94  F   UNL A   1      48.073  28.954  35.823  1.00  0.00    -0.200 F 
ATOM     95  C   UNL A   1      46.836  27.096  36.590  1.00  0.00     0.200 A 
ATOM     96  F   UNL A   1      45.567  25.243  37.317  1.00  0.00    -0.200 F 
ATOM     97  F   UNL A   1      47.822  26.772  37.438  1.00  0.00    -0.200 F 
ENDBRANCH  64  87
ENDBRANCH  38  39
ENDBRANCH  31  33
ENDBRANCH  30  31
ENDBRANCH  29  30
ENDBRANCH  28  29
ENDBRANCH  27  28
ENDBRANCH  26  27
ENDBRANCH  25  26
ENDBRANCH  24  25
ENDBRANCH   1  24
TORSDOF 23
ENDMDL
