MODEL 1
REMARK VINA RESULT:      -9.5      0.000      0.000
REMARK SMILES O=C(CCC(=O)OCCOCCOCCOCCOC(=O)c1ccc(-c2c3nc(c(-c4c(F)c(F)c(F)c(F)c4F)c4ccc([nH]4)c(-c4c(F)c(F)c(F)c(F)c4F)c4nc(c(-c5c(F)c(F)c(F)c(F)c5F)c5ccc2[nH]5)C=C4)C=C3)cc1)Nc1ccc(N2CCN(c3ccc(F)cc3)CC2)cc1
REMARK SMILES IDX 11 1 10 2 9 3 8 4 7 5 5 6 6 7 4 8 3 9 2 10 1 11 85 12 86 14
REMARK SMILES IDX 87 15 104 16 88 17 103 18 89 19 90 20 91 21 102 22 92 23
REMARK SMILES IDX 101 24 93 25 94 26 95 27 100 28 96 29 99 30 97 31 98 32
REMARK SMILES IDX 12 33 13 34 14 35 15 36 16 37 17 38 18 39 19 40 20 41 21 42
REMARK SMILES IDX 22 43 23 44 84 45 24 46 83 47 25 48 26 49 27 50 77 51 28 52
REMARK SMILES IDX 82 53 76 54 78 55 29 56 81 57 75 58 74 59 30 61 62 62 42 63
REMARK SMILES IDX 61 64 43 65 46 66 60 67 79 68 44 69 45 70 59 72 80 73 47 74
REMARK SMILES IDX 31 75 32 76 40 77 33 78 34 79 38 80 41 81 35 82 36 83 39 84
REMARK SMILES IDX 37 85 63 86 64 87 72 88 65 89 66 90 70 91 73 92 67 93 68 94
REMARK SMILES IDX 71 95 69 96 48 97 49 98 57 99 50 100 51 101 55 102 58 103
REMARK SMILES IDX 52 104 53 105 56 106 54 107
REMARK H PARENT 85 13 78 60 46 71
REMARK Flexibility Score: inf
ROOT
ATOM      1  C   UNL A   1      47.221  24.389  26.132  1.00  0.00     0.188 C 
ENDROOT
BRANCH   1   2
ATOM      2  O   UNL A   1      47.088  23.993  27.478  1.00  0.00    -0.376 OA
BRANCH   2   3
ATOM      3  C   UNL A   1      47.318  24.936  28.504  1.00  0.00     0.202 C 
BRANCH   3   4
ATOM      4  C   UNL A   1      48.699  25.582  28.741  1.00  0.00     0.261 C 
BRANCH   4   5
ATOM      5  O   UNL A   1      49.673  24.831  29.492  1.00  0.00    -0.463 OA
BRANCH   5   6
ATOM      6  C   UNL A   1      50.536  25.545  30.250  1.00  0.00     0.306 C 
ATOM      7  O   UNL A   1      51.432  26.239  29.782  1.00  0.00    -0.252 OA
BRANCH   6   8
ATOM      8  C   UNL A   1      50.316  25.463  31.748  1.00  0.00     0.132 C 
BRANCH   8   9
ATOM      9  C   UNL A   1      50.335  24.191  32.583  1.00  0.00     0.112 C 
BRANCH   9  10
ATOM     10  C   UNL A   1      49.117  23.746  33.355  1.00  0.00     0.224 C 
ATOM     11  O   UNL A   1      48.049  24.335  33.188  1.00  0.00    -0.275 OA
ATOM     12  N   UNL A   1      49.287  22.647  34.163  1.00  0.00    -0.326 N 
ATOM     13  H   UNL A   1      50.196  22.292  34.288  1.00  0.00     0.169 HD
BRANCH  12  14
ATOM     14  C   UNL A   1      48.226  22.011  34.816  1.00  0.00     0.041 A 
ATOM     15  C   UNL A   1      47.664  20.878  34.235  1.00  0.00     0.028 A 
ATOM     16  C   UNL A   1      47.802  22.445  36.071  1.00  0.00     0.028 A 
ATOM     17  C   UNL A   1      46.873  20.050  35.028  1.00  0.00     0.028 A 
ATOM     18  C   UNL A   1      46.945  21.658  36.821  1.00  0.00     0.028 A 
ATOM     19  C   UNL A   1      46.573  20.401  36.354  1.00  0.00     0.037 A 
BRANCH  19  20
ATOM     20  N   UNL A   1      46.122  19.481  37.274  1.00  0.00    -0.368 N 
ATOM     21  C   UNL A   1      45.046  18.581  36.842  1.00  0.00     0.138 C 
ATOM     22  C   UNL A   1      46.533  19.545  38.677  1.00  0.00     0.138 C 
ATOM     23  C   UNL A   1      45.029  17.241  37.608  1.00  0.00     0.138 C 
ATOM     24  C   UNL A   1      46.506  18.166  39.361  1.00  0.00     0.138 C 
ATOM     25  N   UNL A   1      45.272  17.426  39.047  1.00  0.00    -0.368 N 
BRANCH  25  26
ATOM     26  C   UNL A   1      44.493  16.837  40.015  1.00  0.00     0.037 A 
ATOM     27  C   UNL A   1      44.972  16.623  41.318  1.00  0.00     0.029 A 
ATOM     28  C   UNL A   1      43.192  16.392  39.734  1.00  0.00     0.029 A 
ATOM     29  C   UNL A   1      44.199  15.982  42.291  1.00  0.00     0.041 A 
ATOM     30  C   UNL A   1      42.416  15.743  40.698  1.00  0.00     0.041 A 
ATOM     31  C   UNL A   1      42.929  15.536  41.966  1.00  0.00     0.123 A 
ATOM     32  F   UNL A   1      42.189  14.899  42.883  1.00  0.00    -0.207 F 
ENDBRANCH  25  26
ENDBRANCH  19  20
ENDBRANCH  12  14
ENDBRANCH   9  10
ENDBRANCH   8   9
ENDBRANCH   6   8
ENDBRANCH   5   6
ENDBRANCH   4   5
ENDBRANCH   3   4
ENDBRANCH   2   3
ENDBRANCH   1   2
BRANCH   1  33
ATOM     33  C   UNL A   1      46.321  23.581  25.190  1.00  0.00     0.188 C 
BRANCH  33  34
ATOM     34  O   UNL A   1      46.623  22.211  24.965  1.00  0.00    -0.377 OA
BRANCH  34  35
ATOM     35  C   UNL A   1      45.717  21.193  25.401  1.00  0.00     0.188 C 
BRANCH  35  36
ATOM     36  C   UNL A   1      45.074  20.211  24.397  1.00  0.00     0.188 C 
BRANCH  36  37
ATOM     37  O   UNL A   1      43.696  19.979  24.603  1.00  0.00    -0.376 OA
BRANCH  37  38
ATOM     38  C   UNL A   1      43.255  19.768  25.935  1.00  0.00     0.202 C 
BRANCH  38  39
ATOM     39  C   UNL A   1      42.638  20.950  26.702  1.00  0.00     0.261 C 
BRANCH  39  40
ATOM     40  O   UNL A   1      41.799  21.849  25.952  1.00  0.00    -0.460 OA
BRANCH  40  41
ATOM     41  C   UNL A   1      42.361  22.952  25.423  1.00  0.00     0.338 C 
ATOM     42  O   UNL A   1      43.064  23.014  24.422  1.00  0.00    -0.246 OA
BRANCH  41  43
ATOM     43  C   UNL A   1      41.853  24.134  26.157  1.00  0.00     0.060 A 
ATOM     44  C   UNL A   1      42.285  25.415  25.783  1.00  0.00     0.016 A 
ATOM     45  C   UNL A   1      40.988  23.982  27.241  1.00  0.00     0.016 A 
ATOM     46  C   UNL A   1      41.888  26.539  26.516  1.00  0.00     0.010 A 
ATOM     47  C   UNL A   1      40.607  25.107  27.986  1.00  0.00     0.010 A 
ATOM     48  C   UNL A   1      41.084  26.394  27.654  1.00  0.00    -0.014 A 
BRANCH  48  49
ATOM     49  C   UNL A   1      40.976  27.512  28.645  1.00  0.00     0.031 A 
ATOM     50  C   UNL A   1      41.850  27.412  29.872  1.00  0.00     0.074 A 
ATOM     51  C   UNL A   1      40.213  28.611  28.461  1.00  0.00     0.049 A 
ATOM     52  N   UNL A   1      41.758  28.033  31.018  1.00  0.00    -0.248 NA
ATOM     53  C   UNL A   1      42.989  26.477  29.788  1.00  0.00     0.031 C 
ATOM     54  C   UNL A   1      39.413  28.892  27.271  1.00  0.00     0.029 A 
ATOM     55  N   UNL A   1      39.948  29.686  29.293  1.00  0.00    -0.354 N 
ATOM     56  C   UNL A   1      42.826  27.573  31.781  1.00  0.00     0.074 A 
ATOM     57  C   UNL A   1      43.529  26.589  30.993  1.00  0.00     0.031 C 
ATOM     58  C   UNL A   1      38.696  30.016  27.470  1.00  0.00     0.029 A 
ATOM     59  C   UNL A   1      38.937  30.511  28.826  1.00  0.00     0.049 A 
ATOM     60  H   UNL A   1      40.431  29.849  30.135  1.00  0.00     0.167 HD
ATOM     61  C   UNL A   1      43.194  27.961  33.024  1.00  0.00     0.037 A 
ATOM     62  C   UNL A   1      38.218  31.470  29.463  1.00  0.00     0.037 A 
ATOM     63  C   UNL A   1      42.477  28.942  33.790  1.00  0.00     0.049 A 
ATOM     64  C   UNL A   1      38.558  31.759  30.915  1.00  0.00     0.074 A 
ATOM     65  C   UNL A   1      42.756  29.429  35.055  1.00  0.00     0.029 A 
ATOM     66  N   UNL A   1      41.339  29.594  33.348  1.00  0.00    -0.354 N 
ATOM     67  N   UNL A   1      39.353  31.096  31.724  1.00  0.00    -0.248 NA
ATOM     68  C   UNL A   1      37.878  32.890  31.562  1.00  0.00     0.031 C 
ATOM     69  C   UNL A   1      41.751  30.335  35.401  1.00  0.00     0.029 A 
ATOM     70  C   UNL A   1      40.913  30.486  34.310  1.00  0.00     0.049 A 
ATOM     71  H   UNL A   1      40.900  29.442  32.479  1.00  0.00     0.167 HD
ATOM     72  C   UNL A   1      39.228  31.704  32.968  1.00  0.00     0.074 A 
ATOM     73  C   UNL A   1      38.301  32.798  32.812  1.00  0.00     0.031 C 
ATOM     74  C   UNL A   1      39.840  31.420  34.141  1.00  0.00     0.037 A 
BRANCH  61  75
ATOM     75  C   UNL A   1      44.418  27.351  33.643  1.00  0.00     0.064 A 
ATOM     76  C   UNL A   1      45.682  27.944  33.509  1.00  0.00     0.173 A 
ATOM     77  C   UNL A   1      44.303  26.237  34.489  1.00  0.00     0.173 A 
ATOM     78  F   UNL A   1      45.848  29.007  32.708  1.00  0.00    -0.203 F 
ATOM     79  C   UNL A   1      46.784  27.445  34.200  1.00  0.00     0.198 A 
ATOM     80  C   UNL A   1      45.400  25.760  35.202  1.00  0.00     0.198 A 
ATOM     81  F   UNL A   1      43.115  25.637  34.659  1.00  0.00    -0.203 F 
ATOM     82  F   UNL A   1      47.986  28.019  34.044  1.00  0.00    -0.200 F 
ATOM     83  C   UNL A   1      46.639  26.365  35.057  1.00  0.00     0.200 A 
ATOM     84  F   UNL A   1      45.251  24.730  36.046  1.00  0.00    -0.200 F 
ATOM     85  F   UNL A   1      47.693  25.909  35.748  1.00  0.00    -0.200 F 
ENDBRANCH  61  75
BRANCH  62  86
ATOM     86  C   UNL A   1      36.932  32.023  28.896  1.00  0.00     0.064 A 
ATOM     87  C   UNL A   1      36.662  33.380  28.689  1.00  0.00     0.173 A 
ATOM     88  C   UNL A   1      35.839  31.162  28.742  1.00  0.00     0.173 A 
ATOM     89  F   UNL A   1      37.649  34.283  28.796  1.00  0.00    -0.203 F 
ATOM     90  C   UNL A   1      35.357  33.842  28.466  1.00  0.00     0.198 A 
ATOM     91  C   UNL A   1      34.546  31.604  28.468  1.00  0.00     0.198 A 
ATOM     92  F   UNL A   1      36.039  29.858  28.887  1.00  0.00    -0.203 F 
ATOM     93  F   UNL A   1      35.120  35.160  28.398  1.00  0.00    -0.200 F 
ATOM     94  C   UNL A   1      34.298  32.954  28.365  1.00  0.00     0.200 A 
ATOM     95  F   UNL A   1      33.545  30.724  28.331  1.00  0.00    -0.200 F 
ATOM     96  F   UNL A   1      33.048  33.396  28.176  1.00  0.00    -0.200 F 
ENDBRANCH  62  86
BRANCH  74  97
ATOM     97  C   UNL A   1      39.462  32.260  35.320  1.00  0.00     0.064 A 
ATOM     98  C   UNL A   1      40.105  33.474  35.597  1.00  0.00     0.173 A 
ATOM     99  C   UNL A   1      38.431  31.841  36.171  1.00  0.00     0.173 A 
ATOM    100  F   UNL A   1      41.114  33.897  34.821  1.00  0.00    -0.203 F 
ATOM    101  C   UNL A   1      39.726  34.240  36.697  1.00  0.00     0.198 A 
ATOM    102  C   UNL A   1      38.047  32.614  37.259  1.00  0.00     0.198 A 
ATOM    103  F   UNL A   1      37.801  30.679  35.943  1.00  0.00    -0.203 F 
ATOM    104  F   UNL A   1      40.363  35.387  36.965  1.00  0.00    -0.200 F 
ATOM    105  C   UNL A   1      38.696  33.811  37.522  1.00  0.00     0.200 A 
ATOM    106  F   UNL A   1      37.055  32.196  38.056  1.00  0.00    -0.200 F 
ATOM    107  F   UNL A   1      38.333  34.548  38.582  1.00  0.00    -0.200 F 
ENDBRANCH  74  97
ENDBRANCH  48  49
ENDBRANCH  41  43
ENDBRANCH  40  41
ENDBRANCH  39  40
ENDBRANCH  38  39
ENDBRANCH  37  38
ENDBRANCH  36  37
ENDBRANCH  35  36
ENDBRANCH  34  35
ENDBRANCH  33  34
ENDBRANCH   1  33
TORSDOF 25
ENDMDL
MODEL 2
REMARK VINA RESULT:      -9.3      1.147      2.113
REMARK SMILES O=C(CCC(=O)OCCOCCOCCOCCOC(=O)c1ccc(-c2c3nc(c(-c4c(F)c(F)c(F)c(F)c4F)c4ccc([nH]4)c(-c4c(F)c(F)c(F)c(F)c4F)c4nc(c(-c5c(F)c(F)c(F)c(F)c5F)c5ccc2[nH]5)C=C4)C=C3)cc1)Nc1ccc(N2CCN(c3ccc(F)cc3)CC2)cc1
REMARK SMILES IDX 11 1 10 2 9 3 8 4 7 5 5 6 6 7 4 8 3 9 2 10 1 11 85 12 86 14
REMARK SMILES IDX 87 15 104 16 88 17 103 18 89 19 90 20 91 21 102 22 92 23
REMARK SMILES IDX 101 24 93 25 94 26 95 27 100 28 96 29 99 30 97 31 98 32
REMARK SMILES IDX 12 33 13 34 14 35 15 36 16 37 17 38 18 39 19 40 20 41 21 42
REMARK SMILES IDX 22 43 23 44 84 45 24 46 83 47 25 48 26 49 27 50 77 51 28 52
REMARK SMILES IDX 82 53 76 54 78 55 29 56 81 57 75 58 74 59 30 61 62 62 42 63
REMARK SMILES IDX 61 64 43 65 46 66 60 67 79 68 44 69 45 70 59 72 80 73 47 74
REMARK SMILES IDX 31 75 32 76 40 77 33 78 34 79 38 80 41 81 35 82 36 83 39 84
REMARK SMILES IDX 37 85 63 86 64 87 72 88 65 89 66 90 70 91 73 92 67 93 68 94
REMARK SMILES IDX 71 95 69 96 48 97 49 98 57 99 50 100 51 101 55 102 58 103
REMARK SMILES IDX 52 104 53 105 56 106 54 107
REMARK H PARENT 85 13 78 60 46 71
REMARK Flexibility Score: inf
ROOT
ATOM      1  C   UNL A   1      47.271  24.478  25.984  1.00  0.00     0.188 C 
ENDROOT
BRANCH   1   2
ATOM      2  O   UNL A   1      47.321  24.155  27.355  1.00  0.00    -0.376 OA
BRANCH   2   3
ATOM      3  C   UNL A   1      47.674  25.154  28.289  1.00  0.00     0.202 C 
BRANCH   3   4
ATOM      4  C   UNL A   1      48.961  25.995  28.155  1.00  0.00     0.261 C 
BRANCH   4   5
ATOM      5  O   UNL A   1      50.207  25.388  28.552  1.00  0.00    -0.463 OA
BRANCH   5   6
ATOM      6  C   UNL A   1      51.144  26.212  29.071  1.00  0.00     0.306 C 
ATOM      7  O   UNL A   1      51.887  26.907  28.386  1.00  0.00    -0.252 OA
BRANCH   6   8
ATOM      8  C   UNL A   1      51.215  26.255  30.585  1.00  0.00     0.132 C 
BRANCH   8   9
ATOM      9  C   UNL A   1      51.433  25.061  31.502  1.00  0.00     0.112 C 
BRANCH   9  10
ATOM     10  C   UNL A   1      50.312  24.515  32.353  1.00  0.00     0.224 C 
ATOM     11  O   UNL A   1      49.148  24.814  32.082  1.00  0.00    -0.275 OA
ATOM     12  N   UNL A   1      50.685  23.654  33.357  1.00  0.00    -0.326 N 
ATOM     13  H   UNL A   1      51.644  23.536  33.542  1.00  0.00     0.169 HD
BRANCH  12  14
ATOM     14  C   UNL A   1      49.763  22.938  34.127  1.00  0.00     0.041 A 
ATOM     15  C   UNL A   1      49.621  21.571  33.903  1.00  0.00     0.028 A 
ATOM     16  C   UNL A   1      49.068  23.559  35.163  1.00  0.00     0.028 A 
ATOM     17  C   UNL A   1      48.990  20.803  34.879  1.00  0.00     0.028 A 
ATOM     18  C   UNL A   1      48.368  22.796  36.082  1.00  0.00     0.028 A 
ATOM     19  C   UNL A   1      48.427  21.407  36.014  1.00  0.00     0.037 A 
BRANCH  19  20
ATOM     20  N   UNL A   1      48.128  20.694  37.154  1.00  0.00    -0.368 N 
ATOM     21  C   UNL A   1      49.209  19.896  37.742  1.00  0.00     0.138 C 
ATOM     22  C   UNL A   1      46.748  20.558  37.625  1.00  0.00     0.138 C 
ATOM     23  C   UNL A   1      49.038  19.662  39.258  1.00  0.00     0.138 C 
ATOM     24  C   UNL A   1      46.666  20.348  39.148  1.00  0.00     0.138 C 
ATOM     25  N   UNL A   1      47.646  19.351  39.614  1.00  0.00    -0.368 N 
BRANCH  25  26
ATOM     26  C   UNL A   1      47.303  18.300  40.433  1.00  0.00     0.037 A 
ATOM     27  C   UNL A   1      46.324  17.364  40.062  1.00  0.00     0.029 A 
ATOM     28  C   UNL A   1      47.896  18.135  41.695  1.00  0.00     0.029 A 
ATOM     29  C   UNL A   1      45.942  16.322  40.912  1.00  0.00     0.041 A 
ATOM     30  C   UNL A   1      47.513  17.102  42.554  1.00  0.00     0.041 A 
ATOM     31  C   UNL A   1      46.533  16.209  42.158  1.00  0.00     0.123 A 
ATOM     32  F   UNL A   1      46.158  15.229  42.990  1.00  0.00    -0.207 F 
ENDBRANCH  25  26
ENDBRANCH  19  20
ENDBRANCH  12  14
ENDBRANCH   9  10
ENDBRANCH   8   9
ENDBRANCH   6   8
ENDBRANCH   5   6
ENDBRANCH   4   5
ENDBRANCH   3   4
ENDBRANCH   2   3
ENDBRANCH   1   2
BRANCH   1  33
ATOM     33  C   UNL A   1      46.230  23.648  25.222  1.00  0.00     0.188 C 
BRANCH  33  34
ATOM     34  O   UNL A   1      46.479  22.264  25.015  1.00  0.00    -0.377 OA
BRANCH  34  35
ATOM     35  C   UNL A   1      45.560  21.286  25.509  1.00  0.00     0.188 C 
BRANCH  35  36
ATOM     36  C   UNL A   1      44.834  20.314  24.553  1.00  0.00     0.188 C 
BRANCH  36  37
ATOM     37  O   UNL A   1      43.456  20.150  24.816  1.00  0.00    -0.376 OA
BRANCH  37  38
ATOM     38  C   UNL A   1      43.051  20.061  26.173  1.00  0.00     0.202 C 
BRANCH  38  39
ATOM     39  C   UNL A   1      42.510  21.325  26.864  1.00  0.00     0.261 C 
BRANCH  39  40
ATOM     40  O   UNL A   1      41.735  22.231  26.055  1.00  0.00    -0.460 OA
BRANCH  40  41
ATOM     41  C   UNL A   1      42.336  23.343  25.591  1.00  0.00     0.338 C 
ATOM     42  O   UNL A   1      43.087  23.427  24.627  1.00  0.00    -0.246 OA
BRANCH  41  43
ATOM     43  C   UNL A   1      41.808  24.507  26.339  1.00  0.00     0.060 A 
ATOM     44  C   UNL A   1      42.278  25.792  26.034  1.00  0.00     0.016 A 
ATOM     45  C   UNL A   1      40.886  24.331  27.371  1.00  0.00     0.016 A 
ATOM     46  C   UNL A   1      41.861  26.897  26.785  1.00  0.00     0.010 A 
ATOM     47  C   UNL A   1      40.483  25.437  28.135  1.00  0.00     0.010 A 
ATOM     48  C   UNL A   1      40.995  26.726  27.874  1.00  0.00    -0.014 A 
BRANCH  48  49
ATOM     49  C   UNL A   1      40.853  27.810  28.897  1.00  0.00     0.031 A 
ATOM     50  C   UNL A   1      41.789  27.749  30.080  1.00  0.00     0.074 A 
ATOM     51  C   UNL A   1      40.004  28.853  28.776  1.00  0.00     0.049 A 
ATOM     52  N   UNL A   1      41.706  28.335  31.244  1.00  0.00    -0.248 NA
ATOM     53  C   UNL A   1      42.989  26.903  29.920  1.00  0.00     0.031 C 
ATOM     54  C   UNL A   1      39.129  29.100  27.632  1.00  0.00     0.029 A 
ATOM     55  N   UNL A   1      39.700  29.887  29.646  1.00  0.00    -0.354 N 
ATOM     56  C   UNL A   1      42.840  27.940  31.946  1.00  0.00     0.074 A 
ATOM     57  C   UNL A   1      43.575  27.028  31.101  1.00  0.00     0.031 C 
ATOM     58  C   UNL A   1      38.343  30.163  27.892  1.00  0.00     0.029 A 
ATOM     59  C   UNL A   1      38.611  30.644  29.248  1.00  0.00     0.049 A 
ATOM     60  H   UNL A   1      40.210  30.067  30.469  1.00  0.00     0.167 HD
ATOM     61  C   UNL A   1      43.237  28.326  33.181  1.00  0.00     0.037 A 
ATOM     62  C   UNL A   1      37.854  31.533  29.941  1.00  0.00     0.037 A 
ATOM     63  C   UNL A   1      42.487  29.234  34.004  1.00  0.00     0.049 A 
ATOM     64  C   UNL A   1      38.240  31.814  31.383  1.00  0.00     0.074 A 
ATOM     65  C   UNL A   1      42.789  29.712  35.266  1.00  0.00     0.029 A 
ATOM     66  N   UNL A   1      41.284  29.808  33.630  1.00  0.00    -0.354 N 
ATOM     67  N   UNL A   1      39.119  31.194  32.138  1.00  0.00    -0.248 NA
ATOM     68  C   UNL A   1      37.510  32.877  32.090  1.00  0.00     0.031 C 
ATOM     69  C   UNL A   1      41.738  30.533  35.681  1.00  0.00     0.029 A 
ATOM     70  C   UNL A   1      40.841  30.645  34.633  1.00  0.00     0.049 A 
ATOM     71  H   UNL A   1      40.817  29.644  32.779  1.00  0.00     0.167 HD
ATOM     72  C   UNL A   1      39.008  31.763  33.401  1.00  0.00     0.074 A 
ATOM     73  C   UNL A   1      37.998  32.789  33.316  1.00  0.00     0.031 C 
ATOM     74  C   UNL A   1      39.695  31.500  34.538  1.00  0.00     0.037 A 
BRANCH  61  75
ATOM     75  C   UNL A   1      44.530  27.795  33.727  1.00  0.00     0.064 A 
ATOM     76  C   UNL A   1      45.751  28.441  33.483  1.00  0.00     0.173 A 
ATOM     77  C   UNL A   1      44.531  26.707  34.613  1.00  0.00     0.173 A 
ATOM     78  F   UNL A   1      45.808  29.483  32.639  1.00  0.00    -0.203 F 
ATOM     79  C   UNL A   1      46.923  28.019  34.106  1.00  0.00     0.198 A 
ATOM     80  C   UNL A   1      45.698  26.307  35.260  1.00  0.00     0.198 A 
ATOM     81  F   UNL A   1      43.388  26.059  34.889  1.00  0.00    -0.203 F 
ATOM     82  F   UNL A   1      48.081  28.642  33.846  1.00  0.00    -0.200 F 
ATOM     83  C   UNL A   1      46.892  26.963  35.005  1.00  0.00     0.200 A 
ATOM     84  F   UNL A   1      45.660  25.300  36.144  1.00  0.00    -0.200 F 
ATOM     85  F   UNL A   1      48.013  26.581  35.632  1.00  0.00    -0.200 F 
ENDBRANCH  61  75
BRANCH  62  86
ATOM     86  C   UNL A   1      36.506  32.002  29.448  1.00  0.00     0.064 A 
ATOM     87  C   UNL A   1      35.427  31.167  29.139  1.00  0.00     0.173 A 
ATOM     88  C   UNL A   1      36.355  33.342  29.073  1.00  0.00     0.173 A 
ATOM     89  F   UNL A   1      35.468  29.868  29.475  1.00  0.00    -0.203 F 
ATOM     90  C   UNL A   1      34.331  31.629  28.396  1.00  0.00     0.198 A 
ATOM     91  C   UNL A   1      35.248  33.826  28.378  1.00  0.00     0.198 A 
ATOM     92  F   UNL A   1      37.329  34.193  29.372  1.00  0.00    -0.203 F 
ATOM     93  F   UNL A   1      33.377  30.769  28.012  1.00  0.00    -0.200 F 
ATOM     94  C   UNL A   1      34.247  32.956  28.007  1.00  0.00     0.200 A 
ATOM     95  F   UNL A   1      35.168  35.123  28.052  1.00  0.00    -0.200 F 
ATOM     96  F   UNL A   1      33.213  33.393  27.276  1.00  0.00    -0.200 F 
ENDBRANCH  62  86
BRANCH  74  97
ATOM     97  C   UNL A   1      39.312  32.284  35.753  1.00  0.00     0.064 A 
ATOM     98  C   UNL A   1      38.427  31.773  36.712  1.00  0.00     0.173 A 
ATOM     99  C   UNL A   1      39.855  33.559  35.959  1.00  0.00     0.173 A 
ATOM    100  F   UNL A   1      37.866  30.566  36.539  1.00  0.00    -0.203 F 
ATOM    101  C   UNL A   1      38.097  32.521  37.839  1.00  0.00     0.198 A 
ATOM    102  C   UNL A   1      39.533  34.297  37.090  1.00  0.00     0.198 A 
ATOM    103  F   UNL A   1      40.697  34.084  35.056  1.00  0.00    -0.203 F 
ATOM    104  F   UNL A   1      37.232  32.032  38.737  1.00  0.00    -0.200 F 
ATOM    105  C   UNL A   1      38.653  33.779  38.028  1.00  0.00     0.200 A 
ATOM    106  F   UNL A   1      40.070  35.512  37.268  1.00  0.00    -0.200 F 
ATOM    107  F   UNL A   1      38.332  34.499  39.111  1.00  0.00    -0.200 F 
ENDBRANCH  74  97
ENDBRANCH  48  49
ENDBRANCH  41  43
ENDBRANCH  40  41
ENDBRANCH  39  40
ENDBRANCH  38  39
ENDBRANCH  37  38
ENDBRANCH  36  37
ENDBRANCH  35  36
ENDBRANCH  34  35
ENDBRANCH  33  34
ENDBRANCH   1  33
TORSDOF 25
ENDMDL
MODEL 3
REMARK VINA RESULT:      -9.2      9.118     17.389
REMARK SMILES O=C(CCC(=O)OCCOCCOCCOCCOC(=O)c1ccc(-c2c3nc(c(-c4c(F)c(F)c(F)c(F)c4F)c4ccc([nH]4)c(-c4c(F)c(F)c(F)c(F)c4F)c4nc(c(-c5c(F)c(F)c(F)c(F)c5F)c5ccc2[nH]5)C=C4)C=C3)cc1)Nc1ccc(N2CCN(c3ccc(F)cc3)CC2)cc1
REMARK SMILES IDX 11 1 10 2 9 3 8 4 7 5 5 6 6 7 4 8 3 9 2 10 1 11 85 12 86 14
REMARK SMILES IDX 87 15 104 16 88 17 103 18 89 19 90 20 91 21 102 22 92 23
REMARK SMILES IDX 101 24 93 25 94 26 95 27 100 28 96 29 99 30 97 31 98 32
REMARK SMILES IDX 12 33 13 34 14 35 15 36 16 37 17 38 18 39 19 40 20 41 21 42
REMARK SMILES IDX 22 43 23 44 84 45 24 46 83 47 25 48 26 49 27 50 77 51 28 52
REMARK SMILES IDX 82 53 76 54 78 55 29 56 81 57 75 58 74 59 30 61 62 62 42 63
REMARK SMILES IDX 61 64 43 65 46 66 60 67 79 68 44 69 45 70 59 72 80 73 47 74
REMARK SMILES IDX 31 75 32 76 40 77 33 78 34 79 38 80 41 81 35 82 36 83 39 84
REMARK SMILES IDX 37 85 63 86 64 87 72 88 65 89 66 90 70 91 73 92 67 93 68 94
REMARK SMILES IDX 71 95 69 96 48 97 49 98 57 99 50 100 51 101 55 102 58 103
REMARK SMILES IDX 52 104 53 105 56 106 54 107
REMARK H PARENT 85 13 78 60 46 71
REMARK Flexibility Score: inf
ROOT
ATOM      1  C   UNL A   1      43.307  37.423  33.699  1.00  0.00     0.188 C 
ENDROOT
BRANCH   1   2
ATOM      2  O   UNL A   1      43.020  38.790  33.886  1.00  0.00    -0.376 OA
BRANCH   2   3
ATOM      3  C   UNL A   1      43.127  39.675  32.791  1.00  0.00     0.202 C 
BRANCH   3   4
ATOM      4  C   UNL A   1      44.200  40.782  32.722  1.00  0.00     0.261 C 
BRANCH   4   5
ATOM      5  O   UNL A   1      44.515  41.491  33.938  1.00  0.00    -0.463 OA
BRANCH   5   6
ATOM      6  C   UNL A   1      43.843  42.642  34.159  1.00  0.00     0.306 C 
ATOM      7  O   UNL A   1      43.605  43.081  35.280  1.00  0.00    -0.252 OA
BRANCH   6   8
ATOM      8  C   UNL A   1      43.409  43.398  32.919  1.00  0.00     0.132 C 
BRANCH   8   9
ATOM      9  C   UNL A   1      44.322  44.178  31.985  1.00  0.00     0.112 C 
BRANCH   9  10
ATOM     10  C   UNL A   1      44.477  43.785  30.536  1.00  0.00     0.224 C 
ATOM     11  O   UNL A   1      43.620  43.076  30.009  1.00  0.00    -0.275 OA
ATOM     12  N   UNL A   1      45.564  44.315  29.883  1.00  0.00    -0.326 N 
ATOM     13  H   UNL A   1      46.233  44.810  30.409  1.00  0.00     0.169 HD
BRANCH  12  14
ATOM     14  C   UNL A   1      45.763  44.184  28.505  1.00  0.00     0.041 A 
ATOM     15  C   UNL A   1      45.898  42.907  27.966  1.00  0.00     0.028 A 
ATOM     16  C   UNL A   1      45.732  45.301  27.673  1.00  0.00     0.028 A 
ATOM     17  C   UNL A   1      45.738  42.749  26.591  1.00  0.00     0.028 A 
ATOM     18  C   UNL A   1      45.661  45.139  26.299  1.00  0.00     0.028 A 
ATOM     19  C   UNL A   1      45.541  43.862  25.759  1.00  0.00     0.037 A 
BRANCH  19  20
ATOM     20  N   UNL A   1      45.024  43.747  24.488  1.00  0.00    -0.368 N 
ATOM     21  C   UNL A   1      45.911  44.106  23.375  1.00  0.00     0.138 C 
ATOM     22  C   UNL A   1      43.598  43.501  24.267  1.00  0.00     0.138 C 
ATOM     23  C   UNL A   1      45.551  43.391  22.055  1.00  0.00     0.138 C 
ATOM     24  C   UNL A   1      43.328  42.768  22.940  1.00  0.00     0.138 C 
ATOM     25  N   UNL A   1      44.098  43.352  21.828  1.00  0.00    -0.368 N 
BRANCH  25  26
ATOM     26  C   UNL A   1      43.523  43.697  20.628  1.00  0.00     0.037 A 
ATOM     27  C   UNL A   1      44.065  44.704  19.812  1.00  0.00     0.029 A 
ATOM     28  C   UNL A   1      42.345  43.079  20.178  1.00  0.00     0.029 A 
ATOM     29  C   UNL A   1      43.456  45.088  18.613  1.00  0.00     0.041 A 
ATOM     30  C   UNL A   1      41.726  43.463  18.986  1.00  0.00     0.041 A 
ATOM     31  C   UNL A   1      42.283  44.470  18.218  1.00  0.00     0.123 A 
ATOM     32  F   UNL A   1      41.677  44.846  17.084  1.00  0.00    -0.207 F 
ENDBRANCH  25  26
ENDBRANCH  19  20
ENDBRANCH  12  14
ENDBRANCH   9  10
ENDBRANCH   8   9
ENDBRANCH   6   8
ENDBRANCH   5   6
ENDBRANCH   4   5
ENDBRANCH   3   4
ENDBRANCH   2   3
ENDBRANCH   1   2
BRANCH   1  33
ATOM     33  C   UNL A   1      42.285  36.509  34.386  1.00  0.00     0.188 C 
BRANCH  33  34
ATOM     34  O   UNL A   1      41.943  35.278  33.763  1.00  0.00    -0.377 OA
BRANCH  34  35
ATOM     35  C   UNL A   1      40.578  34.985  33.451  1.00  0.00     0.188 C 
BRANCH  35  36
ATOM     36  C   UNL A   1      39.821  33.843  34.165  1.00  0.00     0.188 C 
BRANCH  36  37
ATOM     37  O   UNL A   1      38.486  33.666  33.739  1.00  0.00    -0.376 OA
BRANCH  37  38
ATOM     38  C   UNL A   1      37.958  34.608  32.819  1.00  0.00     0.202 C 
BRANCH  38  39
ATOM     39  C   UNL A   1      36.431  34.781  32.738  1.00  0.00     0.261 C 
BRANCH  39  40
ATOM     40  O   UNL A   1      35.629  33.600  32.929  1.00  0.00    -0.460 OA
BRANCH  40  41
ATOM     41  C   UNL A   1      35.128  32.988  31.839  1.00  0.00     0.338 C 
ATOM     42  O   UNL A   1      34.064  33.227  31.283  1.00  0.00    -0.246 OA
BRANCH  41  43
ATOM     43  C   UNL A   1      36.159  32.070  31.304  1.00  0.00     0.060 A 
ATOM     44  C   UNL A   1      36.700  31.080  32.137  1.00  0.00     0.016 A 
ATOM     45  C   UNL A   1      36.628  32.209  29.997  1.00  0.00     0.016 A 
ATOM     46  C   UNL A   1      37.737  30.258  31.682  1.00  0.00     0.010 A 
ATOM     47  C   UNL A   1      37.680  31.397  29.549  1.00  0.00     0.010 A 
ATOM     48  C   UNL A   1      38.272  30.438  30.399  1.00  0.00    -0.014 A 
BRANCH  48  49
ATOM     49  C   UNL A   1      39.602  29.846  30.050  1.00  0.00     0.031 A 
ATOM     50  C   UNL A   1      40.768  30.803  29.974  1.00  0.00     0.074 A 
ATOM     51  C   UNL A   1      39.817  28.523  29.882  1.00  0.00     0.049 A 
ATOM     52  N   UNL A   1      41.935  30.655  29.408  1.00  0.00    -0.248 NA
ATOM     53  C   UNL A   1      40.583  32.112  30.631  1.00  0.00     0.031 C 
ATOM     54  C   UNL A   1      38.809  27.478  30.044  1.00  0.00     0.029 A 
ATOM     55  N   UNL A   1      40.949  27.826  29.494  1.00  0.00    -0.354 N 
ATOM     56  C   UNL A   1      42.623  31.840  29.650  1.00  0.00     0.074 A 
ATOM     57  C   UNL A   1      41.731  32.717  30.371  1.00  0.00     0.031 C 
ATOM     58  C   UNL A   1      39.338  26.290  29.694  1.00  0.00     0.029 A 
ATOM     59  C   UNL A   1      40.710  26.488  29.225  1.00  0.00     0.049 A 
ATOM     60  H   UNL A   1      41.838  28.241  29.417  1.00  0.00     0.167 HD
ATOM     61  C   UNL A   1      43.896  32.153  29.313  1.00  0.00     0.037 A 
ATOM     62  C   UNL A   1      41.468  25.572  28.572  1.00  0.00     0.037 A 
ATOM     63  C   UNL A   1      44.764  31.263  28.592  1.00  0.00     0.049 A 
ATOM     64  C   UNL A   1      42.830  26.015  28.065  1.00  0.00     0.074 A 
ATOM     65  C   UNL A   1      46.076  31.458  28.203  1.00  0.00     0.029 A 
ATOM     66  N   UNL A   1      44.397  29.999  28.163  1.00  0.00    -0.354 N 
ATOM     67  N   UNL A   1      43.337  27.226  28.014  1.00  0.00    -0.248 NA
ATOM     68  C   UNL A   1      43.708  24.990  27.483  1.00  0.00     0.031 C 
ATOM     69  C   UNL A   1      46.488  30.332  27.487  1.00  0.00     0.029 A 
ATOM     70  C   UNL A   1      45.465  29.400  27.526  1.00  0.00     0.049 A 
ATOM     71  H   UNL A   1      43.511  29.590  28.293  1.00  0.00     0.167 HD
ATOM     72  C   UNL A   1      44.559  27.103  27.362  1.00  0.00     0.074 A 
ATOM     73  C   UNL A   1      44.733  25.706  27.051  1.00  0.00     0.031 C 
ATOM     74  C   UNL A   1      45.486  28.044  27.066  1.00  0.00     0.037 A 
BRANCH  61  75
ATOM     75  C   UNL A   1      44.446  33.490  29.715  1.00  0.00     0.064 A 
ATOM     76  C   UNL A   1      44.234  34.636  28.936  1.00  0.00     0.173 A 
ATOM     77  C   UNL A   1      45.076  33.651  30.959  1.00  0.00     0.173 A 
ATOM     78  F   UNL A   1      43.642  34.537  27.736  1.00  0.00    -0.203 F 
ATOM     79  C   UNL A   1      44.631  35.893  29.387  1.00  0.00     0.198 A 
ATOM     80  C   UNL A   1      45.443  34.913  31.421  1.00  0.00     0.198 A 
ATOM     81  F   UNL A   1      45.296  32.588  31.749  1.00  0.00    -0.203 F 
ATOM     82  F   UNL A   1      44.432  36.973  28.617  1.00  0.00    -0.200 F 
ATOM     83  C   UNL A   1      45.220  36.031  30.634  1.00  0.00     0.200 A 
ATOM     84  F   UNL A   1      45.992  35.045  32.636  1.00  0.00    -0.200 F 
ATOM     85  F   UNL A   1      45.569  37.246  31.082  1.00  0.00    -0.200 F 
ENDBRANCH  61  75
BRANCH  62  86
ATOM     86  C   UNL A   1      40.902  24.262  28.076  1.00  0.00     0.064 A 
ATOM     87  C   UNL A   1      41.399  22.996  28.401  1.00  0.00     0.173 A 
ATOM     88  C   UNL A   1      39.937  24.287  27.062  1.00  0.00     0.173 A 
ATOM     89  F   UNL A   1      42.315  22.866  29.373  1.00  0.00    -0.203 F 
ATOM     90  C   UNL A   1      41.037  21.856  27.668  1.00  0.00     0.198 A 
ATOM     91  C   UNL A   1      39.530  23.154  26.360  1.00  0.00     0.198 A 
ATOM     92  F   UNL A   1      39.398  25.455  26.733  1.00  0.00    -0.203 F 
ATOM     93  F   UNL A   1      41.630  20.682  27.928  1.00  0.00    -0.200 F 
ATOM     94  C   UNL A   1      40.110  21.938  26.642  1.00  0.00     0.200 A 
ATOM     95  F   UNL A   1      38.600  23.250  25.401  1.00  0.00    -0.200 F 
ATOM     96  F   UNL A   1      39.782  20.854  25.925  1.00  0.00    -0.200 F 
ENDBRANCH  62  86
BRANCH  74  97
ATOM     97  C   UNL A   1      46.700  27.583  26.324  1.00  0.00     0.064 A 
ATOM     98  C   UNL A   1      47.836  27.106  26.992  1.00  0.00     0.173 A 
ATOM     99  C   UNL A   1      46.713  27.613  24.923  1.00  0.00     0.173 A 
ATOM    100  F   UNL A   1      47.873  27.086  28.333  1.00  0.00    -0.203 F 
ATOM    101  C   UNL A   1      48.949  26.675  26.274  1.00  0.00     0.198 A 
ATOM    102  C   UNL A   1      47.820  27.171  24.211  1.00  0.00     0.198 A 
ATOM    103  F   UNL A   1      45.648  28.075  24.251  1.00  0.00    -0.203 F 
ATOM    104  F   UNL A   1      50.038  26.242  26.924  1.00  0.00    -0.200 F 
ATOM    105  C   UNL A   1      48.937  26.705  24.886  1.00  0.00     0.200 A 
ATOM    106  F   UNL A   1      47.807  27.204  22.871  1.00  0.00    -0.200 F 
ATOM    107  F   UNL A   1      50.011  26.292  24.197  1.00  0.00    -0.200 F 
ENDBRANCH  74  97
ENDBRANCH  48  49
ENDBRANCH  41  43
ENDBRANCH  40  41
ENDBRANCH  39  40
ENDBRANCH  38  39
ENDBRANCH  37  38
ENDBRANCH  36  37
ENDBRANCH  35  36
ENDBRANCH  34  35
ENDBRANCH  33  34
ENDBRANCH   1  33
TORSDOF 25
ENDMDL
