MODEL 1
REMARK VINA RESULT:     -11.2      0.000      0.000
REMARK SMILES Cc1ccn2c([C@@H]3CCCC[C@@H]3C(=O)OCCOCCOCCOCCOC(=O)c3ccc(-c4c5nc(c(-c6c(F)c(F)c(F)c(F)c6F)c6ccc([nH]6)c(-c6c(F)c(F)c(F)c(F)c6F)c6nc(c(-c7c(F)c(F)c(F)c(F)c7F)c7ccc4[nH]7)C=C6)C=C5)cc3)nnc2c1
REMARK SMILES IDX 22 1 21 2 20 3 19 4 18 5 17 6 16 7 15 8 13 9 14 10 12 11
REMARK SMILES IDX 7 12 8 13 9 14 11 15 10 16 6 17 1 18 2 19 3 20 96 21 4 22
REMARK SMILES IDX 95 23 5 24 94 25 93 26 23 27 24 28 25 29 26 30 27 31 28 32
REMARK SMILES IDX 29 33 30 34 31 35 92 36 32 37 91 38 33 39 34 40 35 41 85 42
REMARK SMILES IDX 36 43 90 44 84 45 86 46 37 47 89 48 83 49 82 50 38 52 70 53
REMARK SMILES IDX 50 54 69 55 51 56 54 57 68 58 87 59 52 60 53 61 67 63 88 64
REMARK SMILES IDX 55 65 39 66 40 67 48 68 41 69 42 70 46 71 49 72 43 73 44 74
REMARK SMILES IDX 47 75 45 76 71 77 72 78 80 79 73 80 74 81 78 82 81 83 75 84
REMARK SMILES IDX 76 85 79 86 77 87 56 88 57 89 65 90 58 91 59 92 63 93 66 94
REMARK SMILES IDX 60 95 61 96 64 97 62 98
REMARK H PARENT 86 51 54 62
REMARK Flexibility Score: inf
ROOT
ATOM      1  C   UNL A   1      35.169  29.954  27.755  1.00  0.00     0.188 C 
ENDROOT
BRANCH   1   2
ATOM      2  O   UNL A   1      34.469  28.834  27.230  1.00  0.00    -0.377 OA
BRANCH   2   3
ATOM      3  C   UNL A   1      33.070  28.936  27.111  1.00  0.00     0.188 C 
BRANCH   3   4
ATOM      4  C   UNL A   1      32.439  27.959  26.113  1.00  0.00     0.188 C 
BRANCH   4   5
ATOM      5  O   UNL A   1      32.971  26.646  26.125  1.00  0.00    -0.376 OA
BRANCH   5   6
ATOM      6  C   UNL A   1      32.127  25.501  26.160  1.00  0.00     0.202 C 
BRANCH   6   7
ATOM      7  C   UNL A   1      32.689  24.068  26.128  1.00  0.00     0.261 C 
BRANCH   7   8
ATOM      8  O   UNL A   1      34.016  24.014  26.636  1.00  0.00    -0.463 OA
BRANCH   8   9
ATOM      9  C   UNL A   1      34.609  22.826  26.412  1.00  0.00     0.309 C 
ATOM     10  O   UNL A   1      34.786  21.990  27.282  1.00  0.00    -0.252 OA
BRANCH   9  11
ATOM     11  C   UNL A   1      34.983  22.659  24.958  1.00  0.00     0.110 C 
ATOM     12  C   UNL A   1      35.309  21.191  24.622  1.00  0.00     0.072 C 
ATOM     13  C   UNL A   1      36.543  20.691  25.369  1.00  0.00     0.012 C 
ATOM     14  C   UNL A   1      37.714  21.700  25.290  1.00  0.00     0.001 C 
ATOM     15  C   UNL A   1      36.153  23.588  24.661  1.00  0.00     0.016 C 
ATOM     16  C   UNL A   1      37.359  23.178  25.491  1.00  0.00     0.001 C 
BRANCH  12  17
ATOM     17  C   UNL A   1      34.081  20.286  24.546  1.00  0.00     0.141 A 
ATOM     18  C   UNL A   1      32.901  14.878  25.508  1.00  0.00     0.044 C 
ATOM     19  C   UNL A   1      33.185  16.292  25.082  1.00  0.00    -0.046 A 
ATOM     20  C   UNL A   1      34.505  16.576  24.523  1.00  0.00     0.022 A 
ATOM     21  C   UNL A   1      32.287  17.291  25.220  1.00  0.00     0.053 A 
ATOM     22  C   UNL A   1      34.860  17.849  24.252  1.00  0.00     0.095 A 
ATOM     23  C   UNL A   1      32.655  18.632  24.906  1.00  0.00     0.161 A 
ATOM     24  N   UNL A   1      33.969  18.891  24.505  1.00  0.00    -0.286 N 
ATOM     25  N   UNL A   1      31.990  19.758  24.995  1.00  0.00    -0.130 NA
ATOM     26  N   UNL A   1      32.867  20.780  24.758  1.00  0.00    -0.134 NA
ENDBRANCH  12  17
ENDBRANCH   9  11
ENDBRANCH   8   9
ENDBRANCH   7   8
ENDBRANCH   6   7
ENDBRANCH   5   6
ENDBRANCH   4   5
ENDBRANCH   3   4
ENDBRANCH   2   3
ENDBRANCH   1   2
BRANCH   1  27
ATOM     27  C   UNL A   1      34.500  31.322  28.020  1.00  0.00     0.188 C 
BRANCH  27  28
ATOM     28  O   UNL A   1      35.314  32.421  27.688  1.00  0.00    -0.376 OA
BRANCH  28  29
ATOM     29  C   UNL A   1      34.795  33.703  28.001  1.00  0.00     0.202 C 
BRANCH  29  30
ATOM     30  C   UNL A   1      34.351  34.021  29.449  1.00  0.00     0.261 C 
BRANCH  30  31
ATOM     31  O   UNL A   1      35.308  33.747  30.501  1.00  0.00    -0.460 OA
BRANCH  31  32
ATOM     32  C   UNL A   1      35.096  32.790  31.442  1.00  0.00     0.338 C 
ATOM     33  O   UNL A   1      34.034  32.451  31.890  1.00  0.00    -0.246 OA
BRANCH  32  34
ATOM     34  C   UNL A   1      36.372  31.983  31.524  1.00  0.00     0.060 A 
ATOM     35  C   UNL A   1      37.649  32.558  31.512  1.00  0.00     0.016 A 
ATOM     36  C   UNL A   1      36.245  30.606  31.273  1.00  0.00     0.016 A 
ATOM     37  C   UNL A   1      38.752  31.783  31.117  1.00  0.00     0.010 A 
ATOM     38  C   UNL A   1      37.345  29.841  30.859  1.00  0.00     0.010 A 
ATOM     39  C   UNL A   1      38.603  30.429  30.736  1.00  0.00    -0.014 A 
BRANCH  39  40
ATOM     40  C   UNL A   1      39.830  29.625  30.505  1.00  0.00     0.031 A 
ATOM     41  C   UNL A   1      40.605  29.451  31.769  1.00  0.00     0.074 A 
ATOM     42  C   UNL A   1      40.216  28.919  29.413  1.00  0.00     0.049 A 
ATOM     43  N   UNL A   1      41.828  29.776  32.028  1.00  0.00    -0.248 NA
ATOM     44  C   UNL A   1      39.846  28.956  32.930  1.00  0.00     0.031 C 
ATOM     45  C   UNL A   1      39.440  28.647  28.207  1.00  0.00     0.029 A 
ATOM     46  N   UNL A   1      41.383  28.220  29.178  1.00  0.00    -0.354 N 
ATOM     47  C   UNL A   1      42.039  29.392  33.352  1.00  0.00     0.074 A 
ATOM     48  C   UNL A   1      40.757  29.040  33.896  1.00  0.00     0.031 C 
ATOM     49  C   UNL A   1      40.092  27.755  27.428  1.00  0.00     0.029 A 
ATOM     50  C   UNL A   1      41.346  27.385  28.059  1.00  0.00     0.049 A 
ATOM     51  H   UNL A   1      42.178  28.304  29.752  1.00  0.00     0.167 HD
ATOM     52  C   UNL A   1      43.285  29.184  33.854  1.00  0.00     0.037 A 
ATOM     53  C   UNL A   1      42.213  26.395  27.705  1.00  0.00     0.037 A 
ATOM     54  C   UNL A   1      44.290  29.860  33.085  1.00  0.00     0.049 A 
ATOM     55  C   UNL A   1      43.477  26.597  28.451  1.00  0.00     0.074 A 
ATOM     56  C   UNL A   1      44.549  31.181  32.779  1.00  0.00     0.029 A 
ATOM     57  N   UNL A   1      45.054  29.123  32.219  1.00  0.00    -0.354 N 
ATOM     58  N   UNL A   1      44.317  27.566  28.229  1.00  0.00    -0.248 NA
ATOM     59  C   UNL A   1      43.598  25.941  29.743  1.00  0.00     0.031 C 
ATOM     60  C   UNL A   1      45.061  31.161  31.450  1.00  0.00     0.029 A 
ATOM     61  C   UNL A   1      45.130  29.828  31.046  1.00  0.00     0.049 A 
ATOM     62  H   UNL A   1      45.470  28.250  32.404  1.00  0.00     0.167 HD
ATOM     63  C   UNL A   1      44.752  27.936  29.490  1.00  0.00     0.074 A 
ATOM     64  C   UNL A   1      44.339  26.852  30.375  1.00  0.00     0.031 C 
ATOM     65  C   UNL A   1      45.159  29.212  29.743  1.00  0.00     0.037 A 
BRANCH  52  66
ATOM     66  C   UNL A   1      43.601  28.092  34.843  1.00  0.00     0.064 A 
ATOM     67  C   UNL A   1      44.199  28.423  36.073  1.00  0.00     0.173 A 
ATOM     68  C   UNL A   1      43.608  26.718  34.512  1.00  0.00     0.173 A 
ATOM     69  F   UNL A   1      44.281  29.703  36.470  1.00  0.00    -0.203 F 
ATOM     70  C   UNL A   1      44.808  27.458  36.879  1.00  0.00     0.198 A 
ATOM     71  C   UNL A   1      44.164  25.751  35.346  1.00  0.00     0.198 A 
ATOM     72  F   UNL A   1      43.185  26.267  33.325  1.00  0.00    -0.203 F 
ATOM     73  F   UNL A   1      45.473  27.835  37.980  1.00  0.00    -0.200 F 
ATOM     74  C   UNL A   1      44.791  26.124  36.515  1.00  0.00     0.200 A 
ATOM     75  F   UNL A   1      44.157  24.467  34.961  1.00  0.00    -0.200 F 
ATOM     76  F   UNL A   1      45.423  25.206  37.257  1.00  0.00    -0.200 F 
ENDBRANCH  52  66
BRANCH  53  77
ATOM     77  C   UNL A   1      41.928  25.110  26.999  1.00  0.00     0.064 A 
ATOM     78  C   UNL A   1      42.727  24.645  25.935  1.00  0.00     0.173 A 
ATOM     79  C   UNL A   1      41.017  24.175  27.530  1.00  0.00     0.173 A 
ATOM     80  F   UNL A   1      43.665  25.439  25.396  1.00  0.00    -0.203 F 
ATOM     81  C   UNL A   1      42.624  23.333  25.449  1.00  0.00     0.198 A 
ATOM     82  C   UNL A   1      40.905  22.874  27.037  1.00  0.00     0.198 A 
ATOM     83  F   UNL A   1      40.278  24.470  28.608  1.00  0.00    -0.203 F 
ATOM     84  F   UNL A   1      43.443  22.911  24.474  1.00  0.00    -0.200 F 
ATOM     85  C   UNL A   1      41.716  22.447  26.004  1.00  0.00     0.200 A 
ATOM     86  F   UNL A   1      40.047  22.021  27.612  1.00  0.00    -0.200 F 
ATOM     87  F   UNL A   1      41.652  21.178  25.579  1.00  0.00    -0.200 F 
ENDBRANCH  53  77
BRANCH  65  88
ATOM     88  C   UNL A   1      45.412  30.123  28.578  1.00  0.00     0.064 A 
ATOM     89  C   UNL A   1      44.410  30.853  27.916  1.00  0.00     0.173 A 
ATOM     90  C   UNL A   1      46.745  30.397  28.236  1.00  0.00     0.173 A 
ATOM     91  F   UNL A   1      43.118  30.716  28.247  1.00  0.00    -0.203 F 
ATOM     92  C   UNL A   1      44.735  31.792  26.940  1.00  0.00     0.198 A 
ATOM     93  C   UNL A   1      47.066  31.373  27.297  1.00  0.00     0.198 A 
ATOM     94  F   UNL A   1      47.744  29.756  28.862  1.00  0.00    -0.203 F 
ATOM     95  F   UNL A   1      43.764  32.451  26.298  1.00  0.00    -0.200 F 
ATOM     96  C   UNL A   1      46.060  32.068  26.646  1.00  0.00     0.200 A 
ATOM     97  F   UNL A   1      48.350  31.661  27.048  1.00  0.00    -0.200 F 
ATOM     98  F   UNL A   1      46.370  33.022  25.756  1.00  0.00    -0.200 F 
ENDBRANCH  65  88
ENDBRANCH  39  40
ENDBRANCH  32  34
ENDBRANCH  31  32
ENDBRANCH  30  31
ENDBRANCH  29  30
ENDBRANCH  28  29
ENDBRANCH  27  28
ENDBRANCH   1  27
TORSDOF 21
ENDMDL
MODEL 2
REMARK VINA RESULT:     -10.9      2.157      3.791
REMARK SMILES Cc1ccn2c([C@@H]3CCCC[C@@H]3C(=O)OCCOCCOCCOCCOC(=O)c3ccc(-c4c5nc(c(-c6c(F)c(F)c(F)c(F)c6F)c6ccc([nH]6)c(-c6c(F)c(F)c(F)c(F)c6F)c6nc(c(-c7c(F)c(F)c(F)c(F)c7F)c7ccc4[nH]7)C=C6)C=C5)cc3)nnc2c1
REMARK SMILES IDX 22 1 21 2 20 3 19 4 18 5 17 6 16 7 15 8 13 9 14 10 12 11
REMARK SMILES IDX 7 12 8 13 9 14 11 15 10 16 6 17 1 18 2 19 3 20 96 21 4 22
REMARK SMILES IDX 95 23 5 24 94 25 93 26 23 27 24 28 25 29 26 30 27 31 28 32
REMARK SMILES IDX 29 33 30 34 31 35 92 36 32 37 91 38 33 39 34 40 35 41 85 42
REMARK SMILES IDX 36 43 90 44 84 45 86 46 37 47 89 48 83 49 82 50 38 52 70 53
REMARK SMILES IDX 50 54 69 55 51 56 54 57 68 58 87 59 52 60 53 61 67 63 88 64
REMARK SMILES IDX 55 65 39 66 40 67 48 68 41 69 42 70 46 71 49 72 43 73 44 74
REMARK SMILES IDX 47 75 45 76 71 77 72 78 80 79 73 80 74 81 78 82 81 83 75 84
REMARK SMILES IDX 76 85 79 86 77 87 56 88 57 89 65 90 58 91 59 92 63 93 66 94
REMARK SMILES IDX 60 95 61 96 64 97 62 98
REMARK H PARENT 86 51 54 62
REMARK Flexibility Score: inf
ROOT
ATOM      1  C   UNL A   1      31.827  28.757  23.968  1.00  0.00     0.188 C 
ENDROOT
BRANCH   1   2
ATOM      2  O   UNL A   1      33.141  29.220  23.689  1.00  0.00    -0.377 OA
BRANCH   2   3
ATOM      3  C   UNL A   1      34.015  28.342  23.020  1.00  0.00     0.188 C 
BRANCH   3   4
ATOM      4  C   UNL A   1      33.414  27.655  21.788  1.00  0.00     0.188 C 
BRANCH   4   5
ATOM      5  O   UNL A   1      33.759  26.291  21.621  1.00  0.00    -0.376 OA
BRANCH   5   6
ATOM      6  C   UNL A   1      32.927  25.247  22.114  1.00  0.00     0.202 C 
BRANCH   6   7
ATOM      7  C   UNL A   1      33.005  24.757  23.571  1.00  0.00     0.261 C 
BRANCH   7   8
ATOM      8  O   UNL A   1      32.869  23.345  23.658  1.00  0.00    -0.463 OA
BRANCH   8   9
ATOM      9  C   UNL A   1      34.039  22.725  23.904  1.00  0.00     0.309 C 
ATOM     10  O   UNL A   1      34.945  22.654  23.092  1.00  0.00    -0.252 OA
BRANCH   9  11
ATOM     11  C   UNL A   1      34.088  22.174  25.311  1.00  0.00     0.110 C 
ATOM     12  C   UNL A   1      35.004  20.939  25.403  1.00  0.00     0.072 C 
ATOM     13  C   UNL A   1      34.475  19.768  24.578  1.00  0.00     0.012 C 
ATOM     14  C   UNL A   1      32.963  19.533  24.813  1.00  0.00     0.001 C 
ATOM     15  C   UNL A   1      32.662  21.864  25.747  1.00  0.00     0.016 C 
ATOM     16  C   UNL A   1      32.075  20.782  24.855  1.00  0.00     0.001 C 
BRANCH  12  17
ATOM     17  C   UNL A   1      36.495  21.266  25.339  1.00  0.00     0.141 A 
ATOM     18  C   UNL A   1      40.024  24.849  27.841  1.00  0.00     0.044 C 
ATOM     19  C   UNL A   1      39.109  23.980  27.024  1.00  0.00    -0.046 A 
ATOM     20  C   UNL A   1      37.758  24.475  26.770  1.00  0.00     0.022 A 
ATOM     21  C   UNL A   1      39.479  22.772  26.550  1.00  0.00     0.053 A 
ATOM     22  C   UNL A   1      36.854  23.680  26.162  1.00  0.00     0.095 A 
ATOM     23  C   UNL A   1      38.530  21.943  25.881  1.00  0.00     0.161 A 
ATOM     24  N   UNL A   1      37.209  22.388  25.776  1.00  0.00    -0.286 N 
ATOM     25  N   UNL A   1      38.633  20.738  25.379  1.00  0.00    -0.130 NA
ATOM     26  N   UNL A   1      37.377  20.324  25.029  1.00  0.00    -0.134 NA
ENDBRANCH  12  17
ENDBRANCH   9  11
ENDBRANCH   8   9
ENDBRANCH   7   8
ENDBRANCH   6   7
ENDBRANCH   5   6
ENDBRANCH   4   5
ENDBRANCH   3   4
ENDBRANCH   2   3
ENDBRANCH   1   2
BRANCH   1  27
ATOM     27  C   UNL A   1      31.451  28.005  25.265  1.00  0.00     0.188 C 
BRANCH  27  28
ATOM     28  O   UNL A   1      31.476  28.817  26.414  1.00  0.00    -0.376 OA
BRANCH  28  29
ATOM     29  C   UNL A   1      32.737  28.979  27.041  1.00  0.00     0.202 C 
BRANCH  29  30
ATOM     30  C   UNL A   1      33.478  30.334  26.942  1.00  0.00     0.261 C 
BRANCH  30  31
ATOM     31  O   UNL A   1      34.389  30.661  28.019  1.00  0.00    -0.460 OA
BRANCH  31  32
ATOM     32  C   UNL A   1      35.420  31.532  27.857  1.00  0.00     0.338 C 
ATOM     33  O   UNL A   1      35.332  32.712  27.646  1.00  0.00    -0.246 OA
BRANCH  32  34
ATOM     34  C   UNL A   1      36.655  30.830  28.373  1.00  0.00     0.060 A 
ATOM     35  C   UNL A   1      37.751  31.505  28.925  1.00  0.00     0.016 A 
ATOM     36  C   UNL A   1      36.813  29.491  27.974  1.00  0.00     0.016 A 
ATOM     37  C   UNL A   1      39.010  30.883  28.940  1.00  0.00     0.010 A 
ATOM     38  C   UNL A   1      38.076  28.880  27.971  1.00  0.00     0.010 A 
ATOM     39  C   UNL A   1      39.196  29.582  28.415  1.00  0.00    -0.014 A 
BRANCH  39  40
ATOM     40  C   UNL A   1      40.508  28.920  28.626  1.00  0.00     0.031 A 
ATOM     41  C   UNL A   1      40.822  28.800  30.080  1.00  0.00     0.074 A 
ATOM     42  C   UNL A   1      41.316  28.286  27.741  1.00  0.00     0.049 A 
ATOM     43  N   UNL A   1      41.841  29.247  30.736  1.00  0.00    -0.248 NA
ATOM     44  C   UNL A   1      39.772  28.199  30.921  1.00  0.00     0.031 C 
ATOM     45  C   UNL A   1      41.031  27.960  26.346  1.00  0.00     0.029 A 
ATOM     46  N   UNL A   1      42.563  27.721  27.926  1.00  0.00    -0.354 N 
ATOM     47  C   UNL A   1      41.630  28.857  32.058  1.00  0.00     0.074 A 
ATOM     48  C   UNL A   1      40.286  28.356  32.138  1.00  0.00     0.031 C 
ATOM     49  C   UNL A   1      42.001  27.162  25.848  1.00  0.00     0.029 A 
ATOM     50  C   UNL A   1      42.999  26.914  26.873  1.00  0.00     0.049 A 
ATOM     51  H   UNL A   1      43.101  27.876  28.736  1.00  0.00     0.167 HD
ATOM     52  C   UNL A   1      42.645  28.772  32.957  1.00  0.00     0.037 A 
ATOM     53  C   UNL A   1      44.036  26.031  26.850  1.00  0.00     0.037 A 
ATOM     54  C   UNL A   1      43.772  29.569  32.566  1.00  0.00     0.049 A 
ATOM     55  C   UNL A   1      44.942  26.349  27.979  1.00  0.00     0.074 A 
ATOM     56  C   UNL A   1      43.975  30.917  32.347  1.00  0.00     0.029 A 
ATOM     57  N   UNL A   1      44.861  28.939  32.022  1.00  0.00    -0.354 N 
ATOM     58  N   UNL A   1      45.697  27.408  28.042  1.00  0.00    -0.248 NA
ATOM     59  C   UNL A   1      44.687  25.680  29.244  1.00  0.00     0.031 C 
ATOM     60  C   UNL A   1      44.907  30.984  31.273  1.00  0.00     0.029 A 
ATOM     61  C   UNL A   1      45.253  29.676  30.936  1.00  0.00     0.049 A 
ATOM     62  H   UNL A   1      45.282  28.111  32.350  1.00  0.00     0.167 HD
ATOM     63  C   UNL A   1      45.635  27.792  29.371  1.00  0.00     0.074 A 
ATOM     64  C   UNL A   1      45.066  26.649  30.077  1.00  0.00     0.031 C 
ATOM     65  C   UNL A   1      45.790  29.098  29.729  1.00  0.00     0.037 A 
BRANCH  52  66
ATOM     66  C   UNL A   1      42.724  27.697  34.009  1.00  0.00     0.064 A 
ATOM     67  C   UNL A   1      43.225  26.427  33.667  1.00  0.00     0.173 A 
ATOM     68  C   UNL A   1      42.063  27.775  35.257  1.00  0.00     0.173 A 
ATOM     69  F   UNL A   1      43.840  26.231  32.489  1.00  0.00    -0.203 F 
ATOM     70  C   UNL A   1      43.027  25.312  34.483  1.00  0.00     0.198 A 
ATOM     71  C   UNL A   1      41.917  26.672  36.095  1.00  0.00     0.198 A 
ATOM     72  F   UNL A   1      41.432  28.883  35.662  1.00  0.00    -0.203 F 
ATOM     73  F   UNL A   1      43.411  24.100  34.060  1.00  0.00    -0.200 F 
ATOM     74  C   UNL A   1      42.372  25.435  35.696  1.00  0.00     0.200 A 
ATOM     75  F   UNL A   1      41.259  26.811  37.255  1.00  0.00    -0.200 F 
ATOM     76  F   UNL A   1      42.130  24.357  36.453  1.00  0.00    -0.200 F 
ENDBRANCH  52  66
BRANCH  53  77
ATOM     77  C   UNL A   1      44.151  24.740  26.107  1.00  0.00     0.064 A 
ATOM     78  C   UNL A   1      45.124  24.531  25.110  1.00  0.00     0.173 A 
ATOM     79  C   UNL A   1      43.472  23.586  26.548  1.00  0.00     0.173 A 
ATOM     80  F   UNL A   1      45.865  25.556  24.663  1.00  0.00    -0.203 F 
ATOM     81  C   UNL A   1      45.402  23.253  24.602  1.00  0.00     0.198 A 
ATOM     82  C   UNL A   1      43.739  22.317  26.032  1.00  0.00     0.198 A 
ATOM     83  F   UNL A   1      42.599  23.646  27.562  1.00  0.00    -0.203 F 
ATOM     84  F   UNL A   1      46.377  23.087  23.696  1.00  0.00    -0.200 F 
ATOM     85  C   UNL A   1      44.713  22.146  25.068  1.00  0.00     0.200 A 
ATOM     86  F   UNL A   1      43.087  21.254  26.522  1.00  0.00    -0.200 F 
ATOM     87  F   UNL A   1      45.013  20.918  24.624  1.00  0.00    -0.200 F 
ENDBRANCH  53  77
BRANCH  65  88
ATOM     88  C   UNL A   1      46.323  30.058  28.706  1.00  0.00     0.064 A 
ATOM     89  C   UNL A   1      45.529  30.710  27.748  1.00  0.00     0.173 A 
ATOM     90  C   UNL A   1      47.662  30.462  28.820  1.00  0.00     0.173 A 
ATOM     91  F   UNL A   1      44.219  30.447  27.636  1.00  0.00    -0.203 F 
ATOM     92  C   UNL A   1      46.066  31.700  26.928  1.00  0.00     0.198 A 
ATOM     93  C   UNL A   1      48.179  31.487  28.034  1.00  0.00     0.198 A 
ATOM     94  F   UNL A   1      48.457  29.899  29.744  1.00  0.00    -0.203 F 
ATOM     95  F   UNL A   1      45.301  32.284  25.998  1.00  0.00    -0.200 F 
ATOM     96  C   UNL A   1      47.381  32.104  27.084  1.00  0.00     0.200 A 
ATOM     97  F   UNL A   1      49.440  31.898  28.219  1.00  0.00    -0.200 F 
ATOM     98  F   UNL A   1      47.873  33.105  26.341  1.00  0.00    -0.200 F 
ENDBRANCH  65  88
ENDBRANCH  39  40
ENDBRANCH  32  34
ENDBRANCH  31  32
ENDBRANCH  30  31
ENDBRANCH  29  30
ENDBRANCH  28  29
ENDBRANCH  27  28
ENDBRANCH   1  27
TORSDOF 21
ENDMDL
MODEL 3
REMARK VINA RESULT:     -10.9      2.370      3.490
REMARK SMILES Cc1ccn2c([C@@H]3CCCC[C@@H]3C(=O)OCCOCCOCCOCCOC(=O)c3ccc(-c4c5nc(c(-c6c(F)c(F)c(F)c(F)c6F)c6ccc([nH]6)c(-c6c(F)c(F)c(F)c(F)c6F)c6nc(c(-c7c(F)c(F)c(F)c(F)c7F)c7ccc4[nH]7)C=C6)C=C5)cc3)nnc2c1
REMARK SMILES IDX 22 1 21 2 20 3 19 4 18 5 17 6 16 7 15 8 13 9 14 10 12 11
REMARK SMILES IDX 7 12 8 13 9 14 11 15 10 16 6 17 1 18 2 19 3 20 96 21 4 22
REMARK SMILES IDX 95 23 5 24 94 25 93 26 23 27 24 28 25 29 26 30 27 31 28 32
REMARK SMILES IDX 29 33 30 34 31 35 92 36 32 37 91 38 33 39 34 40 35 41 85 42
REMARK SMILES IDX 36 43 90 44 84 45 86 46 37 47 89 48 83 49 82 50 38 52 70 53
REMARK SMILES IDX 50 54 69 55 51 56 54 57 68 58 87 59 52 60 53 61 67 63 88 64
REMARK SMILES IDX 55 65 39 66 40 67 48 68 41 69 42 70 46 71 49 72 43 73 44 74
REMARK SMILES IDX 47 75 45 76 71 77 72 78 80 79 73 80 74 81 78 82 81 83 75 84
REMARK SMILES IDX 76 85 79 86 77 87 56 88 57 89 65 90 58 91 59 92 63 93 66 94
REMARK SMILES IDX 60 95 61 96 64 97 62 98
REMARK H PARENT 86 51 54 62
REMARK Flexibility Score: inf
ROOT
ATOM      1  C   UNL A   1      32.966  28.695  25.416  1.00  0.00     0.188 C 
ENDROOT
BRANCH   1   2
ATOM      2  O   UNL A   1      33.261  29.228  24.133  1.00  0.00    -0.377 OA
BRANCH   2   3
ATOM      3  C   UNL A   1      32.919  28.452  23.009  1.00  0.00     0.188 C 
BRANCH   3   4
ATOM      4  C   UNL A   1      32.030  27.241  23.313  1.00  0.00     0.188 C 
BRANCH   4   5
ATOM      5  O   UNL A   1      32.391  26.040  22.653  1.00  0.00    -0.376 OA
BRANCH   5   6
ATOM      6  C   UNL A   1      32.967  24.947  23.359  1.00  0.00     0.202 C 
BRANCH   6   7
ATOM      7  C   UNL A   1      34.392  24.445  23.069  1.00  0.00     0.261 C 
BRANCH   7   8
ATOM      8  O   UNL A   1      34.642  23.188  23.686  1.00  0.00    -0.463 OA
BRANCH   8   9
ATOM      9  C   UNL A   1      35.851  22.687  23.372  1.00  0.00     0.309 C 
ATOM     10  O   UNL A   1      36.464  22.994  22.364  1.00  0.00    -0.252 OA
BRANCH   9  11
ATOM     11  C   UNL A   1      36.352  21.741  24.439  1.00  0.00     0.110 C 
ATOM     12  C   UNL A   1      35.306  21.536  25.551  1.00  0.00     0.072 C 
ATOM     13  C   UNL A   1      35.023  22.826  26.318  1.00  0.00     0.012 C 
ATOM     14  C   UNL A   1      36.327  23.558  26.717  1.00  0.00     0.001 C 
ATOM     15  C   UNL A   1      37.664  22.293  24.982  1.00  0.00     0.016 C 
ATOM     16  C   UNL A   1      37.421  23.640  25.645  1.00  0.00     0.001 C 
BRANCH  12  17
ATOM     17  C   UNL A   1      34.127  20.656  25.138  1.00  0.00     0.141 A 
ATOM     18  C   UNL A   1      32.921  15.170  25.086  1.00  0.00     0.044 C 
ATOM     19  C   UNL A   1      33.240  16.630  24.925  1.00  0.00    -0.046 A 
ATOM     20  C   UNL A   1      34.629  16.989  24.644  1.00  0.00     0.022 A 
ATOM     21  C   UNL A   1      32.311  17.601  25.054  1.00  0.00     0.053 A 
ATOM     22  C   UNL A   1      34.997  18.287  24.625  1.00  0.00     0.095 A 
ATOM     23  C   UNL A   1      32.698  18.972  25.007  1.00  0.00     0.161 A 
ATOM     24  N   UNL A   1      34.054  19.283  24.875  1.00  0.00    -0.286 N 
ATOM     25  N   UNL A   1      32.002  20.074  25.146  1.00  0.00    -0.130 NA
ATOM     26  N   UNL A   1      32.885  21.118  25.212  1.00  0.00    -0.134 NA
ENDBRANCH  12  17
ENDBRANCH   9  11
ENDBRANCH   8   9
ENDBRANCH   7   8
ENDBRANCH   6   7
ENDBRANCH   5   6
ENDBRANCH   4   5
ENDBRANCH   3   4
ENDBRANCH   2   3
ENDBRANCH   1   2
BRANCH   1  27
ATOM     27  C   UNL A   1      34.054  28.219  26.406  1.00  0.00     0.188 C 
BRANCH  27  28
ATOM     28  O   UNL A   1      34.129  28.996  27.577  1.00  0.00    -0.376 OA
BRANCH  28  29
ATOM     29  C   UNL A   1      33.821  30.372  27.437  1.00  0.00     0.202 C 
BRANCH  29  30
ATOM     30  C   UNL A   1      34.945  31.429  27.565  1.00  0.00     0.261 C 
BRANCH  30  31
ATOM     31  O   UNL A   1      36.295  30.932  27.729  1.00  0.00    -0.460 OA
BRANCH  31  32
ATOM     32  C   UNL A   1      37.223  31.586  28.475  1.00  0.00     0.338 C 
ATOM     33  O   UNL A   1      37.100  32.670  28.979  1.00  0.00    -0.246 OA
BRANCH  32  34
ATOM     34  C   UNL A   1      38.255  30.554  28.872  1.00  0.00     0.060 A 
ATOM     35  C   UNL A   1      39.545  30.882  29.305  1.00  0.00     0.016 A 
ATOM     36  C   UNL A   1      37.987  29.232  28.473  1.00  0.00     0.016 A 
ATOM     37  C   UNL A   1      40.573  29.930  29.200  1.00  0.00     0.010 A 
ATOM     38  C   UNL A   1      39.019  28.291  28.350  1.00  0.00     0.010 A 
ATOM     39  C   UNL A   1      40.329  28.639  28.673  1.00  0.00    -0.014 A 
BRANCH  39  40
ATOM     40  C   UNL A   1      41.415  27.630  28.759  1.00  0.00     0.031 A 
ATOM     41  C   UNL A   1      42.088  27.676  30.091  1.00  0.00     0.074 A 
ATOM     42  C   UNL A   1      41.732  26.617  27.915  1.00  0.00     0.049 A 
ATOM     43  N   UNL A   1      43.334  27.870  30.371  1.00  0.00    -0.248 NA
ATOM     44  C   UNL A   1      41.201  27.616  31.266  1.00  0.00     0.031 C 
ATOM     45  C   UNL A   1      40.981  26.160  26.748  1.00  0.00     0.029 A 
ATOM     46  N   UNL A   1      42.776  25.715  27.965  1.00  0.00    -0.354 N 
ATOM     47  C   UNL A   1      43.412  27.815  31.762  1.00  0.00     0.074 A 
ATOM     48  C   UNL A   1      42.064  27.809  32.258  1.00  0.00     0.031 C 
ATOM     49  C   UNL A   1      41.513  25.010  26.276  1.00  0.00     0.029 A 
ATOM     50  C   UNL A   1      42.655  24.634  27.089  1.00  0.00     0.049 A 
ATOM     51  H   UNL A   1      43.545  25.826  28.570  1.00  0.00     0.167 HD
ATOM     52  C   UNL A   1      44.579  27.562  32.410  1.00  0.00     0.037 A 
ATOM     53  C   UNL A   1      43.362  23.469  27.071  1.00  0.00     0.037 A 
ATOM     54  C   UNL A   1      45.720  27.858  31.592  1.00  0.00     0.049 A 
ATOM     55  C   UNL A   1      44.603  23.667  27.854  1.00  0.00     0.074 A 
ATOM     56  C   UNL A   1      46.210  29.001  30.993  1.00  0.00     0.029 A 
ATOM     57  N   UNL A   1      46.392  26.817  31.007  1.00  0.00    -0.354 N 
ATOM     58  N   UNL A   1      45.603  24.409  27.476  1.00  0.00    -0.248 NA
ATOM     59  C   UNL A   1      44.550  23.357  29.274  1.00  0.00     0.031 C 
ATOM     60  C   UNL A   1      46.776  28.563  29.762  1.00  0.00     0.029 A 
ATOM     61  C   UNL A   1      46.642  27.176  29.708  1.00  0.00     0.049 A 
ATOM     62  H   UNL A   1      46.647  25.970  31.439  1.00  0.00     0.167 HD
ATOM     63  C   UNL A   1      46.031  25.024  28.641  1.00  0.00     0.074 A 
ATOM     64  C   UNL A   1      45.400  24.279  29.725  1.00  0.00     0.031 C 
ATOM     65  C   UNL A   1      46.632  26.247  28.606  1.00  0.00     0.037 A 
BRANCH  52  66
ATOM     66  C   UNL A   1      44.661  26.728  33.662  1.00  0.00     0.064 A 
ATOM     67  C   UNL A   1      44.294  25.369  33.615  1.00  0.00     0.173 A 
ATOM     68  C   UNL A   1      44.805  27.275  34.958  1.00  0.00     0.173 A 
ATOM     69  F   UNL A   1      44.094  24.757  32.438  1.00  0.00    -0.203 F 
ATOM     70  C   UNL A   1      44.035  24.636  34.775  1.00  0.00     0.198 A 
ATOM     71  C   UNL A   1      44.602  26.525  36.113  1.00  0.00     0.198 A 
ATOM     72  F   UNL A   1      45.031  28.579  35.160  1.00  0.00    -0.203 F 
ATOM     73  F   UNL A   1      43.569  23.383  34.679  1.00  0.00    -0.200 F 
ATOM     74  C   UNL A   1      44.188  25.214  36.023  1.00  0.00     0.200 A 
ATOM     75  F   UNL A   1      44.734  27.113  37.310  1.00  0.00    -0.200 F 
ATOM     76  F   UNL A   1      43.885  24.530  37.133  1.00  0.00    -0.200 F 
ENDBRANCH  52  66
BRANCH  53  77
ATOM     77  C   UNL A   1      42.902  22.102  26.681  1.00  0.00     0.064 A 
ATOM     78  C   UNL A   1      43.565  21.338  25.700  1.00  0.00     0.173 A 
ATOM     79  C   UNL A   1      41.954  21.406  27.457  1.00  0.00     0.173 A 
ATOM     80  F   UNL A   1      44.526  21.893  24.946  1.00  0.00    -0.203 F 
ATOM     81  C   UNL A   1      43.301  19.972  25.520  1.00  0.00     0.198 A 
ATOM     82  C   UNL A   1      41.681  20.050  27.268  1.00  0.00     0.198 A 
ATOM     83  F   UNL A   1      41.335  22.001  28.485  1.00  0.00    -0.203 F 
ATOM     84  F   UNL A   1      43.995  19.266  24.616  1.00  0.00    -0.200 F 
ATOM     85  C   UNL A   1      42.363  19.328  26.309  1.00  0.00     0.200 A 
ATOM     86  F   UNL A   1      40.796  19.437  28.066  1.00  0.00    -0.200 F 
ATOM     87  F   UNL A   1      42.146  18.012  26.177  1.00  0.00    -0.200 F 
ENDBRANCH  53  77
BRANCH  65  88
ATOM     88  C   UNL A   1      47.090  26.778  27.279  1.00  0.00     0.064 A 
ATOM     89  C   UNL A   1      48.384  26.598  26.762  1.00  0.00     0.173 A 
ATOM     90  C   UNL A   1      46.126  27.339  26.428  1.00  0.00     0.173 A 
ATOM     91  F   UNL A   1      49.340  25.988  27.478  1.00  0.00    -0.203 F 
ATOM     92  C   UNL A   1      48.696  26.989  25.461  1.00  0.00     0.198 A 
ATOM     93  C   UNL A   1      46.429  27.679  25.114  1.00  0.00     0.198 A 
ATOM     94  F   UNL A   1      44.864  27.500  26.858  1.00  0.00    -0.203 F 
ATOM     95  F   UNL A   1      49.943  26.840  25.001  1.00  0.00    -0.200 F 
ATOM     96  C   UNL A   1      47.716  27.508  24.631  1.00  0.00     0.200 A 
ATOM     97  F   UNL A   1      45.466  28.144  24.307  1.00  0.00    -0.200 F 
ATOM     98  F   UNL A   1      48.003  27.817  23.359  1.00  0.00    -0.200 F 
ENDBRANCH  65  88
ENDBRANCH  39  40
ENDBRANCH  32  34
ENDBRANCH  31  32
ENDBRANCH  30  31
ENDBRANCH  29  30
ENDBRANCH  28  29
ENDBRANCH  27  28
ENDBRANCH   1  27
TORSDOF 21
ENDMDL
