MODEL 1
REMARK VINA RESULT:     -10.6      0.000      0.000
REMARK SMILES O=C(OCCOCCOCCOCCOC(=O)c1cnccc1-c1cccc(C(F)(F)F)c1)c1ccc(-c2c3nc(c(-c4c(F)c(F)c(F)c(F)c4F)c4ccc([nH]4)c(-c4c(F)c(F)c(F)c(F)c4F)c4nc(c(-c5c(F)c(F)c(F)c(F)c5F)c5ccc2[nH]5)C=C4)C=C3)cc1
REMARK SMILES IDX 9 1 8 2 7 3 6 4 5 5 4 6 3 7 2 8 1 9 34 10 35 11 96 12 36 13
REMARK SMILES IDX 95 14 37 15 38 16 39 17 89 18 40 19 94 20 88 21 90 22 41 23
REMARK SMILES IDX 93 24 87 25 86 26 42 28 74 29 54 30 73 31 55 32 58 33 72 34
REMARK SMILES IDX 91 35 56 36 57 37 71 39 92 40 59 41 43 42 44 43 52 44 45 45
REMARK SMILES IDX 46 46 50 47 53 48 47 49 48 50 51 51 49 52 75 53 76 54 84 55
REMARK SMILES IDX 77 56 78 57 82 58 85 59 79 60 80 61 83 62 81 63 60 64 61 65
REMARK SMILES IDX 69 66 62 67 63 68 67 69 70 70 64 71 65 72 68 73 66 74 10 75
REMARK SMILES IDX 11 76 12 77 13 78 14 79 15 80 16 81 17 82 18 83 19 84 23 85
REMARK SMILES IDX 20 86 22 87 21 88 24 89 25 90 33 91 26 92 28 93 27 94 29 95
REMARK SMILES IDX 30 96 31 97 32 98
REMARK H PARENT 90 27 58 38
REMARK Flexibility Score: inf
ROOT
ATOM      1  O   UNL A   1      34.121  27.828  26.494  1.00  0.00    -0.377 OA
ENDROOT
BRANCH   1   2
ATOM      2  C   UNL A   1      33.586  28.959  27.182  1.00  0.00     0.188 C 
BRANCH   2   3
ATOM      3  C   UNL A   1      33.044  30.070  26.283  1.00  0.00     0.188 C 
BRANCH   3   4
ATOM      4  O   UNL A   1      31.704  30.405  26.647  1.00  0.00    -0.376 OA
BRANCH   4   5
ATOM      5  C   UNL A   1      31.389  31.797  26.632  1.00  0.00     0.202 C 
BRANCH   5   6
ATOM      6  C   UNL A   1      32.576  32.708  26.953  1.00  0.00     0.261 C 
BRANCH   6   7
ATOM      7  O   UNL A   1      32.181  33.913  27.625  1.00  0.00    -0.460 OA
BRANCH   7   8
ATOM      8  C   UNL A   1      32.901  34.651  28.508  1.00  0.00     0.338 C 
ATOM      9  O   UNL A   1      32.520  35.790  28.769  1.00  0.00    -0.246 OA
BRANCH   8  10
ATOM     10  C   UNL A   1      34.128  34.155  29.210  1.00  0.00     0.060 A 
ATOM     11  C   UNL A   1      35.439  34.413  28.814  1.00  0.00     0.016 A 
ATOM     12  C   UNL A   1      33.940  33.422  30.396  1.00  0.00     0.016 A 
ATOM     13  C   UNL A   1      36.526  33.904  29.501  1.00  0.00     0.010 A 
ATOM     14  C   UNL A   1      35.032  32.930  31.122  1.00  0.00     0.010 A 
ATOM     15  C   UNL A   1      36.330  33.148  30.649  1.00  0.00    -0.014 A 
BRANCH  15  16
ATOM     16  C   UNL A   1      37.516  32.466  31.194  1.00  0.00     0.031 A 
ATOM     17  C   UNL A   1      37.954  32.836  32.578  1.00  0.00     0.074 A 
ATOM     18  C   UNL A   1      38.019  31.398  30.551  1.00  0.00     0.049 A 
ATOM     19  N   UNL A   1      38.950  32.378  33.284  1.00  0.00    -0.248 NA
ATOM     20  C   UNL A   1      37.137  33.845  33.276  1.00  0.00     0.031 C 
ATOM     21  C   UNL A   1      37.523  30.871  29.275  1.00  0.00     0.029 A 
ATOM     22  N   UNL A   1      39.018  30.531  30.901  1.00  0.00    -0.354 N 
ATOM     23  C   UNL A   1      38.892  33.055  34.494  1.00  0.00     0.074 A 
ATOM     24  C   UNL A   1      37.770  33.962  34.431  1.00  0.00     0.031 C 
ATOM     25  C   UNL A   1      38.207  29.758  28.964  1.00  0.00     0.029 A 
ATOM     26  C   UNL A   1      39.236  29.540  29.974  1.00  0.00     0.049 A 
ATOM     27  H   UNL A   1      39.533  30.610  31.737  1.00  0.00     0.167 HD
ATOM     28  C   UNL A   1      39.714  32.924  35.559  1.00  0.00     0.037 A 
ATOM     29  C   UNL A   1      40.193  28.596  29.938  1.00  0.00     0.037 A 
ATOM     30  C   UNL A   1      40.820  32.009  35.584  1.00  0.00     0.049 A 
ATOM     31  C   UNL A   1      41.175  28.561  31.081  1.00  0.00     0.074 A 
ATOM     32  C   UNL A   1      41.796  31.850  36.547  1.00  0.00     0.029 A 
ATOM     33  N   UNL A   1      41.085  31.086  34.578  1.00  0.00    -0.354 N 
ATOM     34  N   UNL A   1      41.190  29.279  32.181  1.00  0.00    -0.248 NA
ATOM     35  C   UNL A   1      42.279  27.603  30.975  1.00  0.00     0.031 C 
ATOM     36  C   UNL A   1      42.678  30.856  36.104  1.00  0.00     0.029 A 
ATOM     37  C   UNL A   1      42.220  30.360  34.892  1.00  0.00     0.049 A 
ATOM     38  H   UNL A   1      40.546  30.966  33.764  1.00  0.00     0.167 HD
ATOM     39  C   UNL A   1      42.295  28.854  32.902  1.00  0.00     0.074 A 
ATOM     40  C   UNL A   1      42.904  27.788  32.129  1.00  0.00     0.031 C 
ATOM     41  C   UNL A   1      42.779  29.303  34.087  1.00  0.00     0.037 A 
BRANCH  28  42
ATOM     42  C   UNL A   1      39.479  33.839  36.722  1.00  0.00     0.064 A 
ATOM     43  C   UNL A   1      40.024  35.131  36.775  1.00  0.00     0.173 A 
ATOM     44  C   UNL A   1      38.723  33.402  37.820  1.00  0.00     0.173 A 
ATOM     45  F   UNL A   1      40.785  35.585  35.768  1.00  0.00    -0.203 F 
ATOM     46  C   UNL A   1      39.838  35.942  37.893  1.00  0.00     0.198 A 
ATOM     47  C   UNL A   1      38.519  34.223  38.925  1.00  0.00     0.198 A 
ATOM     48  F   UNL A   1      38.193  32.170  37.827  1.00  0.00    -0.203 F 
ATOM     49  F   UNL A   1      40.415  37.152  37.946  1.00  0.00    -0.200 F 
ATOM     50  C   UNL A   1      39.083  35.490  38.964  1.00  0.00     0.200 A 
ATOM     51  F   UNL A   1      37.789  33.783  39.960  1.00  0.00    -0.200 F 
ATOM     52  F   UNL A   1      38.910  36.268  40.042  1.00  0.00    -0.200 F 
ENDBRANCH  28  42
BRANCH  29  53
ATOM     53  C   UNL A   1      40.327  27.685  28.768  1.00  0.00     0.064 A 
ATOM     54  C   UNL A   1      41.074  28.040  27.637  1.00  0.00     0.173 A 
ATOM     55  C   UNL A   1      39.656  26.450  28.735  1.00  0.00     0.173 A 
ATOM     56  F   UNL A   1      41.717  29.217  27.601  1.00  0.00    -0.203 F 
ATOM     57  C   UNL A   1      41.118  27.218  26.511  1.00  0.00     0.198 A 
ATOM     58  C   UNL A   1      39.731  25.612  27.625  1.00  0.00     0.198 A 
ATOM     59  F   UNL A   1      38.918  26.056  29.782  1.00  0.00    -0.203 F 
ATOM     60  F   UNL A   1      41.784  27.615  25.418  1.00  0.00    -0.200 F 
ATOM     61  C   UNL A   1      40.451  26.002  26.507  1.00  0.00     0.200 A 
ATOM     62  F   UNL A   1      39.095  24.432  27.634  1.00  0.00    -0.200 F 
ATOM     63  F   UNL A   1      40.486  25.216  25.422  1.00  0.00    -0.200 F 
ENDBRANCH  29  53
BRANCH  41  64
ATOM     64  C   UNL A   1      44.004  28.619  34.613  1.00  0.00     0.064 A 
ATOM     65  C   UNL A   1      45.291  29.108  34.341  1.00  0.00     0.173 A 
ATOM     66  C   UNL A   1      43.884  27.480  35.421  1.00  0.00     0.173 A 
ATOM     67  F   UNL A   1      45.453  30.185  33.558  1.00  0.00    -0.203 F 
ATOM     68  C   UNL A   1      46.417  28.457  34.835  1.00  0.00     0.198 A 
ATOM     69  C   UNL A   1      45.011  26.855  35.943  1.00  0.00     0.198 A 
ATOM     70  F   UNL A   1      42.673  26.983  35.716  1.00  0.00    -0.203 F 
ATOM     71  F   UNL A   1      47.638  28.905  34.516  1.00  0.00    -0.200 F 
ATOM     72  C   UNL A   1      46.276  27.337  35.641  1.00  0.00     0.200 A 
ATOM     73  F   UNL A   1      44.873  25.782  36.735  1.00  0.00    -0.200 F 
ATOM     74  F   UNL A   1      47.362  26.717  36.120  1.00  0.00    -0.200 F 
ENDBRANCH  41  64
ENDBRANCH  15  16
ENDBRANCH   8  10
ENDBRANCH   7   8
ENDBRANCH   6   7
ENDBRANCH   5   6
ENDBRANCH   4   5
ENDBRANCH   3   4
ENDBRANCH   2   3
ENDBRANCH   1   2
BRANCH   1  75
ATOM     75  C   UNL A   1      33.721  27.658  25.136  1.00  0.00     0.188 C 
BRANCH  75  76
ATOM     76  C   UNL A   1      33.728  26.231  24.539  1.00  0.00     0.188 C 
BRANCH  76  77
ATOM     77  O   UNL A   1      34.756  25.400  25.054  1.00  0.00    -0.376 OA
BRANCH  77  78
ATOM     78  C   UNL A   1      34.697  24.019  24.726  1.00  0.00     0.202 C 
BRANCH  78  79
ATOM     79  C   UNL A   1      35.990  23.274  24.360  1.00  0.00     0.261 C 
BRANCH  79  80
ATOM     80  O   UNL A   1      35.902  21.846  24.290  1.00  0.00    -0.460 OA
BRANCH  80  81
ATOM     81  C   UNL A   1      35.328  21.140  25.286  1.00  0.00     0.340 C 
ATOM     82  O   UNL A   1      35.286  21.432  26.468  1.00  0.00    -0.246 OA
BRANCH  81  83
ATOM     83  C   UNL A   1      34.613  20.007  24.649  1.00  0.00     0.086 A 
ATOM     84  C   UNL A   1      35.263  18.780  24.626  1.00  0.00     0.127 A 
ATOM     85  C   UNL A   1      33.258  20.083  24.253  1.00  0.00    -0.001 A 
ATOM     86  N   UNL A   1      34.647  17.615  24.315  1.00  0.00    -0.264 NA
ATOM     87  C   UNL A   1      32.617  18.879  23.932  1.00  0.00     0.030 A 
ATOM     88  C   UNL A   1      33.337  17.691  23.991  1.00  0.00     0.111 A 
BRANCH  85  89
ATOM     89  C   UNL A   1      32.552  21.381  24.207  1.00  0.00    -0.017 A 
ATOM     90  C   UNL A   1      32.302  22.058  23.007  1.00  0.00     0.009 A 
ATOM     91  C   UNL A   1      31.972  21.889  25.385  1.00  0.00     0.021 A 
ATOM     92  C   UNL A   1      31.446  23.166  22.980  1.00  0.00     0.001 A 
ATOM     93  C   UNL A   1      31.029  22.923  25.354  1.00  0.00     0.056 A 
ATOM     94  C   UNL A   1      30.793  23.579  24.143  1.00  0.00     0.013 A 
BRANCH  93  95
ATOM     95  C   UNL A   1      30.243  23.252  26.598  1.00  0.00     0.416 C 
ATOM     96  F   UNL A   1      31.014  23.304  27.715  1.00  0.00    -0.166 F 
ATOM     97  F   UNL A   1      29.609  24.454  26.511  1.00  0.00    -0.166 F 
ATOM     98  F   UNL A   1      29.259  22.344  26.861  1.00  0.00    -0.166 F 
ENDBRANCH  93  95
ENDBRANCH  85  89
ENDBRANCH  81  83
ENDBRANCH  80  81
ENDBRANCH  79  80
ENDBRANCH  78  79
ENDBRANCH  77  78
ENDBRANCH  76  77
ENDBRANCH  75  76
ENDBRANCH   1  75
TORSDOF 22
ENDMDL
MODEL 2
REMARK VINA RESULT:     -10.6      1.154      2.354
REMARK SMILES O=C(OCCOCCOCCOCCOC(=O)c1cnccc1-c1cccc(C(F)(F)F)c1)c1ccc(-c2c3nc(c(-c4c(F)c(F)c(F)c(F)c4F)c4ccc([nH]4)c(-c4c(F)c(F)c(F)c(F)c4F)c4nc(c(-c5c(F)c(F)c(F)c(F)c5F)c5ccc2[nH]5)C=C4)C=C3)cc1
REMARK SMILES IDX 9 1 8 2 7 3 6 4 5 5 4 6 3 7 2 8 1 9 34 10 35 11 96 12 36 13
REMARK SMILES IDX 95 14 37 15 38 16 39 17 89 18 40 19 94 20 88 21 90 22 41 23
REMARK SMILES IDX 93 24 87 25 86 26 42 28 74 29 54 30 73 31 55 32 58 33 72 34
REMARK SMILES IDX 91 35 56 36 57 37 71 39 92 40 59 41 43 42 44 43 52 44 45 45
REMARK SMILES IDX 46 46 50 47 53 48 47 49 48 50 51 51 49 52 75 53 76 54 84 55
REMARK SMILES IDX 77 56 78 57 82 58 85 59 79 60 80 61 83 62 81 63 60 64 61 65
REMARK SMILES IDX 69 66 62 67 63 68 67 69 70 70 64 71 65 72 68 73 66 74 10 75
REMARK SMILES IDX 11 76 12 77 13 78 14 79 15 80 16 81 17 82 18 83 19 84 23 85
REMARK SMILES IDX 20 86 22 87 21 88 24 89 25 90 33 91 26 92 28 93 27 94 29 95
REMARK SMILES IDX 30 96 31 97 32 98
REMARK H PARENT 90 27 58 38
REMARK Flexibility Score: inf
ROOT
ATOM      1  O   UNL A   1      34.392  28.322  26.751  1.00  0.00    -0.377 OA
ENDROOT
BRANCH   1   2
ATOM      2  C   UNL A   1      33.855  29.541  27.267  1.00  0.00     0.188 C 
BRANCH   2   3
ATOM      3  C   UNL A   1      33.013  30.350  26.280  1.00  0.00     0.188 C 
BRANCH   3   4
ATOM      4  O   UNL A   1      31.759  30.709  26.863  1.00  0.00    -0.376 OA
BRANCH   4   5
ATOM      5  C   UNL A   1      31.432  32.098  26.814  1.00  0.00     0.202 C 
BRANCH   5   6
ATOM      6  C   UNL A   1      32.609  33.028  27.112  1.00  0.00     0.261 C 
BRANCH   6   7
ATOM      7  O   UNL A   1      32.220  34.188  27.863  1.00  0.00    -0.460 OA
BRANCH   7   8
ATOM      8  C   UNL A   1      32.962  34.892  28.755  1.00  0.00     0.338 C 
ATOM      9  O   UNL A   1      32.585  36.020  29.071  1.00  0.00    -0.246 OA
BRANCH   8  10
ATOM     10  C   UNL A   1      34.208  34.373  29.404  1.00  0.00     0.060 A 
ATOM     11  C   UNL A   1      35.500  34.538  28.909  1.00  0.00     0.016 A 
ATOM     12  C   UNL A   1      34.066  33.719  30.642  1.00  0.00     0.016 A 
ATOM     13  C   UNL A   1      36.604  34.012  29.553  1.00  0.00     0.010 A 
ATOM     14  C   UNL A   1      35.179  33.212  31.323  1.00  0.00     0.010 A 
ATOM     15  C   UNL A   1      36.451  33.334  30.755  1.00  0.00    -0.014 A 
BRANCH  15  16
ATOM     16  C   UNL A   1      37.636  32.621  31.262  1.00  0.00     0.031 A 
ATOM     17  C   UNL A   1      38.081  32.923  32.660  1.00  0.00     0.074 A 
ATOM     18  C   UNL A   1      38.132  31.583  30.566  1.00  0.00     0.049 A 
ATOM     19  N   UNL A   1      39.078  32.428  33.339  1.00  0.00    -0.248 NA
ATOM     20  C   UNL A   1      37.271  33.902  33.408  1.00  0.00     0.031 C 
ATOM     21  C   UNL A   1      37.629  31.120  29.269  1.00  0.00     0.029 A 
ATOM     22  N   UNL A   1      39.129  30.697  30.870  1.00  0.00    -0.354 N 
ATOM     23  C   UNL A   1      39.027  33.047  34.580  1.00  0.00     0.074 A 
ATOM     24  C   UNL A   1      37.909  33.961  34.565  1.00  0.00     0.031 C 
ATOM     25  C   UNL A   1      38.306  30.020  28.902  1.00  0.00     0.029 A 
ATOM     26  C   UNL A   1      39.339  29.751  29.896  1.00  0.00     0.049 A 
ATOM     27  H   UNL A   1      39.647  30.734  31.707  1.00  0.00     0.167 HD
ATOM     28  C   UNL A   1      39.853  32.862  35.634  1.00  0.00     0.037 A 
ATOM     29  C   UNL A   1      40.292  28.806  29.811  1.00  0.00     0.037 A 
ATOM     30  C   UNL A   1      40.956  31.943  35.611  1.00  0.00     0.049 A 
ATOM     31  C   UNL A   1      41.278  28.713  30.947  1.00  0.00     0.074 A 
ATOM     32  C   UNL A   1      41.935  31.734  36.561  1.00  0.00     0.029 A 
ATOM     33  N   UNL A   1      41.213  31.068  34.561  1.00  0.00    -0.354 N 
ATOM     34  N   UNL A   1      41.301  29.377  32.080  1.00  0.00    -0.248 NA
ATOM     35  C   UNL A   1      42.378  27.756  30.791  1.00  0.00     0.031 C 
ATOM     36  C   UNL A   1      42.811  30.759  36.068  1.00  0.00     0.029 A 
ATOM     37  C   UNL A   1      42.346  30.323  34.835  1.00  0.00     0.049 A 
ATOM     38  H   UNL A   1      40.670  30.989  33.745  1.00  0.00     0.167 HD
ATOM     39  C   UNL A   1      42.407  28.914  32.776  1.00  0.00     0.074 A 
ATOM     40  C   UNL A   1      43.009  27.884  31.949  1.00  0.00     0.031 C 
ATOM     41  C   UNL A   1      42.898  29.304  33.978  1.00  0.00     0.037 A 
BRANCH  28  42
ATOM     42  C   UNL A   1      39.627  33.722  36.841  1.00  0.00     0.064 A 
ATOM     43  C   UNL A   1      38.856  33.288  37.930  1.00  0.00     0.173 A 
ATOM     44  C   UNL A   1      40.162  35.018  36.892  1.00  0.00     0.173 A 
ATOM     45  F   UNL A   1      38.290  32.072  37.916  1.00  0.00    -0.203 F 
ATOM     46  C   UNL A   1      38.613  34.129  39.015  1.00  0.00     0.198 A 
ATOM     47  C   UNL A   1      39.938  35.846  37.988  1.00  0.00     0.198 A 
ATOM     48  F   UNL A   1      40.893  35.487  35.869  1.00  0.00    -0.203 F 
ATOM     49  F   UNL A   1      37.827  33.713  40.020  1.00  0.00    -0.200 F 
ATOM     50  C   UNL A   1      39.157  35.403  39.045  1.00  0.00     0.200 A 
ATOM     51  F   UNL A   1      40.464  37.078  38.014  1.00  0.00    -0.200 F 
ATOM     52  F   UNL A   1      38.918  36.212  40.087  1.00  0.00    -0.200 F 
ENDBRANCH  28  42
BRANCH  29  53
ATOM     53  C   UNL A   1      40.417  27.951  28.598  1.00  0.00     0.064 A 
ATOM     54  C   UNL A   1      39.840  26.676  28.531  1.00  0.00     0.173 A 
ATOM     55  C   UNL A   1      41.171  28.376  27.491  1.00  0.00     0.173 A 
ATOM     56  F   UNL A   1      39.128  26.207  29.567  1.00  0.00    -0.203 F 
ATOM     57  C   UNL A   1      40.039  25.849  27.425  1.00  0.00     0.198 A 
ATOM     58  C   UNL A   1      41.338  27.564  26.371  1.00  0.00     0.198 A 
ATOM     59  F   UNL A   1      41.755  29.583  27.496  1.00  0.00    -0.203 F 
ATOM     60  F   UNL A   1      39.533  24.608  27.419  1.00  0.00    -0.200 F 
ATOM     61  C   UNL A   1      40.784  26.295  26.344  1.00  0.00     0.200 A 
ATOM     62  F   UNL A   1      42.048  28.009  25.324  1.00  0.00    -0.200 F 
ATOM     63  F   UNL A   1      40.982  25.498  25.286  1.00  0.00    -0.200 F 
ENDBRANCH  29  53
BRANCH  41  64
ATOM     64  C   UNL A   1      44.122  28.590  34.465  1.00  0.00     0.064 A 
ATOM     65  C   UNL A   1      44.031  27.403  35.209  1.00  0.00     0.173 A 
ATOM     66  C   UNL A   1      45.397  29.084  34.158  1.00  0.00     0.173 A 
ATOM     67  F   UNL A   1      42.830  26.903  35.539  1.00  0.00    -0.203 F 
ATOM     68  C   UNL A   1      45.178  26.756  35.656  1.00  0.00     0.198 A 
ATOM     69  C   UNL A   1      46.541  28.414  34.576  1.00  0.00     0.198 A 
ATOM     70  F   UNL A   1      45.532  30.210  33.441  1.00  0.00    -0.203 F 
ATOM     71  F   UNL A   1      45.069  25.656  36.414  1.00  0.00    -0.200 F 
ATOM     72  C   UNL A   1      46.430  27.257  35.333  1.00  0.00     0.200 A 
ATOM     73  F   UNL A   1      47.751  28.889  34.250  1.00  0.00    -0.200 F 
ATOM     74  F   UNL A   1      47.533  26.627  35.759  1.00  0.00    -0.200 F 
ENDBRANCH  41  64
ENDBRANCH  15  16
ENDBRANCH   8  10
ENDBRANCH   7   8
ENDBRANCH   6   7
ENDBRANCH   5   6
ENDBRANCH   4   5
ENDBRANCH   3   4
ENDBRANCH   2   3
ENDBRANCH   1   2
BRANCH   1  75
ATOM     75  C   UNL A   1      33.525  27.538  25.935  1.00  0.00     0.188 C 
BRANCH  75  76
ATOM     76  C   UNL A   1      33.583  25.997  26.067  1.00  0.00     0.188 C 
BRANCH  76  77
ATOM     77  O   UNL A   1      34.648  25.401  25.344  1.00  0.00    -0.376 OA
BRANCH  77  78
ATOM     78  C   UNL A   1      34.818  23.997  25.481  1.00  0.00     0.202 C 
BRANCH  78  79
ATOM     79  C   UNL A   1      35.885  23.280  24.642  1.00  0.00     0.261 C 
BRANCH  79  80
ATOM     80  O   UNL A   1      35.785  21.852  24.571  1.00  0.00    -0.460 OA
BRANCH  80  81
ATOM     81  C   UNL A   1      35.046  21.167  25.469  1.00  0.00     0.340 C 
ATOM     82  O   UNL A   1      34.815  21.477  26.625  1.00  0.00    -0.246 OA
BRANCH  81  83
ATOM     83  C   UNL A   1      34.430  20.034  24.738  1.00  0.00     0.086 A 
ATOM     84  C   UNL A   1      35.115  18.826  24.747  1.00  0.00     0.127 A 
ATOM     85  C   UNL A   1      33.117  20.084  24.216  1.00  0.00    -0.001 A 
ATOM     86  N   UNL A   1      34.567  17.654  24.349  1.00  0.00    -0.264 NA
ATOM     87  C   UNL A   1      32.546  18.871  23.804  1.00  0.00     0.030 A 
ATOM     88  C   UNL A   1      33.291  17.703  23.902  1.00  0.00     0.111 A 
BRANCH  85  89
ATOM     89  C   UNL A   1      32.380  21.362  24.134  1.00  0.00    -0.017 A 
ATOM     90  C   UNL A   1      31.558  21.823  25.171  1.00  0.00     0.009 A 
ATOM     91  C   UNL A   1      32.624  22.227  23.051  1.00  0.00     0.021 A 
ATOM     92  C   UNL A   1      31.054  23.129  25.152  1.00  0.00     0.001 A 
ATOM     93  C   UNL A   1      32.219  23.567  23.074  1.00  0.00     0.056 A 
ATOM     94  C   UNL A   1      31.404  24.004  24.122  1.00  0.00     0.013 A 
BRANCH  93  95
ATOM     95  C   UNL A   1      32.729  24.517  22.020  1.00  0.00     0.416 C 
ATOM     96  F   UNL A   1      31.806  25.442  21.648  1.00  0.00    -0.166 F 
ATOM     97  F   UNL A   1      33.825  25.213  22.432  1.00  0.00    -0.166 F 
ATOM     98  F   UNL A   1      33.113  23.885  20.874  1.00  0.00    -0.166 F 
ENDBRANCH  93  95
ENDBRANCH  85  89
ENDBRANCH  81  83
ENDBRANCH  80  81
ENDBRANCH  79  80
ENDBRANCH  78  79
ENDBRANCH  77  78
ENDBRANCH  76  77
ENDBRANCH  75  76
ENDBRANCH   1  75
TORSDOF 22
ENDMDL
MODEL 3
REMARK VINA RESULT:     -10.5      4.932      9.460
REMARK SMILES O=C(OCCOCCOCCOCCOC(=O)c1cnccc1-c1cccc(C(F)(F)F)c1)c1ccc(-c2c3nc(c(-c4c(F)c(F)c(F)c(F)c4F)c4ccc([nH]4)c(-c4c(F)c(F)c(F)c(F)c4F)c4nc(c(-c5c(F)c(F)c(F)c(F)c5F)c5ccc2[nH]5)C=C4)C=C3)cc1
REMARK SMILES IDX 9 1 8 2 7 3 6 4 5 5 4 6 3 7 2 8 1 9 34 10 35 11 96 12 36 13
REMARK SMILES IDX 95 14 37 15 38 16 39 17 89 18 40 19 94 20 88 21 90 22 41 23
REMARK SMILES IDX 93 24 87 25 86 26 42 28 74 29 54 30 73 31 55 32 58 33 72 34
REMARK SMILES IDX 91 35 56 36 57 37 71 39 92 40 59 41 43 42 44 43 52 44 45 45
REMARK SMILES IDX 46 46 50 47 53 48 47 49 48 50 51 51 49 52 75 53 76 54 84 55
REMARK SMILES IDX 77 56 78 57 82 58 85 59 79 60 80 61 83 62 81 63 60 64 61 65
REMARK SMILES IDX 69 66 62 67 63 68 67 69 70 70 64 71 65 72 68 73 66 74 10 75
REMARK SMILES IDX 11 76 12 77 13 78 14 79 15 80 16 81 17 82 18 83 19 84 23 85
REMARK SMILES IDX 20 86 22 87 21 88 24 89 25 90 33 91 26 92 28 93 27 94 29 95
REMARK SMILES IDX 30 96 31 97 32 98
REMARK H PARENT 90 27 58 38
REMARK Flexibility Score: inf
ROOT
ATOM      1  O   UNL A   1      34.328  32.852  28.901  1.00  0.00    -0.377 OA
ENDROOT
BRANCH   1   2
ATOM      2  C   UNL A   1      34.075  34.189  28.467  1.00  0.00     0.188 C 
BRANCH   2   3
ATOM      3  C   UNL A   1      33.848  35.205  29.588  1.00  0.00     0.188 C 
BRANCH   3   4
ATOM      4  O   UNL A   1      33.278  34.571  30.735  1.00  0.00    -0.376 OA
BRANCH   4   5
ATOM      5  C   UNL A   1      33.903  34.874  31.982  1.00  0.00     0.202 C 
BRANCH   5   6
ATOM      6  C   UNL A   1      35.345  34.375  32.095  1.00  0.00     0.261 C 
BRANCH   6   7
ATOM      7  O   UNL A   1      35.429  32.945  32.180  1.00  0.00    -0.460 OA
BRANCH   7   8
ATOM      8  C   UNL A   1      36.391  32.200  32.782  1.00  0.00     0.338 C 
ATOM      9  O   UNL A   1      36.319  32.021  33.997  1.00  0.00    -0.246 OA
BRANCH   8  10
ATOM     10  C   UNL A   1      37.530  31.555  32.054  1.00  0.00     0.060 A 
ATOM     11  C   UNL A   1      38.582  30.870  32.657  1.00  0.00     0.016 A 
ATOM     12  C   UNL A   1      37.501  31.594  30.648  1.00  0.00     0.016 A 
ATOM     13  C   UNL A   1      39.613  30.316  31.921  1.00  0.00     0.010 A 
ATOM     14  C   UNL A   1      38.520  31.006  29.888  1.00  0.00     0.010 A 
ATOM     15  C   UNL A   1      39.597  30.393  30.535  1.00  0.00    -0.014 A 
BRANCH  15  16
ATOM     16  C   UNL A   1      40.827  29.976  29.841  1.00  0.00     0.031 A 
ATOM     17  C   UNL A   1      40.845  28.613  29.221  1.00  0.00     0.074 A 
ATOM     18  C   UNL A   1      41.786  30.885  29.588  1.00  0.00     0.049 A 
ATOM     19  N   UNL A   1      41.793  28.017  28.551  1.00  0.00    -0.248 NA
ATOM     20  C   UNL A   1      39.610  27.818  29.350  1.00  0.00     0.031 C 
ATOM     21  C   UNL A   1      41.751  32.288  30.014  1.00  0.00     0.029 A 
ATOM     22  N   UNL A   1      42.946  30.785  28.869  1.00  0.00    -0.354 N 
ATOM     23  C   UNL A   1      41.278  26.777  28.199  1.00  0.00     0.074 A 
ATOM     24  C   UNL A   1      39.939  26.695  28.733  1.00  0.00     0.031 C 
ATOM     25  C   UNL A   1      42.829  32.921  29.527  1.00  0.00     0.029 A 
ATOM     26  C   UNL A   1      43.666  31.955  28.825  1.00  0.00     0.049 A 
ATOM     27  H   UNL A   1      43.237  29.956  28.426  1.00  0.00     0.167 HD
ATOM     28  C   UNL A   1      41.884  25.797  27.492  1.00  0.00     0.037 A 
ATOM     29  C   UNL A   1      44.886  32.190  28.310  1.00  0.00     0.037 A 
ATOM     30  C   UNL A   1      43.219  25.916  26.977  1.00  0.00     0.049 A 
ATOM     31  C   UNL A   1      45.590  31.037  27.641  1.00  0.00     0.074 A 
ATOM     32  C   UNL A   1      43.995  24.968  26.342  1.00  0.00     0.029 A 
ATOM     33  N   UNL A   1      43.973  27.083  27.042  1.00  0.00    -0.354 N 
ATOM     34  N   UNL A   1      45.148  29.823  27.404  1.00  0.00    -0.248 NA
ATOM     35  C   UNL A   1      46.962  31.276  27.184  1.00  0.00     0.031 C 
ATOM     36  C   UNL A   1      45.236  25.549  26.058  1.00  0.00     0.029 A 
ATOM     37  C   UNL A   1      45.214  26.874  26.468  1.00  0.00     0.049 A 
ATOM     38  H   UNL A   1      43.669  27.931  27.437  1.00  0.00     0.167 HD
ATOM     39  C   UNL A   1      46.181  29.157  26.763  1.00  0.00     0.074 A 
ATOM     40  C   UNL A   1      47.259  30.116  26.615  1.00  0.00     0.031 C 
ATOM     41  C   UNL A   1      46.249  27.869  26.342  1.00  0.00     0.037 A 
BRANCH  28  42
ATOM     42  C   UNL A   1      41.131  24.513  27.318  1.00  0.00     0.064 A 
ATOM     43  C   UNL A   1      41.499  23.337  27.990  1.00  0.00     0.173 A 
ATOM     44  C   UNL A   1      40.042  24.449  26.435  1.00  0.00     0.173 A 
ATOM     45  F   UNL A   1      42.555  23.334  28.817  1.00  0.00    -0.203 F 
ATOM     46  C   UNL A   1      40.818  22.142  27.767  1.00  0.00     0.198 A 
ATOM     47  C   UNL A   1      39.349  23.260  26.234  1.00  0.00     0.198 A 
ATOM     48  F   UNL A   1      39.660  25.541  25.757  1.00  0.00    -0.203 F 
ATOM     49  F   UNL A   1      41.222  21.018  28.377  1.00  0.00    -0.200 F 
ATOM     50  C   UNL A   1      39.741  22.105  26.894  1.00  0.00     0.200 A 
ATOM     51  F   UNL A   1      38.309  23.227  25.388  1.00  0.00    -0.200 F 
ATOM     52  F   UNL A   1      39.091  20.953  26.676  1.00  0.00    -0.200 F 
ENDBRANCH  28  42
BRANCH  29  53
ATOM     53  C   UNL A   1      45.545  33.515  28.477  1.00  0.00     0.064 A 
ATOM     54  C   UNL A   1      45.416  34.531  27.521  1.00  0.00     0.173 A 
ATOM     55  C   UNL A   1      46.373  33.774  29.584  1.00  0.00     0.173 A 
ATOM     56  F   UNL A   1      44.658  34.332  26.431  1.00  0.00    -0.203 F 
ATOM     57  C   UNL A   1      46.110  35.735  27.645  1.00  0.00     0.198 A 
ATOM     58  C   UNL A   1      47.035  34.991  29.726  1.00  0.00     0.198 A 
ATOM     59  F   UNL A   1      46.544  32.840  30.530  1.00  0.00    -0.203 F 
ATOM     60  F   UNL A   1      46.020  36.660  26.679  1.00  0.00    -0.200 F 
ATOM     61  C   UNL A   1      46.916  35.966  28.749  1.00  0.00     0.200 A 
ATOM     62  F   UNL A   1      47.801  35.212  30.804  1.00  0.00    -0.200 F 
ATOM     63  F   UNL A   1      47.589  37.118  28.864  1.00  0.00    -0.200 F 
ENDBRANCH  29  53
BRANCH  41  64
ATOM     64  C   UNL A   1      47.519  27.452  25.665  1.00  0.00     0.064 A 
ATOM     65  C   UNL A   1      47.665  27.525  24.271  1.00  0.00     0.173 A 
ATOM     66  C   UNL A   1      48.610  27.005  26.424  1.00  0.00     0.173 A 
ATOM     67  F   UNL A   1      46.641  27.932  23.505  1.00  0.00    -0.203 F 
ATOM     68  C   UNL A   1      48.850  27.131  23.659  1.00  0.00     0.198 A 
ATOM     69  C   UNL A   1      49.805  26.647  25.811  1.00  0.00     0.198 A 
ATOM     70  F   UNL A   1      48.519  26.929  27.760  1.00  0.00    -0.203 F 
ATOM     71  F   UNL A   1      48.949  27.151  22.324  1.00  0.00    -0.200 F 
ATOM     72  C   UNL A   1      49.920  26.700  24.430  1.00  0.00     0.200 A 
ATOM     73  F   UNL A   1      50.844  26.247  26.556  1.00  0.00    -0.200 F 
ATOM     74  F   UNL A   1      51.063  26.327  23.838  1.00  0.00    -0.200 F 
ENDBRANCH  41  64
ENDBRANCH  15  16
ENDBRANCH   8  10
ENDBRANCH   7   8
ENDBRANCH   6   7
ENDBRANCH   5   6
ENDBRANCH   4   5
ENDBRANCH   3   4
ENDBRANCH   2   3
ENDBRANCH   1   2
BRANCH   1  75
ATOM     75  C   UNL A   1      34.529  31.878  27.880  1.00  0.00     0.188 C 
BRANCH  75  76
ATOM     76  C   UNL A   1      33.369  30.911  27.545  1.00  0.00     0.188 C 
BRANCH  76  77
ATOM     77  O   UNL A   1      33.652  30.026  26.474  1.00  0.00    -0.376 OA
BRANCH  77  78
ATOM     78  C   UNL A   1      34.140  28.735  26.811  1.00  0.00     0.202 C 
BRANCH  78  79
ATOM     79  C   UNL A   1      33.801  27.540  25.908  1.00  0.00     0.261 C 
BRANCH  79  80
ATOM     80  O   UNL A   1      33.063  26.473  26.516  1.00  0.00    -0.460 OA
BRANCH  80  81
ATOM     81  C   UNL A   1      31.734  26.351  26.315  1.00  0.00     0.340 C 
ATOM     82  O   UNL A   1      30.847  27.014  26.823  1.00  0.00    -0.246 OA
BRANCH  81  83
ATOM     83  C   UNL A   1      31.557  25.355  25.230  1.00  0.00     0.086 A 
ATOM     84  C   UNL A   1      31.732  24.018  25.562  1.00  0.00     0.127 A 
ATOM     85  C   UNL A   1      31.039  25.692  23.959  1.00  0.00    -0.001 A 
ATOM     86  N   UNL A   1      31.360  22.994  24.759  1.00  0.00    -0.264 NA
ATOM     87  C   UNL A   1      30.652  24.635  23.124  1.00  0.00     0.030 A 
ATOM     88  C   UNL A   1      30.815  23.327  23.567  1.00  0.00     0.111 A 
BRANCH  85  89
ATOM     89  C   UNL A   1      30.896  27.105  23.547  1.00  0.00    -0.017 A 
ATOM     90  C   UNL A   1      31.949  27.834  22.980  1.00  0.00     0.009 A 
ATOM     91  C   UNL A   1      29.622  27.703  23.579  1.00  0.00     0.021 A 
ATOM     92  C   UNL A   1      31.718  29.089  22.406  1.00  0.00     0.001 A 
ATOM     93  C   UNL A   1      29.356  28.904  22.912  1.00  0.00     0.056 A 
ATOM     94  C   UNL A   1      30.423  29.609  22.349  1.00  0.00     0.013 A 
BRANCH  93  95
ATOM     95  C   UNL A   1      27.930  29.367  22.751  1.00  0.00     0.416 C 
ATOM     96  F   UNL A   1      27.651  29.799  21.493  1.00  0.00    -0.166 F 
ATOM     97  F   UNL A   1      27.028  28.384  23.028  1.00  0.00    -0.166 F 
ATOM     98  F   UNL A   1      27.607  30.398  23.584  1.00  0.00    -0.166 F 
ENDBRANCH  93  95
ENDBRANCH  85  89
ENDBRANCH  81  83
ENDBRANCH  80  81
ENDBRANCH  79  80
ENDBRANCH  78  79
ENDBRANCH  77  78
ENDBRANCH  76  77
ENDBRANCH  75  76
ENDBRANCH   1  75
TORSDOF 22
ENDMDL
