MODEL 1
REMARK VINA RESULT:     -11.0      0.000      0.000
REMARK SMILES CS(=O)(=O)c1ccc(N2N=C(C(=O)OCCOCCOCCOCCOC(=O)c3ccc(-c4c5nc(c(-c6c(F)c(F)c(F)c(F)c6F)c6ccc([nH]6)c(-c6c(F)c(F)c(F)c(F)c6F)c6nc(c(-c7c(F)c(F)c(F)c(F)c7F)c7ccc4[nH]7)C=C6)C=C5)cc3)C[C@H]2c2cccs2)cc1
REMARK SMILES IDX 20 1 19 2 18 3 17 4 16 5 15 6 14 7 12 8 13 9 11 10 9 11
REMARK SMILES IDX 10 12 93 13 92 14 8 15 5 16 6 17 100 18 7 19 99 20 2 21 1 22
REMARK SMILES IDX 3 23 4 24 94 25 95 26 98 27 96 28 97 29 21 30 22 31 23 32
REMARK SMILES IDX 24 33 25 34 26 35 27 36 28 37 29 38 30 39 91 40 31 41 90 42
REMARK SMILES IDX 32 43 33 44 34 45 84 46 35 47 89 48 83 49 85 50 36 51 88 52
REMARK SMILES IDX 82 53 81 54 37 56 69 57 49 58 68 59 50 60 53 61 67 62 86 63
REMARK SMILES IDX 51 64 52 65 66 67 87 68 54 69 38 70 39 71 47 72 40 73 41 74
REMARK SMILES IDX 45 75 48 76 42 77 43 78 46 79 44 80 70 81 71 82 79 83 72 84
REMARK SMILES IDX 73 85 77 86 80 87 74 88 75 89 78 90 76 91 55 92 56 93 64 94
REMARK SMILES IDX 57 95 58 96 62 97 65 98 59 99 60 100 63 101 61 102
REMARK H PARENT 85 55 53 66
REMARK Flexibility Score: inf
ROOT
ATOM      1  O   UNL A   1      35.163  22.968  26.586  1.00  0.00    -0.377 OA
ENDROOT
BRANCH   1   2
ATOM      2  C   UNL A   1      34.445  21.829  27.041  1.00  0.00     0.188 C 
BRANCH   2   3
ATOM      3  C   UNL A   1      33.935  20.892  25.931  1.00  0.00     0.188 C 
BRANCH   3   4
ATOM      4  O   UNL A   1      32.586  21.147  25.579  1.00  0.00    -0.376 OA
BRANCH   4   5
ATOM      5  C   UNL A   1      32.145  20.993  24.242  1.00  0.00     0.202 C 
BRANCH   5   6
ATOM      6  C   UNL A   1      32.711  21.821  23.074  1.00  0.00     0.261 C 
BRANCH   6   7
ATOM      7  O   UNL A   1      33.269  23.089  23.413  1.00  0.00    -0.459 OA
BRANCH   7   8
ATOM      8  C   UNL A   1      32.971  24.124  22.614  1.00  0.00     0.354 C 
ATOM      9  O   UNL A   1      33.274  24.281  21.449  1.00  0.00    -0.245 OA
BRANCH   8  10
ATOM     10  C   UNL A   1      32.034  25.031  23.371  1.00  0.00     0.148 C 
ATOM     11  N   UNL A   1      30.715  26.622  23.823  1.00  0.00    -0.256 N 
ATOM     12  N   UNL A   1      31.404  26.019  22.809  1.00  0.00    -0.169 NA
ATOM     13  C   UNL A   1      31.208  26.190  25.150  1.00  0.00     0.154 C 
ATOM     14  C   UNL A   1      31.689  24.772  24.808  1.00  0.00     0.099 C 
BRANCH  11  15
ATOM     15  C   UNL A   1      30.057  27.813  23.552  1.00  0.00     0.060 A 
ATOM     16  C   UNL A   1      28.740  30.254  23.051  1.00  0.00     0.067 A 
ATOM     17  C   UNL A   1      30.054  30.262  23.521  1.00  0.00     0.022 A 
ATOM     18  C   UNL A   1      28.070  29.045  22.860  1.00  0.00     0.022 A 
ATOM     19  C   UNL A   1      30.703  29.042  23.765  1.00  0.00     0.029 A 
ATOM     20  C   UNL A   1      28.724  27.842  23.131  1.00  0.00     0.029 A 
BRANCH  16  21
ATOM     21  S   UNL A   1      27.880  31.774  22.719  1.00  0.00     0.175 S 
ATOM     22  C   UNL A   1      29.095  33.054  22.873  1.00  0.00     0.163 C 
ATOM     23  O   UNL A   1      26.903  31.945  23.776  1.00  0.00    -0.224 OA
ATOM     24  O   UNL A   1      27.479  31.747  21.325  1.00  0.00    -0.224 OA
ENDBRANCH  16  21
ENDBRANCH  11  15
BRANCH  13  25
ATOM     25  C   UNL A   1      32.292  27.046  25.800  1.00  0.00     0.030 A 
ATOM     26  C   UNL A   1      33.617  27.155  25.408  1.00  0.00     0.017 A 
ATOM     27  S   UNL A   1      32.000  28.024  27.189  1.00  0.00    -0.147 S 
ATOM     28  C   UNL A   1      34.378  28.010  26.257  1.00  0.00     0.012 A 
ATOM     29  C   UNL A   1      33.607  28.577  27.242  1.00  0.00     0.065 A 
ENDBRANCH  13  25
ENDBRANCH   8  10
ENDBRANCH   7   8
ENDBRANCH   6   7
ENDBRANCH   5   6
ENDBRANCH   4   5
ENDBRANCH   3   4
ENDBRANCH   2   3
ENDBRANCH   1   2
BRANCH   1  30
ATOM     30  C   UNL A   1      35.715  22.953  25.266  1.00  0.00     0.188 C 
BRANCH  30  31
ATOM     31  C   UNL A   1      36.976  22.136  24.888  1.00  0.00     0.188 C 
BRANCH  31  32
ATOM     32  O   UNL A   1      37.768  21.718  25.987  1.00  0.00    -0.376 OA
BRANCH  32  33
ATOM     33  C   UNL A   1      39.134  21.417  25.760  1.00  0.00     0.202 C 
BRANCH  33  34
ATOM     34  C   UNL A   1      39.492  19.936  25.574  1.00  0.00     0.261 C 
BRANCH  34  35
ATOM     35  O   UNL A   1      40.447  19.400  26.504  1.00  0.00    -0.460 OA
BRANCH  35  36
ATOM     36  C   UNL A   1      41.738  19.370  26.115  1.00  0.00     0.338 C 
ATOM     37  O   UNL A   1      42.302  18.485  25.491  1.00  0.00    -0.246 OA
BRANCH  36  38
ATOM     38  C   UNL A   1      42.330  20.690  26.410  1.00  0.00     0.060 A 
ATOM     39  C   UNL A   1      42.290  21.172  27.724  1.00  0.00     0.016 A 
ATOM     40  C   UNL A   1      42.918  21.448  25.395  1.00  0.00     0.016 A 
ATOM     41  C   UNL A   1      42.801  22.436  28.018  1.00  0.00     0.010 A 
ATOM     42  C   UNL A   1      43.414  22.721  25.688  1.00  0.00     0.010 A 
ATOM     43  C   UNL A   1      43.323  23.236  26.993  1.00  0.00    -0.014 A 
BRANCH  43  44
ATOM     44  C   UNL A   1      43.590  24.673  27.250  1.00  0.00     0.031 A 
ATOM     45  C   UNL A   1      44.975  25.202  26.990  1.00  0.00     0.074 A 
ATOM     46  C   UNL A   1      42.620  25.503  27.671  1.00  0.00     0.049 A 
ATOM     47  N   UNL A   1      45.453  26.409  27.158  1.00  0.00    -0.248 NA
ATOM     48  C   UNL A   1      45.955  24.233  26.473  1.00  0.00     0.031 C 
ATOM     49  C   UNL A   1      41.232  25.124  27.919  1.00  0.00     0.029 A 
ATOM     50  N   UNL A   1      42.662  26.844  27.965  1.00  0.00    -0.354 N 
ATOM     51  C   UNL A   1      46.786  26.342  26.771  1.00  0.00     0.074 A 
ATOM     52  C   UNL A   1      47.052  24.970  26.398  1.00  0.00     0.031 C 
ATOM     53  C   UNL A   1      40.553  26.206  28.337  1.00  0.00     0.029 A 
ATOM     54  C   UNL A   1      41.466  27.346  28.414  1.00  0.00     0.049 A 
ATOM     55  H   UNL A   1      43.473  27.392  27.864  1.00  0.00     0.167 HD
ATOM     56  C   UNL A   1      47.701  27.338  26.717  1.00  0.00     0.037 A 
ATOM     57  C   UNL A   1      41.153  28.581  28.856  1.00  0.00     0.037 A 
ATOM     58  C   UNL A   1      47.436  28.703  27.093  1.00  0.00     0.049 A 
ATOM     59  C   UNL A   1      42.214  29.655  28.864  1.00  0.00     0.074 A 
ATOM     60  C   UNL A   1      48.293  29.789  27.059  1.00  0.00     0.029 A 
ATOM     61  N   UNL A   1      46.223  29.165  27.583  1.00  0.00    -0.354 N 
ATOM     62  N   UNL A   1      43.462  29.593  28.468  1.00  0.00    -0.248 NA
ATOM     63  C   UNL A   1      41.815  30.973  29.378  1.00  0.00     0.031 C 
ATOM     64  C   UNL A   1      47.618  30.894  27.591  1.00  0.00     0.029 A 
ATOM     65  C   UNL A   1      46.319  30.515  27.887  1.00  0.00     0.049 A 
ATOM     66  H   UNL A   1      45.415  28.617  27.697  1.00  0.00     0.167 HD
ATOM     67  C   UNL A   1      43.988  30.867  28.654  1.00  0.00     0.074 A 
ATOM     68  C   UNL A   1      42.915  31.685  29.181  1.00  0.00     0.031 C 
ATOM     69  C   UNL A   1      45.244  31.319  28.411  1.00  0.00     0.037 A 
BRANCH  56  70
ATOM     70  C   UNL A   1      49.089  26.979  26.266  1.00  0.00     0.064 A 
ATOM     71  C   UNL A   1      50.077  26.558  27.169  1.00  0.00     0.173 A 
ATOM     72  C   UNL A   1      49.428  27.036  24.906  1.00  0.00     0.173 A 
ATOM     73  F   UNL A   1      49.811  26.500  28.483  1.00  0.00    -0.203 F 
ATOM     74  C   UNL A   1      51.361  26.241  26.731  1.00  0.00     0.198 A 
ATOM     75  C   UNL A   1      50.702  26.684  24.468  1.00  0.00     0.198 A 
ATOM     76  F   UNL A   1      48.522  27.430  23.998  1.00  0.00    -0.203 F 
ATOM     77  F   UNL A   1      52.305  25.897  27.619  1.00  0.00    -0.200 F 
ATOM     78  C   UNL A   1      51.669  26.297  25.381  1.00  0.00     0.200 A 
ATOM     79  F   UNL A   1      50.994  26.726  23.159  1.00  0.00    -0.200 F 
ATOM     80  F   UNL A   1      52.904  25.986  24.961  1.00  0.00    -0.200 F 
ENDBRANCH  56  70
BRANCH  57  81
ATOM     81  C   UNL A   1      39.778  28.874  29.339  1.00  0.00     0.064 A 
ATOM     82  C   UNL A   1      39.424  28.679  30.683  1.00  0.00     0.173 A 
ATOM     83  C   UNL A   1      38.779  29.326  28.464  1.00  0.00     0.173 A 
ATOM     84  F   UNL A   1      40.334  28.221  31.555  1.00  0.00    -0.203 F 
ATOM     85  C   UNL A   1      38.121  28.902  31.126  1.00  0.00     0.198 A 
ATOM     86  C   UNL A   1      37.485  29.582  28.914  1.00  0.00     0.198 A 
ATOM     87  F   UNL A   1      39.061  29.526  27.168  1.00  0.00    -0.203 F 
ATOM     88  F   UNL A   1      37.798  28.654  32.401  1.00  0.00    -0.200 F 
ATOM     89  C   UNL A   1      37.155  29.359  30.242  1.00  0.00     0.200 A 
ATOM     90  F   UNL A   1      36.559  30.035  28.060  1.00  0.00    -0.200 F 
ATOM     91  F   UNL A   1      35.903  29.577  30.669  1.00  0.00    -0.200 F 
ENDBRANCH  57  81
BRANCH  69  92
ATOM     92  C   UNL A   1      45.519  32.774  28.676  1.00  0.00     0.064 A 
ATOM     93  C   UNL A   1      46.158  33.207  29.848  1.00  0.00     0.173 A 
ATOM     94  C   UNL A   1      45.163  33.748  27.729  1.00  0.00     0.173 A 
ATOM     95  F   UNL A   1      46.510  32.321  30.792  1.00  0.00    -0.203 F 
ATOM     96  C   UNL A   1      46.393  34.561  30.079  1.00  0.00     0.198 A 
ATOM     97  C   UNL A   1      45.434  35.096  27.946  1.00  0.00     0.198 A 
ATOM     98  F   UNL A   1      44.560  33.390  26.585  1.00  0.00    -0.203 F 
ATOM     99  F   UNL A   1      46.946  34.954  31.234  1.00  0.00    -0.200 F 
ATOM    100  C   UNL A   1      46.038  35.503  29.126  1.00  0.00     0.200 A 
ATOM    101  F   UNL A   1      45.106  36.002  27.014  1.00  0.00    -0.200 F 
ATOM    102  F   UNL A   1      46.268  36.804  29.348  1.00  0.00    -0.200 F 
ENDBRANCH  69  92
ENDBRANCH  43  44
ENDBRANCH  36  38
ENDBRANCH  35  36
ENDBRANCH  34  35
ENDBRANCH  33  34
ENDBRANCH  32  33
ENDBRANCH  31  32
ENDBRANCH  30  31
ENDBRANCH   1  30
TORSDOF 23
ENDMDL
MODEL 2
REMARK VINA RESULT:     -10.8      0.956      7.074
REMARK SMILES CS(=O)(=O)c1ccc(N2N=C(C(=O)OCCOCCOCCOCCOC(=O)c3ccc(-c4c5nc(c(-c6c(F)c(F)c(F)c(F)c6F)c6ccc([nH]6)c(-c6c(F)c(F)c(F)c(F)c6F)c6nc(c(-c7c(F)c(F)c(F)c(F)c7F)c7ccc4[nH]7)C=C6)C=C5)cc3)C[C@H]2c2cccs2)cc1
REMARK SMILES IDX 20 1 19 2 18 3 17 4 16 5 15 6 14 7 12 8 13 9 11 10 9 11
REMARK SMILES IDX 10 12 93 13 92 14 8 15 5 16 6 17 100 18 7 19 99 20 2 21 1 22
REMARK SMILES IDX 3 23 4 24 94 25 95 26 98 27 96 28 97 29 21 30 22 31 23 32
REMARK SMILES IDX 24 33 25 34 26 35 27 36 28 37 29 38 30 39 91 40 31 41 90 42
REMARK SMILES IDX 32 43 33 44 34 45 84 46 35 47 89 48 83 49 85 50 36 51 88 52
REMARK SMILES IDX 82 53 81 54 37 56 69 57 49 58 68 59 50 60 53 61 67 62 86 63
REMARK SMILES IDX 51 64 52 65 66 67 87 68 54 69 38 70 39 71 47 72 40 73 41 74
REMARK SMILES IDX 45 75 48 76 42 77 43 78 46 79 44 80 70 81 71 82 79 83 72 84
REMARK SMILES IDX 73 85 77 86 80 87 74 88 75 89 78 90 76 91 55 92 56 93 64 94
REMARK SMILES IDX 57 95 58 96 62 97 65 98 59 99 60 100 63 101 61 102
REMARK H PARENT 85 55 53 66
REMARK Flexibility Score: inf
ROOT
ATOM      1  O   UNL A   1      34.856  23.057  26.559  1.00  0.00    -0.377 OA
ENDROOT
BRANCH   1   2
ATOM      2  C   UNL A   1      34.561  21.697  26.850  1.00  0.00     0.188 C 
BRANCH   2   3
ATOM      3  C   UNL A   1      34.012  20.880  25.665  1.00  0.00     0.188 C 
BRANCH   3   4
ATOM      4  O   UNL A   1      32.668  21.203  25.356  1.00  0.00    -0.376 OA
BRANCH   4   5
ATOM      5  C   UNL A   1      32.194  21.133  24.023  1.00  0.00     0.202 C 
BRANCH   5   6
ATOM      6  C   UNL A   1      32.943  21.766  22.835  1.00  0.00     0.261 C 
BRANCH   6   7
ATOM      7  O   UNL A   1      33.429  23.091  23.031  1.00  0.00    -0.459 OA
BRANCH   7   8
ATOM      8  C   UNL A   1      33.019  24.030  22.165  1.00  0.00     0.354 C 
ATOM      9  O   UNL A   1      33.262  24.109  20.978  1.00  0.00    -0.245 OA
BRANCH   8  10
ATOM     10  C   UNL A   1      32.045  24.925  22.888  1.00  0.00     0.148 C 
ATOM     11  N   UNL A   1      30.737  26.533  23.314  1.00  0.00    -0.256 N 
ATOM     12  N   UNL A   1      31.497  25.963  22.330  1.00  0.00    -0.169 NA
ATOM     13  C   UNL A   1      31.096  26.011  24.651  1.00  0.00     0.154 C 
ATOM     14  C   UNL A   1      31.564  24.598  24.271  1.00  0.00     0.099 C 
BRANCH  11  15
ATOM     15  C   UNL A   1      30.141  27.759  23.055  1.00  0.00     0.060 A 
ATOM     16  C   UNL A   1      28.886  30.222  22.509  1.00  0.00     0.067 A 
ATOM     17  C   UNL A   1      28.164  29.202  23.130  1.00  0.00     0.022 A 
ATOM     18  C   UNL A   1      30.212  30.013  22.130  1.00  0.00     0.022 A 
ATOM     19  C   UNL A   1      28.798  27.980  23.402  1.00  0.00     0.029 A 
ATOM     20  C   UNL A   1      30.819  28.783  22.387  1.00  0.00     0.029 A 
BRANCH  16  21
ATOM     21  S   UNL A   1      28.128  31.790  22.154  1.00  0.00     0.175 S 
ATOM     22  C   UNL A   1      29.219  33.012  22.826  1.00  0.00     0.163 C 
ATOM     23  O   UNL A   1      26.883  31.835  22.895  1.00  0.00    -0.224 OA
ATOM     24  O   UNL A   1      28.149  31.962  20.713  1.00  0.00    -0.224 OA
ENDBRANCH  16  21
ENDBRANCH  11  15
BRANCH  13  25
ATOM     25  C   UNL A   1      32.142  26.792  25.444  1.00  0.00     0.030 A 
ATOM     26  C   UNL A   1      33.502  26.539  25.505  1.00  0.00     0.017 A 
ATOM     27  S   UNL A   1      31.743  28.148  26.430  1.00  0.00    -0.147 S 
ATOM     28  C   UNL A   1      34.194  27.433  26.373  1.00  0.00     0.012 A 
ATOM     29  C   UNL A   1      33.358  28.383  26.908  1.00  0.00     0.065 A 
ENDBRANCH  13  25
ENDBRANCH   8  10
ENDBRANCH   7   8
ENDBRANCH   6   7
ENDBRANCH   5   6
ENDBRANCH   4   5
ENDBRANCH   3   4
ENDBRANCH   2   3
ENDBRANCH   1   2
BRANCH   1  30
ATOM     30  C   UNL A   1      35.558  23.367  25.351  1.00  0.00     0.188 C 
BRANCH  30  31
ATOM     31  C   UNL A   1      36.942  22.765  25.001  1.00  0.00     0.188 C 
BRANCH  31  32
ATOM     32  O   UNL A   1      37.676  22.270  26.110  1.00  0.00    -0.376 OA
BRANCH  32  33
ATOM     33  C   UNL A   1      39.055  21.996  25.939  1.00  0.00     0.202 C 
BRANCH  33  34
ATOM     34  C   UNL A   1      39.432  20.550  25.587  1.00  0.00     0.261 C 
BRANCH  34  35
ATOM     35  O   UNL A   1      40.271  19.872  26.536  1.00  0.00    -0.460 OA
BRANCH  35  36
ATOM     36  C   UNL A   1      41.568  19.708  26.207  1.00  0.00     0.338 C 
ATOM     37  O   UNL A   1      42.058  18.795  25.562  1.00  0.00    -0.246 OA
BRANCH  36  38
ATOM     38  C   UNL A   1      42.293  20.932  26.602  1.00  0.00     0.060 A 
ATOM     39  C   UNL A   1      42.248  21.345  27.939  1.00  0.00     0.016 A 
ATOM     40  C   UNL A   1      43.010  21.669  25.657  1.00  0.00     0.016 A 
ATOM     41  C   UNL A   1      42.886  22.523  28.327  1.00  0.00     0.010 A 
ATOM     42  C   UNL A   1      43.634  22.858  26.043  1.00  0.00     0.010 A 
ATOM     43  C   UNL A   1      43.543  23.310  27.372  1.00  0.00    -0.014 A 
BRANCH  43  44
ATOM     44  C   UNL A   1      43.960  24.691  27.723  1.00  0.00     0.031 A 
ATOM     45  C   UNL A   1      42.892  25.703  28.039  1.00  0.00     0.074 A 
ATOM     46  C   UNL A   1      45.258  25.035  27.795  1.00  0.00     0.049 A 
ATOM     47  N   UNL A   1      43.008  26.969  28.351  1.00  0.00    -0.248 NA
ATOM     48  C   UNL A   1      41.504  25.219  27.994  1.00  0.00     0.031 C 
ATOM     49  C   UNL A   1      46.385  24.138  27.551  1.00  0.00     0.029 A 
ATOM     50  N   UNL A   1      45.843  26.241  28.094  1.00  0.00    -0.354 N 
ATOM     51  C   UNL A   1      41.711  27.431  28.536  1.00  0.00     0.074 A 
ATOM     52  C   UNL A   1      40.823  26.322  28.262  1.00  0.00     0.031 C 
ATOM     53  C   UNL A   1      47.529  24.827  27.704  1.00  0.00     0.029 A 
ATOM     54  C   UNL A   1      47.214  26.219  28.025  1.00  0.00     0.049 A 
ATOM     55  H   UNL A   1      45.328  27.044  28.335  1.00  0.00     0.167 HD
ATOM     56  C   UNL A   1      41.298  28.664  28.912  1.00  0.00     0.037 A 
ATOM     57  C   UNL A   1      48.108  27.216  28.183  1.00  0.00     0.037 A 
ATOM     58  C   UNL A   1      42.183  29.767  29.180  1.00  0.00     0.049 A 
ATOM     59  C   UNL A   1      47.617  28.602  28.522  1.00  0.00     0.074 A 
ATOM     60  C   UNL A   1      41.864  31.051  29.583  1.00  0.00     0.029 A 
ATOM     61  N   UNL A   1      43.565  29.719  29.059  1.00  0.00    -0.354 N 
ATOM     62  N   UNL A   1      46.392  29.024  28.725  1.00  0.00    -0.248 NA
ATOM     63  C   UNL A   1      48.640  29.649  28.659  1.00  0.00     0.031 C 
ATOM     64  C   UNL A   1      43.046  31.798  29.642  1.00  0.00     0.029 A 
ATOM     65  C   UNL A   1      44.109  30.961  29.347  1.00  0.00     0.049 A 
ATOM     66  H   UNL A   1      44.081  28.920  28.806  1.00  0.00     0.167 HD
ATOM     67  C   UNL A   1      46.499  30.374  29.044  1.00  0.00     0.074 A 
ATOM     68  C   UNL A   1      47.911  30.693  29.026  1.00  0.00     0.031 C 
ATOM     69  C   UNL A   1      45.517  31.267  29.327  1.00  0.00     0.037 A 
BRANCH  56  70
ATOM     70  C   UNL A   1      39.818  28.893  29.025  1.00  0.00     0.064 A 
ATOM     71  C   UNL A   1      39.041  29.279  27.921  1.00  0.00     0.173 A 
ATOM     72  C   UNL A   1      39.162  28.704  30.251  1.00  0.00     0.173 A 
ATOM     73  F   UNL A   1      39.618  29.489  26.729  1.00  0.00    -0.203 F 
ATOM     74  C   UNL A   1      37.671  29.498  28.050  1.00  0.00     0.198 A 
ATOM     75  C   UNL A   1      37.788  28.889  30.367  1.00  0.00     0.198 A 
ATOM     76  F   UNL A   1      39.855  28.333  31.339  1.00  0.00    -0.203 F 
ATOM     77  F   UNL A   1      36.960  29.921  26.996  1.00  0.00    -0.200 F 
ATOM     78  C   UNL A   1      37.045  29.295  29.270  1.00  0.00     0.200 A 
ATOM     79  F   UNL A   1      37.182  28.678  31.545  1.00  0.00    -0.200 F 
ATOM     80  F   UNL A   1      35.726  29.500  29.391  1.00  0.00    -0.200 F 
ENDBRANCH  56  70
BRANCH  57  81
ATOM     81  C   UNL A   1      49.561  26.949  28.012  1.00  0.00     0.064 A 
ATOM     82  C   UNL A   1      50.170  27.027  26.751  1.00  0.00     0.173 A 
ATOM     83  C   UNL A   1      50.366  26.580  29.100  1.00  0.00     0.173 A 
ATOM     84  F   UNL A   1      49.438  27.348  25.674  1.00  0.00    -0.203 F 
ATOM     85  C   UNL A   1      51.520  26.725  26.581  1.00  0.00     0.198 A 
ATOM     86  C   UNL A   1      51.723  26.311  28.936  1.00  0.00     0.198 A 
ATOM     87  F   UNL A   1      49.835  26.486  30.328  1.00  0.00    -0.203 F 
ATOM     88  F   UNL A   1      52.061  26.754  25.357  1.00  0.00    -0.200 F 
ATOM     89  C   UNL A   1      52.297  26.373  27.675  1.00  0.00     0.200 A 
ATOM     90  F   UNL A   1      52.472  25.984  29.997  1.00  0.00    -0.200 F 
ATOM     91  F   UNL A   1      53.595  26.086  27.512  1.00  0.00    -0.200 F 
ENDBRANCH  57  81
BRANCH  69  92
ATOM     92  C   UNL A   1      45.937  32.668  29.677  1.00  0.00     0.064 A 
ATOM     93  C   UNL A   1      46.040  33.677  28.707  1.00  0.00     0.173 A 
ATOM     94  C   UNL A   1      46.215  33.014  31.009  1.00  0.00     0.173 A 
ATOM     95  F   UNL A   1      45.797  33.400  27.416  1.00  0.00    -0.203 F 
ATOM     96  C   UNL A   1      46.442  34.966  29.051  1.00  0.00     0.198 A 
ATOM     97  C   UNL A   1      46.578  34.313  31.356  1.00  0.00     0.198 A 
ATOM     98  F   UNL A   1      46.122  32.093  31.981  1.00  0.00    -0.203 F 
ATOM     99  F   UNL A   1      46.593  35.894  28.097  1.00  0.00    -0.200 F 
ATOM    100  C   UNL A   1      46.704  35.284  30.374  1.00  0.00     0.200 A 
ATOM    101  F   UNL A   1      46.813  34.622  32.638  1.00  0.00    -0.200 F 
ATOM    102  F   UNL A   1      47.086  36.525  30.704  1.00  0.00    -0.200 F 
ENDBRANCH  69  92
ENDBRANCH  43  44
ENDBRANCH  36  38
ENDBRANCH  35  36
ENDBRANCH  34  35
ENDBRANCH  33  34
ENDBRANCH  32  33
ENDBRANCH  31  32
ENDBRANCH  30  31
ENDBRANCH   1  30
TORSDOF 23
ENDMDL
MODEL 3
REMARK VINA RESULT:     -10.3      1.915      7.392
REMARK SMILES CS(=O)(=O)c1ccc(N2N=C(C(=O)OCCOCCOCCOCCOC(=O)c3ccc(-c4c5nc(c(-c6c(F)c(F)c(F)c(F)c6F)c6ccc([nH]6)c(-c6c(F)c(F)c(F)c(F)c6F)c6nc(c(-c7c(F)c(F)c(F)c(F)c7F)c7ccc4[nH]7)C=C6)C=C5)cc3)C[C@H]2c2cccs2)cc1
REMARK SMILES IDX 20 1 19 2 18 3 17 4 16 5 15 6 14 7 12 8 13 9 11 10 9 11
REMARK SMILES IDX 10 12 93 13 92 14 8 15 5 16 6 17 100 18 7 19 99 20 2 21 1 22
REMARK SMILES IDX 3 23 4 24 94 25 95 26 98 27 96 28 97 29 21 30 22 31 23 32
REMARK SMILES IDX 24 33 25 34 26 35 27 36 28 37 29 38 30 39 91 40 31 41 90 42
REMARK SMILES IDX 32 43 33 44 34 45 84 46 35 47 89 48 83 49 85 50 36 51 88 52
REMARK SMILES IDX 82 53 81 54 37 56 69 57 49 58 68 59 50 60 53 61 67 62 86 63
REMARK SMILES IDX 51 64 52 65 66 67 87 68 54 69 38 70 39 71 47 72 40 73 41 74
REMARK SMILES IDX 45 75 48 76 42 77 43 78 46 79 44 80 70 81 71 82 79 83 72 84
REMARK SMILES IDX 73 85 77 86 80 87 74 88 75 89 78 90 76 91 55 92 56 93 64 94
REMARK SMILES IDX 57 95 58 96 62 97 65 98 59 99 60 100 63 101 61 102
REMARK H PARENT 85 55 53 66
REMARK Flexibility Score: inf
ROOT
ATOM      1  O   UNL A   1      35.028  23.016  26.307  1.00  0.00    -0.377 OA
ENDROOT
BRANCH   1   2
ATOM      2  C   UNL A   1      34.759  21.735  25.753  1.00  0.00     0.188 C 
BRANCH   2   3
ATOM      3  C   UNL A   1      34.101  21.750  24.361  1.00  0.00     0.188 C 
BRANCH   3   4
ATOM      4  O   UNL A   1      32.905  22.509  24.333  1.00  0.00    -0.376 OA
BRANCH   4   5
ATOM      5  C   UNL A   1      32.294  22.853  23.101  1.00  0.00     0.202 C 
BRANCH   5   6
ATOM      6  C   UNL A   1      33.101  23.224  21.843  1.00  0.00     0.261 C 
BRANCH   6   7
ATOM      7  O   UNL A   1      33.728  24.504  21.850  1.00  0.00    -0.459 OA
BRANCH   7   8
ATOM      8  C   UNL A   1      33.088  25.505  21.229  1.00  0.00     0.354 C 
ATOM      9  O   UNL A   1      32.911  25.653  20.036  1.00  0.00    -0.245 OA
BRANCH   8  10
ATOM     10  C   UNL A   1      32.464  26.377  22.288  1.00  0.00     0.148 C 
ATOM     11  N   UNL A   1      32.240  27.812  23.826  1.00  0.00    -0.256 N 
ATOM     12  N   UNL A   1      33.128  27.294  22.925  1.00  0.00    -0.169 NA
ATOM     13  C   UNL A   1      31.057  26.938  23.990  1.00  0.00     0.154 C 
ATOM     14  C   UNL A   1      30.996  26.306  22.591  1.00  0.00     0.099 C 
BRANCH  11  15
ATOM     15  C   UNL A   1      32.711  28.722  24.762  1.00  0.00     0.060 A 
ATOM     16  C   UNL A   1      33.687  30.526  26.694  1.00  0.00     0.067 A 
ATOM     17  C   UNL A   1      34.498  29.479  26.255  1.00  0.00     0.022 A 
ATOM     18  C   UNL A   1      32.388  30.660  26.205  1.00  0.00     0.022 A 
ATOM     19  C   UNL A   1      34.006  28.588  25.290  1.00  0.00     0.029 A 
ATOM     20  C   UNL A   1      31.906  29.749  25.263  1.00  0.00     0.029 A 
BRANCH  16  21
ATOM     21  S   UNL A   1      34.271  31.686  27.908  1.00  0.00     0.175 S 
ATOM     22  C   UNL A   1      33.000  32.910  28.051  1.00  0.00     0.163 C 
ATOM     23  O   UNL A   1      35.452  32.319  27.353  1.00  0.00    -0.224 OA
ATOM     24  O   UNL A   1      34.322  30.989  29.180  1.00  0.00    -0.224 OA
ENDBRANCH  16  21
ENDBRANCH  11  15
BRANCH  13  25
ATOM     25  C   UNL A   1      31.107  25.903  25.110  1.00  0.00     0.030 A 
ATOM     26  C   UNL A   1      30.058  25.130  25.580  1.00  0.00     0.017 A 
ATOM     27  S   UNL A   1      32.545  25.554  25.994  1.00  0.00    -0.147 S 
ATOM     28  C   UNL A   1      30.432  24.288  26.667  1.00  0.00     0.012 A 
ATOM     29  C   UNL A   1      31.768  24.393  26.964  1.00  0.00     0.065 A 
ENDBRANCH  13  25
ENDBRANCH   8  10
ENDBRANCH   7   8
ENDBRANCH   6   7
ENDBRANCH   5   6
ENDBRANCH   4   5
ENDBRANCH   3   4
ENDBRANCH   2   3
ENDBRANCH   1   2
BRANCH   1  30
ATOM     30  C   UNL A   1      36.065  23.814  25.729  1.00  0.00     0.188 C 
BRANCH  30  31
ATOM     31  C   UNL A   1      37.395  23.216  25.202  1.00  0.00     0.188 C 
BRANCH  31  32
ATOM     32  O   UNL A   1      37.735  21.949  25.741  1.00  0.00    -0.376 OA
BRANCH  32  33
ATOM     33  C   UNL A   1      39.098  21.673  26.010  1.00  0.00     0.202 C 
BRANCH  33  34
ATOM     34  C   UNL A   1      39.588  20.251  25.703  1.00  0.00     0.261 C 
BRANCH  34  35
ATOM     35  O   UNL A   1      40.497  19.681  26.658  1.00  0.00    -0.460 OA
BRANCH  35  36
ATOM     36  C   UNL A   1      41.775  19.503  26.263  1.00  0.00     0.338 C 
ATOM     37  O   UNL A   1      42.237  18.547  25.662  1.00  0.00    -0.246 OA
BRANCH  36  38
ATOM     38  C   UNL A   1      42.506  20.760  26.517  1.00  0.00     0.060 A 
ATOM     39  C   UNL A   1      42.589  21.243  27.829  1.00  0.00     0.016 A 
ATOM     40  C   UNL A   1      43.101  21.461  25.466  1.00  0.00     0.016 A 
ATOM     41  C   UNL A   1      43.235  22.452  28.087  1.00  0.00     0.010 A 
ATOM     42  C   UNL A   1      43.732  22.681  25.723  1.00  0.00     0.010 A 
ATOM     43  C   UNL A   1      43.768  23.201  27.029  1.00  0.00    -0.014 A 
BRANCH  43  44
ATOM     44  C   UNL A   1      44.185  24.606  27.264  1.00  0.00     0.031 A 
ATOM     45  C   UNL A   1      43.164  25.576  27.792  1.00  0.00     0.074 A 
ATOM     46  C   UNL A   1      45.449  25.008  27.047  1.00  0.00     0.049 A 
ATOM     47  N   UNL A   1      43.284  26.853  28.056  1.00  0.00    -0.248 NA
ATOM     48  C   UNL A   1      41.823  25.031  28.057  1.00  0.00     0.031 C 
ATOM     49  C   UNL A   1      46.538  24.157  26.576  1.00  0.00     0.029 A 
ATOM     50  N   UNL A   1      46.027  26.245  27.197  1.00  0.00    -0.354 N 
ATOM     51  C   UNL A   1      42.037  27.261  28.512  1.00  0.00     0.074 A 
ATOM     52  C   UNL A   1      41.164  26.109  28.453  1.00  0.00     0.031 C 
ATOM     53  C   UNL A   1      47.654  24.899  26.468  1.00  0.00     0.029 A 
ATOM     54  C   UNL A   1      47.350  26.283  26.832  1.00  0.00     0.049 A 
ATOM     55  H   UNL A   1      45.539  27.030  27.535  1.00  0.00     0.167 HD
ATOM     56  C   UNL A   1      41.657  28.483  28.955  1.00  0.00     0.037 A 
ATOM     57  C   UNL A   1      48.207  27.321  26.779  1.00  0.00     0.037 A 
ATOM     58  C   UNL A   1      42.525  29.630  29.009  1.00  0.00     0.049 A 
ATOM     59  C   UNL A   1      47.736  28.692  27.200  1.00  0.00     0.074 A 
ATOM     60  C   UNL A   1      42.239  30.908  29.457  1.00  0.00     0.029 A 
ATOM     61  N   UNL A   1      43.848  29.640  28.592  1.00  0.00    -0.354 N 
ATOM     62  N   UNL A   1      46.566  29.064  27.659  1.00  0.00    -0.248 NA
ATOM     63  C   UNL A   1      48.713  29.786  27.098  1.00  0.00     0.031 C 
ATOM     64  C   UNL A   1      43.369  31.707  29.248  1.00  0.00     0.029 A 
ATOM     65  C   UNL A   1      44.382  30.911  28.739  1.00  0.00     0.049 A 
ATOM     66  H   UNL A   1      44.335  28.860  28.242  1.00  0.00     0.167 HD
ATOM     67  C   UNL A   1      46.674  30.424  27.931  1.00  0.00     0.074 A 
ATOM     68  C   UNL A   1      48.032  30.805  27.602  1.00  0.00     0.031 C 
ATOM     69  C   UNL A   1      45.735  31.279  28.409  1.00  0.00     0.037 A 
BRANCH  56  70
ATOM     70  C   UNL A   1      40.226  28.649  29.384  1.00  0.00     0.064 A 
ATOM     71  C   UNL A   1      39.810  28.385  30.698  1.00  0.00     0.173 A 
ATOM     72  C   UNL A   1      39.260  29.100  28.471  1.00  0.00     0.173 A 
ATOM     73  F   UNL A   1      40.689  27.937  31.607  1.00  0.00    -0.203 F 
ATOM     74  C   UNL A   1      38.477  28.534  31.073  1.00  0.00     0.198 A 
ATOM     75  C   UNL A   1      37.936  29.281  28.858  1.00  0.00     0.198 A 
ATOM     76  F   UNL A   1      39.603  29.370  27.202  1.00  0.00    -0.203 F 
ATOM     77  F   UNL A   1      38.093  28.220  32.317  1.00  0.00    -0.200 F 
ATOM     78  C   UNL A   1      37.543  28.989  30.154  1.00  0.00     0.200 A 
ATOM     79  F   UNL A   1      37.037  29.735  27.972  1.00  0.00    -0.200 F 
ATOM     80  F   UNL A   1      36.262  29.138  30.518  1.00  0.00    -0.200 F 
ENDBRANCH  56  70
BRANCH  57  81
ATOM     81  C   UNL A   1      49.600  27.115  26.299  1.00  0.00     0.064 A 
ATOM     82  C   UNL A   1      49.917  27.194  24.935  1.00  0.00     0.173 A 
ATOM     83  C   UNL A   1      50.638  26.805  27.191  1.00  0.00     0.173 A 
ATOM     84  F   UNL A   1      48.955  27.460  24.039  1.00  0.00    -0.203 F 
ATOM     85  C   UNL A   1      51.212  26.947  24.480  1.00  0.00     0.198 A 
ATOM     86  C   UNL A   1      51.939  26.592  26.738  1.00  0.00     0.198 A 
ATOM     87  F   UNL A   1      50.391  26.713  28.506  1.00  0.00    -0.203 F 
ATOM     88  F   UNL A   1      51.473  26.975  23.167  1.00  0.00    -0.200 F 
ATOM     89  C   UNL A   1      52.222  26.653  25.382  1.00  0.00     0.200 A 
ATOM     90  F   UNL A   1      52.915  26.321  27.615  1.00  0.00    -0.200 F 
ATOM     91  F   UNL A   1      53.467  26.420  24.944  1.00  0.00    -0.200 F 
ENDBRANCH  57  81
BRANCH  69  92
ATOM     92  C   UNL A   1      46.153  32.705  28.642  1.00  0.00     0.064 A 
ATOM     93  C   UNL A   1      46.024  33.689  27.650  1.00  0.00     0.173 A 
ATOM     94  C   UNL A   1      46.667  33.100  29.888  1.00  0.00     0.173 A 
ATOM     95  F   UNL A   1      45.550  33.365  26.436  1.00  0.00    -0.203 F 
ATOM     96  C   UNL A   1      46.428  35.001  27.883  1.00  0.00     0.198 A 
ATOM     97  C   UNL A   1      47.033  34.421  30.130  1.00  0.00     0.198 A 
ATOM     98  F   UNL A   1      46.803  32.204  30.878  1.00  0.00    -0.203 F 
ATOM     99  F   UNL A   1      46.353  35.907  26.898  1.00  0.00    -0.200 F 
ATOM    100  C   UNL A   1      46.925  35.368  29.123  1.00  0.00     0.200 A 
ATOM    101  F   UNL A   1      47.497  34.776  31.337  1.00  0.00    -0.200 F 
ATOM    102  F   UNL A   1      47.309  36.632  29.347  1.00  0.00    -0.200 F 
ENDBRANCH  69  92
ENDBRANCH  43  44
ENDBRANCH  36  38
ENDBRANCH  35  36
ENDBRANCH  34  35
ENDBRANCH  33  34
ENDBRANCH  32  33
ENDBRANCH  31  32
ENDBRANCH  30  31
ENDBRANCH   1  30
TORSDOF 23
ENDMDL
