MODEL 1
REMARK VINA RESULT:     -11.0      0.000      0.000
REMARK SMILES Cc1nsc(NC(=O)c2ccc(N)cc2)c1C(=O)OCCOCCOCCOCCOC(=O)c1ccc(-c2c3nc(c(-c4c(F)c(F)c(F)c(F)c4F)c4ccc([nH]4)c(-c4c(F)c(F)c(F)c(F)c4F)c4nc(c(-c5c(F)c(F)c(F)c(F)c5F)c5ccc2[nH]5)C=C4)C=C3)cc1
REMARK SMILES IDX 24 1 23 2 22 3 21 4 20 5 19 6 17 7 18 8 16 9 1 10 2 11 3 12
REMARK SMILES IDX 4 13 5 14 6 15 7 16 8 18 9 19 10 20 15 21 11 22 14 23 12 24
REMARK SMILES IDX 13 25 25 28 26 29 27 30 28 31 29 32 30 33 31 34 32 35 33 36
REMARK SMILES IDX 34 37 35 38 96 39 36 40 95 41 37 42 38 43 39 44 89 45 40 46
REMARK SMILES IDX 94 47 88 48 90 49 41 50 93 51 87 52 86 53 42 55 74 56 54 57
REMARK SMILES IDX 73 58 55 59 58 60 72 61 91 62 56 63 57 64 71 66 92 67 59 68
REMARK SMILES IDX 43 69 44 70 52 71 45 72 46 73 50 74 53 75 47 76 48 77 51 78
REMARK SMILES IDX 49 79 75 80 76 81 84 82 77 83 78 84 82 85 85 86 79 87 80 88
REMARK SMILES IDX 83 89 81 90 60 91 61 92 69 93 62 94 63 95 67 96 70 97 64 98
REMARK SMILES IDX 65 99 68 100 66 101
REMARK H PARENT 6 17 13 26 13 27 90 54 58 65
REMARK Flexibility Score: inf
ROOT
ATOM      1  C   UNL A   1      35.961  21.138  25.287  1.00  0.00     0.188 C 
ENDROOT
BRANCH   1   2
ATOM      2  C   UNL A   1      34.762  22.023  25.687  1.00  0.00     0.188 C 
BRANCH   2   3
ATOM      3  O   UNL A   1      33.464  21.477  25.867  1.00  0.00    -0.376 OA
BRANCH   3   4
ATOM      4  C   UNL A   1      32.749  20.849  24.816  1.00  0.00     0.202 C 
BRANCH   4   5
ATOM      5  C   UNL A   1      32.405  21.548  23.487  1.00  0.00     0.261 C 
BRANCH   5   6
ATOM      6  O   UNL A   1      31.789  22.834  23.578  1.00  0.00    -0.460 OA
BRANCH   6   7
ATOM      7  C   UNL A   1      32.542  23.898  23.197  1.00  0.00     0.343 C 
ATOM      8  O   UNL A   1      33.740  23.843  22.928  1.00  0.00    -0.246 OA
BRANCH   7   9
ATOM      9  C   UNL A   1      31.724  25.064  22.902  1.00  0.00     0.117 A 
ATOM     10  C   UNL A   1      32.642  25.753  20.523  1.00  0.00     0.069 C 
ATOM     11  C   UNL A   1      31.785  25.916  21.734  1.00  0.00     0.068 A 
ATOM     12  N   UNL A   1      31.006  26.998  21.768  1.00  0.00    -0.195 NA
ATOM     13  S   UNL A   1      30.271  27.089  23.237  1.00  0.00    -0.017 S 
ATOM     14  C   UNL A   1      30.869  25.620  23.850  1.00  0.00     0.131 A 
BRANCH  14  15
ATOM     15  N   UNL A   1      30.674  25.199  25.162  1.00  0.00    -0.312 N 
ATOM     16  C   UNL A   1      31.397  25.456  26.305  1.00  0.00     0.256 C 
ATOM     17  H   UNL A   1      29.887  24.622  25.295  1.00  0.00     0.171 HD
ATOM     18  O   UNL A   1      31.413  24.636  27.222  1.00  0.00    -0.269 OA
BRANCH  16  19
ATOM     19  C   UNL A   1      32.084  26.745  26.500  1.00  0.00     0.040 A 
ATOM     20  C   UNL A   1      31.426  27.796  27.142  1.00  0.00     0.016 A 
ATOM     21  C   UNL A   1      33.404  26.898  26.073  1.00  0.00     0.016 A 
ATOM     22  C   UNL A   1      32.048  29.038  27.247  1.00  0.00     0.026 A 
ATOM     23  C   UNL A   1      34.028  28.141  26.206  1.00  0.00     0.026 A 
ATOM     24  C   UNL A   1      33.339  29.231  26.750  1.00  0.00     0.031 A 
BRANCH  24  25
ATOM     25  N   UNL A   1      33.961  30.457  26.896  1.00  0.00    -0.399 N 
ATOM     26  H   UNL A   1      33.464  31.286  26.712  1.00  0.00     0.156 HD
ATOM     27  H   UNL A   1      34.902  30.501  27.183  1.00  0.00     0.156 HD
ENDBRANCH  24  25
ENDBRANCH  16  19
ENDBRANCH  14  15
ENDBRANCH   7   9
ENDBRANCH   6   7
ENDBRANCH   5   6
ENDBRANCH   4   5
ENDBRANCH   3   4
ENDBRANCH   2   3
ENDBRANCH   1   2
BRANCH   1  28
ATOM     28  O   UNL A   1      37.048  21.873  24.759  1.00  0.00    -0.377 OA
BRANCH  28  29
ATOM     29  C   UNL A   1      38.056  22.234  25.699  1.00  0.00     0.188 C 
BRANCH  29  30
ATOM     30  C   UNL A   1      39.245  21.270  25.974  1.00  0.00     0.188 C 
BRANCH  30  31
ATOM     31  O   UNL A   1      39.941  21.495  27.197  1.00  0.00    -0.376 OA
BRANCH  31  32
ATOM     32  C   UNL A   1      41.248  20.985  27.404  1.00  0.00     0.202 C 
BRANCH  32  33
ATOM     33  C   UNL A   1      41.848  20.292  26.182  1.00  0.00     0.261 C 
BRANCH  33  34
ATOM     34  O   UNL A   1      43.263  20.250  26.236  1.00  0.00    -0.460 OA
BRANCH  34  35
ATOM     35  C   UNL A   1      43.868  20.261  25.034  1.00  0.00     0.338 C 
ATOM     36  O   UNL A   1      43.976  19.336  24.248  1.00  0.00    -0.246 OA
BRANCH  35  37
ATOM     37  C   UNL A   1      44.500  21.571  24.851  1.00  0.00     0.060 A 
ATOM     38  C   UNL A   1      45.535  21.834  25.742  1.00  0.00     0.016 A 
ATOM     39  C   UNL A   1      43.754  22.579  24.218  1.00  0.00     0.016 A 
ATOM     40  C   UNL A   1      45.541  23.074  26.316  1.00  0.00     0.010 A 
ATOM     41  C   UNL A   1      43.749  23.812  24.803  1.00  0.00     0.010 A 
ATOM     42  C   UNL A   1      44.549  23.980  25.926  1.00  0.00    -0.014 A 
BRANCH  42  43
ATOM     43  C   UNL A   1      44.350  25.119  26.780  1.00  0.00     0.031 A 
ATOM     44  C   UNL A   1      45.440  26.098  26.680  1.00  0.00     0.074 A 
ATOM     45  C   UNL A   1      43.247  25.238  27.538  1.00  0.00     0.049 A 
ATOM     46  N   UNL A   1      46.289  26.434  27.589  1.00  0.00    -0.248 NA
ATOM     47  C   UNL A   1      45.725  26.635  25.341  1.00  0.00     0.031 C 
ATOM     48  C   UNL A   1      42.000  24.470  27.476  1.00  0.00     0.029 A 
ATOM     49  N   UNL A   1      42.984  26.176  28.479  1.00  0.00    -0.354 N 
ATOM     50  C   UNL A   1      47.119  27.366  26.982  1.00  0.00     0.074 A 
ATOM     51  C   UNL A   1      46.847  27.311  25.571  1.00  0.00     0.031 C 
ATOM     52  C   UNL A   1      41.044  25.130  28.170  1.00  0.00     0.029 A 
ATOM     53  C   UNL A   1      41.647  26.286  28.812  1.00  0.00     0.049 A 
ATOM     54  H   UNL A   1      43.684  26.732  28.891  1.00  0.00     0.167 HD
ATOM     55  C   UNL A   1      47.784  28.291  27.719  1.00  0.00     0.037 A 
ATOM     56  C   UNL A   1      41.093  27.338  29.462  1.00  0.00     0.037 A 
ATOM     57  C   UNL A   1      47.906  27.881  29.093  1.00  0.00     0.049 A 
ATOM     58  C   UNL A   1      42.199  28.083  30.128  1.00  0.00     0.074 A 
ATOM     59  C   UNL A   1      48.507  26.809  29.725  1.00  0.00     0.029 A 
ATOM     60  N   UNL A   1      47.048  28.427  30.016  1.00  0.00    -0.354 N 
ATOM     61  N   UNL A   1      42.894  27.619  31.133  1.00  0.00    -0.248 NA
ATOM     62  C   UNL A   1      42.837  29.159  29.380  1.00  0.00     0.031 C 
ATOM     63  C   UNL A   1      47.650  26.491  30.818  1.00  0.00     0.029 A 
ATOM     64  C   UNL A   1      46.596  27.405  30.810  1.00  0.00     0.049 A 
ATOM     65  H   UNL A   1      46.804  29.377  30.093  1.00  0.00     0.167 HD
ATOM     66  C   UNL A   1      44.194  28.051  30.902  1.00  0.00     0.074 A 
ATOM     67  C   UNL A   1      44.081  29.064  29.858  1.00  0.00     0.031 C 
ATOM     68  C   UNL A   1      45.266  27.350  31.371  1.00  0.00     0.037 A 
BRANCH  55  69
ATOM     69  C   UNL A   1      47.976  29.714  27.267  1.00  0.00     0.064 A 
ATOM     70  C   UNL A   1      49.272  30.259  27.282  1.00  0.00     0.173 A 
ATOM     71  C   UNL A   1      46.924  30.645  27.109  1.00  0.00     0.173 A 
ATOM     72  F   UNL A   1      50.344  29.468  27.441  1.00  0.00    -0.203 F 
ATOM     73  C   UNL A   1      49.491  31.637  27.232  1.00  0.00     0.198 A 
ATOM     74  C   UNL A   1      47.149  32.013  27.000  1.00  0.00     0.198 A 
ATOM     75  F   UNL A   1      45.634  30.294  27.169  1.00  0.00    -0.203 F 
ATOM     76  F   UNL A   1      50.731  32.117  27.386  1.00  0.00    -0.200 F 
ATOM     77  C   UNL A   1      48.428  32.513  27.098  1.00  0.00     0.200 A 
ATOM     78  F   UNL A   1      46.104  32.845  26.885  1.00  0.00    -0.200 F 
ATOM     79  F   UNL A   1      48.630  33.836  27.116  1.00  0.00    -0.200 F 
ENDBRANCH  55  69
BRANCH  56  80
ATOM     80  C   UNL A   1      39.756  27.929  29.217  1.00  0.00     0.064 A 
ATOM     81  C   UNL A   1      38.837  28.096  30.262  1.00  0.00     0.173 A 
ATOM     82  C   UNL A   1      39.444  28.571  28.001  1.00  0.00     0.173 A 
ATOM     83  F   UNL A   1      39.085  27.563  31.468  1.00  0.00    -0.203 F 
ATOM     84  C   UNL A   1      37.679  28.866  30.104  1.00  0.00     0.198 A 
ATOM     85  C   UNL A   1      38.284  29.326  27.839  1.00  0.00     0.198 A 
ATOM     86  F   UNL A   1      40.302  28.557  26.970  1.00  0.00    -0.203 F 
ATOM     87  F   UNL A   1      36.850  29.049  31.141  1.00  0.00    -0.200 F 
ATOM     88  C   UNL A   1      37.405  29.484  28.893  1.00  0.00     0.200 A 
ATOM     89  F   UNL A   1      38.053  29.949  26.673  1.00  0.00    -0.200 F 
ATOM     90  F   UNL A   1      36.324  30.263  28.757  1.00  0.00    -0.200 F 
ENDBRANCH  56  80
BRANCH  68  91
ATOM     91  C   UNL A   1      45.007  26.246  32.355  1.00  0.00     0.064 A 
ATOM     92  C   UNL A   1      44.932  26.450  33.743  1.00  0.00     0.173 A 
ATOM     93  C   UNL A   1      44.639  24.987  31.864  1.00  0.00     0.173 A 
ATOM     94  F   UNL A   1      45.169  27.656  34.274  1.00  0.00    -0.203 F 
ATOM     95  C   UNL A   1      44.536  25.426  34.603  1.00  0.00     0.198 A 
ATOM     96  C   UNL A   1      44.212  23.977  32.720  1.00  0.00     0.198 A 
ATOM     97  F   UNL A   1      44.636  24.756  30.541  1.00  0.00    -0.203 F 
ATOM     98  F   UNL A   1      44.469  25.645  35.924  1.00  0.00    -0.200 F 
ATOM     99  C   UNL A   1      44.166  24.194  34.089  1.00  0.00     0.200 A 
ATOM    100  F   UNL A   1      43.804  22.804  32.216  1.00  0.00    -0.200 F 
ATOM    101  F   UNL A   1      43.734  23.226  34.909  1.00  0.00    -0.200 F 
ENDBRANCH  68  91
ENDBRANCH  42  43
ENDBRANCH  35  37
ENDBRANCH  34  35
ENDBRANCH  33  34
ENDBRANCH  32  33
ENDBRANCH  31  32
ENDBRANCH  30  31
ENDBRANCH  29  30
ENDBRANCH  28  29
ENDBRANCH   1  28
TORSDOF 23
ENDMDL
MODEL 2
REMARK VINA RESULT:     -10.9      2.720      4.597
REMARK SMILES Cc1nsc(NC(=O)c2ccc(N)cc2)c1C(=O)OCCOCCOCCOCCOC(=O)c1ccc(-c2c3nc(c(-c4c(F)c(F)c(F)c(F)c4F)c4ccc([nH]4)c(-c4c(F)c(F)c(F)c(F)c4F)c4nc(c(-c5c(F)c(F)c(F)c(F)c5F)c5ccc2[nH]5)C=C4)C=C3)cc1
REMARK SMILES IDX 24 1 23 2 22 3 21 4 20 5 19 6 17 7 18 8 16 9 1 10 2 11 3 12
REMARK SMILES IDX 4 13 5 14 6 15 7 16 8 18 9 19 10 20 15 21 11 22 14 23 12 24
REMARK SMILES IDX 13 25 25 28 26 29 27 30 28 31 29 32 30 33 31 34 32 35 33 36
REMARK SMILES IDX 34 37 35 38 96 39 36 40 95 41 37 42 38 43 39 44 89 45 40 46
REMARK SMILES IDX 94 47 88 48 90 49 41 50 93 51 87 52 86 53 42 55 74 56 54 57
REMARK SMILES IDX 73 58 55 59 58 60 72 61 91 62 56 63 57 64 71 66 92 67 59 68
REMARK SMILES IDX 43 69 44 70 52 71 45 72 46 73 50 74 53 75 47 76 48 77 51 78
REMARK SMILES IDX 49 79 75 80 76 81 84 82 77 83 78 84 82 85 85 86 79 87 80 88
REMARK SMILES IDX 83 89 81 90 60 91 61 92 69 93 62 94 63 95 67 96 70 97 64 98
REMARK SMILES IDX 65 99 68 100 66 101
REMARK H PARENT 6 17 13 26 13 27 90 54 58 65
REMARK Flexibility Score: inf
ROOT
ATOM      1  C   UNL A   1      37.873  21.802  25.942  1.00  0.00     0.188 C 
ENDROOT
BRANCH   1   2
ATOM      2  C   UNL A   1      37.005  20.841  25.101  1.00  0.00     0.188 C 
BRANCH   2   3
ATOM      3  O   UNL A   1      35.742  21.238  24.590  1.00  0.00    -0.376 OA
BRANCH   3   4
ATOM      4  C   UNL A   1      34.561  20.483  24.807  1.00  0.00     0.202 C 
BRANCH   4   5
ATOM      5  C   UNL A   1      33.376  20.985  25.653  1.00  0.00     0.261 C 
BRANCH   5   6
ATOM      6  O   UNL A   1      33.505  22.286  26.230  1.00  0.00    -0.460 OA
BRANCH   6   7
ATOM      7  C   UNL A   1      32.644  22.595  27.234  1.00  0.00     0.343 C 
ATOM      8  O   UNL A   1      32.691  22.115  28.364  1.00  0.00    -0.246 OA
BRANCH   7   9
ATOM      9  C   UNL A   1      31.811  23.740  26.901  1.00  0.00     0.117 A 
ATOM     10  C   UNL A   1      29.391  22.722  27.194  1.00  0.00     0.069 C 
ATOM     11  C   UNL A   1      30.365  23.797  26.845  1.00  0.00     0.068 A 
ATOM     12  N   UNL A   1      29.851  24.939  26.389  1.00  0.00    -0.195 NA
ATOM     13  S   UNL A   1      31.073  25.928  25.905  1.00  0.00    -0.017 S 
ATOM     14  C   UNL A   1      32.351  24.920  26.397  1.00  0.00     0.131 A 
BRANCH  14  15
ATOM     15  N   UNL A   1      33.689  25.188  26.125  1.00  0.00    -0.312 N 
ATOM     16  C   UNL A   1      34.425  25.012  24.974  1.00  0.00     0.256 C 
ATOM     17  H   UNL A   1      34.194  25.567  26.881  1.00  0.00     0.171 HD
ATOM     18  O   UNL A   1      35.635  24.802  25.043  1.00  0.00    -0.269 OA
BRANCH  16  19
ATOM     19  C   UNL A   1      33.809  25.164  23.644  1.00  0.00     0.040 A 
ATOM     20  C   UNL A   1      33.457  24.033  22.905  1.00  0.00     0.016 A 
ATOM     21  C   UNL A   1      33.548  26.441  23.144  1.00  0.00     0.016 A 
ATOM     22  C   UNL A   1      32.954  24.182  21.615  1.00  0.00     0.026 A 
ATOM     23  C   UNL A   1      33.021  26.578  21.858  1.00  0.00     0.026 A 
ATOM     24  C   UNL A   1      32.764  25.452  21.067  1.00  0.00     0.031 A 
BRANCH  24  25
ATOM     25  N   UNL A   1      32.228  25.587  19.799  1.00  0.00    -0.399 N 
ATOM     26  H   UNL A   1      31.253  25.661  19.683  1.00  0.00     0.156 HD
ATOM     27  H   UNL A   1      32.821  25.609  19.014  1.00  0.00     0.156 HD
ENDBRANCH  24  25
ENDBRANCH  16  19
ENDBRANCH  14  15
ENDBRANCH   7   9
ENDBRANCH   6   7
ENDBRANCH   5   6
ENDBRANCH   4   5
ENDBRANCH   3   4
ENDBRANCH   2   3
ENDBRANCH   1   2
BRANCH   1  28
ATOM     28  O   UNL A   1      39.259  21.675  25.685  1.00  0.00    -0.377 OA
BRANCH  28  29
ATOM     29  C   UNL A   1      40.091  21.620  26.840  1.00  0.00     0.188 C 
BRANCH  29  30
ATOM     30  C   UNL A   1      40.884  20.323  27.167  1.00  0.00     0.188 C 
BRANCH  30  31
ATOM     31  O   UNL A   1      42.302  20.438  27.085  1.00  0.00    -0.376 OA
BRANCH  31  32
ATOM     32  C   UNL A   1      42.964  20.484  25.831  1.00  0.00     0.202 C 
BRANCH  32  33
ATOM     33  C   UNL A   1      43.684  21.802  25.553  1.00  0.00     0.261 C 
BRANCH  33  34
ATOM     34  O   UNL A   1      42.813  22.779  25.011  1.00  0.00    -0.460 OA
BRANCH  34  35
ATOM     35  C   UNL A   1      43.078  24.040  25.400  1.00  0.00     0.338 C 
ATOM     36  O   UNL A   1      44.014  24.741  25.060  1.00  0.00    -0.246 OA
BRANCH  35  37
ATOM     37  C   UNL A   1      42.096  24.421  26.418  1.00  0.00     0.060 A 
ATOM     38  C   UNL A   1      41.092  25.266  25.956  1.00  0.00     0.016 A 
ATOM     39  C   UNL A   1      42.487  24.355  27.766  1.00  0.00     0.016 A 
ATOM     40  C   UNL A   1      40.781  26.332  26.753  1.00  0.00     0.010 A 
ATOM     41  C   UNL A   1      42.189  25.429  28.555  1.00  0.00     0.010 A 
ATOM     42  C   UNL A   1      41.453  26.453  27.974  1.00  0.00    -0.014 A 
BRANCH  42  43
ATOM     43  C   UNL A   1      41.386  27.737  28.617  1.00  0.00     0.031 A 
ATOM     44  C   UNL A   1      42.541  28.587  28.302  1.00  0.00     0.074 A 
ATOM     45  C   UNL A   1      40.337  28.081  29.383  1.00  0.00     0.049 A 
ATOM     46  N   UNL A   1      43.460  29.005  29.104  1.00  0.00    -0.248 NA
ATOM     47  C   UNL A   1      42.797  28.855  26.879  1.00  0.00     0.031 C 
ATOM     48  C   UNL A   1      39.033  27.423  29.506  1.00  0.00     0.029 A 
ATOM     49  N   UNL A   1      40.197  29.188  30.149  1.00  0.00    -0.354 N 
ATOM     50  C   UNL A   1      44.327  29.742  28.308  1.00  0.00     0.074 A 
ATOM     51  C   UNL A   1      43.978  29.463  26.942  1.00  0.00     0.031 C 
ATOM     52  C   UNL A   1      38.168  28.273  30.106  1.00  0.00     0.029 A 
ATOM     53  C   UNL A   1      38.891  29.468  30.507  1.00  0.00     0.049 A 
ATOM     54  H   UNL A   1      40.958  29.746  30.428  1.00  0.00     0.167 HD
ATOM     55  C   UNL A   1      45.098  30.722  28.841  1.00  0.00     0.037 A 
ATOM     56  C   UNL A   1      38.454  30.662  30.978  1.00  0.00     0.037 A 
ATOM     57  C   UNL A   1      45.260  30.551  30.261  1.00  0.00     0.049 A 
ATOM     58  C   UNL A   1      39.647  31.415  31.458  1.00  0.00     0.074 A 
ATOM     59  C   UNL A   1      45.809  29.559  31.053  1.00  0.00     0.029 A 
ATOM     60  N   UNL A   1      44.496  31.321  31.103  1.00  0.00    -0.354 N 
ATOM     61  N   UNL A   1      40.356  31.077  32.502  1.00  0.00    -0.248 NA
ATOM     62  C   UNL A   1      40.326  32.285  30.505  1.00  0.00     0.031 C 
ATOM     63  C   UNL A   1      44.988  29.513  32.217  1.00  0.00     0.029 A 
ATOM     64  C   UNL A   1      44.009  30.497  32.084  1.00  0.00     0.049 A 
ATOM     65  H   UNL A   1      44.330  32.287  31.017  1.00  0.00     0.167 HD
ATOM     66  C   UNL A   1      41.671  31.351  32.149  1.00  0.00     0.074 A 
ATOM     67  C   UNL A   1      41.582  32.170  30.945  1.00  0.00     0.031 C 
ATOM     68  C   UNL A   1      42.710  30.655  32.695  1.00  0.00     0.037 A 
BRANCH  55  69
ATOM     69  C   UNL A   1      45.375  32.022  28.135  1.00  0.00     0.064 A 
ATOM     70  C   UNL A   1      44.302  32.892  27.875  1.00  0.00     0.173 A 
ATOM     71  C   UNL A   1      46.577  32.311  27.449  1.00  0.00     0.173 A 
ATOM     72  F   UNL A   1      43.110  32.702  28.461  1.00  0.00    -0.203 F 
ATOM     73  C   UNL A   1      44.400  33.917  26.932  1.00  0.00     0.198 A 
ATOM     74  C   UNL A   1      46.688  33.370  26.554  1.00  0.00     0.198 A 
ATOM     75  F   UNL A   1      47.656  31.523  27.519  1.00  0.00    -0.203 F 
ATOM     76  F   UNL A   1      43.313  34.634  26.616  1.00  0.00    -0.200 F 
ATOM     77  C   UNL A   1      45.590  34.151  26.267  1.00  0.00     0.200 A 
ATOM     78  F   UNL A   1      47.848  33.569  25.912  1.00  0.00    -0.200 F 
ATOM     79  F   UNL A   1      45.668  35.090  25.317  1.00  0.00    -0.200 F 
ENDBRANCH  55  69
BRANCH  56  80
ATOM     80  C   UNL A   1      37.155  31.311  30.681  1.00  0.00     0.064 A 
ATOM     81  C   UNL A   1      36.223  31.563  31.698  1.00  0.00     0.173 A 
ATOM     82  C   UNL A   1      36.903  31.925  29.436  1.00  0.00     0.173 A 
ATOM     83  F   UNL A   1      36.417  31.061  32.927  1.00  0.00    -0.203 F 
ATOM     84  C   UNL A   1      35.111  32.385  31.486  1.00  0.00     0.198 A 
ATOM     85  C   UNL A   1      35.788  32.733  29.221  1.00  0.00     0.198 A 
ATOM     86  F   UNL A   1      37.782  31.830  28.428  1.00  0.00    -0.203 F 
ATOM     87  F   UNL A   1      34.271  32.647  32.497  1.00  0.00    -0.200 F 
ATOM     88  C   UNL A   1      34.897  32.972  30.249  1.00  0.00     0.200 A 
ATOM     89  F   UNL A   1      35.616  33.325  28.030  1.00  0.00    -0.200 F 
ATOM     90  F   UNL A   1      33.861  33.800  30.060  1.00  0.00    -0.200 F 
ENDBRANCH  56  80
BRANCH  68  91
ATOM     91  C   UNL A   1      42.418  29.767  33.871  1.00  0.00     0.064 A 
ATOM     92  C   UNL A   1      41.931  28.455  33.746  1.00  0.00     0.173 A 
ATOM     93  C   UNL A   1      42.822  30.190  35.144  1.00  0.00     0.173 A 
ATOM     94  F   UNL A   1      41.623  27.948  32.545  1.00  0.00    -0.203 F 
ATOM     95  C   UNL A   1      41.824  27.616  34.854  1.00  0.00     0.198 A 
ATOM     96  C   UNL A   1      42.746  29.341  36.243  1.00  0.00     0.198 A 
ATOM     97  F   UNL A   1      43.351  31.413  35.308  1.00  0.00    -0.203 F 
ATOM     98  F   UNL A   1      41.358  26.367  34.710  1.00  0.00    -0.200 F 
ATOM     99  C   UNL A   1      42.242  28.057  36.100  1.00  0.00     0.200 A 
ATOM    100  F   UNL A   1      43.200  29.751  37.435  1.00  0.00    -0.200 F 
ATOM    101  F   UNL A   1      42.189  27.234  37.157  1.00  0.00    -0.200 F 
ENDBRANCH  68  91
ENDBRANCH  42  43
ENDBRANCH  35  37
ENDBRANCH  34  35
ENDBRANCH  33  34
ENDBRANCH  32  33
ENDBRANCH  31  32
ENDBRANCH  30  31
ENDBRANCH  29  30
ENDBRANCH  28  29
ENDBRANCH   1  28
TORSDOF 23
ENDMDL
MODEL 3
REMARK VINA RESULT:     -10.7      2.611      3.925
REMARK SMILES Cc1nsc(NC(=O)c2ccc(N)cc2)c1C(=O)OCCOCCOCCOCCOC(=O)c1ccc(-c2c3nc(c(-c4c(F)c(F)c(F)c(F)c4F)c4ccc([nH]4)c(-c4c(F)c(F)c(F)c(F)c4F)c4nc(c(-c5c(F)c(F)c(F)c(F)c5F)c5ccc2[nH]5)C=C4)C=C3)cc1
REMARK SMILES IDX 24 1 23 2 22 3 21 4 20 5 19 6 17 7 18 8 16 9 1 10 2 11 3 12
REMARK SMILES IDX 4 13 5 14 6 15 7 16 8 18 9 19 10 20 15 21 11 22 14 23 12 24
REMARK SMILES IDX 13 25 25 28 26 29 27 30 28 31 29 32 30 33 31 34 32 35 33 36
REMARK SMILES IDX 34 37 35 38 96 39 36 40 95 41 37 42 38 43 39 44 89 45 40 46
REMARK SMILES IDX 94 47 88 48 90 49 41 50 93 51 87 52 86 53 42 55 74 56 54 57
REMARK SMILES IDX 73 58 55 59 58 60 72 61 91 62 56 63 57 64 71 66 92 67 59 68
REMARK SMILES IDX 43 69 44 70 52 71 45 72 46 73 50 74 53 75 47 76 48 77 51 78
REMARK SMILES IDX 49 79 75 80 76 81 84 82 77 83 78 84 82 85 85 86 79 87 80 88
REMARK SMILES IDX 83 89 81 90 60 91 61 92 69 93 62 94 63 95 67 96 70 97 64 98
REMARK SMILES IDX 65 99 68 100 66 101
REMARK H PARENT 6 17 13 26 13 27 90 54 58 65
REMARK Flexibility Score: inf
ROOT
ATOM      1  C   UNL A   1      37.809  22.446  25.748  1.00  0.00     0.188 C 
ENDROOT
BRANCH   1   2
ATOM      2  C   UNL A   1      36.688  21.453  25.373  1.00  0.00     0.188 C 
BRANCH   2   3
ATOM      3  O   UNL A   1      35.474  21.395  26.105  1.00  0.00    -0.376 OA
BRANCH   3   4
ATOM      4  C   UNL A   1      34.432  22.341  25.932  1.00  0.00     0.202 C 
BRANCH   4   5
ATOM      5  C   UNL A   1      34.185  23.101  24.614  1.00  0.00     0.261 C 
BRANCH   5   6
ATOM      6  O   UNL A   1      32.911  23.729  24.465  1.00  0.00    -0.460 OA
BRANCH   6   7
ATOM      7  C   UNL A   1      32.363  23.707  23.223  1.00  0.00     0.343 C 
ATOM      8  O   UNL A   1      32.267  22.703  22.522  1.00  0.00    -0.246 OA
BRANCH   7   9
ATOM      9  C   UNL A   1      31.676  24.951  22.911  1.00  0.00     0.117 A 
ATOM     10  C   UNL A   1      32.685  25.516  20.536  1.00  0.00     0.069 C 
ATOM     11  C   UNL A   1      31.839  25.781  21.736  1.00  0.00     0.068 A 
ATOM     12  N   UNL A   1      31.180  26.940  21.753  1.00  0.00    -0.195 NA
ATOM     13  S   UNL A   1      30.446  27.123  23.214  1.00  0.00    -0.017 S 
ATOM     14  C   UNL A   1      30.877  25.604  23.845  1.00  0.00     0.131 A 
BRANCH  14  15
ATOM     15  N   UNL A   1      30.626  25.218  25.158  1.00  0.00    -0.312 N 
ATOM     16  C   UNL A   1      31.328  25.463  26.317  1.00  0.00     0.256 C 
ATOM     17  H   UNL A   1      29.809  24.681  25.279  1.00  0.00     0.171 HD
ATOM     18  O   UNL A   1      31.280  24.661  27.249  1.00  0.00    -0.269 OA
BRANCH  16  19
ATOM     19  C   UNL A   1      32.069  26.722  26.508  1.00  0.00     0.040 A 
ATOM     20  C   UNL A   1      31.441  27.817  27.106  1.00  0.00     0.016 A 
ATOM     21  C   UNL A   1      33.408  26.803  26.123  1.00  0.00     0.016 A 
ATOM     22  C   UNL A   1      32.119  29.030  27.206  1.00  0.00     0.026 A 
ATOM     23  C   UNL A   1      34.086  28.018  26.250  1.00  0.00     0.026 A 
ATOM     24  C   UNL A   1      33.433  29.151  26.749  1.00  0.00     0.031 A 
BRANCH  24  25
ATOM     25  N   UNL A   1      34.108  30.350  26.890  1.00  0.00    -0.399 N 
ATOM     26  H   UNL A   1      33.972  30.899  27.696  1.00  0.00     0.156 HD
ATOM     27  H   UNL A   1      34.723  30.655  26.184  1.00  0.00     0.156 HD
ENDBRANCH  24  25
ENDBRANCH  16  19
ENDBRANCH  14  15
ENDBRANCH   7   9
ENDBRANCH   6   7
ENDBRANCH   5   6
ENDBRANCH   4   5
ENDBRANCH   3   4
ENDBRANCH   2   3
ENDBRANCH   1   2
BRANCH   1  28
ATOM     28  O   UNL A   1      39.109  21.920  25.563  1.00  0.00    -0.377 OA
BRANCH  28  29
ATOM     29  C   UNL A   1      39.267  20.548  25.911  1.00  0.00     0.188 C 
BRANCH  29  30
ATOM     30  C   UNL A   1      40.679  19.985  26.240  1.00  0.00     0.188 C 
BRANCH  30  31
ATOM     31  O   UNL A   1      41.676  20.965  26.518  1.00  0.00    -0.376 OA
BRANCH  31  32
ATOM     32  C   UNL A   1      43.024  20.776  26.119  1.00  0.00     0.202 C 
BRANCH  32  33
ATOM     33  C   UNL A   1      43.620  21.957  25.356  1.00  0.00     0.261 C 
BRANCH  33  34
ATOM     34  O   UNL A   1      42.630  22.893  24.967  1.00  0.00    -0.460 OA
BRANCH  34  35
ATOM     35  C   UNL A   1      42.885  24.161  25.335  1.00  0.00     0.338 C 
ATOM     36  O   UNL A   1      43.825  24.859  24.997  1.00  0.00    -0.246 OA
BRANCH  35  37
ATOM     37  C   UNL A   1      41.887  24.558  26.331  1.00  0.00     0.060 A 
ATOM     38  C   UNL A   1      40.913  25.427  25.848  1.00  0.00     0.016 A 
ATOM     39  C   UNL A   1      42.242  24.478  27.688  1.00  0.00     0.016 A 
ATOM     40  C   UNL A   1      40.605  26.495  26.643  1.00  0.00     0.010 A 
ATOM     41  C   UNL A   1      41.948  25.555  28.474  1.00  0.00     0.010 A 
ATOM     42  C   UNL A   1      41.248  26.597  27.881  1.00  0.00    -0.014 A 
BRANCH  42  43
ATOM     43  C   UNL A   1      41.193  27.879  28.528  1.00  0.00     0.031 A 
ATOM     44  C   UNL A   1      42.339  28.733  28.189  1.00  0.00     0.074 A 
ATOM     45  C   UNL A   1      40.161  28.219  29.317  1.00  0.00     0.049 A 
ATOM     46  N   UNL A   1      43.274  29.151  28.971  1.00  0.00    -0.248 NA
ATOM     47  C   UNL A   1      42.562  29.004  26.761  1.00  0.00     0.031 C 
ATOM     48  C   UNL A   1      38.861  27.557  29.468  1.00  0.00     0.029 A 
ATOM     49  N   UNL A   1      40.034  29.324  30.090  1.00  0.00    -0.354 N 
ATOM     50  C   UNL A   1      44.121  29.892  28.159  1.00  0.00     0.074 A 
ATOM     51  C   UNL A   1      43.743  29.615  26.799  1.00  0.00     0.031 C 
ATOM     52  C   UNL A   1      38.007  28.404  30.089  1.00  0.00     0.029 A 
ATOM     53  C   UNL A   1      38.736  29.600  30.477  1.00  0.00     0.049 A 
ATOM     54  H   UNL A   1      40.800  29.883  30.352  1.00  0.00     0.167 HD
ATOM     55  C   UNL A   1      44.901  30.873  28.677  1.00  0.00     0.037 A 
ATOM     56  C   UNL A   1      38.307  30.791  30.961  1.00  0.00     0.037 A 
ATOM     57  C   UNL A   1      45.096  30.699  30.092  1.00  0.00     0.049 A 
ATOM     58  C   UNL A   1      39.508  31.546  31.415  1.00  0.00     0.074 A 
ATOM     59  C   UNL A   1      45.664  29.707  30.869  1.00  0.00     0.029 A 
ATOM     60  N   UNL A   1      44.348  31.466  30.952  1.00  0.00    -0.354 N 
ATOM     61  N   UNL A   1      40.241  31.208  32.443  1.00  0.00    -0.248 NA
ATOM     62  C   UNL A   1      40.164  32.420  30.450  1.00  0.00     0.031 C 
ATOM     63  C   UNL A   1      44.870  29.656  32.051  1.00  0.00     0.029 A 
ATOM     64  C   UNL A   1      43.885  30.638  31.942  1.00  0.00     0.049 A 
ATOM     65  H   UNL A   1      44.178  32.431  30.873  1.00  0.00     0.167 HD
ATOM     66  C   UNL A   1      41.547  31.486  32.061  1.00  0.00     0.074 A 
ATOM     67  C   UNL A   1      41.430  32.307  30.861  1.00  0.00     0.031 C 
ATOM     68  C   UNL A   1      42.600  30.791  32.583  1.00  0.00     0.037 A 
BRANCH  55  69
ATOM     69  C   UNL A   1      45.160  32.175  27.968  1.00  0.00     0.064 A 
ATOM     70  C   UNL A   1      46.452  32.434  27.478  1.00  0.00     0.173 A 
ATOM     71  C   UNL A   1      44.288  33.288  28.010  1.00  0.00     0.173 A 
ATOM     72  F   UNL A   1      47.365  31.453  27.408  1.00  0.00    -0.203 F 
ATOM     73  C   UNL A   1      46.866  33.724  27.142  1.00  0.00     0.198 A 
ATOM     74  C   UNL A   1      44.686  34.562  27.618  1.00  0.00     0.198 A 
ATOM     75  F   UNL A   1      43.060  33.223  28.536  1.00  0.00    -0.203 F 
ATOM     76  F   UNL A   1      48.145  33.945  26.811  1.00  0.00    -0.200 F 
ATOM     77  C   UNL A   1      45.985  34.788  27.220  1.00  0.00     0.200 A 
ATOM     78  F   UNL A   1      43.820  35.580  27.714  1.00  0.00    -0.200 F 
ATOM     79  F   UNL A   1      46.397  36.035  26.961  1.00  0.00    -0.200 F 
ENDBRANCH  55  69
BRANCH  56  80
ATOM     80  C   UNL A   1      37.000  31.438  30.694  1.00  0.00     0.064 A 
ATOM     81  C   UNL A   1      36.095  31.696  31.733  1.00  0.00     0.173 A 
ATOM     82  C   UNL A   1      36.715  32.044  29.452  1.00  0.00     0.173 A 
ATOM     83  F   UNL A   1      36.322  31.202  32.960  1.00  0.00    -0.203 F 
ATOM     84  C   UNL A   1      34.977  32.516  31.546  1.00  0.00     0.198 A 
ATOM     85  C   UNL A   1      35.594  32.849  29.262  1.00  0.00     0.198 A 
ATOM     86  F   UNL A   1      37.566  31.942  28.421  1.00  0.00    -0.203 F 
ATOM     87  F   UNL A   1      34.164  32.784  32.577  1.00  0.00    -0.200 F 
ATOM     88  C   UNL A   1      34.730  33.095  30.311  1.00  0.00     0.200 A 
ATOM     89  F   UNL A   1      35.389  33.433  28.072  1.00  0.00    -0.200 F 
ATOM     90  F   UNL A   1      33.688  33.922  30.145  1.00  0.00    -0.200 F 
ENDBRANCH  56  80
BRANCH  68  91
ATOM     91  C   UNL A   1      42.337  29.899  33.762  1.00  0.00     0.064 A 
ATOM     92  C   UNL A   1      41.879  28.576  33.644  1.00  0.00     0.173 A 
ATOM     93  C   UNL A   1      42.739  30.335  35.031  1.00  0.00     0.173 A 
ATOM     94  F   UNL A   1      41.575  28.059  32.447  1.00  0.00    -0.203 F 
ATOM     95  C   UNL A   1      41.798  27.739  34.755  1.00  0.00     0.198 A 
ATOM     96  C   UNL A   1      42.690  29.487  36.133  1.00  0.00     0.198 A 
ATOM     97  F   UNL A   1      43.241  31.570  35.189  1.00  0.00    -0.203 F 
ATOM     98  F   UNL A   1      41.360  26.479  34.617  1.00  0.00    -0.200 F 
ATOM     99  C   UNL A   1      42.215  28.191  35.996  1.00  0.00     0.200 A 
ATOM    100  F   UNL A   1      43.143  29.911  37.321  1.00  0.00    -0.200 F 
ATOM    101  F   UNL A   1      42.188  27.371  37.056  1.00  0.00    -0.200 F 
ENDBRANCH  68  91
ENDBRANCH  42  43
ENDBRANCH  35  37
ENDBRANCH  34  35
ENDBRANCH  33  34
ENDBRANCH  32  33
ENDBRANCH  31  32
ENDBRANCH  30  31
ENDBRANCH  29  30
ENDBRANCH  28  29
ENDBRANCH   1  28
TORSDOF 23
ENDMDL
