MODEL 1
REMARK VINA RESULT:     -10.9      0.000      0.000
REMARK SMILES C[C@H](Cc1cccc2c1OC(C)(C)C2)C(=O)OCCOCCOCCOCCOC(=O)c1ccc(-c2c3nc(c(-c4c(F)c(F)c(F)c(F)c4F)c4ccc([nH]4)c(-c4c(F)c(F)c(F)c(F)c4F)c4nc(c(-c5c(F)c(F)c(F)c(F)c5F)c5ccc2[nH]5)C=C4)C=C3)cc1
REMARK SMILES IDX 23 1 22 2 21 3 20 4 19 5 18 6 17 7 15 8 16 9 2 10 1 11 3 12
REMARK SMILES IDX 4 13 5 14 9 15 6 16 8 17 10 18 7 19 14 20 11 21 12 22 13 23
REMARK SMILES IDX 24 24 25 25 26 26 27 27 28 28 29 29 30 30 31 31 32 32 33 33
REMARK SMILES IDX 94 34 34 35 93 36 35 37 36 38 37 39 87 40 38 41 92 42 86 43
REMARK SMILES IDX 88 44 39 45 91 46 85 47 84 48 40 50 72 51 52 52 71 53 53 54
REMARK SMILES IDX 56 55 70 56 89 57 54 58 55 59 69 61 90 62 57 63 41 64 42 65
REMARK SMILES IDX 50 66 43 67 44 68 48 69 51 70 45 71 46 72 49 73 47 74 73 75
REMARK SMILES IDX 74 76 82 77 75 78 76 79 80 80 83 81 77 82 78 83 81 84 79 85
REMARK SMILES IDX 58 86 59 87 67 88 60 89 61 90 65 91 68 92 62 93 63 94 66 95
REMARK SMILES IDX 64 96
REMARK H PARENT 88 49 56 60
REMARK Flexibility Score: inf
ROOT
ATOM      1  O   UNL A   1      32.580  34.555  29.191  1.00  0.00    -0.377 OA
ENDROOT
BRANCH   1   2
ATOM      2  C   UNL A   1      33.153  34.017  28.014  1.00  0.00     0.188 C 
BRANCH   2   3
ATOM      3  C   UNL A   1      34.298  33.015  28.222  1.00  0.00     0.188 C 
BRANCH   3   4
ATOM      4  O   UNL A   1      34.328  31.806  27.481  1.00  0.00    -0.376 OA
BRANCH   4   5
ATOM      5  C   UNL A   1      35.318  30.826  27.758  1.00  0.00     0.202 C 
BRANCH   5   6
ATOM      6  C   UNL A   1      35.173  29.362  27.324  1.00  0.00     0.261 C 
BRANCH   6   7
ATOM      7  O   UNL A   1      33.827  28.864  27.234  1.00  0.00    -0.463 OA
BRANCH   7   8
ATOM      8  C   UNL A   1      33.462  28.315  26.055  1.00  0.00     0.309 C 
ATOM      9  O   UNL A   1      33.608  27.120  25.799  1.00  0.00    -0.252 OA
BRANCH   8  10
ATOM     10  C   UNL A   1      32.730  29.250  25.085  1.00  0.00     0.100 C 
ATOM     11  C   UNL A   1      31.800  30.175  25.883  1.00  0.00     0.020 C 
BRANCH  10  12
ATOM     12  C   UNL A   1      32.060  28.771  23.772  1.00  0.00     0.054 C 
BRANCH  12  13
ATOM     13  C   UNL A   1      30.719  28.091  23.725  1.00  0.00    -0.005 A 
ATOM     14  C   UNL A   1      30.622  26.727  24.063  1.00  0.00     0.007 A 
ATOM     15  C   UNL A   1      29.539  28.732  23.419  1.00  0.00     0.126 A 
ATOM     16  C   UNL A   1      29.387  26.058  24.051  1.00  0.00     0.001 A 
ATOM     17  C   UNL A   1      28.320  28.079  23.377  1.00  0.00    -0.002 A 
ATOM     18  O   UNL A   1      29.454  30.061  23.140  1.00  0.00    -0.487 OA
ATOM     19  C   UNL A   1      28.221  26.736  23.697  1.00  0.00     0.008 A 
ATOM     20  C   UNL A   1      27.257  29.033  22.979  1.00  0.00     0.087 C 
ATOM     21  C   UNL A   1      28.093  30.311  22.739  1.00  0.00     0.108 C 
ATOM     22  C   UNL A   1      28.181  30.713  21.268  1.00  0.00     0.057 C 
ATOM     23  C   UNL A   1      27.579  31.478  23.581  1.00  0.00     0.057 C 
ENDBRANCH  12  13
ENDBRANCH  10  12
ENDBRANCH   8  10
ENDBRANCH   7   8
ENDBRANCH   6   7
ENDBRANCH   5   6
ENDBRANCH   4   5
ENDBRANCH   3   4
ENDBRANCH   2   3
ENDBRANCH   1   2
BRANCH   1  24
ATOM     24  C   UNL A   1      33.428  34.909  30.275  1.00  0.00     0.188 C 
BRANCH  24  25
ATOM     25  C   UNL A   1      33.107  36.167  31.105  1.00  0.00     0.188 C 
BRANCH  25  26
ATOM     26  O   UNL A   1      33.395  36.047  32.487  1.00  0.00    -0.376 OA
BRANCH  26  27
ATOM     27  C   UNL A   1      34.738  36.172  32.929  1.00  0.00     0.202 C 
BRANCH  27  28
ATOM     28  C   UNL A   1      35.406  34.970  33.618  1.00  0.00     0.261 C 
BRANCH  28  29
ATOM     29  O   UNL A   1      36.105  34.040  32.773  1.00  0.00    -0.460 OA
BRANCH  29  30
ATOM     30  C   UNL A   1      35.618  32.792  32.655  1.00  0.00     0.338 C 
ATOM     31  O   UNL A   1      34.494  32.404  32.938  1.00  0.00    -0.246 OA
BRANCH  30  32
ATOM     32  C   UNL A   1      36.621  31.976  31.943  1.00  0.00     0.060 A 
ATOM     33  C   UNL A   1      37.415  31.083  32.674  1.00  0.00     0.016 A 
ATOM     34  C   UNL A   1      36.797  32.113  30.564  1.00  0.00     0.016 A 
ATOM     35  C   UNL A   1      38.428  30.365  32.038  1.00  0.00     0.010 A 
ATOM     36  C   UNL A   1      37.825  31.410  29.930  1.00  0.00     0.010 A 
ATOM     37  C   UNL A   1      38.672  30.566  30.674  1.00  0.00    -0.014 A 
BRANCH  37  38
ATOM     38  C   UNL A   1      39.935  30.068  30.076  1.00  0.00     0.031 A 
ATOM     39  C   UNL A   1      41.099  31.018  29.979  1.00  0.00     0.074 A 
ATOM     40  C   UNL A   1      40.062  28.798  29.655  1.00  0.00     0.049 A 
ATOM     41  N   UNL A   1      42.283  30.835  29.450  1.00  0.00    -0.248 NA
ATOM     42  C   UNL A   1      40.898  32.356  30.554  1.00  0.00     0.031 C 
ATOM     43  C   UNL A   1      39.026  27.773  29.740  1.00  0.00     0.029 A 
ATOM     44  N   UNL A   1      41.123  28.160  29.062  1.00  0.00    -0.354 N 
ATOM     45  C   UNL A   1      42.959  32.037  29.620  1.00  0.00     0.074 A 
ATOM     46  C   UNL A   1      42.046  32.951  30.271  1.00  0.00     0.031 C 
ATOM     47  C   UNL A   1      39.497  26.634  29.204  1.00  0.00     0.029 A 
ATOM     48  C   UNL A   1      40.853  26.862  28.705  1.00  0.00     0.049 A 
ATOM     49  H   UNL A   1      41.994  28.592  28.908  1.00  0.00     0.167 HD
ATOM     50  C   UNL A   1      44.230  32.348  29.271  1.00  0.00     0.037 A 
ATOM     51  C   UNL A   1      41.607  25.974  28.027  1.00  0.00     0.037 A 
ATOM     52  C   UNL A   1      45.136  31.435  28.624  1.00  0.00     0.049 A 
ATOM     53  C   UNL A   1      42.993  26.369  27.581  1.00  0.00     0.074 A 
ATOM     54  C   UNL A   1      46.449  31.647  28.247  1.00  0.00     0.029 A 
ATOM     55  N   UNL A   1      44.816  30.138  28.250  1.00  0.00    -0.354 N 
ATOM     56  N   UNL A   1      43.635  27.498  27.763  1.00  0.00    -0.248 NA
ATOM     57  C   UNL A   1      43.761  25.361  26.836  1.00  0.00     0.031 C 
ATOM     58  C   UNL A   1      46.902  30.502  27.584  1.00  0.00     0.029 A 
ATOM     59  C   UNL A   1      45.898  29.549  27.616  1.00  0.00     0.049 A 
ATOM     60  H   UNL A   1      43.948  29.701  28.411  1.00  0.00     0.167 HD
ATOM     61  C   UNL A   1      44.889  27.325  27.189  1.00  0.00     0.074 A 
ATOM     62  C   UNL A   1      44.923  25.975  26.664  1.00  0.00     0.031 C 
ATOM     63  C   UNL A   1      45.921  28.202  27.106  1.00  0.00     0.037 A 
BRANCH  50  64
ATOM     64  C   UNL A   1      44.706  33.744  29.551  1.00  0.00     0.064 A 
ATOM     65  C   UNL A   1      44.666  34.753  28.576  1.00  0.00     0.173 A 
ATOM     66  C   UNL A   1      45.180  34.086  30.828  1.00  0.00     0.173 A 
ATOM     67  F   UNL A   1      44.236  34.478  27.336  1.00  0.00    -0.203 F 
ATOM     68  C   UNL A   1      45.107  36.044  28.862  1.00  0.00     0.198 A 
ATOM     69  C   UNL A   1      45.588  35.385  31.119  1.00  0.00     0.198 A 
ATOM     70  F   UNL A   1      45.239  33.161  31.798  1.00  0.00    -0.203 F 
ATOM     71  F   UNL A   1      45.107  36.977  27.901  1.00  0.00    -0.200 F 
ATOM     72  C   UNL A   1      45.559  36.361  30.134  1.00  0.00     0.200 A 
ATOM     73  F   UNL A   1      46.009  35.691  32.353  1.00  0.00    -0.200 F 
ATOM     74  F   UNL A   1      45.972  37.605  30.409  1.00  0.00    -0.200 F 
ENDBRANCH  50  64
BRANCH  51  75
ATOM     75  C   UNL A   1      41.064  24.625  27.710  1.00  0.00     0.064 A 
ATOM     76  C   UNL A   1      41.580  23.473  28.319  1.00  0.00     0.173 A 
ATOM     77  C   UNL A   1      40.036  24.459  26.771  1.00  0.00     0.173 A 
ATOM     78  F   UNL A   1      42.582  23.575  29.205  1.00  0.00    -0.203 F 
ATOM     79  C   UNL A   1      41.106  22.206  27.984  1.00  0.00     0.198 A 
ATOM     80  C   UNL A   1      39.538  23.195  26.461  1.00  0.00     0.198 A 
ATOM     81  F   UNL A   1      39.507  25.528  26.155  1.00  0.00    -0.203 F 
ATOM     82  F   UNL A   1      41.656  21.119  28.540  1.00  0.00    -0.200 F 
ATOM     83  C   UNL A   1      40.081  22.069  27.060  1.00  0.00     0.200 A 
ATOM     84  F   UNL A   1      38.538  23.069  25.579  1.00  0.00    -0.200 F 
ATOM     85  F   UNL A   1      39.622  20.852  26.740  1.00  0.00    -0.200 F 
ENDBRANCH  51  75
BRANCH  63  86
ATOM     86  C   UNL A   1      47.195  27.718  26.468  1.00  0.00     0.064 A 
ATOM     87  C   UNL A   1      48.236  27.155  27.222  1.00  0.00     0.173 A 
ATOM     88  C   UNL A   1      47.357  27.782  25.075  1.00  0.00     0.173 A 
ATOM     89  F   UNL A   1      48.139  27.079  28.557  1.00  0.00    -0.203 F 
ATOM     90  C   UNL A   1      49.403  26.706  26.608  1.00  0.00     0.198 A 
ATOM     91  C   UNL A   1      48.509  27.298  24.461  1.00  0.00     0.198 A 
ATOM     92  F   UNL A   1      46.389  28.301  24.304  1.00  0.00    -0.203 F 
ATOM     93  F   UNL A   1      50.407  26.225  27.354  1.00  0.00    -0.200 F 
ATOM     94  C   UNL A   1      49.536  26.770  25.228  1.00  0.00     0.200 A 
ATOM     95  F   UNL A   1      48.626  27.344  23.127  1.00  0.00    -0.200 F 
ATOM     96  F   UNL A   1      50.656  26.330  24.640  1.00  0.00    -0.200 F 
ENDBRANCH  63  86
ENDBRANCH  37  38
ENDBRANCH  30  32
ENDBRANCH  29  30
ENDBRANCH  28  29
ENDBRANCH  27  28
ENDBRANCH  26  27
ENDBRANCH  25  26
ENDBRANCH  24  25
ENDBRANCH   1  24
TORSDOF 22
ENDMDL
MODEL 2
REMARK VINA RESULT:     -10.7      4.715      7.728
REMARK SMILES C[C@H](Cc1cccc2c1OC(C)(C)C2)C(=O)OCCOCCOCCOCCOC(=O)c1ccc(-c2c3nc(c(-c4c(F)c(F)c(F)c(F)c4F)c4ccc([nH]4)c(-c4c(F)c(F)c(F)c(F)c4F)c4nc(c(-c5c(F)c(F)c(F)c(F)c5F)c5ccc2[nH]5)C=C4)C=C3)cc1
REMARK SMILES IDX 23 1 22 2 21 3 20 4 19 5 18 6 17 7 15 8 16 9 2 10 1 11 3 12
REMARK SMILES IDX 4 13 5 14 9 15 6 16 8 17 10 18 7 19 14 20 11 21 12 22 13 23
REMARK SMILES IDX 24 24 25 25 26 26 27 27 28 28 29 29 30 30 31 31 32 32 33 33
REMARK SMILES IDX 94 34 34 35 93 36 35 37 36 38 37 39 87 40 38 41 92 42 86 43
REMARK SMILES IDX 88 44 39 45 91 46 85 47 84 48 40 50 72 51 52 52 71 53 53 54
REMARK SMILES IDX 56 55 70 56 89 57 54 58 55 59 69 61 90 62 57 63 41 64 42 65
REMARK SMILES IDX 50 66 43 67 44 68 48 69 51 70 45 71 46 72 49 73 47 74 73 75
REMARK SMILES IDX 74 76 82 77 75 78 76 79 80 80 83 81 77 82 78 83 81 84 79 85
REMARK SMILES IDX 58 86 59 87 67 88 60 89 61 90 65 91 68 92 62 93 63 94 66 95
REMARK SMILES IDX 64 96
REMARK H PARENT 88 49 56 60
REMARK Flexibility Score: inf
ROOT
ATOM      1  O   UNL A   1      32.727  27.772  26.990  1.00  0.00    -0.377 OA
ENDROOT
BRANCH   1   2
ATOM      2  C   UNL A   1      33.413  27.654  25.758  1.00  0.00     0.188 C 
BRANCH   2   3
ATOM      3  C   UNL A   1      33.669  26.221  25.268  1.00  0.00     0.188 C 
BRANCH   3   4
ATOM      4  O   UNL A   1      34.015  25.984  23.914  1.00  0.00    -0.376 OA
BRANCH   4   5
ATOM      5  C   UNL A   1      33.457  26.791  22.885  1.00  0.00     0.202 C 
BRANCH   5   6
ATOM      6  C   UNL A   1      31.968  26.748  22.519  1.00  0.00     0.261 C 
BRANCH   6   7
ATOM      7  O   UNL A   1      31.413  25.439  22.302  1.00  0.00    -0.463 OA
BRANCH   7   8
ATOM      8  C   UNL A   1      30.675  24.921  23.307  1.00  0.00     0.309 C 
ATOM      9  O   UNL A   1      29.756  25.534  23.850  1.00  0.00    -0.252 OA
BRANCH   8  10
ATOM     10  C   UNL A   1      30.965  23.455  23.657  1.00  0.00     0.100 C 
ATOM     11  C   UNL A   1      31.090  23.319  25.182  1.00  0.00     0.020 C 
BRANCH  10  12
ATOM     12  C   UNL A   1      32.020  22.590  22.923  1.00  0.00     0.054 C 
BRANCH  12  13
ATOM     13  C   UNL A   1      32.753  21.448  23.572  1.00  0.00    -0.005 A 
ATOM     14  C   UNL A   1      32.190  20.157  23.540  1.00  0.00     0.007 A 
ATOM     15  C   UNL A   1      33.991  21.563  24.165  1.00  0.00     0.126 A 
ATOM     16  C   UNL A   1      32.849  19.059  24.117  1.00  0.00     0.001 A 
ATOM     17  C   UNL A   1      34.638  20.496  24.761  1.00  0.00    -0.002 A 
ATOM     18  O   UNL A   1      34.697  22.724  24.214  1.00  0.00    -0.487 OA
ATOM     19  C   UNL A   1      34.085  19.227  24.743  1.00  0.00     0.008 A 
ATOM     20  C   UNL A   1      35.924  20.954  25.340  1.00  0.00     0.087 C 
ATOM     21  C   UNL A   1      35.857  22.466  25.029  1.00  0.00     0.108 C 
ATOM     22  C   UNL A   1      35.669  23.334  26.272  1.00  0.00     0.057 C 
ATOM     23  C   UNL A   1      37.080  22.926  24.237  1.00  0.00     0.057 C 
ENDBRANCH  12  13
ENDBRANCH  10  12
ENDBRANCH   8  10
ENDBRANCH   7   8
ENDBRANCH   6   7
ENDBRANCH   5   6
ENDBRANCH   4   5
ENDBRANCH   3   4
ENDBRANCH   2   3
ENDBRANCH   1   2
BRANCH   1  24
ATOM     24  C   UNL A   1      31.918  28.916  27.227  1.00  0.00     0.188 C 
BRANCH  24  25
ATOM     25  C   UNL A   1      32.424  30.303  26.788  1.00  0.00     0.188 C 
BRANCH  25  26
ATOM     26  O   UNL A   1      31.412  31.171  26.306  1.00  0.00    -0.376 OA
BRANCH  26  27
ATOM     27  C   UNL A   1      31.466  32.550  26.637  1.00  0.00     0.202 C 
BRANCH  27  28
ATOM     28  C   UNL A   1      32.496  33.022  27.678  1.00  0.00     0.261 C 
BRANCH  28  29
ATOM     29  O   UNL A   1      33.006  34.358  27.530  1.00  0.00    -0.460 OA
BRANCH  29  30
ATOM     30  C   UNL A   1      33.120  35.125  28.629  1.00  0.00     0.338 C 
ATOM     31  O   UNL A   1      32.339  35.978  29.022  1.00  0.00    -0.246 OA
BRANCH  30  32
ATOM     32  C   UNL A   1      34.277  34.639  29.407  1.00  0.00     0.060 A 
ATOM     33  C   UNL A   1      35.547  34.648  28.814  1.00  0.00     0.016 A 
ATOM     34  C   UNL A   1      34.106  34.149  30.703  1.00  0.00     0.016 A 
ATOM     35  C   UNL A   1      36.640  34.115  29.496  1.00  0.00     0.010 A 
ATOM     36  C   UNL A   1      35.197  33.596  31.378  1.00  0.00     0.010 A 
ATOM     37  C   UNL A   1      36.459  33.537  30.759  1.00  0.00    -0.014 A 
BRANCH  37  38
ATOM     38  C   UNL A   1      37.530  32.686  31.334  1.00  0.00     0.031 A 
ATOM     39  C   UNL A   1      38.031  33.010  32.715  1.00  0.00     0.074 A 
ATOM     40  C   UNL A   1      38.028  31.633  30.663  1.00  0.00     0.049 A 
ATOM     41  N   UNL A   1      38.992  32.451  33.407  1.00  0.00    -0.248 NA
ATOM     42  C   UNL A   1      37.358  34.119  33.409  1.00  0.00     0.031 C 
ATOM     43  C   UNL A   1      37.591  31.190  29.343  1.00  0.00     0.029 A 
ATOM     44  N   UNL A   1      39.022  30.750  31.007  1.00  0.00    -0.354 N 
ATOM     45  C   UNL A   1      39.043  33.147  34.609  1.00  0.00     0.074 A 
ATOM     46  C   UNL A   1      38.042  34.189  34.541  1.00  0.00     0.031 C 
ATOM     47  C   UNL A   1      38.325  30.123  28.978  1.00  0.00     0.029 A 
ATOM     48  C   UNL A   1      39.307  29.834  30.025  1.00  0.00     0.049 A 
ATOM     49  H   UNL A   1      39.485  30.771  31.875  1.00  0.00     0.167 HD
ATOM     50  C   UNL A   1      39.849  32.932  35.675  1.00  0.00     0.037 A 
ATOM     51  C   UNL A   1      40.268  28.892  29.969  1.00  0.00     0.037 A 
ATOM     52  C   UNL A   1      40.844  31.893  35.739  1.00  0.00     0.049 A 
ATOM     53  C   UNL A   1      41.205  28.722  31.140  1.00  0.00     0.074 A 
ATOM     54  C   UNL A   1      41.698  31.581  36.781  1.00  0.00     0.029 A 
ATOM     55  N   UNL A   1      41.125  31.005  34.712  1.00  0.00    -0.354 N 
ATOM     56  N   UNL A   1      41.236  29.367  32.281  1.00  0.00    -0.248 NA
ATOM     57  C   UNL A   1      42.241  27.685  31.014  1.00  0.00     0.031 C 
ATOM     58  C   UNL A   1      42.540  30.547  36.360  1.00  0.00     0.029 A 
ATOM     59  C   UNL A   1      42.162  30.165  35.083  1.00  0.00     0.049 A 
ATOM     60  H   UNL A   1      40.657  30.976  33.846  1.00  0.00     0.167 HD
ATOM     61  C   UNL A   1      42.265  28.795  33.019  1.00  0.00     0.074 A 
ATOM     62  C   UNL A   1      42.826  27.739  32.202  1.00  0.00     0.031 C 
ATOM     63  C   UNL A   1      42.705  29.112  34.263  1.00  0.00     0.037 A 
BRANCH  50  64
ATOM     64  C   UNL A   1      39.712  33.859  36.849  1.00  0.00     0.064 A 
ATOM     65  C   UNL A   1      40.378  35.092  36.904  1.00  0.00     0.173 A 
ATOM     66  C   UNL A   1      38.872  33.520  37.921  1.00  0.00     0.173 A 
ATOM     67  F   UNL A   1      41.205  35.458  35.914  1.00  0.00    -0.203 F 
ATOM     68  C   UNL A   1      40.229  35.939  38.001  1.00  0.00     0.198 A 
ATOM     69  C   UNL A   1      38.699  34.384  38.999  1.00  0.00     0.198 A 
ATOM     70  F   UNL A   1      38.208  32.353  37.920  1.00  0.00    -0.203 F 
ATOM     71  F   UNL A   1      40.916  37.088  38.055  1.00  0.00    -0.200 F 
ATOM     72  C   UNL A   1      39.384  35.588  39.042  1.00  0.00     0.200 A 
ATOM     73  F   UNL A   1      37.869  34.049  39.997  1.00  0.00    -0.200 F 
ATOM     74  F   UNL A   1      39.234  36.409  40.090  1.00  0.00    -0.200 F 
ENDBRANCH  50  64
BRANCH  51  75
ATOM     75  C   UNL A   1      40.411  28.045  28.754  1.00  0.00     0.064 A 
ATOM     76  C   UNL A   1      41.180  28.466  27.661  1.00  0.00     0.173 A 
ATOM     77  C   UNL A   1      39.758  26.808  28.652  1.00  0.00     0.173 A 
ATOM     78  F   UNL A   1      41.803  29.653  27.698  1.00  0.00    -0.203 F 
ATOM     79  C   UNL A   1      41.272  27.694  26.504  1.00  0.00     0.198 A 
ATOM     80  C   UNL A   1      39.878  26.020  27.508  1.00  0.00     0.198 A 
ATOM     81  F   UNL A   1      39.006  26.357  29.667  1.00  0.00    -0.203 F 
ATOM     82  F   UNL A   1      41.968  28.147  25.453  1.00  0.00    -0.200 F 
ATOM     83  C   UNL A   1      40.626  26.469  26.431  1.00  0.00     0.200 A 
ATOM     84  F   UNL A   1      39.265  24.831  27.449  1.00  0.00    -0.200 F 
ATOM     85  F   UNL A   1      40.718  25.726  25.321  1.00  0.00    -0.200 F 
ENDBRANCH  51  75
BRANCH  63  86
ATOM     86  C   UNL A   1      43.816  28.278  34.841  1.00  0.00     0.064 A 
ATOM     87  C   UNL A   1      43.566  27.074  35.517  1.00  0.00     0.173 A 
ATOM     88  C   UNL A   1      45.154  28.672  34.679  1.00  0.00     0.173 A 
ATOM     89  F   UNL A   1      42.307  26.656  35.710  1.00  0.00    -0.203 F 
ATOM     90  C   UNL A   1      44.612  26.314  36.037  1.00  0.00     0.198 A 
ATOM     91  C   UNL A   1      46.198  27.891  35.166  1.00  0.00     0.198 A 
ATOM     92  F   UNL A   1      45.451  29.809  34.031  1.00  0.00    -0.203 F 
ATOM     93  F   UNL A   1      44.347  25.197  36.728  1.00  0.00    -0.200 F 
ATOM     94  C   UNL A   1      45.927  26.718  35.854  1.00  0.00     0.200 A 
ATOM     95  F   UNL A   1      47.467  28.274  34.971  1.00  0.00    -0.200 F 
ATOM     96  F   UNL A   1      46.930  25.981  36.348  1.00  0.00    -0.200 F 
ENDBRANCH  63  86
ENDBRANCH  37  38
ENDBRANCH  30  32
ENDBRANCH  29  30
ENDBRANCH  28  29
ENDBRANCH  27  28
ENDBRANCH  26  27
ENDBRANCH  25  26
ENDBRANCH  24  25
ENDBRANCH   1  24
TORSDOF 22
ENDMDL
MODEL 3
REMARK VINA RESULT:     -10.6      5.053      9.894
REMARK SMILES C[C@H](Cc1cccc2c1OC(C)(C)C2)C(=O)OCCOCCOCCOCCOC(=O)c1ccc(-c2c3nc(c(-c4c(F)c(F)c(F)c(F)c4F)c4ccc([nH]4)c(-c4c(F)c(F)c(F)c(F)c4F)c4nc(c(-c5c(F)c(F)c(F)c(F)c5F)c5ccc2[nH]5)C=C4)C=C3)cc1
REMARK SMILES IDX 23 1 22 2 21 3 20 4 19 5 18 6 17 7 15 8 16 9 2 10 1 11 3 12
REMARK SMILES IDX 4 13 5 14 9 15 6 16 8 17 10 18 7 19 14 20 11 21 12 22 13 23
REMARK SMILES IDX 24 24 25 25 26 26 27 27 28 28 29 29 30 30 31 31 32 32 33 33
REMARK SMILES IDX 94 34 34 35 93 36 35 37 36 38 37 39 87 40 38 41 92 42 86 43
REMARK SMILES IDX 88 44 39 45 91 46 85 47 84 48 40 50 72 51 52 52 71 53 53 54
REMARK SMILES IDX 56 55 70 56 89 57 54 58 55 59 69 61 90 62 57 63 41 64 42 65
REMARK SMILES IDX 50 66 43 67 44 68 48 69 51 70 45 71 46 72 49 73 47 74 73 75
REMARK SMILES IDX 74 76 82 77 75 78 76 79 80 80 83 81 77 82 78 83 81 84 79 85
REMARK SMILES IDX 58 86 59 87 67 88 60 89 61 90 65 91 68 92 62 93 63 94 66 95
REMARK SMILES IDX 64 96
REMARK H PARENT 88 49 56 60
REMARK Flexibility Score: inf
ROOT
ATOM      1  O   UNL A   1      33.380  27.418  26.876  1.00  0.00    -0.377 OA
ENDROOT
BRANCH   1   2
ATOM      2  C   UNL A   1      33.253  26.226  26.125  1.00  0.00     0.188 C 
BRANCH   2   3
ATOM      3  C   UNL A   1      33.987  26.201  24.775  1.00  0.00     0.188 C 
BRANCH   3   4
ATOM      4  O   UNL A   1      33.899  27.311  23.898  1.00  0.00    -0.376 OA
BRANCH   4   5
ATOM      5  C   UNL A   1      32.996  27.282  22.801  1.00  0.00     0.202 C 
BRANCH   5   6
ATOM      6  C   UNL A   1      33.118  26.264  21.660  1.00  0.00     0.261 C 
BRANCH   6   7
ATOM      7  O   UNL A   1      32.271  25.107  21.757  1.00  0.00    -0.463 OA
BRANCH   7   8
ATOM      8  C   UNL A   1      32.829  23.988  22.267  1.00  0.00     0.309 C 
ATOM      9  O   UNL A   1      33.979  23.634  22.008  1.00  0.00    -0.252 OA
BRANCH   8  10
ATOM     10  C   UNL A   1      31.983  23.237  23.304  1.00  0.00     0.100 C 
ATOM     11  C   UNL A   1      30.655  23.980  23.502  1.00  0.00     0.020 C 
BRANCH  10  12
ATOM     12  C   UNL A   1      32.543  22.709  24.649  1.00  0.00     0.054 C 
BRANCH  12  13
ATOM     13  C   UNL A   1      33.756  21.825  24.753  1.00  0.00    -0.005 A 
ATOM     14  C   UNL A   1      35.007  22.399  25.052  1.00  0.00     0.007 A 
ATOM     15  C   UNL A   1      33.724  20.454  24.626  1.00  0.00     0.126 A 
ATOM     16  C   UNL A   1      36.161  21.608  25.177  1.00  0.00     0.001 A 
ATOM     17  C   UNL A   1      34.858  19.667  24.719  1.00  0.00    -0.002 A 
ATOM     18  O   UNL A   1      32.585  19.744  24.408  1.00  0.00    -0.487 OA
ATOM     19  C   UNL A   1      36.092  20.226  25.001  1.00  0.00     0.008 A 
ATOM     20  C   UNL A   1      34.497  18.246  24.497  1.00  0.00     0.087 C 
ATOM     21  C   UNL A   1      32.987  18.376  24.197  1.00  0.00     0.108 C 
ATOM     22  C   UNL A   1      32.628  18.079  22.742  1.00  0.00     0.057 C 
ATOM     23  C   UNL A   1      32.154  17.508  25.139  1.00  0.00     0.057 C 
ENDBRANCH  12  13
ENDBRANCH  10  12
ENDBRANCH   8  10
ENDBRANCH   7   8
ENDBRANCH   6   7
ENDBRANCH   5   6
ENDBRANCH   4   5
ENDBRANCH   3   4
ENDBRANCH   2   3
ENDBRANCH   1   2
BRANCH   1  24
ATOM     24  C   UNL A   1      32.222  28.192  27.152  1.00  0.00     0.188 C 
BRANCH  24  25
ATOM     25  C   UNL A   1      31.809  29.309  26.174  1.00  0.00     0.188 C 
BRANCH  25  26
ATOM     26  O   UNL A   1      32.229  30.607  26.555  1.00  0.00    -0.376 OA
BRANCH  26  27
ATOM     27  C   UNL A   1      31.362  31.709  26.335  1.00  0.00     0.202 C 
BRANCH  27  28
ATOM     28  C   UNL A   1      31.777  33.094  26.862  1.00  0.00     0.261 C 
BRANCH  28  29
ATOM     29  O   UNL A   1      32.990  33.163  27.629  1.00  0.00    -0.460 OA
BRANCH  29  30
ATOM     30  C   UNL A   1      33.215  34.260  28.375  1.00  0.00     0.338 C 
ATOM     31  O   UNL A   1      32.529  35.268  28.435  1.00  0.00    -0.246 OA
BRANCH  30  32
ATOM     32  C   UNL A   1      34.353  33.977  29.272  1.00  0.00     0.060 A 
ATOM     33  C   UNL A   1      35.656  34.204  28.810  1.00  0.00     0.016 A 
ATOM     34  C   UNL A   1      34.136  33.462  30.552  1.00  0.00     0.016 A 
ATOM     35  C   UNL A   1      36.749  33.863  29.606  1.00  0.00     0.010 A 
ATOM     36  C   UNL A   1      35.232  33.101  31.341  1.00  0.00     0.010 A 
ATOM     37  C   UNL A   1      36.542  33.260  30.852  1.00  0.00    -0.014 A 
BRANCH  37  38
ATOM     38  C   UNL A   1      37.678  32.603  31.544  1.00  0.00     0.031 A 
ATOM     39  C   UNL A   1      38.338  31.428  30.873  1.00  0.00     0.074 A 
ATOM     40  C   UNL A   1      38.136  33.051  32.726  1.00  0.00     0.049 A 
ATOM     41  N   UNL A   1      39.307  30.659  31.300  1.00  0.00    -0.248 NA
ATOM     42  C   UNL A   1      37.831  31.073  29.538  1.00  0.00     0.031 C 
ATOM     43  C   UNL A   1      37.614  34.205  33.451  1.00  0.00     0.029 A 
ATOM     44  N   UNL A   1      39.145  32.574  33.526  1.00  0.00    -0.354 N 
ATOM     45  C   UNL A   1      39.516  29.725  30.292  1.00  0.00     0.074 A 
ATOM     46  C   UNL A   1      38.554  30.002  29.248  1.00  0.00     0.031 C 
ATOM     47  C   UNL A   1      38.298  34.341  34.601  1.00  0.00     0.029 A 
ATOM     48  C   UNL A   1      39.279  33.260  34.707  1.00  0.00     0.049 A 
ATOM     49  H   UNL A   1      39.717  31.814  33.277  1.00  0.00     0.167 HD
ATOM     50  C   UNL A   1      40.433  28.730  30.239  1.00  0.00     0.037 A 
ATOM     51  C   UNL A   1      40.083  33.023  35.763  1.00  0.00     0.037 A 
ATOM     52  C   UNL A   1      41.389  28.458  31.281  1.00  0.00     0.049 A 
ATOM     53  C   UNL A   1      41.044  31.861  35.713  1.00  0.00     0.074 A 
ATOM     54  C   UNL A   1      42.372  27.486  31.315  1.00  0.00     0.029 A 
ATOM     55  N   UNL A   1      41.474  29.156  32.477  1.00  0.00    -0.354 N 
ATOM     56  N   UNL A   1      41.253  30.995  34.751  1.00  0.00    -0.248 NA
ATOM     57  C   UNL A   1      41.886  31.647  36.900  1.00  0.00     0.031 C 
ATOM     58  C   UNL A   1      43.007  27.552  32.559  1.00  0.00     0.029 A 
ATOM     59  C   UNL A   1      42.472  28.614  33.270  1.00  0.00     0.049 A 
ATOM     60  H   UNL A   1      40.908  29.922  32.725  1.00  0.00     0.167 HD
ATOM     61  C   UNL A   1      42.269  30.159  35.199  1.00  0.00     0.074 A 
ATOM     62  C   UNL A   1      42.645  30.630  36.515  1.00  0.00     0.031 C 
ATOM     63  C   UNL A   1      42.842  29.098  34.576  1.00  0.00     0.037 A 
BRANCH  50  64
ATOM     64  C   UNL A   1      40.425  27.839  29.031  1.00  0.00     0.064 A 
ATOM     65  C   UNL A   1      41.195  28.122  27.893  1.00  0.00     0.173 A 
ATOM     66  C   UNL A   1      39.657  26.664  29.026  1.00  0.00     0.173 A 
ATOM     67  F   UNL A   1      41.935  29.240  27.839  1.00  0.00    -0.203 F 
ATOM     68  C   UNL A   1      41.177  27.276  26.786  1.00  0.00     0.198 A 
ATOM     69  C   UNL A   1      39.668  25.803  27.932  1.00  0.00     0.198 A 
ATOM     70  F   UNL A   1      38.903  26.343  30.089  1.00  0.00    -0.203 F 
ATOM     71  F   UNL A   1      41.881  27.593  25.691  1.00  0.00    -0.200 F 
ATOM     72  C   UNL A   1      40.421  26.114  26.810  1.00  0.00     0.200 A 
ATOM     73  F   UNL A   1      38.948  24.673  27.964  1.00  0.00    -0.200 F 
ATOM     74  F   UNL A   1      40.413  25.296  25.749  1.00  0.00    -0.200 F 
ENDBRANCH  50  64
BRANCH  51  75
ATOM     75  C   UNL A   1      40.005  33.891  36.969  1.00  0.00     0.064 A 
ATOM     76  C   UNL A   1      40.840  35.007  37.117  1.00  0.00     0.173 A 
ATOM     77  C   UNL A   1      39.111  33.606  38.011  1.00  0.00     0.173 A 
ATOM     78  F   UNL A   1      41.731  35.307  36.160  1.00  0.00    -0.203 F 
ATOM     79  C   UNL A   1      40.801  35.789  38.270  1.00  0.00     0.198 A 
ATOM     80  C   UNL A   1      39.048  34.409  39.149  1.00  0.00     0.198 A 
ATOM     81  F   UNL A   1      38.289  32.548  37.924  1.00  0.00    -0.203 F 
ATOM     82  F   UNL A   1      41.650  36.816  38.408  1.00  0.00    -0.200 F 
ATOM     83  C   UNL A   1      39.901  35.493  39.282  1.00  0.00     0.200 A 
ATOM     84  F   UNL A   1      38.165  34.128  40.117  1.00  0.00    -0.200 F 
ATOM     85  F   UNL A   1      39.861  36.247  40.388  1.00  0.00    -0.200 F 
ENDBRANCH  51  75
BRANCH  63  86
ATOM     86  C   UNL A   1      43.970  28.401  35.286  1.00  0.00     0.064 A 
ATOM     87  C   UNL A   1      43.744  27.353  36.191  1.00  0.00     0.173 A 
ATOM     88  C   UNL A   1      45.302  28.762  35.023  1.00  0.00     0.173 A 
ATOM     89  F   UNL A   1      42.493  26.975  36.488  1.00  0.00    -0.203 F 
ATOM     90  C   UNL A   1      44.806  26.717  36.830  1.00  0.00     0.198 A 
ATOM     91  C   UNL A   1      46.361  28.099  35.634  1.00  0.00     0.198 A 
ATOM     92  F   UNL A   1      45.576  29.750  34.157  1.00  0.00    -0.203 F 
ATOM     93  F   UNL A   1      44.564  25.758  37.734  1.00  0.00    -0.200 F 
ATOM     94  C   UNL A   1      46.114  27.084  36.545  1.00  0.00     0.200 A 
ATOM     95  F   UNL A   1      47.624  28.443  35.342  1.00  0.00    -0.200 F 
ATOM     96  F   UNL A   1      47.133  26.465  37.155  1.00  0.00    -0.200 F 
ENDBRANCH  63  86
ENDBRANCH  37  38
ENDBRANCH  30  32
ENDBRANCH  29  30
ENDBRANCH  28  29
ENDBRANCH  27  28
ENDBRANCH  26  27
ENDBRANCH  25  26
ENDBRANCH  24  25
ENDBRANCH   1  24
TORSDOF 22
ENDMDL
