MODEL 1
REMARK VINA RESULT:      -9.4      0.000      0.000
REMARK SMILES O=C(Cc1ccc(S(=O)(=O)C[C@H]2CCCO2)cc1)OCCOCCOCCOCCOC(=O)c1ccc(-c2c3nc(c(-c4c(F)c(F)c(F)c(F)c4F)c4ccc([nH]4)c(-c4c(F)c(F)c(F)c(F)c4F)c4nc(c(-c5c(F)c(F)c(F)c(F)c5F)c5ccc2[nH]5)C=C4)C=C3)cc1
REMARK SMILES IDX 24 1 23 2 22 3 21 4 20 5 19 6 2 7 1 8 3 9 4 10 5 11 18 12
REMARK SMILES IDX 6 13 17 14 7 15 8 16 9 17 10 18 11 19 12 20 13 21 16 22
REMARK SMILES IDX 14 23 15 24 25 25 26 26 27 27 28 28 29 29 30 30 31 31 32 32
REMARK SMILES IDX 33 33 34 34 35 35 96 36 36 37 95 38 37 39 38 40 39 41 89 42
REMARK SMILES IDX 40 43 94 44 88 45 90 46 41 47 93 48 87 49 86 50 42 52 74 53
REMARK SMILES IDX 54 54 73 55 55 56 58 57 72 58 91 59 56 60 57 61 71 63 92 64
REMARK SMILES IDX 59 65 43 66 44 67 52 68 45 69 46 70 50 71 53 72 47 73 48 74
REMARK SMILES IDX 51 75 49 76 75 77 76 78 84 79 77 80 78 81 82 82 85 83 79 84
REMARK SMILES IDX 80 85 83 86 81 87 60 88 61 89 69 90 62 91 63 92 67 93 70 94
REMARK SMILES IDX 64 95 65 96 68 97 66 98
REMARK H PARENT 90 51 58 62
REMARK Flexibility Score: inf
ROOT
ATOM      1  C   UNL A   1      34.211  22.934  24.499  1.00  0.00     0.188 C 
ENDROOT
BRANCH   1   2
ATOM      2  C   UNL A   1      32.834  23.240  25.073  1.00  0.00     0.188 C 
BRANCH   2   3
ATOM      3  O   UNL A   1      32.410  24.595  25.221  1.00  0.00    -0.376 OA
BRANCH   3   4
ATOM      4  C   UNL A   1      33.031  25.504  26.111  1.00  0.00     0.202 C 
BRANCH   4   5
ATOM      5  C   UNL A   1      33.314  26.939  25.680  1.00  0.00     0.261 C 
BRANCH   5   6
ATOM      6  O   UNL A   1      32.352  27.511  24.799  1.00  0.00    -0.463 OA
BRANCH   6   7
ATOM      7  C   UNL A   1      31.804  28.724  25.069  1.00  0.00     0.310 C 
ATOM      8  O   UNL A   1      31.530  29.484  24.142  1.00  0.00    -0.252 OA
BRANCH   7   9
ATOM      9  C   UNL A   1      31.684  29.161  26.521  1.00  0.00     0.158 C 
BRANCH   9  10
ATOM     10  C   UNL A   1      32.305  30.493  26.817  1.00  0.00    -0.037 A 
ATOM     11  C   UNL A   1      31.535  31.654  26.708  1.00  0.00     0.005 A 
ATOM     12  C   UNL A   1      33.630  30.575  27.269  1.00  0.00     0.005 A 
ATOM     13  C   UNL A   1      32.030  32.861  27.187  1.00  0.00     0.020 A 
ATOM     14  C   UNL A   1      34.123  31.774  27.769  1.00  0.00     0.020 A 
ATOM     15  C   UNL A   1      33.292  32.895  27.783  1.00  0.00     0.067 A 
BRANCH  15  16
ATOM     16  S   UNL A   1      33.777  34.334  28.699  1.00  0.00     0.180 S 
ATOM     17  O   UNL A   1      35.081  34.706  28.184  1.00  0.00    -0.224 OA
ATOM     18  O   UNL A   1      32.680  35.283  28.656  1.00  0.00    -0.224 OA
BRANCH  16  19
ATOM     19  C   UNL A   1      33.995  33.827  30.384  1.00  0.00     0.174 C 
BRANCH  19  20
ATOM     20  C   UNL A   1      35.320  33.184  30.775  1.00  0.00     0.133 C 
ATOM     21  C   UNL A   1      36.315  34.054  31.524  1.00  0.00     0.035 C 
ATOM     22  O   UNL A   1      35.160  31.967  31.511  1.00  0.00    -0.377 OA
ATOM     23  C   UNL A   1      36.364  33.460  32.907  1.00  0.00     0.031 C 
ATOM     24  C   UNL A   1      35.993  32.014  32.679  1.00  0.00     0.160 C 
ENDBRANCH  19  20
ENDBRANCH  16  19
ENDBRANCH  15  16
ENDBRANCH   9  10
ENDBRANCH   7   9
ENDBRANCH   6   7
ENDBRANCH   5   6
ENDBRANCH   4   5
ENDBRANCH   3   4
ENDBRANCH   2   3
ENDBRANCH   1   2
BRANCH   1  25
ATOM     25  O   UNL A   1      35.000  22.094  25.324  1.00  0.00    -0.377 OA
BRANCH  25  26
ATOM     26  C   UNL A   1      34.832  20.714  25.083  1.00  0.00     0.188 C 
BRANCH  26  27
ATOM     27  C   UNL A   1      36.116  19.875  24.917  1.00  0.00     0.188 C 
BRANCH  27  28
ATOM     28  O   UNL A   1      37.417  20.446  24.931  1.00  0.00    -0.376 OA
BRANCH  28  29
ATOM     29  C   UNL A   1      38.564  19.650  25.167  1.00  0.00     0.202 C 
BRANCH  29  30
ATOM     30  C   UNL A   1      39.814  20.294  25.778  1.00  0.00     0.261 C 
BRANCH  30  31
ATOM     31  O   UNL A   1      40.667  19.395  26.497  1.00  0.00    -0.460 OA
BRANCH  31  32
ATOM     32  C   UNL A   1      41.975  19.406  26.148  1.00  0.00     0.338 C 
ATOM     33  O   UNL A   1      42.589  18.550  25.532  1.00  0.00    -0.246 OA
BRANCH  32  34
ATOM     34  C   UNL A   1      42.528  20.746  26.446  1.00  0.00     0.060 A 
ATOM     35  C   UNL A   1      42.465  21.213  27.768  1.00  0.00     0.016 A 
ATOM     36  C   UNL A   1      43.181  21.495  25.463  1.00  0.00     0.016 A 
ATOM     37  C   UNL A   1      43.032  22.440  28.110  1.00  0.00     0.010 A 
ATOM     38  C   UNL A   1      43.713  22.741  25.794  1.00  0.00     0.010 A 
ATOM     39  C   UNL A   1      43.607  23.232  27.109  1.00  0.00    -0.014 A 
BRANCH  39  40
ATOM     40  C   UNL A   1      43.809  24.679  27.339  1.00  0.00     0.031 A 
ATOM     41  C   UNL A   1      45.229  25.161  27.408  1.00  0.00     0.074 A 
ATOM     42  C   UNL A   1      42.787  25.526  27.538  1.00  0.00     0.049 A 
ATOM     43  N   UNL A   1      45.702  26.323  27.772  1.00  0.00    -0.248 NA
ATOM     44  C   UNL A   1      46.261  24.179  27.031  1.00  0.00     0.031 C 
ATOM     45  C   UNL A   1      41.372  25.183  27.452  1.00  0.00     0.029 A 
ATOM     46  N   UNL A   1      42.797  26.851  27.894  1.00  0.00    -0.354 N 
ATOM     47  C   UNL A   1      47.083  26.202  27.693  1.00  0.00     0.074 A 
ATOM     48  C   UNL A   1      47.374  24.854  27.262  1.00  0.00     0.031 C 
ATOM     49  C   UNL A   1      40.645  26.263  27.789  1.00  0.00     0.029 A 
ATOM     50  C   UNL A   1      41.548  27.355  28.156  1.00  0.00     0.049 A 
ATOM     51  H   UNL A   1      43.620  27.389  27.957  1.00  0.00     0.167 HD
ATOM     52  C   UNL A   1      48.027  27.131  27.965  1.00  0.00     0.037 A 
ATOM     53  C   UNL A   1      41.186  28.545  28.676  1.00  0.00     0.037 A 
ATOM     54  C   UNL A   1      47.728  28.464  28.411  1.00  0.00     0.049 A 
ATOM     55  C   UNL A   1      42.251  29.550  29.034  1.00  0.00     0.074 A 
ATOM     56  C   UNL A   1      48.603  29.495  28.694  1.00  0.00     0.029 A 
ATOM     57  N   UNL A   1      46.449  28.941  28.654  1.00  0.00    -0.354 N 
ATOM     58  N   UNL A   1      43.556  29.446  28.936  1.00  0.00    -0.248 NA
ATOM     59  C   UNL A   1      41.796  30.839  29.576  1.00  0.00     0.031 C 
ATOM     60  C   UNL A   1      47.856  30.578  29.167  1.00  0.00     0.029 A 
ATOM     61  C   UNL A   1      46.511  30.244  29.114  1.00  0.00     0.049 A 
ATOM     62  H   UNL A   1      45.619  28.427  28.520  1.00  0.00     0.167 HD
ATOM     63  C   UNL A   1      44.074  30.659  29.374  1.00  0.00     0.074 A 
ATOM     64  C   UNL A   1      42.942  31.486  29.740  1.00  0.00     0.031 C 
ATOM     65  C   UNL A   1      45.369  31.054  29.461  1.00  0.00     0.037 A 
BRANCH  52  66
ATOM     66  C   UNL A   1      49.459  26.703  27.845  1.00  0.00     0.064 A 
ATOM     67  C   UNL A   1      50.244  26.411  28.970  1.00  0.00     0.173 A 
ATOM     68  C   UNL A   1      50.065  26.617  26.582  1.00  0.00     0.173 A 
ATOM     69  F   UNL A   1      49.719  26.503  30.202  1.00  0.00    -0.203 F 
ATOM     70  C   UNL A   1      51.594  26.092  28.839  1.00  0.00     0.198 A 
ATOM     71  C   UNL A   1      51.405  26.263  26.453  1.00  0.00     0.198 A 
ATOM     72  F   UNL A   1      49.361  26.889  25.473  1.00  0.00    -0.203 F 
ATOM     73  F   UNL A   1      52.341  25.890  29.933  1.00  0.00    -0.200 F 
ATOM     74  C   UNL A   1      52.171  26.014  27.582  1.00  0.00     0.200 A 
ATOM     75  F   UNL A   1      51.959  26.180  25.236  1.00  0.00    -0.200 F 
ATOM     76  F   UNL A   1      53.472  25.714  27.457  1.00  0.00    -0.200 F 
ENDBRANCH  52  66
BRANCH  53  77
ATOM     77  C   UNL A   1      39.748  28.831  28.916  1.00  0.00     0.064 A 
ATOM     78  C   UNL A   1      39.169  28.632  30.177  1.00  0.00     0.173 A 
ATOM     79  C   UNL A   1      38.927  29.332  27.894  1.00  0.00     0.173 A 
ATOM     80  F   UNL A   1      39.906  28.132  31.179  1.00  0.00    -0.203 F 
ATOM     81  C   UNL A   1      37.825  28.921  30.405  1.00  0.00     0.198 A 
ATOM     82  C   UNL A   1      37.590  29.643  28.129  1.00  0.00     0.198 A 
ATOM     83  F   UNL A   1      39.432  29.537  26.668  1.00  0.00    -0.203 F 
ATOM     84  F   UNL A   1      37.290  28.698  31.613  1.00  0.00    -0.200 F 
ATOM     85  C   UNL A   1      37.039  29.435  29.385  1.00  0.00     0.200 A 
ATOM     86  F   UNL A   1      36.838  30.153  27.144  1.00  0.00    -0.200 F 
ATOM     87  F   UNL A   1      35.752  29.730  29.611  1.00  0.00    -0.200 F 
ENDBRANCH  53  77
BRANCH  65  88
ATOM     88  C   UNL A   1      45.643  32.456  29.920  1.00  0.00     0.064 A 
ATOM     89  C   UNL A   1      45.665  33.537  29.027  1.00  0.00     0.173 A 
ATOM     90  C   UNL A   1      45.798  32.730  31.288  1.00  0.00     0.173 A 
ATOM     91  F   UNL A   1      45.532  33.327  27.709  1.00  0.00    -0.203 F 
ATOM     92  C   UNL A   1      45.844  34.840  29.487  1.00  0.00     0.198 A 
ATOM     93  C   UNL A   1      45.948  34.035  31.747  1.00  0.00     0.198 A 
ATOM     94  F   UNL A   1      45.776  31.731  32.184  1.00  0.00    -0.203 F 
ATOM     95  F   UNL A   1      45.892  35.856  28.615  1.00  0.00    -0.200 F 
ATOM     96  C   UNL A   1      45.973  35.088  30.845  1.00  0.00     0.200 A 
ATOM     97  F   UNL A   1      46.055  34.274  33.060  1.00  0.00    -0.200 F 
ATOM     98  F   UNL A   1      46.125  36.345  31.287  1.00  0.00    -0.200 F 
ENDBRANCH  65  88
ENDBRANCH  39  40
ENDBRANCH  32  34
ENDBRANCH  31  32
ENDBRANCH  30  31
ENDBRANCH  29  30
ENDBRANCH  28  29
ENDBRANCH  27  28
ENDBRANCH  26  27
ENDBRANCH  25  26
ENDBRANCH   1  25
TORSDOF 24
ENDMDL
MODEL 2
REMARK VINA RESULT:      -8.9      4.046      9.805
REMARK SMILES O=C(Cc1ccc(S(=O)(=O)C[C@H]2CCCO2)cc1)OCCOCCOCCOCCOC(=O)c1ccc(-c2c3nc(c(-c4c(F)c(F)c(F)c(F)c4F)c4ccc([nH]4)c(-c4c(F)c(F)c(F)c(F)c4F)c4nc(c(-c5c(F)c(F)c(F)c(F)c5F)c5ccc2[nH]5)C=C4)C=C3)cc1
REMARK SMILES IDX 24 1 23 2 22 3 21 4 20 5 19 6 2 7 1 8 3 9 4 10 5 11 18 12
REMARK SMILES IDX 6 13 17 14 7 15 8 16 9 17 10 18 11 19 12 20 13 21 16 22
REMARK SMILES IDX 14 23 15 24 25 25 26 26 27 27 28 28 29 29 30 30 31 31 32 32
REMARK SMILES IDX 33 33 34 34 35 35 96 36 36 37 95 38 37 39 38 40 39 41 89 42
REMARK SMILES IDX 40 43 94 44 88 45 90 46 41 47 93 48 87 49 86 50 42 52 74 53
REMARK SMILES IDX 54 54 73 55 55 56 58 57 72 58 91 59 56 60 57 61 71 63 92 64
REMARK SMILES IDX 59 65 43 66 44 67 52 68 45 69 46 70 50 71 53 72 47 73 48 74
REMARK SMILES IDX 51 75 49 76 75 77 76 78 84 79 77 80 78 81 82 82 85 83 79 84
REMARK SMILES IDX 80 85 83 86 81 87 60 88 61 89 69 90 62 91 63 92 67 93 70 94
REMARK SMILES IDX 64 95 65 96 68 97 66 98
REMARK H PARENT 90 51 58 62
REMARK Flexibility Score: inf
ROOT
ATOM      1  C   UNL A   1      34.113  34.729  30.650  1.00  0.00     0.188 C 
ENDROOT
BRANCH   1   2
ATOM      2  C   UNL A   1      33.225  34.801  29.414  1.00  0.00     0.188 C 
BRANCH   2   3
ATOM      3  O   UNL A   1      33.602  34.108  28.225  1.00  0.00    -0.376 OA
BRANCH   3   4
ATOM      4  C   UNL A   1      34.771  33.316  28.133  1.00  0.00     0.202 C 
BRANCH   4   5
ATOM      5  C   UNL A   1      34.775  31.877  28.636  1.00  0.00     0.261 C 
BRANCH   5   6
ATOM      6  O   UNL A   1      35.992  31.163  28.430  1.00  0.00    -0.463 OA
BRANCH   6   7
ATOM      7  C   UNL A   1      36.886  31.017  29.442  1.00  0.00     0.310 C 
ATOM      8  O   UNL A   1      37.530  31.991  29.827  1.00  0.00    -0.252 OA
BRANCH   7   9
ATOM      9  C   UNL A   1      37.167  29.617  29.967  1.00  0.00     0.158 C 
BRANCH   9  10
ATOM     10  C   UNL A   1      38.571  29.143  29.736  1.00  0.00    -0.037 A 
ATOM     11  C   UNL A   1      39.007  27.958  30.334  1.00  0.00     0.005 A 
ATOM     12  C   UNL A   1      39.424  29.842  28.870  1.00  0.00     0.005 A 
ATOM     13  C   UNL A   1      40.221  27.397  29.957  1.00  0.00     0.020 A 
ATOM     14  C   UNL A   1      40.629  29.276  28.472  1.00  0.00     0.020 A 
ATOM     15  C   UNL A   1      40.987  28.024  28.971  1.00  0.00     0.067 A 
BRANCH  15  16
ATOM     16  S   UNL A   1      42.343  27.144  28.242  1.00  0.00     0.180 S 
ATOM     17  O   UNL A   1      42.318  27.484  26.831  1.00  0.00    -0.224 OA
ATOM     18  O   UNL A   1      43.529  27.413  29.033  1.00  0.00    -0.224 OA
BRANCH  16  19
ATOM     19  C   UNL A   1      41.975  25.415  28.380  1.00  0.00     0.174 C 
BRANCH  19  20
ATOM     20  C   UNL A   1      42.855  24.430  27.620  1.00  0.00     0.133 C 
ATOM     21  C   UNL A   1      42.433  24.076  26.205  1.00  0.00     0.035 C 
ATOM     22  O   UNL A   1      44.232  24.818  27.584  1.00  0.00    -0.377 OA
ATOM     23  C   UNL A   1      43.492  24.694  25.332  1.00  0.00     0.031 C 
ATOM     24  C   UNL A   1      44.706  24.731  26.231  1.00  0.00     0.160 C 
ENDBRANCH  19  20
ENDBRANCH  16  19
ENDBRANCH  15  16
ENDBRANCH   9  10
ENDBRANCH   7   9
ENDBRANCH   6   7
ENDBRANCH   5   6
ENDBRANCH   4   5
ENDBRANCH   3   4
ENDBRANCH   2   3
ENDBRANCH   1   2
BRANCH   1  25
ATOM     25  O   UNL A   1      33.397  34.531  31.856  1.00  0.00    -0.377 OA
BRANCH  25  26
ATOM     26  C   UNL A   1      34.026  33.661  32.772  1.00  0.00     0.188 C 
BRANCH  26  27
ATOM     27  C   UNL A   1      35.311  32.955  32.290  1.00  0.00     0.188 C 
BRANCH  27  28
ATOM     28  O   UNL A   1      36.596  33.554  32.371  1.00  0.00    -0.376 OA
BRANCH  28  29
ATOM     29  C   UNL A   1      36.904  34.494  33.385  1.00  0.00     0.202 C 
BRANCH  29  30
ATOM     30  C   UNL A   1      37.134  34.004  34.820  1.00  0.00     0.261 C 
BRANCH  30  31
ATOM     31  O   UNL A   1      36.847  32.617  35.037  1.00  0.00    -0.460 OA
BRANCH  31  32
ATOM     32  C   UNL A   1      37.659  31.968  35.905  1.00  0.00     0.338 C 
ATOM     33  O   UNL A   1      37.492  31.805  37.102  1.00  0.00    -0.246 OA
BRANCH  32  34
ATOM     34  C   UNL A   1      38.714  31.277  35.131  1.00  0.00     0.060 A 
ATOM     35  C   UNL A   1      40.040  31.367  35.585  1.00  0.00     0.016 A 
ATOM     36  C   UNL A   1      38.398  30.477  34.029  1.00  0.00     0.016 A 
ATOM     37  C   UNL A   1      41.058  30.678  34.928  1.00  0.00     0.010 A 
ATOM     38  C   UNL A   1      39.421  29.820  33.346  1.00  0.00     0.010 A 
ATOM     39  C   UNL A   1      40.757  29.949  33.771  1.00  0.00    -0.014 A 
BRANCH  39  40
ATOM     40  C   UNL A   1      41.836  29.589  32.825  1.00  0.00     0.031 A 
ATOM     41  C   UNL A   1      42.622  28.348  33.136  1.00  0.00     0.074 A 
ATOM     42  C   UNL A   1      42.151  30.352  31.767  1.00  0.00     0.049 A 
ATOM     43  N   UNL A   1      43.721  27.896  32.595  1.00  0.00    -0.248 NA
ATOM     44  C   UNL A   1      42.099  27.513  34.232  1.00  0.00     0.031 C 
ATOM     45  C   UNL A   1      41.433  31.550  31.342  1.00  0.00     0.029 A 
ATOM     46  N   UNL A   1      43.191  30.243  30.879  1.00  0.00    -0.354 N 
ATOM     47  C   UNL A   1      44.033  26.742  33.301  1.00  0.00     0.074 A 
ATOM     48  C   UNL A   1      43.020  26.569  34.315  1.00  0.00     0.031 C 
ATOM     49  C   UNL A   1      42.082  32.092  30.296  1.00  0.00     0.029 A 
ATOM     50  C   UNL A   1      43.280  31.301  30.010  1.00  0.00     0.049 A 
ATOM     51  H   UNL A   1      43.814  29.480  30.866  1.00  0.00     0.167 HD
ATOM     52  C   UNL A   1      45.079  25.903  33.123  1.00  0.00     0.037 A 
ATOM     53  C   UNL A   1      44.245  31.613  29.123  1.00  0.00     0.037 A 
ATOM     54  C   UNL A   1      46.093  26.093  32.123  1.00  0.00     0.049 A 
ATOM     55  C   UNL A   1      45.439  30.703  28.978  1.00  0.00     0.074 A 
ATOM     56  C   UNL A   1      47.184  25.296  31.838  1.00  0.00     0.029 A 
ATOM     57  N   UNL A   1      46.143  27.173  31.253  1.00  0.00    -0.354 N 
ATOM     58  N   UNL A   1      45.722  29.598  29.626  1.00  0.00    -0.248 NA
ATOM     59  C   UNL A   1      46.448  31.082  27.978  1.00  0.00     0.031 C 
ATOM     60  C   UNL A   1      47.928  25.924  30.835  1.00  0.00     0.029 A 
ATOM     61  C   UNL A   1      47.265  27.078  30.449  1.00  0.00     0.049 A 
ATOM     62  H   UNL A   1      45.478  27.899  31.215  1.00  0.00     0.167 HD
ATOM     63  C   UNL A   1      46.921  29.136  29.097  1.00  0.00     0.074 A 
ATOM     64  C   UNL A   1      47.314  30.081  28.072  1.00  0.00     0.031 C 
ATOM     65  C   UNL A   1      47.630  28.026  29.425  1.00  0.00     0.037 A 
BRANCH  52  66
ATOM     66  C   UNL A   1      45.198  24.752  34.076  1.00  0.00     0.064 A 
ATOM     67  C   UNL A   1      45.968  24.832  35.246  1.00  0.00     0.173 A 
ATOM     68  C   UNL A   1      44.558  23.535  33.794  1.00  0.00     0.173 A 
ATOM     69  F   UNL A   1      46.621  25.966  35.549  1.00  0.00    -0.203 F 
ATOM     70  C   UNL A   1      46.128  23.725  36.076  1.00  0.00     0.198 A 
ATOM     71  C   UNL A   1      44.692  22.441  34.644  1.00  0.00     0.198 A 
ATOM     72  F   UNL A   1      43.813  23.402  32.687  1.00  0.00    -0.203 F 
ATOM     73  F   UNL A   1      46.928  23.804  37.148  1.00  0.00    -0.200 F 
ATOM     74  C   UNL A   1      45.487  22.533  35.777  1.00  0.00     0.200 A 
ATOM     75  F   UNL A   1      44.065  21.292  34.358  1.00  0.00    -0.200 F 
ATOM     76  F   UNL A   1      45.648  21.466  36.573  1.00  0.00    -0.200 F 
ENDBRANCH  52  66
BRANCH  53  77
ATOM     77  C   UNL A   1      44.132  32.863  28.328  1.00  0.00     0.064 A 
ATOM     78  C   UNL A   1      43.759  32.832  26.977  1.00  0.00     0.173 A 
ATOM     79  C   UNL A   1      44.372  34.117  28.909  1.00  0.00     0.173 A 
ATOM     80  F   UNL A   1      43.543  31.656  26.370  1.00  0.00    -0.203 F 
ATOM     81  C   UNL A   1      43.633  34.008  26.239  1.00  0.00     0.198 A 
ATOM     82  C   UNL A   1      44.223  35.293  28.177  1.00  0.00     0.198 A 
ATOM     83  F   UNL A   1      44.734  34.201  30.198  1.00  0.00    -0.203 F 
ATOM     84  F   UNL A   1      43.301  33.949  24.942  1.00  0.00    -0.200 F 
ATOM     85  C   UNL A   1      43.855  35.237  26.841  1.00  0.00     0.200 A 
ATOM     86  F   UNL A   1      44.424  36.479  28.767  1.00  0.00    -0.200 F 
ATOM     87  F   UNL A   1      43.716  36.367  26.134  1.00  0.00    -0.200 F 
ENDBRANCH  53  77
BRANCH  65  88
ATOM     88  C   UNL A   1      48.877  27.736  28.642  1.00  0.00     0.064 A 
ATOM     89  C   UNL A   1      48.836  27.097  27.395  1.00  0.00     0.173 A 
ATOM     90  C   UNL A   1      50.122  28.185  29.110  1.00  0.00     0.173 A 
ATOM     91  F   UNL A   1      47.673  26.639  26.908  1.00  0.00    -0.203 F 
ATOM     92  C   UNL A   1      49.999  26.908  26.651  1.00  0.00     0.198 A 
ATOM     93  C   UNL A   1      51.277  28.021  28.352  1.00  0.00     0.198 A 
ATOM     94  F   UNL A   1      50.212  28.810  30.294  1.00  0.00    -0.203 F 
ATOM     95  F   UNL A   1      49.943  26.267  25.475  1.00  0.00    -0.200 F 
ATOM     96  C   UNL A   1      51.214  27.380  27.124  1.00  0.00     0.200 A 
ATOM     97  F   UNL A   1      52.446  28.492  28.804  1.00  0.00    -0.200 F 
ATOM     98  F   UNL A   1      52.328  27.214  26.398  1.00  0.00    -0.200 F 
ENDBRANCH  65  88
ENDBRANCH  39  40
ENDBRANCH  32  34
ENDBRANCH  31  32
ENDBRANCH  30  31
ENDBRANCH  29  30
ENDBRANCH  28  29
ENDBRANCH  27  28
ENDBRANCH  26  27
ENDBRANCH  25  26
ENDBRANCH   1  25
TORSDOF 24
ENDMDL
MODEL 3
REMARK VINA RESULT:      -8.9      1.233      2.305
REMARK SMILES O=C(Cc1ccc(S(=O)(=O)C[C@H]2CCCO2)cc1)OCCOCCOCCOCCOC(=O)c1ccc(-c2c3nc(c(-c4c(F)c(F)c(F)c(F)c4F)c4ccc([nH]4)c(-c4c(F)c(F)c(F)c(F)c4F)c4nc(c(-c5c(F)c(F)c(F)c(F)c5F)c5ccc2[nH]5)C=C4)C=C3)cc1
REMARK SMILES IDX 24 1 23 2 22 3 21 4 20 5 19 6 2 7 1 8 3 9 4 10 5 11 18 12
REMARK SMILES IDX 6 13 17 14 7 15 8 16 9 17 10 18 11 19 12 20 13 21 16 22
REMARK SMILES IDX 14 23 15 24 25 25 26 26 27 27 28 28 29 29 30 30 31 31 32 32
REMARK SMILES IDX 33 33 34 34 35 35 96 36 36 37 95 38 37 39 38 40 39 41 89 42
REMARK SMILES IDX 40 43 94 44 88 45 90 46 41 47 93 48 87 49 86 50 42 52 74 53
REMARK SMILES IDX 54 54 73 55 55 56 58 57 72 58 91 59 56 60 57 61 71 63 92 64
REMARK SMILES IDX 59 65 43 66 44 67 52 68 45 69 46 70 50 71 53 72 47 73 48 74
REMARK SMILES IDX 51 75 49 76 75 77 76 78 84 79 77 80 78 81 82 82 85 83 79 84
REMARK SMILES IDX 80 85 83 86 81 87 60 88 61 89 69 90 62 91 63 92 67 93 70 94
REMARK SMILES IDX 64 95 65 96 68 97 66 98
REMARK H PARENT 90 51 58 62
REMARK Flexibility Score: inf
ROOT
ATOM      1  C   UNL A   1      33.852  22.507  25.048  1.00  0.00     0.188 C 
ENDROOT
BRANCH   1   2
ATOM      2  C   UNL A   1      32.432  22.398  25.586  1.00  0.00     0.188 C 
BRANCH   2   3
ATOM      3  O   UNL A   1      31.636  23.573  25.741  1.00  0.00    -0.376 OA
BRANCH   3   4
ATOM      4  C   UNL A   1      32.061  24.699  26.486  1.00  0.00     0.202 C 
BRANCH   4   5
ATOM      5  C   UNL A   1      32.433  25.999  25.783  1.00  0.00     0.261 C 
BRANCH   5   6
ATOM      6  O   UNL A   1      31.334  26.761  25.292  1.00  0.00    -0.463 OA
BRANCH   6   7
ATOM      7  C   UNL A   1      31.326  28.115  25.406  1.00  0.00     0.310 C 
ATOM      8  O   UNL A   1      31.399  28.809  24.395  1.00  0.00    -0.252 OA
BRANCH   7   9
ATOM      9  C   UNL A   1      31.375  28.726  26.798  1.00  0.00     0.158 C 
BRANCH   9  10
ATOM     10  C   UNL A   1      32.328  29.877  26.932  1.00  0.00    -0.037 A 
ATOM     11  C   UNL A   1      31.847  31.185  26.841  1.00  0.00     0.005 A 
ATOM     12  C   UNL A   1      33.682  29.650  27.218  1.00  0.00     0.005 A 
ATOM     13  C   UNL A   1      32.671  32.252  27.179  1.00  0.00     0.020 A 
ATOM     14  C   UNL A   1      34.506  30.709  27.577  1.00  0.00     0.020 A 
ATOM     15  C   UNL A   1      33.973  31.998  27.618  1.00  0.00     0.067 A 
BRANCH  15  16
ATOM     16  S   UNL A   1      34.899  33.307  28.375  1.00  0.00     0.180 S 
ATOM     17  O   UNL A   1      36.209  32.749  28.655  1.00  0.00    -0.224 OA
ATOM     18  O   UNL A   1      34.775  34.486  27.540  1.00  0.00    -0.224 OA
BRANCH  16  19
ATOM     19  C   UNL A   1      34.126  33.656  29.932  1.00  0.00     0.174 C 
BRANCH  19  20
ATOM     20  C   UNL A   1      34.867  33.266  31.206  1.00  0.00     0.133 C 
ATOM     21  C   UNL A   1      35.723  34.336  31.862  1.00  0.00     0.035 C 
ATOM     22  O   UNL A   1      34.010  32.712  32.209  1.00  0.00    -0.377 OA
ATOM     23  C   UNL A   1      35.007  34.649  33.149  1.00  0.00     0.031 C 
ATOM     24  C   UNL A   1      34.271  33.367  33.459  1.00  0.00     0.160 C 
ENDBRANCH  19  20
ENDBRANCH  16  19
ENDBRANCH  15  16
ENDBRANCH   9  10
ENDBRANCH   7   9
ENDBRANCH   6   7
ENDBRANCH   5   6
ENDBRANCH   4   5
ENDBRANCH   3   4
ENDBRANCH   2   3
ENDBRANCH   1   2
BRANCH   1  25
ATOM     25  O   UNL A   1      34.783  21.680  25.723  1.00  0.00    -0.377 OA
BRANCH  25  26
ATOM     26  C   UNL A   1      34.990  20.420  25.120  1.00  0.00     0.188 C 
BRANCH  26  27
ATOM     27  C   UNL A   1      36.432  20.084  24.686  1.00  0.00     0.188 C 
BRANCH  27  28
ATOM     28  O   UNL A   1      37.573  20.720  25.245  1.00  0.00    -0.376 OA
BRANCH  28  29
ATOM     29  C   UNL A   1      38.791  20.019  25.417  1.00  0.00     0.202 C 
BRANCH  29  30
ATOM     30  C   UNL A   1      39.947  20.693  26.165  1.00  0.00     0.261 C 
BRANCH  30  31
ATOM     31  O   UNL A   1      40.913  19.794  26.722  1.00  0.00    -0.460 OA
BRANCH  31  32
ATOM     32  C   UNL A   1      42.124  19.769  26.119  1.00  0.00     0.338 C 
ATOM     33  O   UNL A   1      42.605  18.870  25.449  1.00  0.00    -0.246 OA
BRANCH  32  34
ATOM     34  C   UNL A   1      42.722  21.119  26.213  1.00  0.00     0.060 A 
ATOM     35  C   UNL A   1      43.153  21.570  27.471  1.00  0.00     0.016 A 
ATOM     36  C   UNL A   1      42.941  21.896  25.072  1.00  0.00     0.016 A 
ATOM     37  C   UNL A   1      43.783  22.808  27.598  1.00  0.00     0.010 A 
ATOM     38  C   UNL A   1      43.534  23.151  25.203  1.00  0.00     0.010 A 
ATOM     39  C   UNL A   1      43.922  23.625  26.471  1.00  0.00    -0.014 A 
BRANCH  39  40
ATOM     40  C   UNL A   1      44.167  25.075  26.636  1.00  0.00     0.031 A 
ATOM     41  C   UNL A   1      45.578  25.548  26.444  1.00  0.00     0.074 A 
ATOM     42  C   UNL A   1      43.199  25.932  26.999  1.00  0.00     0.049 A 
ATOM     43  N   UNL A   1      46.112  26.713  26.698  1.00  0.00    -0.248 NA
ATOM     44  C   UNL A   1      46.523  24.554  25.907  1.00  0.00     0.031 C 
ATOM     45  C   UNL A   1      41.790  25.596  27.171  1.00  0.00     0.029 A 
ATOM     46  N   UNL A   1      43.277  27.262  27.326  1.00  0.00    -0.354 N 
ATOM     47  C   UNL A   1      47.457  26.581  26.378  1.00  0.00     0.074 A 
ATOM     48  C   UNL A   1      47.661  25.225  25.925  1.00  0.00     0.031 C 
ATOM     49  C   UNL A   1      41.138  26.686  27.614  1.00  0.00     0.029 A 
ATOM     50  C   UNL A   1      42.096  27.778  27.796  1.00  0.00     0.049 A 
ATOM     51  H   UNL A   1      44.100  27.795  27.232  1.00  0.00     0.167 HD
ATOM     52  C   UNL A   1      48.437  27.509  26.462  1.00  0.00     0.037 A 
ATOM     53  C   UNL A   1      41.836  28.978  28.352  1.00  0.00     0.037 A 
ATOM     54  C   UNL A   1      48.227  28.850  26.932  1.00  0.00     0.049 A 
ATOM     55  C   UNL A   1      42.952  29.983  28.498  1.00  0.00     0.074 A 
ATOM     56  C   UNL A   1      49.142  29.880  27.038  1.00  0.00     0.029 A 
ATOM     57  N   UNL A   1      47.013  29.340  27.390  1.00  0.00    -0.354 N 
ATOM     58  N   UNL A   1      44.217  29.868  28.172  1.00  0.00    -0.248 NA
ATOM     59  C   UNL A   1      42.604  31.283  29.090  1.00  0.00     0.031 C 
ATOM     60  C   UNL A   1      48.494  30.976  27.617  1.00  0.00     0.029 A 
ATOM     61  C   UNL A   1      47.161  30.650  27.809  1.00  0.00     0.049 A 
ATOM     62  H   UNL A   1      46.171  28.829  27.414  1.00  0.00     0.167 HD
ATOM     63  C   UNL A   1      44.810  31.084  28.491  1.00  0.00     0.074 A 
ATOM     64  C   UNL A   1      43.764  31.925  29.037  1.00  0.00     0.031 C 
ATOM     65  C   UNL A   1      46.101  31.472  28.339  1.00  0.00     0.037 A 
BRANCH  52  66
ATOM     66  C   UNL A   1      49.823  27.069  26.097  1.00  0.00     0.064 A 
ATOM     67  C   UNL A   1      50.304  27.142  24.781  1.00  0.00     0.173 A 
ATOM     68  C   UNL A   1      50.673  26.532  27.077  1.00  0.00     0.173 A 
ATOM     69  F   UNL A   1      49.522  27.624  23.803  1.00  0.00    -0.203 F 
ATOM     70  C   UNL A   1      51.566  26.655  24.451  1.00  0.00     0.198 A 
ATOM     71  C   UNL A   1      51.947  26.079  26.750  1.00  0.00     0.198 A 
ATOM     72  F   UNL A   1      50.262  26.436  28.350  1.00  0.00    -0.203 F 
ATOM     73  F   UNL A   1      51.975  26.668  23.175  1.00  0.00    -0.200 F 
ATOM     74  C   UNL A   1      52.388  26.128  25.436  1.00  0.00     0.200 A 
ATOM     75  F   UNL A   1      52.743  25.578  27.705  1.00  0.00    -0.200 F 
ATOM     76  F   UNL A   1      53.600  25.653  25.116  1.00  0.00    -0.200 F 
ENDBRANCH  52  66
BRANCH  53  77
ATOM     77  C   UNL A   1      40.465  29.278  28.838  1.00  0.00     0.064 A 
ATOM     78  C   UNL A   1      39.420  29.546  27.943  1.00  0.00     0.173 A 
ATOM     79  C   UNL A   1      40.165  29.281  30.209  1.00  0.00     0.173 A 
ATOM     80  F   UNL A   1      39.661  29.580  26.625  1.00  0.00    -0.203 F 
ATOM     81  C   UNL A   1      38.129  29.806  28.402  1.00  0.00     0.198 A 
ATOM     82  C   UNL A   1      38.870  29.517  30.665  1.00  0.00     0.198 A 
ATOM     83  F   UNL A   1      41.131  29.032  31.107  1.00  0.00    -0.203 F 
ATOM     84  F   UNL A   1      37.154  30.085  27.526  1.00  0.00    -0.200 F 
ATOM     85  C   UNL A   1      37.854  29.782  29.760  1.00  0.00     0.200 A 
ATOM     86  F   UNL A   1      38.606  29.478  31.978  1.00  0.00    -0.200 F 
ATOM     87  F   UNL A   1      36.609  30.014  30.198  1.00  0.00    -0.200 F 
ENDBRANCH  53  77
BRANCH  65  88
ATOM     88  C   UNL A   1      46.457  32.880  28.718  1.00  0.00     0.064 A 
ATOM     89  C   UNL A   1      46.946  33.203  29.993  1.00  0.00     0.173 A 
ATOM     90  C   UNL A   1      46.392  33.905  27.761  1.00  0.00     0.173 A 
ATOM     91  F   UNL A   1      47.019  32.262  30.946  1.00  0.00    -0.203 F 
ATOM     92  C   UNL A   1      47.344  34.503  30.297  1.00  0.00     0.198 A 
ATOM     93  C   UNL A   1      46.817  35.195  28.059  1.00  0.00     0.198 A 
ATOM     94  F   UNL A   1      45.940  33.645  26.524  1.00  0.00    -0.203 F 
ATOM     95  F   UNL A   1      47.779  34.797  31.529  1.00  0.00    -0.200 F 
ATOM     96  C   UNL A   1      47.290  35.494  29.328  1.00  0.00     0.200 A 
ATOM     97  F   UNL A   1      46.780  36.146  27.116  1.00  0.00    -0.200 F 
ATOM     98  F   UNL A   1      47.692  36.739  29.617  1.00  0.00    -0.200 F 
ENDBRANCH  65  88
ENDBRANCH  39  40
ENDBRANCH  32  34
ENDBRANCH  31  32
ENDBRANCH  30  31
ENDBRANCH  29  30
ENDBRANCH  28  29
ENDBRANCH  27  28
ENDBRANCH  26  27
ENDBRANCH  25  26
ENDBRANCH   1  25
TORSDOF 24
ENDMDL
