MODEL 1
REMARK VINA RESULT:      -9.1      0.000      0.000
REMARK SMILES CCC[NH+]1CCN(C(=O)N[C@H]2C=C[C@@H](C(=O)OCCOCCOCCOCCOC(=O)c3ccc(-c4c5nc(c(-c6c(F)c(F)c(F)c(F)c6F)c6ccc([nH]6)c(-c6c(F)c(F)c(F)c(F)c6F)c6nc(c(-c7c(F)c(F)c(F)c(F)c7F)c7ccc4[nH]7)C=C6)C=C5)cc3)C2)CC1
REMARK SMILES IDX 22 1 21 2 20 3 19 4 18 5 17 6 15 7 16 8 14 9 11 10 12 11
REMARK SMILES IDX 95 12 13 13 10 14 4 15 5 16 97 17 6 19 96 20 7 21 8 22 9 23
REMARK SMILES IDX 3 25 2 26 1 27 23 28 24 29 25 30 26 31 27 32 28 33 29 34
REMARK SMILES IDX 30 35 31 36 32 37 33 38 94 39 34 40 93 41 35 42 36 43 37 44
REMARK SMILES IDX 87 45 38 46 92 47 86 48 88 49 39 50 91 51 85 52 84 53 40 55
REMARK SMILES IDX 72 56 52 57 71 58 53 59 56 60 70 61 89 62 54 63 55 64 69 66
REMARK SMILES IDX 90 67 57 68 41 69 42 70 50 71 43 72 44 73 48 74 51 75 45 76
REMARK SMILES IDX 46 77 49 78 47 79 73 80 74 81 82 82 75 83 76 84 80 85 83 86
REMARK SMILES IDX 77 87 78 88 81 89 79 90 58 91 59 92 67 93 60 94 61 95 65 96
REMARK SMILES IDX 68 97 62 98 63 99 66 100 64 101
REMARK H PARENT 4 18 10 24 88 54 56 65
REMARK Flexibility Score: inf
ROOT
ATOM      1  C   UNL A   1      33.714  37.646  32.568  1.00  0.00     0.188 C 
ENDROOT
BRANCH   1   2
ATOM      2  C   UNL A   1      34.013  36.286  33.213  1.00  0.00     0.188 C 
BRANCH   2   3
ATOM      3  O   UNL A   1      35.238  35.724  32.795  1.00  0.00    -0.376 OA
BRANCH   3   4
ATOM      4  C   UNL A   1      35.347  34.534  32.042  1.00  0.00     0.202 C 
BRANCH   4   5
ATOM      5  C   UNL A   1      36.649  33.935  31.474  1.00  0.00     0.261 C 
BRANCH   5   6
ATOM      6  O   UNL A   1      37.692  33.588  32.385  1.00  0.00    -0.463 OA
BRANCH   6   7
ATOM      7  C   UNL A   1      37.568  32.416  33.051  1.00  0.00     0.312 C 
ATOM      8  O   UNL A   1      36.841  31.498  32.688  1.00  0.00    -0.252 OA
BRANCH   7   9
ATOM      9  C   UNL A   1      38.421  32.340  34.318  1.00  0.00     0.124 C 
ATOM     10  C   UNL A   1      38.574  31.908  36.708  1.00  0.00     0.107 C 
ATOM     11  C   UNL A   1      38.865  30.672  35.917  1.00  0.00    -0.006 C 
ATOM     12  C   UNL A   1      37.820  32.740  35.672  1.00  0.00     0.048 C 
ATOM     13  C   UNL A   1      38.822  30.919  34.600  1.00  0.00    -0.014 C 
BRANCH  10  14
ATOM     14  N   UNL A   1      37.779  31.613  37.875  1.00  0.00    -0.332 N 
ATOM     15  N   UNL A   1      39.308  35.948  40.378  1.00  0.00    -0.332 N 
ATOM     16  C   UNL A   1      38.417  35.213  41.264  1.00  0.00     0.284 C 
ATOM     17  C   UNL A   1      40.123  35.044  39.588  1.00  0.00     0.284 C 
ATOM     18  H   UNL A   1      39.952  36.437  41.000  1.00  0.00     0.348 HD
ATOM     19  C   UNL A   1      37.688  33.974  40.706  1.00  0.00     0.183 C 
ATOM     20  C   UNL A   1      39.356  33.958  38.824  1.00  0.00     0.183 C 
ATOM     21  N   UNL A   1      38.222  33.331  39.492  1.00  0.00    -0.314 N 
ATOM     22  C   UNL A   1      37.527  32.232  39.049  1.00  0.00     0.318 C 
ATOM     23  O   UNL A   1      36.604  31.747  39.712  1.00  0.00    -0.249 OA
ATOM     24  H   UNL A   1      37.307  30.752  37.797  1.00  0.00     0.165 HD
BRANCH  15  25
ATOM     25  C   UNL A   1      38.812  37.158  39.735  1.00  0.00     0.262 C 
BRANCH  25  26
ATOM     26  C   UNL A   1      39.328  38.534  40.169  1.00  0.00     0.058 C 
ATOM     27  C   UNL A   1      40.832  38.695  40.087  1.00  0.00     0.010 C 
ENDBRANCH  25  26
ENDBRANCH  15  25
ENDBRANCH  10  14
ENDBRANCH   7   9
ENDBRANCH   6   7
ENDBRANCH   5   6
ENDBRANCH   4   5
ENDBRANCH   3   4
ENDBRANCH   2   3
ENDBRANCH   1   2
BRANCH   1  28
ATOM     28  O   UNL A   1      33.216  37.668  31.246  1.00  0.00    -0.377 OA
BRANCH  28  29
ATOM     29  C   UNL A   1      32.735  36.427  30.765  1.00  0.00     0.188 C 
BRANCH  29  30
ATOM     30  C   UNL A   1      32.970  36.250  29.256  1.00  0.00     0.188 C 
BRANCH  30  31
ATOM     31  O   UNL A   1      34.181  35.695  28.758  1.00  0.00    -0.376 OA
BRANCH  31  32
ATOM     32  C   UNL A   1      34.192  34.460  28.061  1.00  0.00     0.202 C 
BRANCH  32  33
ATOM     33  C   UNL A   1      33.835  33.126  28.750  1.00  0.00     0.261 C 
BRANCH  33  34
ATOM     34  O   UNL A   1      34.895  32.188  28.974  1.00  0.00    -0.460 OA
BRANCH  34  35
ATOM     35  C   UNL A   1      34.756  30.999  28.351  1.00  0.00     0.338 C 
ATOM     36  O   UNL A   1      33.814  30.631  27.660  1.00  0.00    -0.246 OA
BRANCH  35  37
ATOM     37  C   UNL A   1      36.002  30.219  28.473  1.00  0.00     0.060 A 
ATOM     38  C   UNL A   1      36.290  29.632  29.713  1.00  0.00     0.016 A 
ATOM     39  C   UNL A   1      36.912  30.118  27.418  1.00  0.00     0.016 A 
ATOM     40  C   UNL A   1      37.500  28.980  29.918  1.00  0.00     0.010 A 
ATOM     41  C   UNL A   1      38.144  29.489  27.634  1.00  0.00     0.010 A 
ATOM     42  C   UNL A   1      38.459  28.957  28.899  1.00  0.00    -0.014 A 
BRANCH  42  43
ATOM     43  C   UNL A   1      39.848  28.577  29.250  1.00  0.00     0.031 A 
ATOM     44  C   UNL A   1      40.609  29.455  30.207  1.00  0.00     0.074 A 
ATOM     45  C   UNL A   1      40.395  27.434  28.800  1.00  0.00     0.049 A 
ATOM     46  N   UNL A   1      41.820  29.316  30.685  1.00  0.00    -0.248 NA
ATOM     47  C   UNL A   1      39.906  30.653  30.692  1.00  0.00     0.031 C 
ATOM     48  C   UNL A   1      39.737  26.477  27.915  1.00  0.00     0.029 A 
ATOM     49  N   UNL A   1      41.631  26.886  29.036  1.00  0.00    -0.354 N 
ATOM     50  C   UNL A   1      42.021  30.407  31.521  1.00  0.00     0.074 A 
ATOM     51  C   UNL A   1      40.826  31.218  31.458  1.00  0.00     0.031 C 
ATOM     52  C   UNL A   1      40.582  25.458  27.674  1.00  0.00     0.029 A 
ATOM     53  C   UNL A   1      41.846  25.708  28.365  1.00  0.00     0.049 A 
ATOM     54  H   UNL A   1      42.299  27.298  29.629  1.00  0.00     0.167 HD
ATOM     55  C   UNL A   1      43.102  30.699  32.282  1.00  0.00     0.037 A 
ATOM     56  C   UNL A   1      42.947  24.933  28.304  1.00  0.00     0.037 A 
ATOM     57  C   UNL A   1      44.293  29.892  32.338  1.00  0.00     0.049 A 
ATOM     58  C   UNL A   1      44.168  25.324  29.101  1.00  0.00     0.074 A 
ATOM     59  C   UNL A   1      45.442  30.099  33.081  1.00  0.00     0.029 A 
ATOM     60  N   UNL A   1      44.491  28.726  31.612  1.00  0.00    -0.354 N 
ATOM     61  N   UNL A   1      44.345  26.343  29.907  1.00  0.00    -0.248 NA
ATOM     62  C   UNL A   1      45.339  24.443  28.988  1.00  0.00     0.031 C 
ATOM     63  C   UNL A   1      46.359  29.094  32.756  1.00  0.00     0.029 A 
ATOM     64  C   UNL A   1      45.754  28.217  31.870  1.00  0.00     0.049 A 
ATOM     65  H   UNL A   1      43.832  28.321  31.002  1.00  0.00     0.167 HD
ATOM     66  C   UNL A   1      45.626  26.205  30.426  1.00  0.00     0.074 A 
ATOM     67  C   UNL A   1      46.178  24.995  29.852  1.00  0.00     0.031 C 
ATOM     68  C   UNL A   1      46.285  27.003  31.303  1.00  0.00     0.037 A 
BRANCH  55  69
ATOM     69  C   UNL A   1      43.061  31.966  33.089  1.00  0.00     0.064 A 
ATOM     70  C   UNL A   1      43.583  33.174  32.601  1.00  0.00     0.173 A 
ATOM     71  C   UNL A   1      42.466  31.977  34.360  1.00  0.00     0.173 A 
ATOM     72  F   UNL A   1      44.176  33.217  31.399  1.00  0.00    -0.203 F 
ATOM     73  C   UNL A   1      43.537  34.336  33.367  1.00  0.00     0.198 A 
ATOM     74  C   UNL A   1      42.390  33.149  35.108  1.00  0.00     0.198 A 
ATOM     75  F   UNL A   1      41.948  30.851  34.874  1.00  0.00    -0.203 F 
ATOM     76  F   UNL A   1      44.089  35.466  32.903  1.00  0.00    -0.200 F 
ATOM     77  C   UNL A   1      42.933  34.325  34.616  1.00  0.00     0.200 A 
ATOM     78  F   UNL A   1      41.792  33.138  36.307  1.00  0.00    -0.200 F 
ATOM     79  F   UNL A   1      42.881  35.446  35.348  1.00  0.00    -0.200 F 
ENDBRANCH  55  69
BRANCH  56  80
ATOM     80  C   UNL A   1      42.954  23.712  27.455  1.00  0.00     0.064 A 
ATOM     81  C   UNL A   1      42.501  22.481  27.948  1.00  0.00     0.173 A 
ATOM     82  C   UNL A   1      43.446  23.746  26.141  1.00  0.00     0.173 A 
ATOM     83  F   UNL A   1      42.045  22.389  29.206  1.00  0.00    -0.203 F 
ATOM     84  C   UNL A   1      42.561  21.326  27.169  1.00  0.00     0.198 A 
ATOM     85  C   UNL A   1      43.474  22.598  25.352  1.00  0.00     0.198 A 
ATOM     86  F   UNL A   1      43.894  24.898  25.620  1.00  0.00    -0.203 F 
ATOM     87  F   UNL A   1      42.174  20.152  27.685  1.00  0.00    -0.200 F 
ATOM     88  C   UNL A   1      43.042  21.387  25.870  1.00  0.00     0.200 A 
ATOM     89  F   UNL A   1      43.926  22.665  24.093  1.00  0.00    -0.200 F 
ATOM     90  F   UNL A   1      43.098  20.278  25.121  1.00  0.00    -0.200 F 
ENDBRANCH  56  80
BRANCH  68  91
ATOM     91  C   UNL A   1      47.653  26.563  31.748  1.00  0.00     0.064 A 
ATOM     92  C   UNL A   1      47.843  25.712  32.848  1.00  0.00     0.173 A 
ATOM     93  C   UNL A   1      48.793  26.983  31.043  1.00  0.00     0.173 A 
ATOM     94  F   UNL A   1      46.791  25.289  33.564  1.00  0.00    -0.203 F 
ATOM     95  C   UNL A   1      49.123  25.332  33.248  1.00  0.00     0.198 A 
ATOM     96  C   UNL A   1      50.067  26.570  31.422  1.00  0.00     0.198 A 
ATOM     97  F   UNL A   1      48.670  27.787  29.977  1.00  0.00    -0.203 F 
ATOM     98  F   UNL A   1      49.282  24.573  34.340  1.00  0.00    -0.200 F 
ATOM     99  C   UNL A   1      50.232  25.755  32.531  1.00  0.00     0.200 A 
ATOM    100  F   UNL A   1      51.135  26.963  30.715  1.00  0.00    -0.200 F 
ATOM    101  F   UNL A   1      51.461  25.386  32.915  1.00  0.00    -0.200 F 
ENDBRANCH  68  91
ENDBRANCH  42  43
ENDBRANCH  35  37
ENDBRANCH  34  35
ENDBRANCH  33  34
ENDBRANCH  32  33
ENDBRANCH  31  32
ENDBRANCH  30  31
ENDBRANCH  29  30
ENDBRANCH  28  29
ENDBRANCH   1  28
TORSDOF 23
ENDMDL
MODEL 2
REMARK VINA RESULT:      -8.6      5.692     12.511
REMARK SMILES CCC[NH+]1CCN(C(=O)N[C@H]2C=C[C@@H](C(=O)OCCOCCOCCOCCOC(=O)c3ccc(-c4c5nc(c(-c6c(F)c(F)c(F)c(F)c6F)c6ccc([nH]6)c(-c6c(F)c(F)c(F)c(F)c6F)c6nc(c(-c7c(F)c(F)c(F)c(F)c7F)c7ccc4[nH]7)C=C6)C=C5)cc3)C2)CC1
REMARK SMILES IDX 22 1 21 2 20 3 19 4 18 5 17 6 15 7 16 8 14 9 11 10 12 11
REMARK SMILES IDX 95 12 13 13 10 14 4 15 5 16 97 17 6 19 96 20 7 21 8 22 9 23
REMARK SMILES IDX 3 25 2 26 1 27 23 28 24 29 25 30 26 31 27 32 28 33 29 34
REMARK SMILES IDX 30 35 31 36 32 37 33 38 94 39 34 40 93 41 35 42 36 43 37 44
REMARK SMILES IDX 87 45 38 46 92 47 86 48 88 49 39 50 91 51 85 52 84 53 40 55
REMARK SMILES IDX 72 56 52 57 71 58 53 59 56 60 70 61 89 62 54 63 55 64 69 66
REMARK SMILES IDX 90 67 57 68 41 69 42 70 50 71 43 72 44 73 48 74 51 75 45 76
REMARK SMILES IDX 46 77 49 78 47 79 73 80 74 81 82 82 75 83 76 84 80 85 83 86
REMARK SMILES IDX 77 87 78 88 81 89 79 90 58 91 59 92 67 93 60 94 61 95 65 96
REMARK SMILES IDX 68 97 62 98 63 99 66 100 64 101
REMARK H PARENT 4 18 10 24 88 54 56 65
REMARK Flexibility Score: inf
ROOT
ATOM      1  C   UNL A   1      37.797  22.133  25.673  1.00  0.00     0.188 C 
ENDROOT
BRANCH   1   2
ATOM      2  C   UNL A   1      36.865  21.251  24.831  1.00  0.00     0.188 C 
BRANCH   2   3
ATOM      3  O   UNL A   1      36.077  21.981  23.916  1.00  0.00    -0.376 OA
BRANCH   3   4
ATOM      4  C   UNL A   1      34.680  22.152  24.034  1.00  0.00     0.202 C 
BRANCH   4   5
ATOM      5  C   UNL A   1      33.652  21.043  24.329  1.00  0.00     0.261 C 
BRANCH   5   6
ATOM      6  O   UNL A   1      32.738  21.232  25.410  1.00  0.00    -0.463 OA
BRANCH   6   7
ATOM      7  C   UNL A   1      33.192  21.901  26.495  1.00  0.00     0.312 C 
ATOM      8  O   UNL A   1      34.215  21.603  27.102  1.00  0.00    -0.252 OA
BRANCH   7   9
ATOM      9  C   UNL A   1      32.301  23.073  26.907  1.00  0.00     0.124 C 
ATOM     10  C   UNL A   1      30.497  24.615  26.367  1.00  0.00     0.107 C 
ATOM     11  C   UNL A   1      29.978  23.407  27.080  1.00  0.00    -0.006 C 
ATOM     12  C   UNL A   1      31.839  24.092  25.856  1.00  0.00     0.048 C 
ATOM     13  C   UNL A   1      30.977  22.577  27.415  1.00  0.00    -0.014 C 
BRANCH  10  14
ATOM     14  N   UNL A   1      29.612  25.019  25.301  1.00  0.00    -0.332 N 
ATOM     15  N   UNL A   1      32.168  29.512  24.484  1.00  0.00    -0.332 N 
ATOM     16  C   UNL A   1      31.041  29.468  23.563  1.00  0.00     0.284 C 
ATOM     17  C   UNL A   1      31.830  28.901  25.755  1.00  0.00     0.284 C 
ATOM     18  H   UNL A   1      32.310  30.504  24.677  1.00  0.00     0.348 HD
ATOM     19  C   UNL A   1      30.215  28.168  23.480  1.00  0.00     0.183 C 
ATOM     20  C   UNL A   1      31.239  27.489  25.675  1.00  0.00     0.183 C 
ATOM     21  N   UNL A   1      30.302  27.207  24.594  1.00  0.00    -0.314 N 
ATOM     22  C   UNL A   1      29.541  26.071  24.457  1.00  0.00     0.318 C 
ATOM     23  O   UNL A   1      28.740  25.945  23.524  1.00  0.00    -0.249 OA
ATOM     24  H   UNL A   1      28.885  24.372  25.154  1.00  0.00     0.165 HD
BRANCH  15  25
ATOM     25  C   UNL A   1      33.509  29.295  23.957  1.00  0.00     0.262 C 
BRANCH  25  26
ATOM     26  C   UNL A   1      33.787  28.140  22.990  1.00  0.00     0.058 C 
ATOM     27  C   UNL A   1      33.769  26.768  23.630  1.00  0.00     0.010 C 
ENDBRANCH  25  26
ENDBRANCH  15  25
ENDBRANCH  10  14
ENDBRANCH   7   9
ENDBRANCH   6   7
ENDBRANCH   5   6
ENDBRANCH   4   5
ENDBRANCH   3   4
ENDBRANCH   2   3
ENDBRANCH   1   2
BRANCH   1  28
ATOM     28  O   UNL A   1      39.134  21.713  25.858  1.00  0.00    -0.377 OA
BRANCH  28  29
ATOM     29  C   UNL A   1      39.849  22.410  26.860  1.00  0.00     0.188 C 
BRANCH  29  30
ATOM     30  C   UNL A   1      41.195  21.746  27.192  1.00  0.00     0.188 C 
BRANCH  30  31
ATOM     31  O   UNL A   1      42.224  21.635  26.218  1.00  0.00    -0.376 OA
BRANCH  31  32
ATOM     32  C   UNL A   1      43.593  21.637  26.590  1.00  0.00     0.202 C 
BRANCH  32  33
ATOM     33  C   UNL A   1      44.589  22.683  26.046  1.00  0.00     0.261 C 
BRANCH  33  34
ATOM     34  O   UNL A   1      44.440  24.038  26.490  1.00  0.00    -0.460 OA
BRANCH  34  35
ATOM     35  C   UNL A   1      43.561  24.783  25.789  1.00  0.00     0.338 C 
ATOM     36  O   UNL A   1      43.235  24.636  24.617  1.00  0.00    -0.246 OA
BRANCH  35  37
ATOM     37  C   UNL A   1      42.888  25.743  26.685  1.00  0.00     0.060 A 
ATOM     38  C   UNL A   1      43.546  26.946  26.971  1.00  0.00     0.016 A 
ATOM     39  C   UNL A   1      41.665  25.446  27.293  1.00  0.00     0.016 A 
ATOM     40  C   UNL A   1      43.012  27.838  27.893  1.00  0.00     0.010 A 
ATOM     41  C   UNL A   1      41.143  26.330  28.246  1.00  0.00     0.010 A 
ATOM     42  C   UNL A   1      41.838  27.508  28.580  1.00  0.00    -0.014 A 
BRANCH  42  43
ATOM     43  C   UNL A   1      41.487  28.291  29.789  1.00  0.00     0.031 A 
ATOM     44  C   UNL A   1      40.271  29.176  29.738  1.00  0.00     0.074 A 
ATOM     45  C   UNL A   1      42.178  28.156  30.934  1.00  0.00     0.049 A 
ATOM     46  N   UNL A   1      39.748  29.931  30.671  1.00  0.00    -0.248 NA
ATOM     47  C   UNL A   1      39.543  29.212  28.459  1.00  0.00     0.031 C 
ATOM     48  C   UNL A   1      43.339  27.289  31.121  1.00  0.00     0.029 A 
ATOM     49  N   UNL A   1      41.995  28.748  32.158  1.00  0.00    -0.354 N 
ATOM     50  C   UNL A   1      38.638  30.530  30.091  1.00  0.00     0.074 A 
ATOM     51  C   UNL A   1      38.581  30.084  28.718  1.00  0.00     0.031 C 
ATOM     52  C   UNL A   1      43.772  27.412  32.388  1.00  0.00     0.029 A 
ATOM     53  C   UNL A   1      42.936  28.386  33.090  1.00  0.00     0.049 A 
ATOM     54  H   UNL A   1      41.261  29.374  32.350  1.00  0.00     0.167 HD
ATOM     55  C   UNL A   1      37.739  31.370  30.658  1.00  0.00     0.037 A 
ATOM     56  C   UNL A   1      43.109  28.808  34.357  1.00  0.00     0.037 A 
ATOM     57  C   UNL A   1      37.801  31.818  32.025  1.00  0.00     0.049 A 
ATOM     58  C   UNL A   1      42.138  29.806  34.941  1.00  0.00     0.074 A 
ATOM     59  C   UNL A   1      36.937  32.664  32.696  1.00  0.00     0.029 A 
ATOM     60  N   UNL A   1      38.793  31.461  32.927  1.00  0.00    -0.354 N 
ATOM     61  N   UNL A   1      41.078  30.352  34.396  1.00  0.00    -0.248 NA
ATOM     62  C   UNL A   1      42.385  30.234  36.325  1.00  0.00     0.031 C 
ATOM     63  C   UNL A   1      37.441  32.871  33.985  1.00  0.00     0.029 A 
ATOM     64  C   UNL A   1      38.576  32.092  34.142  1.00  0.00     0.049 A 
ATOM     65  H   UNL A   1      39.542  30.850  32.733  1.00  0.00     0.167 HD
ATOM     66  C   UNL A   1      40.510  31.153  35.379  1.00  0.00     0.074 A 
ATOM     67  C   UNL A   1      41.338  31.012  36.558  1.00  0.00     0.031 C 
ATOM     68  C   UNL A   1      39.400  31.931  35.313  1.00  0.00     0.037 A 
BRANCH  55  69
ATOM     69  C   UNL A   1      36.630  31.889  29.787  1.00  0.00     0.064 A 
ATOM     70  C   UNL A   1      35.607  31.054  29.312  1.00  0.00     0.173 A 
ATOM     71  C   UNL A   1      36.576  33.249  29.445  1.00  0.00     0.173 A 
ATOM     72  F   UNL A   1      35.617  29.744  29.596  1.00  0.00    -0.203 F 
ATOM     73  C   UNL A   1      34.590  31.556  28.503  1.00  0.00     0.198 A 
ATOM     74  C   UNL A   1      35.538  33.754  28.666  1.00  0.00     0.198 A 
ATOM     75  F   UNL A   1      37.527  34.093  29.875  1.00  0.00    -0.203 F 
ATOM     76  F   UNL A   1      33.652  30.730  28.017  1.00  0.00    -0.200 F 
ATOM     77  C   UNL A   1      34.551  32.906  28.188  1.00  0.00     0.200 A 
ATOM     78  F   UNL A   1      35.496  35.062  28.376  1.00  0.00    -0.200 F 
ATOM     79  F   UNL A   1      33.567  33.389  27.418  1.00  0.00    -0.200 F 
ENDBRANCH  55  69
BRANCH  56  80
ATOM     80  C   UNL A   1      44.250  28.299  35.164  1.00  0.00     0.064 A 
ATOM     81  C   UNL A   1      44.106  27.186  36.005  1.00  0.00     0.173 A 
ATOM     82  C   UNL A   1      45.500  28.935  35.135  1.00  0.00     0.173 A 
ATOM     83  F   UNL A   1      42.924  26.557  36.088  1.00  0.00    -0.203 F 
ATOM     84  C   UNL A   1      45.160  26.745  36.803  1.00  0.00     0.198 A 
ATOM     85  C   UNL A   1      46.563  28.473  35.908  1.00  0.00     0.198 A 
ATOM     86  F   UNL A   1      45.692  30.005  34.350  1.00  0.00    -0.203 F 
ATOM     87  F   UNL A   1      44.979  25.714  37.640  1.00  0.00    -0.200 F 
ATOM     88  C   UNL A   1      46.389  27.385  36.750  1.00  0.00     0.200 A 
ATOM     89  F   UNL A   1      47.753  29.085  35.842  1.00  0.00    -0.200 F 
ATOM     90  F   UNL A   1      47.403  26.959  37.515  1.00  0.00    -0.200 F 
ENDBRANCH  56  80
BRANCH  68  91
ATOM     91  C   UNL A   1      38.976  32.641  36.570  1.00  0.00     0.064 A 
ATOM     92  C   UNL A   1      38.137  32.040  37.521  1.00  0.00     0.173 A 
ATOM     93  C   UNL A   1      39.441  33.939  36.837  1.00  0.00     0.173 A 
ATOM     94  F   UNL A   1      37.655  30.806  37.313  1.00  0.00    -0.203 F 
ATOM     95  C   UNL A   1      37.748  32.726  38.669  1.00  0.00     0.198 A 
ATOM     96  C   UNL A   1      39.082  34.606  38.004  1.00  0.00     0.198 A 
ATOM     97  F   UNL A   1      40.255  34.558  35.969  1.00  0.00    -0.203 F 
ATOM     98  F   UNL A   1      36.893  32.156  39.530  1.00  0.00    -0.200 F 
ATOM     99  C   UNL A   1      38.225  34.005  38.914  1.00  0.00     0.200 A 
ATOM    100  F   UNL A   1      39.562  35.834  38.247  1.00  0.00    -0.200 F 
ATOM    101  F   UNL A   1      37.853  34.662  40.020  1.00  0.00    -0.200 F 
ENDBRANCH  68  91
ENDBRANCH  42  43
ENDBRANCH  35  37
ENDBRANCH  34  35
ENDBRANCH  33  34
ENDBRANCH  32  33
ENDBRANCH  31  32
ENDBRANCH  30  31
ENDBRANCH  29  30
ENDBRANCH  28  29
ENDBRANCH   1  28
TORSDOF 23
ENDMDL
MODEL 3
REMARK VINA RESULT:      -8.5      4.754      9.876
REMARK SMILES CCC[NH+]1CCN(C(=O)N[C@H]2C=C[C@@H](C(=O)OCCOCCOCCOCCOC(=O)c3ccc(-c4c5nc(c(-c6c(F)c(F)c(F)c(F)c6F)c6ccc([nH]6)c(-c6c(F)c(F)c(F)c(F)c6F)c6nc(c(-c7c(F)c(F)c(F)c(F)c7F)c7ccc4[nH]7)C=C6)C=C5)cc3)C2)CC1
REMARK SMILES IDX 22 1 21 2 20 3 19 4 18 5 17 6 15 7 16 8 14 9 11 10 12 11
REMARK SMILES IDX 95 12 13 13 10 14 4 15 5 16 97 17 6 19 96 20 7 21 8 22 9 23
REMARK SMILES IDX 3 25 2 26 1 27 23 28 24 29 25 30 26 31 27 32 28 33 29 34
REMARK SMILES IDX 30 35 31 36 32 37 33 38 94 39 34 40 93 41 35 42 36 43 37 44
REMARK SMILES IDX 87 45 38 46 92 47 86 48 88 49 39 50 91 51 85 52 84 53 40 55
REMARK SMILES IDX 72 56 52 57 71 58 53 59 56 60 70 61 89 62 54 63 55 64 69 66
REMARK SMILES IDX 90 67 57 68 41 69 42 70 50 71 43 72 44 73 48 74 51 75 45 76
REMARK SMILES IDX 46 77 49 78 47 79 73 80 74 81 82 82 75 83 76 84 80 85 83 86
REMARK SMILES IDX 77 87 78 88 81 89 79 90 58 91 59 92 67 93 60 94 61 95 65 96
REMARK SMILES IDX 68 97 62 98 63 99 66 100 64 101
REMARK H PARENT 4 18 10 24 88 54 56 65
REMARK Flexibility Score: inf
ROOT
ATOM      1  C   UNL A   1      34.868  31.965  29.280  1.00  0.00     0.188 C 
ENDROOT
BRANCH   1   2
ATOM      2  C   UNL A   1      34.222  32.087  27.894  1.00  0.00     0.188 C 
BRANCH   2   3
ATOM      3  O   UNL A   1      34.027  30.844  27.254  1.00  0.00    -0.376 OA
BRANCH   3   4
ATOM      4  C   UNL A   1      32.770  30.219  27.107  1.00  0.00     0.202 C 
BRANCH   4   5
ATOM      5  C   UNL A   1      31.764  30.461  25.964  1.00  0.00     0.261 C 
BRANCH   5   6
ATOM      6  O   UNL A   1      31.891  29.688  24.771  1.00  0.00    -0.463 OA
BRANCH   6   7
ATOM      7  C   UNL A   1      30.755  29.409  24.089  1.00  0.00     0.312 C 
ATOM      8  O   UNL A   1      29.910  30.248  23.799  1.00  0.00    -0.252 OA
BRANCH   7   9
ATOM      9  C   UNL A   1      30.614  27.933  23.714  1.00  0.00     0.124 C 
ATOM     10  C   UNL A   1      30.206  25.634  24.402  1.00  0.00     0.107 C 
ATOM     11  C   UNL A   1      28.935  26.308  23.990  1.00  0.00    -0.006 C 
ATOM     12  C   UNL A   1      31.093  26.846  24.686  1.00  0.00     0.048 C 
ATOM     13  C   UNL A   1      29.165  27.561  23.572  1.00  0.00    -0.014 C 
BRANCH  10  14
ATOM     14  N   UNL A   1      30.009  24.801  25.562  1.00  0.00    -0.332 N 
ATOM     15  N   UNL A   1      34.144  21.786  24.464  1.00  0.00    -0.332 N 
ATOM     16  C   UNL A   1      33.521  21.264  25.672  1.00  0.00     0.284 C 
ATOM     17  C   UNL A   1      33.149  22.299  23.541  1.00  0.00     0.284 C 
ATOM     18  H   UNL A   1      34.556  20.972  24.008  1.00  0.00     0.348 HD
ATOM     19  C   UNL A   1      32.374  22.072  26.311  1.00  0.00     0.183 C 
ATOM     20  C   UNL A   1      32.157  23.309  24.132  1.00  0.00     0.183 C 
ATOM     21  N   UNL A   1      31.669  23.068  25.484  1.00  0.00    -0.314 N 
ATOM     22  C   UNL A   1      30.658  23.752  26.114  1.00  0.00     0.318 C 
ATOM     23  O   UNL A   1      30.286  23.442  27.251  1.00  0.00    -0.249 OA
ATOM     24  H   UNL A   1      29.210  25.058  26.076  1.00  0.00     0.165 HD
BRANCH  15  25
ATOM     25  C   UNL A   1      35.402  22.511  24.584  1.00  0.00     0.262 C 
BRANCH  25  26
ATOM     26  C   UNL A   1      36.730  21.824  24.249  1.00  0.00     0.058 C 
ATOM     27  C   UNL A   1      37.780  21.924  25.336  1.00  0.00     0.010 C 
ENDBRANCH  25  26
ENDBRANCH  15  25
ENDBRANCH  10  14
ENDBRANCH   7   9
ENDBRANCH   6   7
ENDBRANCH   5   6
ENDBRANCH   4   5
ENDBRANCH   3   4
ENDBRANCH   2   3
ENDBRANCH   1   2
BRANCH   1  28
ATOM     28  O   UNL A   1      35.522  33.096  29.819  1.00  0.00    -0.377 OA
BRANCH  28  29
ATOM     29  C   UNL A   1      36.712  33.474  29.155  1.00  0.00     0.188 C 
BRANCH  29  30
ATOM     30  C   UNL A   1      37.949  32.742  29.701  1.00  0.00     0.188 C 
BRANCH  30  31
ATOM     31  O   UNL A   1      38.713  33.282  30.772  1.00  0.00    -0.376 OA
BRANCH  31  32
ATOM     32  C   UNL A   1      38.271  34.422  31.490  1.00  0.00     0.202 C 
BRANCH  32  33
ATOM     33  C   UNL A   1      37.273  34.317  32.662  1.00  0.00     0.261 C 
BRANCH  33  34
ATOM     34  O   UNL A   1      36.784  33.014  33.005  1.00  0.00    -0.460 OA
BRANCH  34  35
ATOM     35  C   UNL A   1      37.259  32.503  34.160  1.00  0.00     0.338 C 
ATOM     36  O   UNL A   1      36.769  32.617  35.277  1.00  0.00    -0.246 OA
BRANCH  35  37
ATOM     37  C   UNL A   1      38.405  31.615  33.883  1.00  0.00     0.060 A 
ATOM     38  C   UNL A   1      39.635  31.928  34.476  1.00  0.00     0.016 A 
ATOM     39  C   UNL A   1      38.300  30.534  33.004  1.00  0.00     0.016 A 
ATOM     40  C   UNL A   1      40.773  31.193  34.165  1.00  0.00     0.010 A 
ATOM     41  C   UNL A   1      39.452  29.814  32.665  1.00  0.00     0.010 A 
ATOM     42  C   UNL A   1      40.700  30.170  33.212  1.00  0.00    -0.014 A 
BRANCH  42  43
ATOM     43  C   UNL A   1      41.966  29.647  32.643  1.00  0.00     0.031 A 
ATOM     44  C   UNL A   1      42.596  30.393  31.497  1.00  0.00     0.074 A 
ATOM     45  C   UNL A   1      42.590  28.587  33.185  1.00  0.00     0.049 A 
ATOM     46  N   UNL A   1      43.710  30.150  30.856  1.00  0.00    -0.248 NA
ATOM     47  C   UNL A   1      41.870  31.577  31.012  1.00  0.00     0.031 C 
ATOM     48  C   UNL A   1      42.106  27.818  34.329  1.00  0.00     0.029 A 
ATOM     49  N   UNL A   1      43.771  27.980  32.842  1.00  0.00    -0.354 N 
ATOM     50  C   UNL A   1      43.814  31.146  29.893  1.00  0.00     0.074 A 
ATOM     51  C   UNL A   1      42.635  31.973  30.008  1.00  0.00     0.031 C 
ATOM     52  C   UNL A   1      42.982  26.832  34.590  1.00  0.00     0.029 A 
ATOM     53  C   UNL A   1      44.071  26.885  33.615  1.00  0.00     0.049 A 
ATOM     54  H   UNL A   1      44.349  28.297  32.111  1.00  0.00     0.167 HD
ATOM     55  C   UNL A   1      44.811  31.356  29.000  1.00  0.00     0.037 A 
ATOM     56  C   UNL A   1      45.098  26.018  33.529  1.00  0.00     0.037 A 
ATOM     57  C   UNL A   1      45.981  30.526  28.884  1.00  0.00     0.049 A 
ATOM     58  C   UNL A   1      46.155  26.230  32.473  1.00  0.00     0.074 A 
ATOM     59  C   UNL A   1      47.050  30.657  28.016  1.00  0.00     0.029 A 
ATOM     60  N   UNL A   1      46.230  29.401  29.658  1.00  0.00    -0.354 N 
ATOM     61  N   UNL A   1      46.260  27.185  31.580  1.00  0.00    -0.248 NA
ATOM     62  C   UNL A   1      47.246  25.246  32.424  1.00  0.00     0.031 C 
ATOM     63  C   UNL A   1      47.914  29.576  28.220  1.00  0.00     0.029 A 
ATOM     64  C   UNL A   1      47.423  28.813  29.267  1.00  0.00     0.049 A 
ATOM     65  H   UNL A   1      45.644  29.068  30.376  1.00  0.00     0.167 HD
ATOM     66  C   UNL A   1      47.444  26.941  30.894  1.00  0.00     0.074 A 
ATOM     67  C   UNL A   1      48.027  25.754  31.482  1.00  0.00     0.031 C 
ATOM     68  C   UNL A   1      48.000  27.639  29.872  1.00  0.00     0.037 A 
BRANCH  55  69
ATOM     69  C   UNL A   1      44.659  32.511  28.051  1.00  0.00     0.064 A 
ATOM     70  C   UNL A   1      45.038  33.816  28.404  1.00  0.00     0.173 A 
ATOM     71  C   UNL A   1      44.151  32.305  26.760  1.00  0.00     0.173 A 
ATOM     72  F   UNL A   1      45.515  34.073  29.631  1.00  0.00    -0.203 F 
ATOM     73  C   UNL A   1      44.885  34.873  27.510  1.00  0.00     0.198 A 
ATOM     74  C   UNL A   1      44.034  33.358  25.856  1.00  0.00     0.198 A 
ATOM     75  F   UNL A   1      43.777  31.077  26.368  1.00  0.00    -0.203 F 
ATOM     76  F   UNL A   1      45.204  36.120  27.887  1.00  0.00    -0.200 F 
ATOM     77  C   UNL A   1      44.392  34.642  26.234  1.00  0.00     0.200 A 
ATOM     78  F   UNL A   1      43.572  33.128  24.619  1.00  0.00    -0.200 F 
ATOM     79  F   UNL A   1      44.255  35.659  25.372  1.00  0.00    -0.200 F 
ENDBRANCH  55  69
BRANCH  56  80
ATOM     80  C   UNL A   1      45.180  24.863  34.462  1.00  0.00     0.064 A 
ATOM     81  C   UNL A   1      44.671  23.605  34.109  1.00  0.00     0.173 A 
ATOM     82  C   UNL A   1      45.742  25.002  35.740  1.00  0.00     0.173 A 
ATOM     83  F   UNL A   1      44.101  23.425  32.908  1.00  0.00    -0.203 F 
ATOM     84  C   UNL A   1      44.699  22.539  35.007  1.00  0.00     0.198 A 
ATOM     85  C   UNL A   1      45.799  23.927  36.624  1.00  0.00     0.198 A 
ATOM     86  F   UNL A   1      46.242  26.184  36.130  1.00  0.00    -0.203 F 
ATOM     87  F   UNL A   1      44.154  21.363  34.664  1.00  0.00    -0.200 F 
ATOM     88  C   UNL A   1      45.268  22.699  36.261  1.00  0.00     0.200 A 
ATOM     89  F   UNL A   1      46.364  24.082  37.829  1.00  0.00    -0.200 F 
ATOM     90  F   UNL A   1      45.296  21.673  37.122  1.00  0.00    -0.200 F 
ENDBRANCH  56  80
BRANCH  68  91
ATOM     91  C   UNL A   1      49.340  27.179  29.366  1.00  0.00     0.064 A 
ATOM     92  C   UNL A   1      49.466  26.309  28.272  1.00  0.00     0.173 A 
ATOM     93  C   UNL A   1      50.519  27.640  29.973  1.00  0.00     0.173 A 
ATOM     94  F   UNL A   1      48.374  25.829  27.660  1.00  0.00    -0.203 F 
ATOM     95  C   UNL A   1      50.719  25.886  27.833  1.00  0.00     0.198 A 
ATOM     96  C   UNL A   1      51.770  27.246  29.507  1.00  0.00     0.198 A 
ATOM     97  F   UNL A   1      50.459  28.482  31.015  1.00  0.00    -0.203 F 
ATOM     98  F   UNL A   1      50.812  25.003  26.829  1.00  0.00    -0.200 F 
ATOM     99  C   UNL A   1      51.870  26.360  28.446  1.00  0.00     0.200 A 
ATOM    100  F   UNL A   1      52.880  27.723  30.088  1.00  0.00    -0.200 F 
ATOM    101  F   UNL A   1      53.074  25.956  28.020  1.00  0.00    -0.200 F 
ENDBRANCH  68  91
ENDBRANCH  42  43
ENDBRANCH  35  37
ENDBRANCH  34  35
ENDBRANCH  33  34
ENDBRANCH  32  33
ENDBRANCH  31  32
ENDBRANCH  30  31
ENDBRANCH  29  30
ENDBRANCH  28  29
ENDBRANCH   1  28
TORSDOF 23
ENDMDL
