MODEL 1
REMARK VINA RESULT:      -8.4      0.000      0.000
REMARK SMILES CCc1ccc(-c2cc(Cl)cc3c2O[C@@H](C(F)(F)F)C(C(=O)OCCOCCOCCOCCOC(=O)c2ccc(-c4c5nc(c(-c6c(F)c(F)c(F)c(F)c6F)c6ccc([nH]6)c(-c6c(F)c(F)c(F)c(F)c6F)c6nc(c(-c7c(F)c(F)c(F)c(F)c7F)c7ccc4[nH]7)C=C6)C=C5)cc2)=C3)cc1
REMARK SMILES IDX 29 1 28 2 27 3 26 4 25 5 24 6 23 7 21 8 22 9 20 10 7 11 8 12
REMARK SMILES IDX 13 13 9 14 12 15 14 16 10 17 11 18 101 19 15 20 6 21 3 22
REMARK SMILES IDX 4 23 103 24 5 25 102 26 2 27 1 28 16 29 17 30 18 31 19 32
REMARK SMILES IDX 30 33 31 34 32 35 33 36 34 37 35 38 36 39 37 40 38 41 39 42
REMARK SMILES IDX 100 43 40 44 99 45 41 46 42 47 43 48 93 49 44 50 98 51 92 52
REMARK SMILES IDX 94 53 45 54 97 55 91 56 90 57 46 59 78 60 58 61 77 62 59 63
REMARK SMILES IDX 62 64 76 65 95 66 60 67 61 68 75 70 96 71 63 72 47 73 48 74
REMARK SMILES IDX 56 75 49 76 50 77 54 78 57 79 51 80 52 81 55 82 53 83 79 84
REMARK SMILES IDX 80 85 88 86 81 87 82 88 86 89 89 90 83 91 84 92 87 93 85 94
REMARK SMILES IDX 64 95 65 96 73 97 66 98 67 99 71 100 74 101 68 102 69 103
REMARK SMILES IDX 72 104 70 105
REMARK H PARENT 94 58 62 69
REMARK Flexibility Score: inf
ROOT
ATOM      1  O   UNL A   1      39.153  32.409  39.259  1.00  0.00    -0.377 OA
ENDROOT
BRANCH   1   2
ATOM      2  C   UNL A   1      38.937  32.637  37.880  1.00  0.00     0.188 C 
BRANCH   2   3
ATOM      3  C   UNL A   1      37.684  31.934  37.343  1.00  0.00     0.188 C 
BRANCH   3   4
ATOM      4  O   UNL A   1      37.791  31.522  35.984  1.00  0.00    -0.376 OA
BRANCH   4   5
ATOM      5  C   UNL A   1      39.081  31.137  35.514  1.00  0.00     0.202 C 
BRANCH   5   6
ATOM      6  C   UNL A   1      39.635  31.890  34.298  1.00  0.00     0.261 C 
BRANCH   6   7
ATOM      7  O   UNL A   1      38.875  33.097  34.065  1.00  0.00    -0.460 OA
BRANCH   7   8
ATOM      8  C   UNL A   1      38.459  33.294  32.803  1.00  0.00     0.338 C 
ATOM      9  O   UNL A   1      38.507  34.367  32.213  1.00  0.00    -0.246 OA
BRANCH   8  10
ATOM     10  C   UNL A   1      38.098  32.030  32.115  1.00  0.00     0.087 C 
ATOM     11  C   UNL A   1      35.381  32.425  29.003  1.00  0.00     0.026 A 
ATOM     12  C   UNL A   1      34.547  33.527  29.311  1.00  0.00     0.033 A 
ATOM     13  C   UNL A   1      36.309  32.057  30.000  1.00  0.00     0.135 A 
ATOM     14  C   UNL A   1      34.435  34.010  30.613  1.00  0.00     0.042 A 
ATOM     15  C   UNL A   1      36.020  32.379  31.337  1.00  0.00     0.019 A 
ATOM     16  O   UNL A   1      37.586  31.614  29.668  1.00  0.00    -0.475 OA
ATOM     17  Cl  UNL A   1      33.408  35.347  30.944  1.00  0.00    -0.084 Cl
ATOM     18  C   UNL A   1      35.092  33.366  31.650  1.00  0.00     0.032 A 
ATOM     19  C   UNL A   1      36.819  31.731  32.400  1.00  0.00     0.027 C 
ATOM     20  C   UNL A   1      38.583  31.498  30.778  1.00  0.00     0.316 C 
BRANCH  11  21
ATOM     21  C   UNL A   1      34.811  31.489  27.976  1.00  0.00    -0.015 A 
ATOM     22  C   UNL A   1      33.412  29.207  26.925  1.00  0.00    -0.048 A 
ATOM     23  C   UNL A   1      32.780  30.451  27.064  1.00  0.00     0.004 A 
ATOM     24  C   UNL A   1      34.779  29.146  27.204  1.00  0.00     0.004 A 
ATOM     25  C   UNL A   1      33.467  31.573  27.566  1.00  0.00     0.009 A 
ATOM     26  C   UNL A   1      35.465  30.268  27.715  1.00  0.00     0.009 A 
BRANCH  22  27
ATOM     27  C   UNL A   1      32.574  28.014  26.507  1.00  0.00     0.032 C 
ATOM     28  C   UNL A   1      33.298  26.708  26.190  1.00  0.00     0.009 C 
ENDBRANCH  22  27
ENDBRANCH  11  21
BRANCH  20  29
ATOM     29  C   UNL A   1      40.060  31.769  30.388  1.00  0.00     0.430 C 
ATOM     30  F   UNL A   1      40.846  31.657  31.495  1.00  0.00    -0.167 F 
ATOM     31  F   UNL A   1      40.514  30.850  29.503  1.00  0.00    -0.167 F 
ATOM     32  F   UNL A   1      40.321  32.976  29.869  1.00  0.00    -0.167 F 
ENDBRANCH  20  29
ENDBRANCH   8  10
ENDBRANCH   7   8
ENDBRANCH   6   7
ENDBRANCH   5   6
ENDBRANCH   4   5
ENDBRANCH   3   4
ENDBRANCH   2   3
ENDBRANCH   1   2
BRANCH   1  33
ATOM     33  C   UNL A   1      39.373  33.544  40.090  1.00  0.00     0.188 C 
BRANCH  33  34
ATOM     34  C   UNL A   1      38.519  34.826  39.961  1.00  0.00     0.188 C 
BRANCH  34  35
ATOM     35  O   UNL A   1      39.269  36.028  39.797  1.00  0.00    -0.376 OA
BRANCH  35  36
ATOM     36  C   UNL A   1      40.051  36.461  40.900  1.00  0.00     0.202 C 
BRANCH  36  37
ATOM     37  C   UNL A   1      41.153  37.460  40.525  1.00  0.00     0.261 C 
BRANCH  37  38
ATOM     38  O   UNL A   1      41.621  37.351  39.173  1.00  0.00    -0.460 OA
BRANCH  38  39
ATOM     39  C   UNL A   1      42.902  36.963  39.003  1.00  0.00     0.338 C 
ATOM     40  O   UNL A   1      43.800  36.993  39.827  1.00  0.00    -0.246 OA
BRANCH  39  41
ATOM     41  C   UNL A   1      43.009  36.298  37.691  1.00  0.00     0.060 A 
ATOM     42  C   UNL A   1      41.831  35.915  37.039  1.00  0.00     0.016 A 
ATOM     43  C   UNL A   1      44.256  36.063  37.104  1.00  0.00     0.016 A 
ATOM     44  C   UNL A   1      41.898  35.243  35.821  1.00  0.00     0.010 A 
ATOM     45  C   UNL A   1      44.324  35.374  35.892  1.00  0.00     0.010 A 
ATOM     46  C   UNL A   1      43.146  34.925  35.268  1.00  0.00    -0.014 A 
BRANCH  46  47
ATOM     47  C   UNL A   1      43.219  33.928  34.177  1.00  0.00     0.031 A 
ATOM     48  C   UNL A   1      43.324  34.435  32.765  1.00  0.00     0.074 A 
ATOM     49  C   UNL A   1      43.218  32.607  34.427  1.00  0.00     0.049 A 
ATOM     50  N   UNL A   1      43.411  33.768  31.643  1.00  0.00    -0.248 NA
ATOM     51  C   UNL A   1      43.332  35.899  32.596  1.00  0.00     0.031 C 
ATOM     52  C   UNL A   1      43.137  31.997  35.751  1.00  0.00     0.029 A 
ATOM     53  N   UNL A   1      43.280  31.541  33.565  1.00  0.00    -0.354 N 
ATOM     54  C   UNL A   1      43.481  34.726  30.641  1.00  0.00     0.074 A 
ATOM     55  C   UNL A   1      43.398  36.021  31.279  1.00  0.00     0.031 C 
ATOM     56  C   UNL A   1      43.138  30.658  35.612  1.00  0.00     0.029 A 
ATOM     57  C   UNL A   1      43.201  30.322  34.190  1.00  0.00     0.049 A 
ATOM     58  H   UNL A   1      43.373  31.642  32.589  1.00  0.00     0.167 HD
ATOM     59  C   UNL A   1      43.614  34.543  29.307  1.00  0.00     0.037 A 
ATOM     60  C   UNL A   1      43.167  29.081  33.666  1.00  0.00     0.037 A 
ATOM     61  C   UNL A   1      43.700  33.257  28.674  1.00  0.00     0.049 A 
ATOM     62  C   UNL A   1      43.269  28.905  32.171  1.00  0.00     0.074 A 
ATOM     63  C   UNL A   1      43.877  32.966  27.332  1.00  0.00     0.029 A 
ATOM     64  N   UNL A   1      43.601  32.044  29.338  1.00  0.00    -0.354 N 
ATOM     65  N   UNL A   1      43.399  29.815  31.235  1.00  0.00    -0.248 NA
ATOM     66  C   UNL A   1      43.228  27.527  31.660  1.00  0.00     0.031 C 
ATOM     67  C   UNL A   1      43.832  31.578  27.179  1.00  0.00     0.029 A 
ATOM     68  C   UNL A   1      43.682  31.002  28.430  1.00  0.00     0.049 A 
ATOM     69  H   UNL A   1      43.490  31.940  30.311  1.00  0.00     0.167 HD
ATOM     70  C   UNL A   1      43.482  29.121  30.034  1.00  0.00     0.074 A 
ATOM     71  C   UNL A   1      43.403  27.713  30.359  1.00  0.00     0.031 C 
ATOM     72  C   UNL A   1      43.611  29.605  28.774  1.00  0.00     0.037 A 
BRANCH  59  73
ATOM     73  C   UNL A   1      43.649  35.765  28.440  1.00  0.00     0.064 A 
ATOM     74  C   UNL A   1      42.476  36.344  27.934  1.00  0.00     0.173 A 
ATOM     75  C   UNL A   1      44.872  36.387  28.146  1.00  0.00     0.173 A 
ATOM     76  F   UNL A   1      41.285  35.776  28.172  1.00  0.00    -0.203 F 
ATOM     77  C   UNL A   1      42.529  37.493  27.148  1.00  0.00     0.198 A 
ATOM     78  C   UNL A   1      44.918  37.550  27.384  1.00  0.00     0.198 A 
ATOM     79  F   UNL A   1      46.021  35.871  28.606  1.00  0.00    -0.203 F 
ATOM     80  F   UNL A   1      41.400  38.008  26.643  1.00  0.00    -0.200 F 
ATOM     81  C   UNL A   1      43.747  38.099  26.883  1.00  0.00     0.200 A 
ATOM     82  F   UNL A   1      46.095  38.140  27.134  1.00  0.00    -0.200 F 
ATOM     83  F   UNL A   1      43.794  39.211  26.136  1.00  0.00    -0.200 F 
ENDBRANCH  59  73
BRANCH  60  84
ATOM     84  C   UNL A   1      43.016  27.899  34.555  1.00  0.00     0.064 A 
ATOM     85  C   UNL A   1      44.095  27.401  35.297  1.00  0.00     0.173 A 
ATOM     86  C   UNL A   1      41.793  27.215  34.646  1.00  0.00     0.173 A 
ATOM     87  F   UNL A   1      45.293  28.001  35.221  1.00  0.00    -0.203 F 
ATOM     88  C   UNL A   1      43.967  26.252  36.075  1.00  0.00     0.198 A 
ATOM     89  C   UNL A   1      41.658  26.084  35.448  1.00  0.00     0.198 A 
ATOM     90  F   UNL A   1      40.729  27.647  33.953  1.00  0.00    -0.203 F 
ATOM     91  F   UNL A   1      45.030  25.766  36.729  1.00  0.00    -0.200 F 
ATOM     92  C   UNL A   1      42.747  25.597  36.154  1.00  0.00     0.200 A 
ATOM     93  F   UNL A   1      40.475  25.459  35.526  1.00  0.00    -0.200 F 
ATOM     94  F   UNL A   1      42.625  24.490  36.898  1.00  0.00    -0.200 F 
ENDBRANCH  60  84
BRANCH  72  95
ATOM     95  C   UNL A   1      43.709  28.610  27.654  1.00  0.00     0.064 A 
ATOM     96  C   UNL A   1      44.934  28.042  27.279  1.00  0.00     0.173 A 
ATOM     97  C   UNL A   1      42.552  28.178  26.986  1.00  0.00     0.173 A 
ATOM     98  F   UNL A   1      46.070  28.430  27.878  1.00  0.00    -0.203 F 
ATOM     99  C   UNL A   1      45.002  27.095  26.260  1.00  0.00     0.198 A 
ATOM    100  C   UNL A   1      42.619  27.209  25.989  1.00  0.00     0.198 A 
ATOM    101  F   UNL A   1      41.353  28.681  27.314  1.00  0.00    -0.203 F 
ATOM    102  F   UNL A   1      46.190  26.598  25.887  1.00  0.00    -0.200 F 
ATOM    103  C   UNL A   1      43.845  26.675  25.622  1.00  0.00     0.200 A 
ATOM    104  F   UNL A   1      41.499  26.791  25.385  1.00  0.00    -0.200 F 
ATOM    105  F   UNL A   1      43.911  25.756  24.649  1.00  0.00    -0.200 F 
ENDBRANCH  72  95
ENDBRANCH  46  47
ENDBRANCH  39  41
ENDBRANCH  38  39
ENDBRANCH  37  38
ENDBRANCH  36  37
ENDBRANCH  35  36
ENDBRANCH  34  35
ENDBRANCH  33  34
ENDBRANCH   1  33
TORSDOF 23
ENDMDL
MODEL 2
REMARK VINA RESULT:      -8.2      4.968     11.971
REMARK SMILES CCc1ccc(-c2cc(Cl)cc3c2O[C@@H](C(F)(F)F)C(C(=O)OCCOCCOCCOCCOC(=O)c2ccc(-c4c5nc(c(-c6c(F)c(F)c(F)c(F)c6F)c6ccc([nH]6)c(-c6c(F)c(F)c(F)c(F)c6F)c6nc(c(-c7c(F)c(F)c(F)c(F)c7F)c7ccc4[nH]7)C=C6)C=C5)cc2)=C3)cc1
REMARK SMILES IDX 29 1 28 2 27 3 26 4 25 5 24 6 23 7 21 8 22 9 20 10 7 11 8 12
REMARK SMILES IDX 13 13 9 14 12 15 14 16 10 17 11 18 101 19 15 20 6 21 3 22
REMARK SMILES IDX 4 23 103 24 5 25 102 26 2 27 1 28 16 29 17 30 18 31 19 32
REMARK SMILES IDX 30 33 31 34 32 35 33 36 34 37 35 38 36 39 37 40 38 41 39 42
REMARK SMILES IDX 100 43 40 44 99 45 41 46 42 47 43 48 93 49 44 50 98 51 92 52
REMARK SMILES IDX 94 53 45 54 97 55 91 56 90 57 46 59 78 60 58 61 77 62 59 63
REMARK SMILES IDX 62 64 76 65 95 66 60 67 61 68 75 70 96 71 63 72 47 73 48 74
REMARK SMILES IDX 56 75 49 76 50 77 54 78 57 79 51 80 52 81 55 82 53 83 79 84
REMARK SMILES IDX 80 85 88 86 81 87 82 88 86 89 89 90 83 91 84 92 87 93 85 94
REMARK SMILES IDX 64 95 65 96 73 97 66 98 67 99 71 100 74 101 68 102 69 103
REMARK SMILES IDX 72 104 70 105
REMARK H PARENT 94 58 62 69
REMARK Flexibility Score: inf
ROOT
ATOM      1  O   UNL A   1      44.687  25.539  25.298  1.00  0.00    -0.377 OA
ENDROOT
BRANCH   1   2
ATOM      2  C   UNL A   1      45.361  26.573  25.990  1.00  0.00     0.188 C 
BRANCH   2   3
ATOM      3  C   UNL A   1      45.847  27.698  25.068  1.00  0.00     0.188 C 
BRANCH   3   4
ATOM      4  O   UNL A   1      47.066  28.302  25.487  1.00  0.00    -0.376 OA
BRANCH   4   5
ATOM      5  C   UNL A   1      46.984  29.336  26.467  1.00  0.00     0.202 C 
BRANCH   5   6
ATOM      6  C   UNL A   1      46.234  30.614  26.072  1.00  0.00     0.261 C 
BRANCH   6   7
ATOM      7  O   UNL A   1      46.163  31.522  27.194  1.00  0.00    -0.460 OA
BRANCH   7   8
ATOM      8  C   UNL A   1      46.226  32.831  26.896  1.00  0.00     0.338 C 
ATOM      9  O   UNL A   1      47.082  33.342  26.184  1.00  0.00    -0.246 OA
BRANCH   8  10
ATOM     10  C   UNL A   1      45.038  33.584  27.368  1.00  0.00     0.087 C 
ATOM     11  C   UNL A   1      45.583  37.679  27.759  1.00  0.00     0.026 A 
ATOM     12  C   UNL A   1      46.944  37.893  28.083  1.00  0.00     0.033 A 
ATOM     13  C   UNL A   1      45.169  36.332  27.692  1.00  0.00     0.135 A 
ATOM     14  C   UNL A   1      47.735  36.870  28.601  1.00  0.00     0.042 A 
ATOM     15  C   UNL A   1      45.883  35.373  28.430  1.00  0.00     0.019 A 
ATOM     16  O   UNL A   1      44.247  35.908  26.739  1.00  0.00    -0.475 OA
ATOM     17  Cl  UNL A   1      49.382  37.172  28.985  1.00  0.00    -0.084 Cl
ATOM     18  C   UNL A   1      47.175  35.632  28.877  1.00  0.00     0.032 A 
ATOM     19  C   UNL A   1      45.277  34.037  28.611  1.00  0.00     0.027 C 
ATOM     20  C   UNL A   1      44.065  34.432  26.568  1.00  0.00     0.316 C 
BRANCH  11  21
ATOM     21  C   UNL A   1      44.683  38.835  28.087  1.00  0.00    -0.015 A 
ATOM     22  C   UNL A   1      42.611  40.313  29.427  1.00  0.00    -0.048 A 
ATOM     23  C   UNL A   1      43.956  40.434  29.805  1.00  0.00     0.004 A 
ATOM     24  C   UNL A   1      42.328  39.540  28.298  1.00  0.00     0.004 A 
ATOM     25  C   UNL A   1      44.973  39.721  29.142  1.00  0.00     0.009 A 
ATOM     26  C   UNL A   1      43.346  38.820  27.639  1.00  0.00     0.009 A 
BRANCH  22  27
ATOM     27  C   UNL A   1      41.558  41.004  30.273  1.00  0.00     0.032 C 
ATOM     28  C   UNL A   1      42.031  41.852  31.450  1.00  0.00     0.009 C 
ENDBRANCH  22  27
ENDBRANCH  11  21
BRANCH  20  29
ATOM     29  C   UNL A   1      43.707  33.959  25.135  1.00  0.00     0.430 C 
ATOM     30  F   UNL A   1      42.595  34.619  24.707  1.00  0.00    -0.167 F 
ATOM     31  F   UNL A   1      44.692  34.260  24.254  1.00  0.00    -0.167 F 
ATOM     32  F   UNL A   1      43.441  32.653  24.995  1.00  0.00    -0.167 F 
ENDBRANCH  20  29
ENDBRANCH   8  10
ENDBRANCH   7   8
ENDBRANCH   6   7
ENDBRANCH   5   6
ENDBRANCH   4   5
ENDBRANCH   3   4
ENDBRANCH   2   3
ENDBRANCH   1   2
BRANCH   1  33
ATOM     33  C   UNL A   1      45.365  24.296  25.145  1.00  0.00     0.188 C 
BRANCH  33  34
ATOM     34  C   UNL A   1      45.303  23.196  26.228  1.00  0.00     0.188 C 
BRANCH  34  35
ATOM     35  O   UNL A   1      43.990  22.889  26.693  1.00  0.00    -0.376 OA
BRANCH  35  36
ATOM     36  C   UNL A   1      43.367  21.728  26.162  1.00  0.00     0.202 C 
BRANCH  36  37
ATOM     37  C   UNL A   1      41.886  21.922  25.812  1.00  0.00     0.261 C 
BRANCH  37  38
ATOM     38  O   UNL A   1      41.069  22.365  26.906  1.00  0.00    -0.460 OA
BRANCH  38  39
ATOM     39  C   UNL A   1      39.900  22.958  26.589  1.00  0.00     0.338 C 
ATOM     40  O   UNL A   1      38.925  22.442  26.067  1.00  0.00    -0.246 OA
BRANCH  39  41
ATOM     41  C   UNL A   1      39.906  24.318  27.161  1.00  0.00     0.060 A 
ATOM     42  C   UNL A   1      40.562  25.334  26.455  1.00  0.00     0.016 A 
ATOM     43  C   UNL A   1      39.267  24.590  28.373  1.00  0.00     0.016 A 
ATOM     44  C   UNL A   1      40.627  26.619  26.990  1.00  0.00     0.010 A 
ATOM     45  C   UNL A   1      39.348  25.873  28.917  1.00  0.00     0.010 A 
ATOM     46  C   UNL A   1      40.065  26.880  28.246  1.00  0.00    -0.014 A 
BRANCH  46  47
ATOM     47  C   UNL A   1      40.431  28.128  28.955  1.00  0.00     0.031 A 
ATOM     48  C   UNL A   1      41.825  28.239  29.509  1.00  0.00     0.074 A 
ATOM     49  C   UNL A   1      39.564  29.146  29.084  1.00  0.00     0.049 A 
ATOM     50  N   UNL A   1      42.388  29.226  30.157  1.00  0.00    -0.248 NA
ATOM     51  C   UNL A   1      42.704  27.075  29.304  1.00  0.00     0.031 C 
ATOM     52  C   UNL A   1      38.195  29.162  28.577  1.00  0.00     0.029 A 
ATOM     53  N   UNL A   1      39.713  30.366  29.695  1.00  0.00    -0.354 N 
ATOM     54  C   UNL A   1      43.680  28.801  30.437  1.00  0.00     0.074 A 
ATOM     55  C   UNL A   1      43.813  27.459  29.917  1.00  0.00     0.031 C 
ATOM     56  C   UNL A   1      37.621  30.333  28.912  1.00  0.00     0.029 A 
ATOM     57  C   UNL A   1      38.578  31.137  29.672  1.00  0.00     0.049 A 
ATOM     58  H   UNL A   1      40.557  30.661  30.110  1.00  0.00     0.167 HD
ATOM     59  C   UNL A   1      44.672  29.476  31.063  1.00  0.00     0.037 A 
ATOM     60  C   UNL A   1      38.340  32.344  30.219  1.00  0.00     0.037 A 
ATOM     61  C   UNL A   1      44.540  30.811  31.577  1.00  0.00     0.049 A 
ATOM     62  C   UNL A   1      39.449  33.056  30.954  1.00  0.00     0.074 A 
ATOM     63  C   UNL A   1      45.500  31.596  32.192  1.00  0.00     0.029 A 
ATOM     64  N   UNL A   1      43.371  31.554  31.549  1.00  0.00    -0.354 N 
ATOM     65  N   UNL A   1      40.688  32.675  31.159  1.00  0.00    -0.248 NA
ATOM     66  C   UNL A   1      39.129  34.371  31.528  1.00  0.00     0.031 C 
ATOM     67  C   UNL A   1      44.896  32.794  32.583  1.00  0.00     0.029 A 
ATOM     68  C   UNL A   1      43.575  32.778  32.163  1.00  0.00     0.049 A 
ATOM     69  H   UNL A   1      42.521  31.255  31.150  1.00  0.00     0.167 HD
ATOM     70  C   UNL A   1      41.297  33.710  31.857  1.00  0.00     0.074 A 
ATOM     71  C   UNL A   1      40.299  34.743  32.029  1.00  0.00     0.031 C 
ATOM     72  C   UNL A   1      42.570  33.798  32.316  1.00  0.00     0.037 A 
BRANCH  59  73
ATOM     73  C   UNL A   1      45.981  28.769  31.249  1.00  0.00     0.064 A 
ATOM     74  C   UNL A   1      47.109  29.095  30.482  1.00  0.00     0.173 A 
ATOM     75  C   UNL A   1      46.116  27.782  32.235  1.00  0.00     0.173 A 
ATOM     76  F   UNL A   1      47.024  30.020  29.514  1.00  0.00    -0.203 F 
ATOM     77  C   UNL A   1      48.323  28.443  30.684  1.00  0.00     0.198 A 
ATOM     78  C   UNL A   1      47.337  27.151  32.453  1.00  0.00     0.198 A 
ATOM     79  F   UNL A   1      45.066  27.434  32.993  1.00  0.00    -0.203 F 
ATOM     80  F   UNL A   1      49.379  28.742  29.915  1.00  0.00    -0.200 F 
ATOM     81  C   UNL A   1      48.438  27.479  31.675  1.00  0.00     0.200 A 
ATOM     82  F   UNL A   1      47.450  26.225  33.415  1.00  0.00    -0.200 F 
ATOM     83  F   UNL A   1      49.610  26.860  31.876  1.00  0.00    -0.200 F 
ENDBRANCH  59  73
BRANCH  60  84
ATOM     84  C   UNL A   1      36.991  32.962  30.110  1.00  0.00     0.064 A 
ATOM     85  C   UNL A   1      36.084  32.922  31.177  1.00  0.00     0.173 A 
ATOM     86  C   UNL A   1      36.568  33.567  28.917  1.00  0.00     0.173 A 
ATOM     87  F   UNL A   1      36.430  32.328  32.329  1.00  0.00    -0.203 F 
ATOM     88  C   UNL A   1      34.797  33.441  31.048  1.00  0.00     0.198 A 
ATOM     89  C   UNL A   1      35.292  34.112  28.799  1.00  0.00     0.198 A 
ATOM     90  F   UNL A   1      37.396  33.627  27.863  1.00  0.00    -0.203 F 
ATOM     91  F   UNL A   1      33.930  33.339  32.065  1.00  0.00    -0.200 F 
ATOM     92  C   UNL A   1      34.403  34.039  29.861  1.00  0.00     0.200 A 
ATOM     93  F   UNL A   1      34.918  34.695  27.652  1.00  0.00    -0.200 F 
ATOM     94  F   UNL A   1      33.164  34.533  29.735  1.00  0.00    -0.200 F 
ENDBRANCH  60  84
BRANCH  72  95
ATOM     95  C   UNL A   1      42.969  35.064  33.019  1.00  0.00     0.064 A 
ATOM     96  C   UNL A   1      43.489  36.161  32.319  1.00  0.00     0.173 A 
ATOM     97  C   UNL A   1      42.776  35.198  34.403  1.00  0.00     0.173 A 
ATOM     98  F   UNL A   1      43.703  36.080  30.997  1.00  0.00    -0.203 F 
ATOM     99  C   UNL A   1      43.822  37.340  32.983  1.00  0.00     0.198 A 
ATOM    100  C   UNL A   1      43.082  36.387  35.058  1.00  0.00     0.198 A 
ATOM    101  F   UNL A   1      42.271  34.181  35.117  1.00  0.00    -0.203 F 
ATOM    102  F   UNL A   1      44.359  38.362  32.301  1.00  0.00    -0.200 F 
ATOM    103  C   UNL A   1      43.612  37.454  34.348  1.00  0.00     0.200 A 
ATOM    104  F   UNL A   1      42.862  36.502  36.375  1.00  0.00    -0.200 F 
ATOM    105  F   UNL A   1      43.924  38.592  34.983  1.00  0.00    -0.200 F 
ENDBRANCH  72  95
ENDBRANCH  46  47
ENDBRANCH  39  41
ENDBRANCH  38  39
ENDBRANCH  37  38
ENDBRANCH  36  37
ENDBRANCH  35  36
ENDBRANCH  34  35
ENDBRANCH  33  34
ENDBRANCH   1  33
TORSDOF 23
ENDMDL
MODEL 3
REMARK VINA RESULT:      -8.0      4.930     10.461
REMARK SMILES CCc1ccc(-c2cc(Cl)cc3c2O[C@@H](C(F)(F)F)C(C(=O)OCCOCCOCCOCCOC(=O)c2ccc(-c4c5nc(c(-c6c(F)c(F)c(F)c(F)c6F)c6ccc([nH]6)c(-c6c(F)c(F)c(F)c(F)c6F)c6nc(c(-c7c(F)c(F)c(F)c(F)c7F)c7ccc4[nH]7)C=C6)C=C5)cc2)=C3)cc1
REMARK SMILES IDX 29 1 28 2 27 3 26 4 25 5 24 6 23 7 21 8 22 9 20 10 7 11 8 12
REMARK SMILES IDX 13 13 9 14 12 15 14 16 10 17 11 18 101 19 15 20 6 21 3 22
REMARK SMILES IDX 4 23 103 24 5 25 102 26 2 27 1 28 16 29 17 30 18 31 19 32
REMARK SMILES IDX 30 33 31 34 32 35 33 36 34 37 35 38 36 39 37 40 38 41 39 42
REMARK SMILES IDX 100 43 40 44 99 45 41 46 42 47 43 48 93 49 44 50 98 51 92 52
REMARK SMILES IDX 94 53 45 54 97 55 91 56 90 57 46 59 78 60 58 61 77 62 59 63
REMARK SMILES IDX 62 64 76 65 95 66 60 67 61 68 75 70 96 71 63 72 47 73 48 74
REMARK SMILES IDX 56 75 49 76 50 77 54 78 57 79 51 80 52 81 55 82 53 83 79 84
REMARK SMILES IDX 80 85 88 86 81 87 82 88 86 89 89 90 83 91 84 92 87 93 85 94
REMARK SMILES IDX 64 95 65 96 73 97 66 98 67 99 71 100 74 101 68 102 69 103
REMARK SMILES IDX 72 104 70 105
REMARK H PARENT 94 58 62 69
REMARK Flexibility Score: inf
ROOT
ATOM      1  O   UNL A   1      39.221  32.413  36.757  1.00  0.00    -0.377 OA
ENDROOT
BRANCH   1   2
ATOM      2  C   UNL A   1      40.495  31.906  36.408  1.00  0.00     0.188 C 
BRANCH   2   3
ATOM      3  C   UNL A   1      40.422  30.613  35.585  1.00  0.00     0.188 C 
BRANCH   3   4
ATOM      4  O   UNL A   1      41.153  29.528  36.149  1.00  0.00    -0.376 OA
BRANCH   4   5
ATOM      5  C   UNL A   1      41.811  28.640  35.247  1.00  0.00     0.202 C 
BRANCH   5   6
ATOM      6  C   UNL A   1      41.743  27.142  35.567  1.00  0.00     0.261 C 
BRANCH   6   7
ATOM      7  O   UNL A   1      42.947  26.716  36.243  1.00  0.00    -0.460 OA
BRANCH   7   8
ATOM      8  C   UNL A   1      43.384  25.482  35.944  1.00  0.00     0.338 C 
ATOM      9  O   UNL A   1      42.680  24.479  35.926  1.00  0.00    -0.246 OA
BRANCH   8  10
ATOM     10  C   UNL A   1      44.783  25.473  35.450  1.00  0.00     0.087 C 
ATOM     11  C   UNL A   1      47.113  22.316  36.797  1.00  0.00     0.026 A 
ATOM     12  C   UNL A   1      46.632  21.954  38.079  1.00  0.00     0.033 A 
ATOM     13  C   UNL A   1      46.517  23.452  36.212  1.00  0.00     0.135 A 
ATOM     14  C   UNL A   1      45.856  22.831  38.835  1.00  0.00     0.042 A 
ATOM     15  C   UNL A   1      45.947  24.420  37.056  1.00  0.00     0.019 A 
ATOM     16  O   UNL A   1      46.268  23.511  34.844  1.00  0.00    -0.475 OA
ATOM     17  Cl  UNL A   1      45.296  22.355  40.387  1.00  0.00    -0.084 Cl
ATOM     18  C   UNL A   1      45.602  24.110  38.367  1.00  0.00     0.032 A 
ATOM     19  C   UNL A   1      45.607  25.738  36.478  1.00  0.00     0.027 C 
ATOM     20  C   UNL A   1      45.402  24.628  34.351  1.00  0.00     0.316 C 
BRANCH  11  21
ATOM     21  C   UNL A   1      48.504  21.831  36.503  1.00  0.00    -0.015 A 
ATOM     22  C   UNL A   1      50.706  20.803  34.965  1.00  0.00    -0.048 A 
ATOM     23  C   UNL A   1      50.553  22.178  35.193  1.00  0.00     0.004 A 
ATOM     24  C   UNL A   1      49.817  19.941  35.612  1.00  0.00     0.004 A 
ATOM     25  C   UNL A   1      49.483  22.682  35.956  1.00  0.00     0.009 A 
ATOM     26  C   UNL A   1      48.741  20.448  36.370  1.00  0.00     0.009 A 
BRANCH  22  27
ATOM     27  C   UNL A   1      51.803  20.344  34.022  1.00  0.00     0.032 C 
ATOM     28  C   UNL A   1      52.082  21.194  32.785  1.00  0.00     0.009 C 
ENDBRANCH  22  27
ENDBRANCH  11  21
BRANCH  20  29
ATOM     29  C   UNL A   1      44.529  24.307  33.110  1.00  0.00     0.430 C 
ATOM     30  F   UNL A   1      43.884  25.437  32.708  1.00  0.00    -0.167 F 
ATOM     31  F   UNL A   1      45.287  23.906  32.062  1.00  0.00    -0.167 F 
ATOM     32  F   UNL A   1      43.578  23.379  33.284  1.00  0.00    -0.167 F 
ENDBRANCH  20  29
ENDBRANCH   8  10
ENDBRANCH   7   8
ENDBRANCH   6   7
ENDBRANCH   5   6
ENDBRANCH   4   5
ENDBRANCH   3   4
ENDBRANCH   2   3
ENDBRANCH   1   2
BRANCH   1  33
ATOM     33  C   UNL A   1      38.109  32.011  35.965  1.00  0.00     0.188 C 
BRANCH  33  34
ATOM     34  C   UNL A   1      37.626  32.845  34.757  1.00  0.00     0.188 C 
BRANCH  34  35
ATOM     35  O   UNL A   1      36.327  32.504  34.278  1.00  0.00    -0.376 OA
BRANCH  35  36
ATOM     36  C   UNL A   1      35.650  33.474  33.490  1.00  0.00     0.202 C 
BRANCH  36  37
ATOM     37  C   UNL A   1      34.695  32.872  32.451  1.00  0.00     0.261 C 
BRANCH  37  38
ATOM     38  O   UNL A   1      35.134  31.626  31.890  1.00  0.00    -0.460 OA
BRANCH  38  39
ATOM     39  C   UNL A   1      35.443  31.627  30.576  1.00  0.00     0.338 C 
ATOM     40  O   UNL A   1      34.886  32.248  29.685  1.00  0.00    -0.246 OA
BRANCH  39  41
ATOM     41  C   UNL A   1      36.710  30.893  30.402  1.00  0.00     0.060 A 
ATOM     42  C   UNL A   1      37.036  29.898  31.331  1.00  0.00     0.016 A 
ATOM     43  C   UNL A   1      37.563  31.177  29.333  1.00  0.00     0.016 A 
ATOM     44  C   UNL A   1      38.248  29.218  31.223  1.00  0.00     0.010 A 
ATOM     45  C   UNL A   1      38.785  30.510  29.235  1.00  0.00     0.010 A 
ATOM     46  C   UNL A   1      39.148  29.557  30.204  1.00  0.00    -0.014 A 
BRANCH  46  47
ATOM     47  C   UNL A   1      40.551  29.091  30.297  1.00  0.00     0.031 A 
ATOM     48  C   UNL A   1      41.521  29.931  31.083  1.00  0.00     0.074 A 
ATOM     49  C   UNL A   1      40.952  27.943  29.725  1.00  0.00     0.049 A 
ATOM     50  N   UNL A   1      42.792  29.734  31.319  1.00  0.00    -0.248 NA
ATOM     51  C   UNL A   1      40.981  31.163  31.684  1.00  0.00     0.031 C 
ATOM     52  C   UNL A   1      40.102  27.040  28.955  1.00  0.00     0.029 A 
ATOM     53  N   UNL A   1      42.190  27.350  29.701  1.00  0.00    -0.354 N 
ATOM     54  C   UNL A   1      43.202  30.814  32.090  1.00  0.00     0.074 A 
ATOM     55  C   UNL A   1      42.056  31.679  32.260  1.00  0.00     0.031 C 
ATOM     56  C   UNL A   1      40.850  26.009  28.518  1.00  0.00     0.029 A 
ATOM     57  C   UNL A   1      42.231  26.193  28.963  1.00  0.00     0.049 A 
ATOM     58  H   UNL A   1      42.973  27.719  30.170  1.00  0.00     0.167 HD
ATOM     59  C   UNL A   1      44.423  31.057  32.619  1.00  0.00     0.037 A 
ATOM     60  C   UNL A   1      43.272  25.389  28.671  1.00  0.00     0.037 A 
ATOM     61  C   UNL A   1      45.560  30.196  32.453  1.00  0.00     0.049 A 
ATOM     62  C   UNL A   1      44.635  25.709  29.234  1.00  0.00     0.074 A 
ATOM     63  C   UNL A   1      46.831  30.335  32.983  1.00  0.00     0.029 A 
ATOM     64  N   UNL A   1      45.569  29.041  31.687  1.00  0.00    -0.354 N 
ATOM     65  N   UNL A   1      45.000  26.698  30.016  1.00  0.00    -0.248 NA
ATOM     66  C   UNL A   1      45.731  24.794  28.881  1.00  0.00     0.031 C 
ATOM     67  C   UNL A   1      47.622  29.291  32.495  1.00  0.00     0.029 A 
ATOM     68  C   UNL A   1      46.831  28.473  31.704  1.00  0.00     0.049 A 
ATOM     69  H   UNL A   1      44.791  28.679  31.202  1.00  0.00     0.167 HD
ATOM     70  C   UNL A   1      46.353  26.508  30.267  1.00  0.00     0.074 A 
ATOM     71  C   UNL A   1      46.743  25.303  29.570  1.00  0.00     0.031 C 
ATOM     72  C   UNL A   1      47.198  27.266  31.010  1.00  0.00     0.037 A 
BRANCH  59  73
ATOM     73  C   UNL A   1      44.597  32.320  33.408  1.00  0.00     0.064 A 
ATOM     74  C   UNL A   1      44.484  32.337  34.806  1.00  0.00     0.173 A 
ATOM     75  C   UNL A   1      44.921  33.520  32.758  1.00  0.00     0.173 A 
ATOM     76  F   UNL A   1      44.158  31.218  35.471  1.00  0.00    -0.203 F 
ATOM     77  C   UNL A   1      44.672  33.515  35.524  1.00  0.00     0.198 A 
ATOM     78  C   UNL A   1      45.135  34.689  33.480  1.00  0.00     0.198 A 
ATOM     79  F   UNL A   1      45.039  33.555  31.423  1.00  0.00    -0.203 F 
ATOM     80  F   UNL A   1      44.523  33.518  36.855  1.00  0.00    -0.200 F 
ATOM     81  C   UNL A   1      45.006  34.687  34.861  1.00  0.00     0.200 A 
ATOM     82  F   UNL A   1      45.465  35.820  32.841  1.00  0.00    -0.200 F 
ATOM     83  F   UNL A   1      45.198  35.818  35.555  1.00  0.00    -0.200 F 
ENDBRANCH  59  73
BRANCH  60  84
ATOM     84  C   UNL A   1      43.079  24.208  27.789  1.00  0.00     0.064 A 
ATOM     85  C   UNL A   1      43.284  24.290  26.405  1.00  0.00     0.173 A 
ATOM     86  C   UNL A   1      42.643  22.980  28.311  1.00  0.00     0.173 A 
ATOM     87  F   UNL A   1      43.672  25.450  25.854  1.00  0.00    -0.203 F 
ATOM     88  C   UNL A   1      43.036  23.199  25.574  1.00  0.00     0.198 A 
ATOM     89  C   UNL A   1      42.424  21.882  27.483  1.00  0.00     0.198 A 
ATOM     90  F   UNL A   1      42.427  22.849  29.629  1.00  0.00    -0.203 F 
ATOM     91  F   UNL A   1      43.186  23.322  24.248  1.00  0.00    -0.200 F 
ATOM     92  C   UNL A   1      42.611  21.995  26.114  1.00  0.00     0.200 A 
ATOM     93  F   UNL A   1      42.020  20.718  28.010  1.00  0.00    -0.200 F 
ATOM     94  F   UNL A   1      42.368  20.948  25.314  1.00  0.00    -0.200 F 
ENDBRANCH  60  84
BRANCH  72  95
ATOM     95  C   UNL A   1      48.620  26.799  31.135  1.00  0.00     0.064 A 
ATOM     96  C   UNL A   1      49.005  25.864  32.106  1.00  0.00     0.173 A 
ATOM     97  C   UNL A   1      49.597  27.253  30.236  1.00  0.00     0.173 A 
ATOM     98  F   UNL A   1      48.111  25.408  32.996  1.00  0.00    -0.203 F 
ATOM     99  C   UNL A   1      50.321  25.417  32.187  1.00  0.00     0.198 A 
ATOM    100  C   UNL A   1      50.906  26.782  30.300  1.00  0.00     0.198 A 
ATOM    101  F   UNL A   1      49.279  28.140  29.282  1.00  0.00    -0.203 F 
ATOM    102  F   UNL A   1      50.677  24.556  33.151  1.00  0.00    -0.200 F 
ATOM    103  C   UNL A   1      51.267  25.870  31.280  1.00  0.00     0.200 A 
ATOM    104  F   UNL A   1      51.815  27.208  29.413  1.00  0.00    -0.200 F 
ATOM    105  F   UNL A   1      52.531  25.431  31.353  1.00  0.00    -0.200 F 
ENDBRANCH  72  95
ENDBRANCH  46  47
ENDBRANCH  39  41
ENDBRANCH  38  39
ENDBRANCH  37  38
ENDBRANCH  36  37
ENDBRANCH  35  36
ENDBRANCH  34  35
ENDBRANCH  33  34
ENDBRANCH   1  33
TORSDOF 23
ENDMDL
