MODEL 1
REMARK VINA RESULT:     -10.3      0.000      0.000
REMARK SMILES O=C(CCCc1nc(-c2cccc(Cl)c2)no1)OCCOCCOCCOCCOC(=O)c1ccc(-c2c3nc(c(-c4c(F)c(F)c(F)c(F)c4F)c4ccc([nH]4)c(-c4c(F)c(F)c(F)c(F)c4F)c4nc(c(-c5c(F)c(F)c(F)c(F)c5F)c5ccc2[nH]5)C=C4)C=C3)cc1
REMARK SMILES IDX 23 1 22 2 21 3 20 4 19 5 18 6 2 7 1 8 3 9 4 10 5 11 6 12
REMARK SMILES IDX 7 13 17 14 8 15 16 16 9 17 10 18 15 19 11 20 13 21 12 22
REMARK SMILES IDX 14 23 24 24 25 25 26 26 27 27 28 28 29 29 30 30 31 31 32 32
REMARK SMILES IDX 33 33 34 34 95 35 35 36 94 37 36 38 37 39 38 40 88 41 39 42
REMARK SMILES IDX 93 43 87 44 89 45 40 46 92 47 86 48 85 49 41 51 73 52 53 53
REMARK SMILES IDX 72 54 54 55 57 56 71 57 90 58 55 59 56 60 70 62 91 63 58 64
REMARK SMILES IDX 42 65 43 66 51 67 44 68 45 69 49 70 52 71 46 72 47 73 50 74
REMARK SMILES IDX 48 75 74 76 75 77 83 78 76 79 77 80 81 81 84 82 78 83 79 84
REMARK SMILES IDX 82 85 80 86 59 87 60 88 68 89 61 90 62 91 66 92 69 93 63 94
REMARK SMILES IDX 64 95 67 96 65 97
REMARK H PARENT 89 50 57 61
REMARK Flexibility Score: inf
ROOT
ATOM      1  C   UNL A   1      32.986  26.646  26.527  1.00  0.00     0.188 C 
ENDROOT
BRANCH   1   2
ATOM      2  C   UNL A   1      31.521  26.860  26.115  1.00  0.00     0.188 C 
BRANCH   2   3
ATOM      3  O   UNL A   1      30.575  25.856  26.531  1.00  0.00    -0.376 OA
BRANCH   3   4
ATOM      4  C   UNL A   1      29.529  25.605  25.594  1.00  0.00     0.202 C 
BRANCH   4   5
ATOM      5  C   UNL A   1      29.830  26.085  24.173  1.00  0.00     0.261 C 
BRANCH   5   6
ATOM      6  O   UNL A   1      28.986  27.112  23.647  1.00  0.00    -0.463 OA
BRANCH   6   7
ATOM      7  C   UNL A   1      29.569  28.204  23.109  1.00  0.00     0.305 C 
ATOM      8  O   UNL A   1      29.077  29.324  23.112  1.00  0.00    -0.252 OA
BRANCH   7   9
ATOM      9  C   UNL A   1      30.824  27.807  22.353  1.00  0.00     0.123 C 
BRANCH   9  10
ATOM     10  C   UNL A   1      32.076  28.650  22.629  1.00  0.00     0.022 C 
BRANCH  10  11
ATOM     11  C   UNL A   1      33.464  28.007  22.454  1.00  0.00     0.101 C 
BRANCH  11  12
ATOM     12  C   UNL A   1      33.479  26.533  22.294  1.00  0.00     0.226 A 
ATOM     13  N   UNL A   1      33.491  25.586  23.202  1.00  0.00    -0.191 NA
ATOM     14  O   UNL A   1      33.332  26.056  21.023  1.00  0.00    -0.339 OA
ATOM     15  C   UNL A   1      33.380  24.439  22.442  1.00  0.00     0.202 A 
ATOM     16  N   UNL A   1      33.267  24.666  21.122  1.00  0.00    -0.057 NA
BRANCH  15  17
ATOM     17  C   UNL A   1      33.401  23.114  23.045  1.00  0.00     0.024 A 
ATOM     18  C   UNL A   1      32.364  22.207  22.770  1.00  0.00     0.012 A 
ATOM     19  C   UNL A   1      34.420  22.729  23.926  1.00  0.00     0.032 A 
ATOM     20  C   UNL A   1      32.326  20.957  23.391  1.00  0.00     0.002 A 
ATOM     21  C   UNL A   1      34.368  21.485  24.555  1.00  0.00     0.041 A 
ATOM     22  C   UNL A   1      33.321  20.602  24.300  1.00  0.00     0.020 A 
ATOM     23  Cl  UNL A   1      35.602  21.030  25.664  1.00  0.00    -0.084 Cl
ENDBRANCH  15  17
ENDBRANCH  11  12
ENDBRANCH  10  11
ENDBRANCH   9  10
ENDBRANCH   7   9
ENDBRANCH   6   7
ENDBRANCH   5   6
ENDBRANCH   4   5
ENDBRANCH   3   4
ENDBRANCH   2   3
ENDBRANCH   1   2
BRANCH   1  24
ATOM     24  O   UNL A   1      33.803  27.784  26.320  1.00  0.00    -0.377 OA
BRANCH  24  25
ATOM     25  C   UNL A   1      33.167  29.030  26.077  1.00  0.00     0.188 C 
BRANCH  25  26
ATOM     26  C   UNL A   1      32.761  29.965  27.228  1.00  0.00     0.188 C 
BRANCH  26  27
ATOM     27  O   UNL A   1      32.983  31.347  26.950  1.00  0.00    -0.376 OA
BRANCH  27  28
ATOM     28  C   UNL A   1      31.824  32.145  26.741  1.00  0.00     0.202 C 
BRANCH  28  29
ATOM     29  C   UNL A   1      32.001  33.600  27.189  1.00  0.00     0.261 C 
BRANCH  29  30
ATOM     30  O   UNL A   1      32.365  33.753  28.571  1.00  0.00    -0.460 OA
BRANCH  30  31
ATOM     31  C   UNL A   1      33.008  34.889  28.915  1.00  0.00     0.338 C 
ATOM     32  O   UNL A   1      32.582  36.026  28.814  1.00  0.00    -0.246 OA
BRANCH  31  33
ATOM     33  C   UNL A   1      34.257  34.530  29.631  1.00  0.00     0.060 A 
ATOM     34  C   UNL A   1      35.462  34.546  28.916  1.00  0.00     0.016 A 
ATOM     35  C   UNL A   1      34.255  34.213  30.994  1.00  0.00     0.016 A 
ATOM     36  C   UNL A   1      36.651  34.160  29.539  1.00  0.00     0.010 A 
ATOM     37  C   UNL A   1      35.444  33.827  31.620  1.00  0.00     0.010 A 
ATOM     38  C   UNL A   1      36.633  33.735  30.875  1.00  0.00    -0.014 A 
BRANCH  38  39
ATOM     39  C   UNL A   1      37.749  32.890  31.373  1.00  0.00     0.031 A 
ATOM     40  C   UNL A   1      38.285  33.202  32.748  1.00  0.00     0.074 A 
ATOM     41  C   UNL A   1      38.252  31.859  30.672  1.00  0.00     0.049 A 
ATOM     42  N   UNL A   1      39.229  32.612  33.436  1.00  0.00    -0.248 NA
ATOM     43  C   UNL A   1      37.668  34.348  33.439  1.00  0.00     0.031 C 
ATOM     44  C   UNL A   1      37.808  31.434  29.348  1.00  0.00     0.029 A 
ATOM     45  N   UNL A   1      39.254  30.976  30.993  1.00  0.00    -0.354 N 
ATOM     46  C   UNL A   1      39.316  33.316  34.630  1.00  0.00     0.074 A 
ATOM     47  C   UNL A   1      38.365  34.400  34.561  1.00  0.00     0.031 C 
ATOM     48  C   UNL A   1      38.536  30.366  28.969  1.00  0.00     0.029 A 
ATOM     49  C   UNL A   1      39.506  30.044  30.017  1.00  0.00     0.049 A 
ATOM     50  H   UNL A   1      39.747  31.008  31.845  1.00  0.00     0.167 HD
ATOM     51  C   UNL A   1      40.106  33.074  35.703  1.00  0.00     0.037 A 
ATOM     52  C   UNL A   1      40.416  29.050  29.981  1.00  0.00     0.037 A 
ATOM     53  C   UNL A   1      41.052  31.997  35.779  1.00  0.00     0.049 A 
ATOM     54  C   UNL A   1      41.324  28.831  31.168  1.00  0.00     0.074 A 
ATOM     55  C   UNL A   1      41.891  31.655  36.824  1.00  0.00     0.029 A 
ATOM     56  N   UNL A   1      41.289  31.088  34.759  1.00  0.00    -0.354 N 
ATOM     57  N   UNL A   1      41.368  29.471  32.312  1.00  0.00    -0.248 NA
ATOM     58  C   UNL A   1      42.301  27.737  31.060  1.00  0.00     0.031 C 
ATOM     59  C   UNL A   1      42.672  30.569  36.418  1.00  0.00     0.029 A 
ATOM     60  C   UNL A   1      42.277  30.197  35.143  1.00  0.00     0.049 A 
ATOM     61  H   UNL A   1      40.826  31.078  33.891  1.00  0.00     0.167 HD
ATOM     62  C   UNL A   1      42.340  28.832  33.073  1.00  0.00     0.074 A 
ATOM     63  C   UNL A   1      42.859  27.750  32.263  1.00  0.00     0.031 C 
ATOM     64  C   UNL A   1      42.761  29.109  34.332  1.00  0.00     0.037 A 
BRANCH  51  65
ATOM     65  C   UNL A   1      39.992  34.018  36.863  1.00  0.00     0.064 A 
ATOM     66  C   UNL A   1      39.121  33.770  37.935  1.00  0.00     0.173 A 
ATOM     67  C   UNL A   1      40.761  35.190  36.898  1.00  0.00     0.173 A 
ATOM     68  F   UNL A   1      38.346  32.674  37.937  1.00  0.00    -0.203 F 
ATOM     69  C   UNL A   1      38.999  34.678  38.983  1.00  0.00     0.198 A 
ATOM     70  C   UNL A   1      40.660  36.080  37.964  1.00  0.00     0.198 A 
ATOM     71  F   UNL A   1      41.607  35.476  35.898  1.00  0.00    -0.203 F 
ATOM     72  F   UNL A   1      38.117  34.451  39.966  1.00  0.00    -0.200 F 
ATOM     73  C   UNL A   1      39.773  35.829  39.000  1.00  0.00     0.200 A 
ATOM     74  F   UNL A   1      41.415  37.187  37.983  1.00  0.00    -0.200 F 
ATOM     75  F   UNL A   1      39.656  36.703  40.009  1.00  0.00    -0.200 F 
ENDBRANCH  51  65
BRANCH  52  76
ATOM     76  C   UNL A   1      40.511  28.161  28.791  1.00  0.00     0.064 A 
ATOM     77  C   UNL A   1      41.289  28.520  27.681  1.00  0.00     0.173 A 
ATOM     78  C   UNL A   1      39.793  26.958  28.721  1.00  0.00     0.173 A 
ATOM     79  F   UNL A   1      41.970  29.676  27.686  1.00  0.00    -0.203 F 
ATOM     80  C   UNL A   1      41.327  27.722  26.538  1.00  0.00     0.198 A 
ATOM     81  C   UNL A   1      39.854  26.148  27.588  1.00  0.00     0.198 A 
ATOM     82  F   UNL A   1      39.027  26.572  29.751  1.00  0.00    -0.203 F 
ATOM     83  F   UNL A   1      42.037  28.117  25.472  1.00  0.00    -0.200 F 
ATOM     84  C   UNL A   1      40.614  26.535  26.495  1.00  0.00     0.200 A 
ATOM     85  F   UNL A   1      39.168  24.997  27.553  1.00  0.00    -0.200 F 
ATOM     86  F   UNL A   1      40.649  25.769  25.395  1.00  0.00    -0.200 F 
ENDBRANCH  52  76
BRANCH  64  87
ATOM     87  C   UNL A   1      43.782  28.191  34.943  1.00  0.00     0.064 A 
ATOM     88  C   UNL A   1      43.418  27.037  35.650  1.00  0.00     0.173 A 
ATOM     89  C   UNL A   1      45.152  28.455  34.780  1.00  0.00     0.173 A 
ATOM     90  F   UNL A   1      42.122  26.744  35.844  1.00  0.00    -0.203 F 
ATOM     91  C   UNL A   1      44.385  26.198  36.199  1.00  0.00     0.198 A 
ATOM     92  C   UNL A   1      46.116  27.597  35.300  1.00  0.00     0.198 A 
ATOM     93  F   UNL A   1      45.556  29.541  34.101  1.00  0.00    -0.203 F 
ATOM     94  F   UNL A   1      44.013  25.128  36.915  1.00  0.00    -0.200 F 
ATOM     95  C   UNL A   1      45.732  26.475  36.017  1.00  0.00     0.200 A 
ATOM     96  F   UNL A   1      47.417  27.857  35.109  1.00  0.00    -0.200 F 
ATOM     97  F   UNL A   1      46.661  25.663  36.540  1.00  0.00    -0.200 F 
ENDBRANCH  64  87
ENDBRANCH  38  39
ENDBRANCH  31  33
ENDBRANCH  30  31
ENDBRANCH  29  30
ENDBRANCH  28  29
ENDBRANCH  27  28
ENDBRANCH  26  27
ENDBRANCH  25  26
ENDBRANCH  24  25
ENDBRANCH   1  24
TORSDOF 24
ENDMDL
MODEL 2
REMARK VINA RESULT:      -9.5      5.755     10.743
REMARK SMILES O=C(CCCc1nc(-c2cccc(Cl)c2)no1)OCCOCCOCCOCCOC(=O)c1ccc(-c2c3nc(c(-c4c(F)c(F)c(F)c(F)c4F)c4ccc([nH]4)c(-c4c(F)c(F)c(F)c(F)c4F)c4nc(c(-c5c(F)c(F)c(F)c(F)c5F)c5ccc2[nH]5)C=C4)C=C3)cc1
REMARK SMILES IDX 23 1 22 2 21 3 20 4 19 5 18 6 2 7 1 8 3 9 4 10 5 11 6 12
REMARK SMILES IDX 7 13 17 14 8 15 16 16 9 17 10 18 15 19 11 20 13 21 12 22
REMARK SMILES IDX 14 23 24 24 25 25 26 26 27 27 28 28 29 29 30 30 31 31 32 32
REMARK SMILES IDX 33 33 34 34 95 35 35 36 94 37 36 38 37 39 38 40 88 41 39 42
REMARK SMILES IDX 93 43 87 44 89 45 40 46 92 47 86 48 85 49 41 51 73 52 53 53
REMARK SMILES IDX 72 54 54 55 57 56 71 57 90 58 55 59 56 60 70 62 91 63 58 64
REMARK SMILES IDX 42 65 43 66 51 67 44 68 45 69 49 70 52 71 46 72 47 73 50 74
REMARK SMILES IDX 48 75 74 76 75 77 83 78 76 79 77 80 81 81 84 82 78 83 79 84
REMARK SMILES IDX 82 85 80 86 59 87 60 88 68 89 61 90 62 91 66 92 69 93 63 94
REMARK SMILES IDX 64 95 67 96 65 97
REMARK H PARENT 89 50 57 61
REMARK Flexibility Score: inf
ROOT
ATOM      1  C   UNL A   1      43.304  18.465  26.155  1.00  0.00     0.188 C 
ENDROOT
BRANCH   1   2
ATOM      2  C   UNL A   1      42.094  19.404  26.043  1.00  0.00     0.188 C 
BRANCH   2   3
ATOM      3  O   UNL A   1      41.627  20.013  27.263  1.00  0.00    -0.376 OA
BRANCH   3   4
ATOM      4  C   UNL A   1      42.185  21.298  27.533  1.00  0.00     0.202 C 
BRANCH   4   5
ATOM      5  C   UNL A   1      41.730  22.396  26.570  1.00  0.00     0.261 C 
BRANCH   5   6
ATOM      6  O   UNL A   1      40.580  23.153  26.953  1.00  0.00    -0.463 OA
BRANCH   6   7
ATOM      7  C   UNL A   1      40.773  24.375  27.492  1.00  0.00     0.305 C 
ATOM      8  O   UNL A   1      41.839  24.773  27.940  1.00  0.00    -0.252 OA
BRANCH   7   9
ATOM      9  C   UNL A   1      39.448  25.105  27.621  1.00  0.00     0.123 C 
BRANCH   9  10
ATOM     10  C   UNL A   1      39.465  26.400  28.444  1.00  0.00     0.022 C 
BRANCH  10  11
ATOM     11  C   UNL A   1      40.023  27.685  27.805  1.00  0.00     0.101 C 
BRANCH  11  12
ATOM     12  C   UNL A   1      40.025  28.889  28.669  1.00  0.00     0.226 A 
ATOM     13  N   UNL A   1      39.129  29.839  28.794  1.00  0.00    -0.191 NA
ATOM     14  O   UNL A   1      41.041  28.988  29.576  1.00  0.00    -0.339 OA
ATOM     15  C   UNL A   1      39.640  30.601  29.825  1.00  0.00     0.202 A 
ATOM     16  N   UNL A   1      40.784  30.125  30.343  1.00  0.00    -0.057 NA
BRANCH  15  17
ATOM     17  C   UNL A   1      38.981  31.818  30.280  1.00  0.00     0.024 A 
ATOM     18  C   UNL A   1      39.732  32.823  30.910  1.00  0.00     0.012 A 
ATOM     19  C   UNL A   1      37.599  31.998  30.133  1.00  0.00     0.032 A 
ATOM     20  C   UNL A   1      39.111  33.967  31.417  1.00  0.00     0.002 A 
ATOM     21  C   UNL A   1      36.983  33.136  30.655  1.00  0.00     0.041 A 
ATOM     22  C   UNL A   1      37.731  34.115  31.305  1.00  0.00     0.020 A 
ATOM     23  Cl  UNL A   1      35.281  33.337  30.505  1.00  0.00    -0.084 Cl
ENDBRANCH  15  17
ENDBRANCH  11  12
ENDBRANCH  10  11
ENDBRANCH   9  10
ENDBRANCH   7   9
ENDBRANCH   6   7
ENDBRANCH   5   6
ENDBRANCH   4   5
ENDBRANCH   3   4
ENDBRANCH   2   3
ENDBRANCH   1   2
BRANCH   1  24
ATOM     24  O   UNL A   1      44.094  18.417  24.980  1.00  0.00    -0.377 OA
BRANCH  24  25
ATOM     25  C   UNL A   1      45.299  19.169  24.953  1.00  0.00     0.188 C 
BRANCH  25  26
ATOM     26  C   UNL A   1      45.301  20.675  24.645  1.00  0.00     0.188 C 
BRANCH  26  27
ATOM     27  O   UNL A   1      45.243  21.500  25.808  1.00  0.00    -0.376 OA
BRANCH  27  28
ATOM     28  C   UNL A   1      45.764  22.818  25.676  1.00  0.00     0.202 C 
BRANCH  28  29
ATOM     29  C   UNL A   1      45.136  23.605  24.520  1.00  0.00     0.261 C 
BRANCH  29  30
ATOM     30  O   UNL A   1      44.814  24.968  24.840  1.00  0.00    -0.460 OA
BRANCH  30  31
ATOM     31  C   UNL A   1      45.845  25.833  24.950  1.00  0.00     0.338 C 
ATOM     32  O   UNL A   1      46.871  25.830  24.293  1.00  0.00    -0.246 OA
BRANCH  31  33
ATOM     33  C   UNL A   1      45.450  26.929  25.869  1.00  0.00     0.060 A 
ATOM     34  C   UNL A   1      46.452  27.561  26.618  1.00  0.00     0.016 A 
ATOM     35  C   UNL A   1      44.121  27.355  25.974  1.00  0.00     0.016 A 
ATOM     36  C   UNL A   1      46.114  28.558  27.536  1.00  0.00     0.010 A 
ATOM     37  C   UNL A   1      43.782  28.353  26.892  1.00  0.00     0.010 A 
ATOM     38  C   UNL A   1      44.770  28.910  27.723  1.00  0.00    -0.014 A 
BRANCH  38  39
ATOM     39  C   UNL A   1      44.373  29.578  28.990  1.00  0.00     0.031 A 
ATOM     40  C   UNL A   1      44.181  31.074  28.944  1.00  0.00     0.074 A 
ATOM     41  C   UNL A   1      44.148  28.904  30.131  1.00  0.00     0.049 A 
ATOM     42  N   UNL A   1      43.813  31.902  29.887  1.00  0.00    -0.248 NA
ATOM     43  C   UNL A   1      44.449  31.722  27.649  1.00  0.00     0.031 C 
ATOM     44  C   UNL A   1      44.270  27.460  30.304  1.00  0.00     0.029 A 
ATOM     45  N   UNL A   1      43.760  29.362  31.366  1.00  0.00    -0.354 N 
ATOM     46  C   UNL A   1      43.809  33.161  29.299  1.00  0.00     0.074 A 
ATOM     47  C   UNL A   1      44.252  32.998  27.934  1.00  0.00     0.031 C 
ATOM     48  C   UNL A   1      43.959  27.148  31.576  1.00  0.00     0.029 A 
ATOM     49  C   UNL A   1      43.632  28.372  32.309  1.00  0.00     0.049 A 
ATOM     50  H   UNL A   1      43.588  30.312  31.558  1.00  0.00     0.167 HD
ATOM     51  C   UNL A   1      43.453  34.350  29.838  1.00  0.00     0.037 A 
ATOM     52  C   UNL A   1      43.291  28.453  33.611  1.00  0.00     0.037 A 
ATOM     53  C   UNL A   1      43.010  34.518  31.194  1.00  0.00     0.049 A 
ATOM     54  C   UNL A   1      42.948  29.798  34.206  1.00  0.00     0.074 A 
ATOM     55  C   UNL A   1      42.612  35.677  31.835  1.00  0.00     0.029 A 
ATOM     56  N   UNL A   1      42.915  33.492  32.121  1.00  0.00    -0.354 N 
ATOM     57  N   UNL A   1      42.902  30.976  33.631  1.00  0.00    -0.248 NA
ATOM     58  C   UNL A   1      42.595  29.819  35.634  1.00  0.00     0.031 C 
ATOM     59  C   UNL A   1      42.323  35.360  33.166  1.00  0.00     0.029 A 
ATOM     60  C   UNL A   1      42.484  33.994  33.337  1.00  0.00     0.049 A 
ATOM     61  H   UNL A   1      43.125  32.546  31.942  1.00  0.00     0.167 HD
ATOM     62  C   UNL A   1      42.472  31.865  34.610  1.00  0.00     0.074 A 
ATOM     63  C   UNL A   1      42.268  31.091  35.816  1.00  0.00     0.031 C 
ATOM     64  C   UNL A   1      42.259  33.202  34.519  1.00  0.00     0.037 A 
BRANCH  51  65
ATOM     65  C   UNL A   1      43.560  35.560  28.958  1.00  0.00     0.064 A 
ATOM     66  C   UNL A   1      42.456  36.059  28.249  1.00  0.00     0.173 A 
ATOM     67  C   UNL A   1      44.787  36.225  28.818  1.00  0.00     0.173 A 
ATOM     68  F   UNL A   1      41.267  35.444  28.331  1.00  0.00    -0.203 F 
ATOM     69  C   UNL A   1      42.586  37.159  27.406  1.00  0.00     0.198 A 
ATOM     70  C   UNL A   1      44.905  37.344  27.999  1.00  0.00     0.198 A 
ATOM     71  F   UNL A   1      45.873  35.787  29.472  1.00  0.00    -0.203 F 
ATOM     72  F   UNL A   1      41.534  37.581  26.691  1.00  0.00    -0.200 F 
ATOM     73  C   UNL A   1      43.808  37.804  27.286  1.00  0.00     0.200 A 
ATOM     74  F   UNL A   1      46.084  37.971  27.891  1.00  0.00    -0.200 F 
ATOM     75  F   UNL A   1      43.932  38.863  26.475  1.00  0.00    -0.200 F 
ENDBRANCH  51  65
BRANCH  52  76
ATOM     76  C   UNL A   1      43.231  27.226  34.450  1.00  0.00     0.064 A 
ATOM     77  C   UNL A   1      44.397  26.661  34.989  1.00  0.00     0.173 A 
ATOM     78  C   UNL A   1      42.016  26.568  34.693  1.00  0.00     0.173 A 
ATOM     79  F   UNL A   1      45.587  27.235  34.760  1.00  0.00    -0.203 F 
ATOM     80  C   UNL A   1      44.351  25.474  35.720  1.00  0.00     0.198 A 
ATOM     81  C   UNL A   1      41.971  25.396  35.447  1.00  0.00     0.198 A 
ATOM     82  F   UNL A   1      40.874  27.060  34.194  1.00  0.00    -0.203 F 
ATOM     83  F   UNL A   1      45.488  24.929  36.177  1.00  0.00    -0.200 F 
ATOM     84  C   UNL A   1      43.138  24.846  35.952  1.00  0.00     0.200 A 
ATOM     85  F   UNL A   1      40.794  24.795  35.675  1.00  0.00    -0.200 F 
ATOM     86  F   UNL A   1      43.096  23.703  36.652  1.00  0.00    -0.200 F 
ENDBRANCH  52  76
BRANCH  64  87
ATOM     87  C   UNL A   1      41.713  33.905  35.730  1.00  0.00     0.064 A 
ATOM     88  C   UNL A   1      42.542  34.572  36.641  1.00  0.00     0.173 A 
ATOM     89  C   UNL A   1      40.327  33.943  35.954  1.00  0.00     0.173 A 
ATOM     90  F   UNL A   1      43.875  34.556  36.479  1.00  0.00    -0.203 F 
ATOM     91  C   UNL A   1      42.009  35.223  37.751  1.00  0.00     0.198 A 
ATOM     92  C   UNL A   1      39.795  34.624  37.045  1.00  0.00     0.198 A 
ATOM     93  F   UNL A   1      39.486  33.332  35.105  1.00  0.00    -0.203 F 
ATOM     94  F   UNL A   1      42.825  35.809  38.637  1.00  0.00    -0.200 F 
ATOM     95  C   UNL A   1      40.636  35.255  37.948  1.00  0.00     0.200 A 
ATOM     96  F   UNL A   1      38.467  34.668  37.224  1.00  0.00    -0.200 F 
ATOM     97  F   UNL A   1      40.125  35.888  39.012  1.00  0.00    -0.200 F 
ENDBRANCH  64  87
ENDBRANCH  38  39
ENDBRANCH  31  33
ENDBRANCH  30  31
ENDBRANCH  29  30
ENDBRANCH  28  29
ENDBRANCH  27  28
ENDBRANCH  26  27
ENDBRANCH  25  26
ENDBRANCH  24  25
ENDBRANCH   1  24
TORSDOF 24
ENDMDL
MODEL 3
REMARK VINA RESULT:      -9.5      3.025      4.925
REMARK SMILES O=C(CCCc1nc(-c2cccc(Cl)c2)no1)OCCOCCOCCOCCOC(=O)c1ccc(-c2c3nc(c(-c4c(F)c(F)c(F)c(F)c4F)c4ccc([nH]4)c(-c4c(F)c(F)c(F)c(F)c4F)c4nc(c(-c5c(F)c(F)c(F)c(F)c5F)c5ccc2[nH]5)C=C4)C=C3)cc1
REMARK SMILES IDX 23 1 22 2 21 3 20 4 19 5 18 6 2 7 1 8 3 9 4 10 5 11 6 12
REMARK SMILES IDX 7 13 17 14 8 15 16 16 9 17 10 18 15 19 11 20 13 21 12 22
REMARK SMILES IDX 14 23 24 24 25 25 26 26 27 27 28 28 29 29 30 30 31 31 32 32
REMARK SMILES IDX 33 33 34 34 95 35 35 36 94 37 36 38 37 39 38 40 88 41 39 42
REMARK SMILES IDX 93 43 87 44 89 45 40 46 92 47 86 48 85 49 41 51 73 52 53 53
REMARK SMILES IDX 72 54 54 55 57 56 71 57 90 58 55 59 56 60 70 62 91 63 58 64
REMARK SMILES IDX 42 65 43 66 51 67 44 68 45 69 49 70 52 71 46 72 47 73 50 74
REMARK SMILES IDX 48 75 74 76 75 77 83 78 76 79 77 80 81 81 84 82 78 83 79 84
REMARK SMILES IDX 82 85 80 86 59 87 60 88 68 89 61 90 62 91 66 92 69 93 63 94
REMARK SMILES IDX 64 95 67 96 65 97
REMARK H PARENT 89 50 57 61
REMARK Flexibility Score: inf
ROOT
ATOM      1  C   UNL A   1      32.134  23.562  27.218  1.00  0.00     0.188 C 
ENDROOT
BRANCH   1   2
ATOM      2  C   UNL A   1      33.159  22.507  27.662  1.00  0.00     0.188 C 
BRANCH   2   3
ATOM      3  O   UNL A   1      33.998  21.942  26.636  1.00  0.00    -0.376 OA
BRANCH   3   4
ATOM      4  C   UNL A   1      33.483  20.753  26.039  1.00  0.00     0.202 C 
BRANCH   4   5
ATOM      5  C   UNL A   1      34.076  20.431  24.666  1.00  0.00     0.261 C 
BRANCH   5   6
ATOM      6  O   UNL A   1      33.234  20.651  23.533  1.00  0.00    -0.463 OA
BRANCH   6   7
ATOM      7  C   UNL A   1      32.621  21.847  23.416  1.00  0.00     0.305 C 
ATOM      8  O   UNL A   1      31.418  22.024  23.549  1.00  0.00    -0.252 OA
BRANCH   7   9
ATOM      9  C   UNL A   1      33.605  22.894  22.926  1.00  0.00     0.123 C 
BRANCH   9  10
ATOM     10  C   UNL A   1      32.996  24.157  22.304  1.00  0.00     0.022 C 
BRANCH  10  11
ATOM     11  C   UNL A   1      33.738  25.498  22.454  1.00  0.00     0.101 C 
BRANCH  11  12
ATOM     12  C   UNL A   1      32.888  26.712  22.450  1.00  0.00     0.226 A 
ATOM     13  N   UNL A   1      31.581  26.827  22.465  1.00  0.00    -0.191 NA
ATOM     14  O   UNL A   1      33.533  27.909  22.576  1.00  0.00    -0.339 OA
ATOM     15  C   UNL A   1      31.400  28.191  22.573  1.00  0.00     0.202 A 
ATOM     16  N   UNL A   1      32.544  28.890  22.657  1.00  0.00    -0.057 NA
BRANCH  15  17
ATOM     17  C   UNL A   1      30.073  28.791  22.577  1.00  0.00     0.024 A 
ATOM     18  C   UNL A   1      28.995  28.093  23.143  1.00  0.00     0.012 A 
ATOM     19  C   UNL A   1      29.837  30.043  21.994  1.00  0.00     0.032 A 
ATOM     20  C   UNL A   1      27.701  28.617  23.096  1.00  0.00     0.002 A 
ATOM     21  C   UNL A   1      28.540  30.555  21.937  1.00  0.00     0.041 A 
ATOM     22  C   UNL A   1      27.471  29.842  22.475  1.00  0.00     0.020 A 
ATOM     23  Cl  UNL A   1      28.248  32.076  21.189  1.00  0.00    -0.084 Cl
ENDBRANCH  15  17
ENDBRANCH  11  12
ENDBRANCH  10  11
ENDBRANCH   9  10
ENDBRANCH   7   9
ENDBRANCH   6   7
ENDBRANCH   5   6
ENDBRANCH   4   5
ENDBRANCH   3   4
ENDBRANCH   2   3
ENDBRANCH   1   2
BRANCH   1  24
ATOM     24  O   UNL A   1      32.479  24.213  26.009  1.00  0.00    -0.377 OA
BRANCH  24  25
ATOM     25  C   UNL A   1      32.993  25.534  26.083  1.00  0.00     0.188 C 
BRANCH  25  26
ATOM     26  C   UNL A   1      32.066  26.760  26.097  1.00  0.00     0.188 C 
BRANCH  26  27
ATOM     27  O   UNL A   1      31.317  26.900  27.304  1.00  0.00    -0.376 OA
BRANCH  27  28
ATOM     28  C   UNL A   1      31.273  28.204  27.873  1.00  0.00     0.202 C 
BRANCH  28  29
ATOM     29  C   UNL A   1      32.100  29.233  27.096  1.00  0.00     0.261 C 
BRANCH  29  30
ATOM     30  O   UNL A   1      33.390  29.506  27.666  1.00  0.00    -0.460 OA
BRANCH  30  31
ATOM     31  C   UNL A   1      34.453  29.454  26.835  1.00  0.00     0.338 C 
ATOM     32  O   UNL A   1      34.429  29.508  25.619  1.00  0.00    -0.246 OA
BRANCH  31  33
ATOM     33  C   UNL A   1      35.694  29.522  27.646  1.00  0.00     0.060 A 
ATOM     34  C   UNL A   1      36.896  29.834  26.996  1.00  0.00     0.016 A 
ATOM     35  C   UNL A   1      35.678  29.315  29.030  1.00  0.00     0.016 A 
ATOM     36  C   UNL A   1      38.094  29.853  27.714  1.00  0.00     0.010 A 
ATOM     37  C   UNL A   1      36.877  29.333  29.750  1.00  0.00     0.010 A 
ATOM     38  C   UNL A   1      38.096  29.536  29.080  1.00  0.00    -0.014 A 
BRANCH  38  39
ATOM     39  C   UNL A   1      39.364  29.085  29.709  1.00  0.00     0.031 A 
ATOM     40  C   UNL A   1      39.778  29.773  30.987  1.00  0.00     0.074 A 
ATOM     41  C   UNL A   1      40.110  28.084  29.211  1.00  0.00     0.049 A 
ATOM     42  N   UNL A   1      40.814  29.563  31.757  1.00  0.00    -0.248 NA
ATOM     43  C   UNL A   1      38.894  30.855  31.455  1.00  0.00     0.031 C 
ATOM     44  C   UNL A   1      39.811  27.320  28.004  1.00  0.00     0.029 A 
ATOM     45  N   UNL A   1      41.281  27.538  29.676  1.00  0.00    -0.354 N 
ATOM     46  C   UNL A   1      40.706  30.484  32.790  1.00  0.00     0.074 A 
ATOM     47  C   UNL A   1      39.531  31.283  32.531  1.00  0.00     0.031 C 
ATOM     48  C   UNL A   1      40.776  26.398  27.823  1.00  0.00     0.029 A 
ATOM     49  C   UNL A   1      41.767  26.519  28.894  1.00  0.00     0.049 A 
ATOM     50  H   UNL A   1      41.731  27.847  30.496  1.00  0.00     0.167 HD
ATOM     51  C   UNL A   1      41.502  30.644  33.873  1.00  0.00     0.037 A 
ATOM     52  C   UNL A   1      42.883  25.777  29.032  1.00  0.00     0.037 A 
ATOM     53  C   UNL A   1      42.669  29.851  34.137  1.00  0.00     0.049 A 
ATOM     54  C   UNL A   1      43.787  26.008  30.221  1.00  0.00     0.074 A 
ATOM     55  C   UNL A   1      43.538  29.923  35.212  1.00  0.00     0.029 A 
ATOM     56  N   UNL A   1      43.137  28.844  33.308  1.00  0.00    -0.354 N 
ATOM     57  N   UNL A   1      43.652  26.849  31.218  1.00  0.00    -0.248 NA
ATOM     58  C   UNL A   1      44.993  25.171  30.307  1.00  0.00     0.031 C 
ATOM     59  C   UNL A   1      44.559  28.990  35.008  1.00  0.00     0.029 A 
ATOM     60  C   UNL A   1      44.295  28.298  33.837  1.00  0.00     0.049 A 
ATOM     61  H   UNL A   1      42.711  28.559  32.467  1.00  0.00     0.167 HD
ATOM     62  C   UNL A   1      44.726  26.612  32.069  1.00  0.00     0.074 A 
ATOM     63  C   UNL A   1      45.502  25.545  31.473  1.00  0.00     0.031 C 
ATOM     64  C   UNL A   1      45.039  27.217  33.243  1.00  0.00     0.037 A 
BRANCH  51  65
ATOM     65  C   UNL A   1      41.142  31.741  34.831  1.00  0.00     0.064 A 
ATOM     66  C   UNL A   1      40.212  31.545  35.864  1.00  0.00     0.173 A 
ATOM     67  C   UNL A   1      41.732  33.007  34.709  1.00  0.00     0.173 A 
ATOM     68  F   UNL A   1      39.602  30.359  36.008  1.00  0.00    -0.203 F 
ATOM     69  C   UNL A   1      39.861  32.588  36.717  1.00  0.00     0.198 A 
ATOM     70  C   UNL A   1      41.403  34.038  35.584  1.00  0.00     0.198 A 
ATOM     71  F   UNL A   1      42.625  33.248  33.737  1.00  0.00    -0.203 F 
ATOM     72  F   UNL A   1      38.926  32.396  37.657  1.00  0.00    -0.200 F 
ATOM     73  C   UNL A   1      40.461  33.830  36.581  1.00  0.00     0.200 A 
ATOM     74  F   UNL A   1      41.989  35.236  35.457  1.00  0.00    -0.200 F 
ATOM     75  F   UNL A   1      40.123  34.833  37.403  1.00  0.00    -0.200 F 
ENDBRANCH  51  65
BRANCH  52  76
ATOM     76  C   UNL A   1      43.213  24.721  28.036  1.00  0.00     0.064 A 
ATOM     77  C   UNL A   1      43.901  25.034  26.854  1.00  0.00     0.173 A 
ATOM     78  C   UNL A   1      42.809  23.391  28.222  1.00  0.00     0.173 A 
ATOM     79  F   UNL A   1      44.281  26.297  26.614  1.00  0.00    -0.203 F 
ATOM     80  C   UNL A   1      44.152  24.061  25.887  1.00  0.00     0.198 A 
ATOM     81  C   UNL A   1      43.086  22.414  27.267  1.00  0.00     0.198 A 
ATOM     82  F   UNL A   1      42.142  23.041  29.331  1.00  0.00    -0.203 F 
ATOM     83  F   UNL A   1      44.763  24.399  24.743  1.00  0.00    -0.200 F 
ATOM     84  C   UNL A   1      43.749  22.751  26.097  1.00  0.00     0.200 A 
ATOM     85  F   UNL A   1      42.701  21.148  27.477  1.00  0.00    -0.200 F 
ATOM     86  F   UNL A   1      43.988  21.817  25.166  1.00  0.00    -0.200 F 
ENDBRANCH  52  76
BRANCH  64  87
ATOM     87  C   UNL A   1      46.229  26.697  33.999  1.00  0.00     0.064 A 
ATOM     88  C   UNL A   1      46.126  25.639  34.912  1.00  0.00     0.173 A 
ATOM     89  C   UNL A   1      47.501  27.245  33.770  1.00  0.00     0.173 A 
ATOM     90  F   UNL A   1      44.931  25.086  35.175  1.00  0.00    -0.203 F 
ATOM     91  C   UNL A   1      47.247  25.170  35.594  1.00  0.00     0.198 A 
ATOM     92  C   UNL A   1      48.624  26.752  34.427  1.00  0.00     0.198 A 
ATOM     93  F   UNL A   1      47.657  28.252  32.896  1.00  0.00    -0.203 F 
ATOM     94  F   UNL A   1      47.117  24.193  36.501  1.00  0.00    -0.200 F 
ATOM     95  C   UNL A   1      48.495  25.722  35.345  1.00  0.00     0.200 A 
ATOM     96  F   UNL A   1      49.832  27.275  34.173  1.00  0.00    -0.200 F 
ATOM     97  F   UNL A   1      49.573  25.265  35.997  1.00  0.00    -0.200 F 
ENDBRANCH  64  87
ENDBRANCH  38  39
ENDBRANCH  31  33
ENDBRANCH  30  31
ENDBRANCH  29  30
ENDBRANCH  28  29
ENDBRANCH  27  28
ENDBRANCH  26  27
ENDBRANCH  25  26
ENDBRANCH  24  25
ENDBRANCH   1  24
TORSDOF 24
ENDMDL
