MODEL 1
REMARK VINA RESULT:      -9.7      0.000      0.000
REMARK SMILES Cc1nn(C)c2nc(C3CC3)c(Cl)c(C(=O)OCCOCCOCCOCCOC(=O)c3ccc(-c4c5nc(c(-c6c(F)c(F)c(F)c(F)c6F)c6ccc([nH]6)c(-c6c(F)c(F)c(F)c(F)c6F)c6nc(c(-c7c(F)c(F)c(F)c(F)c7F)c7ccc4[nH]7)C=C6)C=C5)cc3)c12
REMARK SMILES IDX 24 1 23 2 22 3 21 4 20 5 19 6 18 7 17 8 15 9 16 10 14 11
REMARK SMILES IDX 1 12 2 13 3 14 95 15 4 16 6 17 5 18 7 19 12 20 8 21 13 22
REMARK SMILES IDX 9 23 10 24 11 25 25 26 26 27 27 28 28 29 29 30 30 31 31 32
REMARK SMILES IDX 32 33 33 34 94 35 34 36 93 37 35 38 36 39 37 40 87 41 38 42
REMARK SMILES IDX 92 43 86 44 88 45 39 46 91 47 85 48 84 49 40 51 72 52 52 53
REMARK SMILES IDX 71 54 53 55 56 56 70 57 89 58 54 59 55 60 69 62 90 63 57 64
REMARK SMILES IDX 41 65 42 66 50 67 43 68 44 69 48 70 51 71 45 72 46 73 49 74
REMARK SMILES IDX 47 75 73 76 74 77 82 78 75 79 76 80 80 81 83 82 77 83 78 84
REMARK SMILES IDX 81 85 79 86 58 87 59 88 67 89 60 90 61 91 65 92 68 93 62 94
REMARK SMILES IDX 63 95 66 96 64 97
REMARK H PARENT 88 50 56 61
REMARK Flexibility Score: inf
ROOT
ATOM      1  C   UNL A   1      43.359  23.086  24.859  1.00  0.00     0.188 C 
ENDROOT
BRANCH   1   2
ATOM      2  O   UNL A   1      44.163  22.435  23.885  1.00  0.00    -0.377 OA
BRANCH   2   3
ATOM      3  C   UNL A   1      45.417  21.875  24.257  1.00  0.00     0.188 C 
BRANCH   3   4
ATOM      4  C   UNL A   1      45.540  20.407  24.719  1.00  0.00     0.188 C 
BRANCH   4   5
ATOM      5  O   UNL A   1      44.523  19.970  25.605  1.00  0.00    -0.376 OA
BRANCH   5   6
ATOM      6  C   UNL A   1      43.499  19.129  25.113  1.00  0.00     0.202 C 
BRANCH   6   7
ATOM      7  C   UNL A   1      42.213  19.109  25.935  1.00  0.00     0.261 C 
BRANCH   7   8
ATOM      8  O   UNL A   1      41.582  20.391  26.029  1.00  0.00    -0.460 OA
BRANCH   8   9
ATOM      9  C   UNL A   1      40.762  20.620  27.080  1.00  0.00     0.340 C 
ATOM     10  O   UNL A   1      40.773  20.049  28.150  1.00  0.00    -0.246 OA
BRANCH   9  11
ATOM     11  C   UNL A   1      39.976  21.830  26.763  1.00  0.00     0.093 A 
ATOM     12  C   UNL A   1      38.299  19.233  25.131  1.00  0.00     0.069 C 
ATOM     13  C   UNL A   1      38.109  20.707  25.217  1.00  0.00     0.070 A 
ATOM     14  N   UNL A   1      37.083  21.239  24.535  1.00  0.00    -0.176 NA
ATOM     15  C   UNL A   1      38.851  21.705  25.925  1.00  0.00     0.058 A 
ATOM     16  N   UNL A   1      37.165  22.556  24.794  1.00  0.00    -0.250 N 
ATOM     17  C   UNL A   1      38.154  22.876  25.679  1.00  0.00     0.159 A 
ATOM     18  C   UNL A   1      36.305  23.485  24.107  1.00  0.00     0.176 C 
ATOM     19  N   UNL A   1      38.398  24.095  26.183  1.00  0.00    -0.231 NA
ATOM     20  C   UNL A   1      40.289  23.101  27.308  1.00  0.00     0.078 A 
ATOM     21  C   UNL A   1      39.458  24.209  27.028  1.00  0.00     0.065 A 
ATOM     22  Cl  UNL A   1      41.729  23.266  28.271  1.00  0.00    -0.081 Cl
BRANCH  21  23
ATOM     23  C   UNL A   1      39.578  25.638  27.575  1.00  0.00     0.040 C 
ATOM     24  C   UNL A   1      39.501  26.027  29.028  1.00  0.00     0.011 C 
ATOM     25  C   UNL A   1      40.799  26.172  28.275  1.00  0.00     0.011 C 
ENDBRANCH  21  23
ENDBRANCH   9  11
ENDBRANCH   8   9
ENDBRANCH   7   8
ENDBRANCH   6   7
ENDBRANCH   5   6
ENDBRANCH   4   5
ENDBRANCH   3   4
ENDBRANCH   2   3
ENDBRANCH   1   2
BRANCH   1  26
ATOM     26  C   UNL A   1      43.410  24.626  24.972  1.00  0.00     0.188 C 
BRANCH  26  27
ATOM     27  O   UNL A   1      44.634  25.208  24.550  1.00  0.00    -0.376 OA
BRANCH  27  28
ATOM     28  C   UNL A   1      45.399  25.883  25.537  1.00  0.00     0.202 C 
BRANCH  28  29
ATOM     29  C   UNL A   1      45.037  27.355  25.774  1.00  0.00     0.261 C 
BRANCH  29  30
ATOM     30  O   UNL A   1      43.813  27.565  26.502  1.00  0.00    -0.460 OA
BRANCH  30  31
ATOM     31  C   UNL A   1      43.025  28.556  26.038  1.00  0.00     0.338 C 
ATOM     32  O   UNL A   1      42.484  28.636  24.950  1.00  0.00    -0.246 OA
BRANCH  31  33
ATOM     33  C   UNL A   1      42.851  29.562  27.085  1.00  0.00     0.060 A 
ATOM     34  C   UNL A   1      43.750  30.628  27.213  1.00  0.00     0.016 A 
ATOM     35  C   UNL A   1      41.881  29.314  28.048  1.00  0.00     0.016 A 
ATOM     36  C   UNL A   1      43.701  31.435  28.343  1.00  0.00     0.010 A 
ATOM     37  C   UNL A   1      41.863  30.098  29.192  1.00  0.00     0.010 A 
ATOM     38  C   UNL A   1      42.782  31.148  29.358  1.00  0.00    -0.014 A 
BRANCH  38  39
ATOM     39  C   UNL A   1      42.818  31.955  30.597  1.00  0.00     0.031 A 
ATOM     40  C   UNL A   1      41.476  32.360  31.109  1.00  0.00     0.074 A 
ATOM     41  C   UNL A   1      43.834  31.805  31.479  1.00  0.00     0.049 A 
ATOM     42  N   UNL A   1      40.717  31.518  31.748  1.00  0.00    -0.248 NA
ATOM     43  C   UNL A   1      40.779  33.570  30.682  1.00  0.00     0.031 C 
ATOM     44  C   UNL A   1      44.657  30.588  31.561  1.00  0.00     0.029 A 
ATOM     45  N   UNL A   1      44.196  32.531  32.593  1.00  0.00    -0.354 N 
ATOM     46  C   UNL A   1      39.431  32.010  31.710  1.00  0.00     0.074 A 
ATOM     47  C   UNL A   1      39.523  33.315  31.091  1.00  0.00     0.031 C 
ATOM     48  C   UNL A   1      45.280  30.565  32.755  1.00  0.00     0.029 A 
ATOM     49  C   UNL A   1      45.018  31.813  33.466  1.00  0.00     0.049 A 
ATOM     50  H   UNL A   1      43.906  33.457  32.759  1.00  0.00     0.167 HD
ATOM     51  C   UNL A   1      38.369  31.279  32.138  1.00  0.00     0.037 A 
ATOM     52  C   UNL A   1      44.979  31.902  34.824  1.00  0.00     0.037 A 
ATOM     53  C   UNL A   1      38.665  29.942  32.567  1.00  0.00     0.049 A 
ATOM     54  C   UNL A   1      43.633  31.289  35.123  1.00  0.00     0.074 A 
ATOM     55  C   UNL A   1      38.619  28.678  32.020  1.00  0.00     0.029 A 
ATOM     56  N   UNL A   1      39.203  29.763  33.819  1.00  0.00    -0.354 N 
ATOM     57  N   UNL A   1      43.353  30.012  35.148  1.00  0.00    -0.248 NA
ATOM     58  C   UNL A   1      42.464  32.169  35.061  1.00  0.00     0.031 C 
ATOM     59  C   UNL A   1      39.547  27.900  32.780  1.00  0.00     0.029 A 
ATOM     60  C   UNL A   1      40.128  28.756  33.714  1.00  0.00     0.049 A 
ATOM     61  H   UNL A   1      38.969  30.262  34.635  1.00  0.00     0.167 HD
ATOM     62  C   UNL A   1      41.995  29.927  34.838  1.00  0.00     0.074 A 
ATOM     63  C   UNL A   1      41.501  31.288  34.836  1.00  0.00     0.031 C 
ATOM     64  C   UNL A   1      41.389  28.781  34.417  1.00  0.00     0.037 A 
BRANCH  51  65
ATOM     65  C   UNL A   1      36.995  31.777  32.299  1.00  0.00     0.064 A 
ATOM     66  C   UNL A   1      36.221  31.897  31.136  1.00  0.00     0.173 A 
ATOM     67  C   UNL A   1      36.523  32.360  33.477  1.00  0.00     0.173 A 
ATOM     68  F   UNL A   1      36.660  31.363  29.983  1.00  0.00    -0.203 F 
ATOM     69  C   UNL A   1      35.037  32.620  31.133  1.00  0.00     0.198 A 
ATOM     70  C   UNL A   1      35.327  33.078  33.475  1.00  0.00     0.198 A 
ATOM     71  F   UNL A   1      37.243  32.288  34.606  1.00  0.00    -0.203 F 
ATOM     72  F   UNL A   1      34.351  32.769  29.993  1.00  0.00    -0.200 F 
ATOM     73  C   UNL A   1      34.595  33.219  32.301  1.00  0.00     0.200 A 
ATOM     74  F   UNL A   1      34.898  33.666  34.600  1.00  0.00    -0.200 F 
ATOM     75  F   UNL A   1      33.473  33.953  32.291  1.00  0.00    -0.200 F 
ENDBRANCH  51  65
BRANCH  52  76
ATOM     76  C   UNL A   1      45.444  33.197  35.417  1.00  0.00     0.064 A 
ATOM     77  C   UNL A   1      46.531  33.180  36.317  1.00  0.00     0.173 A 
ATOM     78  C   UNL A   1      44.872  34.454  35.172  1.00  0.00     0.173 A 
ATOM     79  F   UNL A   1      47.060  32.013  36.717  1.00  0.00    -0.203 F 
ATOM     80  C   UNL A   1      47.094  34.354  36.821  1.00  0.00     0.198 A 
ATOM     81  C   UNL A   1      45.452  35.631  35.652  1.00  0.00     0.198 A 
ATOM     82  F   UNL A   1      43.747  34.575  34.454  1.00  0.00    -0.203 F 
ATOM     83  F   UNL A   1      48.151  34.290  37.642  1.00  0.00    -0.200 F 
ATOM     84  C   UNL A   1      46.575  35.582  36.458  1.00  0.00     0.200 A 
ATOM     85  F   UNL A   1      44.929  36.817  35.308  1.00  0.00    -0.200 F 
ATOM     86  F   UNL A   1      47.147  36.713  36.889  1.00  0.00    -0.200 F 
ENDBRANCH  52  76
BRANCH  64  87
ATOM     87  C   UNL A   1      42.222  27.550  34.487  1.00  0.00     0.064 A 
ATOM     88  C   UNL A   1      43.033  27.190  33.403  1.00  0.00     0.173 A 
ATOM     89  C   UNL A   1      42.260  26.747  35.637  1.00  0.00     0.173 A 
ATOM     90  F   UNL A   1      43.037  27.935  32.285  1.00  0.00    -0.203 F 
ATOM     91  C   UNL A   1      43.870  26.082  33.476  1.00  0.00     0.198 A 
ATOM     92  C   UNL A   1      43.118  25.654  35.715  1.00  0.00     0.198 A 
ATOM     93  F   UNL A   1      41.492  27.034  36.700  1.00  0.00    -0.203 F 
ATOM     94  F   UNL A   1      44.648  25.762  32.432  1.00  0.00    -0.200 F 
ATOM     95  C   UNL A   1      43.923  25.323  34.636  1.00  0.00     0.200 A 
ATOM     96  F   UNL A   1      43.183  24.933  36.844  1.00  0.00    -0.200 F 
ATOM     97  F   UNL A   1      44.762  24.282  34.720  1.00  0.00    -0.200 F 
ENDBRANCH  64  87
ENDBRANCH  38  39
ENDBRANCH  31  33
ENDBRANCH  30  31
ENDBRANCH  29  30
ENDBRANCH  28  29
ENDBRANCH  27  28
ENDBRANCH  26  27
ENDBRANCH   1  26
TORSDOF 21
ENDMDL
MODEL 2
REMARK VINA RESULT:      -9.2      4.857      8.483
REMARK SMILES Cc1nn(C)c2nc(C3CC3)c(Cl)c(C(=O)OCCOCCOCCOCCOC(=O)c3ccc(-c4c5nc(c(-c6c(F)c(F)c(F)c(F)c6F)c6ccc([nH]6)c(-c6c(F)c(F)c(F)c(F)c6F)c6nc(c(-c7c(F)c(F)c(F)c(F)c7F)c7ccc4[nH]7)C=C6)C=C5)cc3)c12
REMARK SMILES IDX 24 1 23 2 22 3 21 4 20 5 19 6 18 7 17 8 15 9 16 10 14 11
REMARK SMILES IDX 1 12 2 13 3 14 95 15 4 16 6 17 5 18 7 19 12 20 8 21 13 22
REMARK SMILES IDX 9 23 10 24 11 25 25 26 26 27 27 28 28 29 29 30 30 31 31 32
REMARK SMILES IDX 32 33 33 34 94 35 34 36 93 37 35 38 36 39 37 40 87 41 38 42
REMARK SMILES IDX 92 43 86 44 88 45 39 46 91 47 85 48 84 49 40 51 72 52 52 53
REMARK SMILES IDX 71 54 53 55 56 56 70 57 89 58 54 59 55 60 69 62 90 63 57 64
REMARK SMILES IDX 41 65 42 66 50 67 43 68 44 69 48 70 51 71 45 72 46 73 49 74
REMARK SMILES IDX 47 75 73 76 74 77 82 78 75 79 76 80 80 81 83 82 77 83 78 84
REMARK SMILES IDX 81 85 79 86 58 87 59 88 67 89 60 90 61 91 65 92 68 93 62 94
REMARK SMILES IDX 63 95 66 96 64 97
REMARK H PARENT 88 50 56 61
REMARK Flexibility Score: inf
ROOT
ATOM      1  C   UNL A   1      40.366  20.147  26.367  1.00  0.00     0.188 C 
ENDROOT
BRANCH   1   2
ATOM      2  O   UNL A   1      39.847  21.464  26.230  1.00  0.00    -0.377 OA
BRANCH   2   3
ATOM      3  C   UNL A   1      38.515  21.659  25.768  1.00  0.00     0.188 C 
BRANCH   3   4
ATOM      4  C   UNL A   1      37.778  23.000  25.974  1.00  0.00     0.188 C 
BRANCH   4   5
ATOM      5  O   UNL A   1      37.372  23.650  24.782  1.00  0.00    -0.376 OA
BRANCH   5   6
ATOM      6  C   UNL A   1      36.949  22.867  23.683  1.00  0.00     0.202 C 
BRANCH   6   7
ATOM      7  C   UNL A   1      35.461  22.952  23.350  1.00  0.00     0.261 C 
BRANCH   7   8
ATOM      8  O   UNL A   1      34.884  24.225  23.658  1.00  0.00    -0.460 OA
BRANCH   8   9
ATOM      9  C   UNL A   1      33.643  24.490  23.191  1.00  0.00     0.340 C 
ATOM     10  O   UNL A   1      33.255  24.371  22.048  1.00  0.00    -0.246 OA
BRANCH   9  11
ATOM     11  C   UNL A   1      32.785  24.760  24.362  1.00  0.00     0.093 A 
ATOM     12  C   UNL A   1      32.372  21.347  23.732  1.00  0.00     0.069 C 
ATOM     13  C   UNL A   1      31.791  22.304  24.711  1.00  0.00     0.070 A 
ATOM     14  N   UNL A   1      30.890  21.827  25.583  1.00  0.00    -0.176 NA
ATOM     15  C   UNL A   1      32.028  23.703  24.904  1.00  0.00     0.058 A 
ATOM     16  N   UNL A   1      30.549  22.898  26.320  1.00  0.00    -0.250 N 
ATOM     17  C   UNL A   1      31.254  24.024  26.006  1.00  0.00     0.159 A 
ATOM     18  C   UNL A   1      29.477  22.806  27.280  1.00  0.00     0.176 C 
ATOM     19  N   UNL A   1      31.184  25.202  26.642  1.00  0.00    -0.231 NA
ATOM     20  C   UNL A   1      32.731  26.033  24.985  1.00  0.00     0.078 A 
ATOM     21  C   UNL A   1      31.948  26.214  26.147  1.00  0.00     0.065 A 
ATOM     22  Cl  UNL A   1      33.600  27.355  24.261  1.00  0.00    -0.081 Cl
BRANCH  21  23
ATOM     23  C   UNL A   1      31.817  27.477  27.007  1.00  0.00     0.040 C 
ATOM     24  C   UNL A   1      32.905  28.493  27.242  1.00  0.00     0.011 C 
ATOM     25  C   UNL A   1      31.681  28.867  26.446  1.00  0.00     0.011 C 
ENDBRANCH  21  23
ENDBRANCH   9  11
ENDBRANCH   8   9
ENDBRANCH   7   8
ENDBRANCH   6   7
ENDBRANCH   5   6
ENDBRANCH   4   5
ENDBRANCH   3   4
ENDBRANCH   2   3
ENDBRANCH   1   2
BRANCH   1  26
ATOM     26  C   UNL A   1      41.691  19.935  27.131  1.00  0.00     0.188 C 
BRANCH  26  27
ATOM     27  O   UNL A   1      42.601  19.048  26.499  1.00  0.00    -0.376 OA
BRANCH  27  28
ATOM     28  C   UNL A   1      43.304  19.543  25.370  1.00  0.00     0.202 C 
BRANCH  28  29
ATOM     29  C   UNL A   1      43.992  20.902  25.552  1.00  0.00     0.261 C 
BRANCH  29  30
ATOM     30  O   UNL A   1      43.440  21.970  24.761  1.00  0.00    -0.460 OA
BRANCH  30  31
ATOM     31  C   UNL A   1      44.289  22.974  24.468  1.00  0.00     0.338 C 
ATOM     32  O   UNL A   1      45.140  23.007  23.599  1.00  0.00    -0.246 OA
BRANCH  31  33
ATOM     33  C   UNL A   1      44.012  24.110  25.347  1.00  0.00     0.060 A 
ATOM     34  C   UNL A   1      42.919  24.953  25.108  1.00  0.00     0.016 A 
ATOM     35  C   UNL A   1      44.972  24.423  26.301  1.00  0.00     0.016 A 
ATOM     36  C   UNL A   1      42.807  26.148  25.810  1.00  0.00     0.010 A 
ATOM     37  C   UNL A   1      44.877  25.635  26.969  1.00  0.00     0.010 A 
ATOM     38  C   UNL A   1      43.809  26.514  26.715  1.00  0.00    -0.014 A 
BRANCH  38  39
ATOM     39  C   UNL A   1      43.724  27.836  27.372  1.00  0.00     0.031 A 
ATOM     40  C   UNL A   1      43.494  27.780  28.845  1.00  0.00     0.074 A 
ATOM     41  C   UNL A   1      44.387  28.898  26.856  1.00  0.00     0.049 A 
ATOM     42  N   UNL A   1      44.462  27.498  29.667  1.00  0.00    -0.248 NA
ATOM     43  C   UNL A   1      42.168  27.712  29.455  1.00  0.00     0.031 C 
ATOM     44  C   UNL A   1      45.561  28.765  25.978  1.00  0.00     0.029 A 
ATOM     45  N   UNL A   1      44.343  30.242  27.157  1.00  0.00    -0.354 N 
ATOM     46  C   UNL A   1      43.891  27.101  30.857  1.00  0.00     0.074 A 
ATOM     47  C   UNL A   1      42.467  27.305  30.702  1.00  0.00     0.031 C 
ATOM     48  C   UNL A   1      46.229  29.934  25.969  1.00  0.00     0.029 A 
ATOM     49  C   UNL A   1      45.473  30.934  26.717  1.00  0.00     0.049 A 
ATOM     50  H   UNL A   1      43.594  30.669  27.632  1.00  0.00     0.167 HD
ATOM     51  C   UNL A   1      44.630  26.573  31.867  1.00  0.00     0.037 A 
ATOM     52  C   UNL A   1      46.061  31.969  27.380  1.00  0.00     0.037 A 
ATOM     53  C   UNL A   1      46.026  26.394  31.590  1.00  0.00     0.049 A 
ATOM     54  C   UNL A   1      46.606  31.267  28.600  1.00  0.00     0.074 A 
ATOM     55  C   UNL A   1      46.847  25.364  31.184  1.00  0.00     0.029 A 
ATOM     56  N   UNL A   1      46.850  27.493  31.657  1.00  0.00    -0.354 N 
ATOM     57  N   UNL A   1      47.695  30.547  28.656  1.00  0.00    -0.248 NA
ATOM     58  C   UNL A   1      45.699  31.092  29.736  1.00  0.00     0.031 C 
ATOM     59  C   UNL A   1      47.985  25.995  30.591  1.00  0.00     0.029 A 
ATOM     60  C   UNL A   1      47.760  27.369  30.638  1.00  0.00     0.049 A 
ATOM     61  H   UNL A   1      46.796  28.227  32.310  1.00  0.00     0.167 HD
ATOM     62  C   UNL A   1      47.483  29.639  29.694  1.00  0.00     0.074 A 
ATOM     63  C   UNL A   1      46.256  30.054  30.341  1.00  0.00     0.031 C 
ATOM     64  C   UNL A   1      48.208  28.495  29.854  1.00  0.00     0.037 A 
BRANCH  51  65
ATOM     65  C   UNL A   1      44.143  26.285  33.225  1.00  0.00     0.064 A 
ATOM     66  C   UNL A   1      44.178  27.337  34.150  1.00  0.00     0.173 A 
ATOM     67  C   UNL A   1      43.899  24.992  33.693  1.00  0.00     0.173 A 
ATOM     68  F   UNL A   1      44.432  28.588  33.730  1.00  0.00    -0.203 F 
ATOM     69  C   UNL A   1      44.025  27.103  35.509  1.00  0.00     0.198 A 
ATOM     70  C   UNL A   1      43.733  24.759  35.058  1.00  0.00     0.198 A 
ATOM     71  F   UNL A   1      43.879  23.954  32.844  1.00  0.00    -0.203 F 
ATOM     72  F   UNL A   1      44.124  28.119  36.375  1.00  0.00    -0.200 F 
ATOM     73  C   UNL A   1      43.812  25.812  35.964  1.00  0.00     0.200 A 
ATOM     74  F   UNL A   1      43.535  23.513  35.506  1.00  0.00    -0.200 F 
ATOM     75  F   UNL A   1      43.705  25.577  37.280  1.00  0.00    -0.200 F 
ENDBRANCH  51  65
BRANCH  52  76
ATOM     76  C   UNL A   1      45.278  33.244  27.445  1.00  0.00     0.064 A 
ATOM     77  C   UNL A   1      44.426  33.575  26.369  1.00  0.00     0.173 A 
ATOM     78  C   UNL A   1      45.327  34.175  28.493  1.00  0.00     0.173 A 
ATOM     79  F   UNL A   1      44.410  32.814  25.263  1.00  0.00    -0.203 F 
ATOM     80  C   UNL A   1      43.581  34.684  26.407  1.00  0.00     0.198 A 
ATOM     81  C   UNL A   1      44.461  35.270  28.546  1.00  0.00     0.198 A 
ATOM     82  F   UNL A   1      46.206  34.042  29.496  1.00  0.00    -0.203 F 
ATOM     83  F   UNL A   1      42.762  34.936  25.376  1.00  0.00    -0.200 F 
ATOM     84  C   UNL A   1      43.573  35.512  27.513  1.00  0.00     0.200 A 
ATOM     85  F   UNL A   1      44.475  36.077  29.617  1.00  0.00    -0.200 F 
ATOM     86  F   UNL A   1      42.721  36.543  27.582  1.00  0.00    -0.200 F 
ENDBRANCH  52  76
BRANCH  64  87
ATOM     87  C   UNL A   1      49.390  28.353  28.960  1.00  0.00     0.064 A 
ATOM     88  C   UNL A   1      50.637  28.844  29.364  1.00  0.00     0.173 A 
ATOM     89  C   UNL A   1      49.307  27.692  27.726  1.00  0.00     0.173 A 
ATOM     90  F   UNL A   1      50.766  29.475  30.543  1.00  0.00    -0.203 F 
ATOM     91  C   UNL A   1      51.766  28.660  28.574  1.00  0.00     0.198 A 
ATOM     92  C   UNL A   1      50.444  27.487  26.949  1.00  0.00     0.198 A 
ATOM     93  F   UNL A   1      48.134  27.215  27.279  1.00  0.00    -0.203 F 
ATOM     94  F   UNL A   1      52.953  29.128  28.984  1.00  0.00    -0.200 F 
ATOM     95  C   UNL A   1      51.672  27.969  27.374  1.00  0.00     0.200 A 
ATOM     96  F   UNL A   1      50.356  26.802  25.800  1.00  0.00    -0.200 F 
ATOM     97  F   UNL A   1      52.769  27.755  26.635  1.00  0.00    -0.200 F 
ENDBRANCH  64  87
ENDBRANCH  38  39
ENDBRANCH  31  33
ENDBRANCH  30  31
ENDBRANCH  29  30
ENDBRANCH  28  29
ENDBRANCH  27  28
ENDBRANCH  26  27
ENDBRANCH   1  26
TORSDOF 21
ENDMDL
MODEL 3
REMARK VINA RESULT:      -9.0      7.738     12.470
REMARK SMILES Cc1nn(C)c2nc(C3CC3)c(Cl)c(C(=O)OCCOCCOCCOCCOC(=O)c3ccc(-c4c5nc(c(-c6c(F)c(F)c(F)c(F)c6F)c6ccc([nH]6)c(-c6c(F)c(F)c(F)c(F)c6F)c6nc(c(-c7c(F)c(F)c(F)c(F)c7F)c7ccc4[nH]7)C=C6)C=C5)cc3)c12
REMARK SMILES IDX 24 1 23 2 22 3 21 4 20 5 19 6 18 7 17 8 15 9 16 10 14 11
REMARK SMILES IDX 1 12 2 13 3 14 95 15 4 16 6 17 5 18 7 19 12 20 8 21 13 22
REMARK SMILES IDX 9 23 10 24 11 25 25 26 26 27 27 28 28 29 29 30 30 31 31 32
REMARK SMILES IDX 32 33 33 34 94 35 34 36 93 37 35 38 36 39 37 40 87 41 38 42
REMARK SMILES IDX 92 43 86 44 88 45 39 46 91 47 85 48 84 49 40 51 72 52 52 53
REMARK SMILES IDX 71 54 53 55 56 56 70 57 89 58 54 59 55 60 69 62 90 63 57 64
REMARK SMILES IDX 41 65 42 66 50 67 43 68 44 69 48 70 51 71 45 72 46 73 49 74
REMARK SMILES IDX 47 75 73 76 74 77 82 78 75 79 76 80 80 81 83 82 77 83 78 84
REMARK SMILES IDX 81 85 79 86 58 87 59 88 67 89 60 90 61 91 65 92 68 93 62 94
REMARK SMILES IDX 63 95 66 96 64 97
REMARK H PARENT 88 50 56 61
REMARK Flexibility Score: inf
ROOT
ATOM      1  C   UNL A   1      48.396  23.881  38.355  1.00  0.00     0.188 C 
ENDROOT
BRANCH   1   2
ATOM      2  O   UNL A   1      48.307  22.472  38.527  1.00  0.00    -0.377 OA
BRANCH   2   3
ATOM      3  C   UNL A   1      47.033  21.850  38.645  1.00  0.00     0.188 C 
BRANCH   3   4
ATOM      4  C   UNL A   1      46.777  20.723  39.670  1.00  0.00     0.188 C 
BRANCH   4   5
ATOM      5  O   UNL A   1      47.869  19.841  39.875  1.00  0.00    -0.376 OA
BRANCH   5   6
ATOM      6  C   UNL A   1      47.611  18.468  40.087  1.00  0.00     0.202 C 
BRANCH   6   7
ATOM      7  C   UNL A   1      46.137  18.071  40.108  1.00  0.00     0.261 C 
BRANCH   7   8
ATOM      8  O   UNL A   1      45.683  17.643  41.397  1.00  0.00    -0.460 OA
BRANCH   8   9
ATOM      9  C   UNL A   1      44.408  17.925  41.747  1.00  0.00     0.340 C 
ATOM     10  O   UNL A   1      43.812  18.964  41.553  1.00  0.00    -0.246 OA
BRANCH   9  11
ATOM     11  C   UNL A   1      43.802  16.669  42.234  1.00  0.00     0.093 A 
ATOM     12  C   UNL A   1      43.402  16.560  38.763  1.00  0.00     0.069 C 
ATOM     13  C   UNL A   1      42.999  15.673  39.887  1.00  0.00     0.070 A 
ATOM     14  N   UNL A   1      42.319  14.557  39.583  1.00  0.00    -0.176 NA
ATOM     15  C   UNL A   1      43.216  15.795  41.297  1.00  0.00     0.058 A 
ATOM     16  N   UNL A   1      42.096  13.974  40.774  1.00  0.00    -0.250 N 
ATOM     17  C   UNL A   1      42.676  14.632  41.820  1.00  0.00     0.159 A 
ATOM     18  C   UNL A   1      41.251  12.810  40.864  1.00  0.00     0.176 C 
ATOM     19  N   UNL A   1      42.692  14.224  43.097  1.00  0.00    -0.231 NA
ATOM     20  C   UNL A   1      43.829  16.294  43.601  1.00  0.00     0.078 A 
ATOM     21  C   UNL A   1      43.297  15.046  43.997  1.00  0.00     0.065 A 
ATOM     22  Cl  UNL A   1      44.475  17.416  44.763  1.00  0.00    -0.081 Cl
BRANCH  21  23
ATOM     23  C   UNL A   1      43.298  14.425  45.400  1.00  0.00     0.040 C 
ATOM     24  C   UNL A   1      43.502  12.966  45.711  1.00  0.00     0.011 C 
ATOM     25  C   UNL A   1      44.540  13.979  46.123  1.00  0.00     0.011 C 
ENDBRANCH  21  23
ENDBRANCH   9  11
ENDBRANCH   8   9
ENDBRANCH   7   8
ENDBRANCH   6   7
ENDBRANCH   5   6
ENDBRANCH   4   5
ENDBRANCH   3   4
ENDBRANCH   2   3
ENDBRANCH   1   2
BRANCH   1  26
ATOM     26  C   UNL A   1      47.261  24.624  37.616  1.00  0.00     0.188 C 
BRANCH  26  27
ATOM     27  O   UNL A   1      46.548  25.555  38.414  1.00  0.00    -0.376 OA
BRANCH  27  28
ATOM     28  C   UNL A   1      45.139  25.601  38.246  1.00  0.00     0.202 C 
BRANCH  28  29
ATOM     29  C   UNL A   1      44.520  24.438  37.459  1.00  0.00     0.261 C 
BRANCH  29  30
ATOM     30  O   UNL A   1      43.794  24.827  36.279  1.00  0.00    -0.460 OA
BRANCH  30  31
ATOM     31  C   UNL A   1      43.810  23.936  35.268  1.00  0.00     0.338 C 
ATOM     32  O   UNL A   1      43.704  22.725  35.334  1.00  0.00    -0.246 OA
BRANCH  31  33
ATOM     33  C   UNL A   1      43.930  24.651  33.999  1.00  0.00     0.060 A 
ATOM     34  C   UNL A   1      44.155  23.958  32.802  1.00  0.00     0.016 A 
ATOM     35  C   UNL A   1      44.001  26.037  34.055  1.00  0.00     0.016 A 
ATOM     36  C   UNL A   1      44.494  24.663  31.653  1.00  0.00     0.010 A 
ATOM     37  C   UNL A   1      44.378  26.732  32.915  1.00  0.00     0.010 A 
ATOM     38  C   UNL A   1      44.647  26.052  31.714  1.00  0.00    -0.014 A 
BRANCH  38  39
ATOM     39  C   UNL A   1      45.109  26.769  30.507  1.00  0.00     0.031 A 
ATOM     40  C   UNL A   1      45.102  25.949  29.261  1.00  0.00     0.074 A 
ATOM     41  C   UNL A   1      44.946  28.110  30.406  1.00  0.00     0.049 A 
ATOM     42  N   UNL A   1      43.995  25.706  28.622  1.00  0.00    -0.248 NA
ATOM     43  C   UNL A   1      46.220  25.109  28.839  1.00  0.00     0.031 C 
ATOM     44  C   UNL A   1      43.932  28.857  31.168  1.00  0.00     0.029 A 
ATOM     45  N   UNL A   1      45.427  29.027  29.496  1.00  0.00    -0.354 N 
ATOM     46  C   UNL A   1      44.220  24.616  27.808  1.00  0.00     0.074 A 
ATOM     47  C   UNL A   1      45.630  24.314  27.928  1.00  0.00     0.031 C 
ATOM     48  C   UNL A   1      43.734  30.049  30.572  1.00  0.00     0.029 A 
ATOM     49  C   UNL A   1      44.689  30.213  29.480  1.00  0.00     0.049 A 
ATOM     50  H   UNL A   1      46.206  28.864  28.919  1.00  0.00     0.167 HD
ATOM     51  C   UNL A   1      43.212  24.001  27.137  1.00  0.00     0.037 A 
ATOM     52  C   UNL A   1      44.426  30.952  28.366  1.00  0.00     0.037 A 
ATOM     53  C   UNL A   1      41.895  24.515  27.383  1.00  0.00     0.049 A 
ATOM     54  C   UNL A   1      43.506  30.027  27.607  1.00  0.00     0.074 A 
ATOM     55  C   UNL A   1      40.823  24.191  28.187  1.00  0.00     0.029 A 
ATOM     56  N   UNL A   1      41.517  25.673  26.746  1.00  0.00    -0.354 N 
ATOM     57  N   UNL A   1      42.235  29.836  27.842  1.00  0.00    -0.248 NA
ATOM     58  C   UNL A   1      44.128  29.013  26.753  1.00  0.00     0.031 C 
ATOM     59  C   UNL A   1      40.078  25.403  28.334  1.00  0.00     0.029 A 
ATOM     60  C   UNL A   1      40.770  26.394  27.642  1.00  0.00     0.049 A 
ATOM     61  H   UNL A   1      41.741  25.934  25.823  1.00  0.00     0.167 HD
ATOM     62  C   UNL A   1      41.965  28.545  27.386  1.00  0.00     0.074 A 
ATOM     63  C   UNL A   1      43.160  28.111  26.693  1.00  0.00     0.031 C 
ATOM     64  C   UNL A   1      40.865  27.830  27.756  1.00  0.00     0.037 A 
BRANCH  51  65
ATOM     65  C   UNL A   1      43.374  22.953  26.119  1.00  0.00     0.064 A 
ATOM     66  C   UNL A   1      43.166  21.628  26.530  1.00  0.00     0.173 A 
ATOM     67  C   UNL A   1      43.957  23.179  24.871  1.00  0.00     0.173 A 
ATOM     68  F   UNL A   1      42.625  21.380  27.735  1.00  0.00    -0.203 F 
ATOM     69  C   UNL A   1      43.573  20.560  25.744  1.00  0.00     0.198 A 
ATOM     70  C   UNL A   1      44.356  22.105  24.076  1.00  0.00     0.198 A 
ATOM     71  F   UNL A   1      44.194  24.430  24.449  1.00  0.00    -0.203 F 
ATOM     72  F   UNL A   1      43.417  19.308  26.190  1.00  0.00    -0.200 F 
ATOM     73  C   UNL A   1      44.178  20.799  24.520  1.00  0.00     0.200 A 
ATOM     74  F   UNL A   1      44.948  22.328  22.895  1.00  0.00    -0.200 F 
ATOM     75  F   UNL A   1      44.609  19.770  23.777  1.00  0.00    -0.200 F 
ENDBRANCH  51  65
BRANCH  52  76
ATOM     76  C   UNL A   1      45.596  31.645  27.739  1.00  0.00     0.064 A 
ATOM     77  C   UNL A   1      45.434  32.970  27.277  1.00  0.00     0.173 A 
ATOM     78  C   UNL A   1      46.866  31.081  27.544  1.00  0.00     0.173 A 
ATOM     79  F   UNL A   1      44.224  33.549  27.299  1.00  0.00    -0.203 F 
ATOM     80  C   UNL A   1      46.505  33.719  26.788  1.00  0.00     0.198 A 
ATOM     81  C   UNL A   1      47.944  31.840  27.082  1.00  0.00     0.198 A 
ATOM     82  F   UNL A   1      47.096  29.787  27.806  1.00  0.00    -0.203 F 
ATOM     83  F   UNL A   1      46.309  34.987  26.398  1.00  0.00    -0.200 F 
ATOM     84  C   UNL A   1      47.768  33.164  26.725  1.00  0.00     0.200 A 
ATOM     85  F   UNL A   1      49.163  31.285  27.007  1.00  0.00    -0.200 F 
ATOM     86  F   UNL A   1      48.811  33.898  26.314  1.00  0.00    -0.200 F 
ENDBRANCH  52  76
BRANCH  64  87
ATOM     87  C   UNL A   1      39.843  28.580  28.537  1.00  0.00     0.064 A 
ATOM     88  C   UNL A   1      38.924  29.404  27.877  1.00  0.00     0.173 A 
ATOM     89  C   UNL A   1      39.738  28.454  29.930  1.00  0.00     0.173 A 
ATOM     90  F   UNL A   1      38.980  29.547  26.542  1.00  0.00    -0.203 F 
ATOM     91  C   UNL A   1      37.920  30.059  28.581  1.00  0.00     0.198 A 
ATOM     92  C   UNL A   1      38.716  29.091  30.628  1.00  0.00     0.198 A 
ATOM     93  F   UNL A   1      40.602  27.691  30.618  1.00  0.00    -0.203 F 
ATOM     94  F   UNL A   1      37.041  30.833  27.929  1.00  0.00    -0.200 F 
ATOM     95  C   UNL A   1      37.806  29.891  29.953  1.00  0.00     0.200 A 
ATOM     96  F   UNL A   1      38.596  28.911  31.952  1.00  0.00    -0.200 F 
ATOM     97  F   UNL A   1      36.812  30.488  30.624  1.00  0.00    -0.200 F 
ENDBRANCH  64  87
ENDBRANCH  38  39
ENDBRANCH  31  33
ENDBRANCH  30  31
ENDBRANCH  29  30
ENDBRANCH  28  29
ENDBRANCH  27  28
ENDBRANCH  26  27
ENDBRANCH   1  26
TORSDOF 21
ENDMDL
