MODEL 1
REMARK VINA RESULT:     -10.3      0.000      0.000
REMARK SMILES COc1cc(OC)cc(-c2ccc([C@@H](C)C(=O)OCCOCCOCCOCCOC(=O)c3ccc(-c4c5nc(c(-c6c(F)c(F)c(F)c(F)c6F)c6ccc([nH]6)c(-c6c(F)c(F)c(F)c(F)c6F)c6nc(c(-c7c(F)c(F)c(F)c(F)c7F)c7ccc4[nH]7)C=C6)C=C5)cc3)cc2F)c1
REMARK SMILES IDX 23 1 22 2 21 3 20 4 19 5 18 6 16 7 17 8 14 9 15 10 13 11
REMARK SMILES IDX 10 12 11 13 97 14 12 15 96 16 98 17 9 18 3 19 4 20 99 21
REMARK SMILES IDX 5 22 8 23 2 24 1 25 6 26 7 27 24 28 25 29 26 30 27 31 28 32
REMARK SMILES IDX 29 33 30 34 31 35 32 36 33 37 34 38 95 39 35 40 94 41 36 42
REMARK SMILES IDX 37 43 38 44 88 45 39 46 93 47 87 48 89 49 40 50 92 51 86 52
REMARK SMILES IDX 85 53 41 55 73 56 53 57 72 58 54 59 57 60 71 61 90 62 55 63
REMARK SMILES IDX 56 64 70 66 91 67 58 68 42 69 43 70 51 71 44 72 45 73 49 74
REMARK SMILES IDX 52 75 46 76 47 77 50 78 48 79 74 80 75 81 83 82 76 83 77 84
REMARK SMILES IDX 81 85 84 86 78 87 79 88 82 89 80 90 59 91 60 92 68 93 61 94
REMARK SMILES IDX 62 95 66 96 69 97 63 98 64 99 67 100 65 101
REMARK H PARENT 89 54 57 65
REMARK Flexibility Score: inf
ROOT
ATOM      1  C   UNL A   1      34.729  31.389  27.955  1.00  0.00     0.188 C 
ENDROOT
BRANCH   1   2
ATOM      2  C   UNL A   1      35.374  30.052  27.569  1.00  0.00     0.188 C 
BRANCH   2   3
ATOM      3  O   UNL A   1      34.747  29.181  26.640  1.00  0.00    -0.376 OA
BRANCH   3   4
ATOM      4  C   UNL A   1      33.339  28.997  26.657  1.00  0.00     0.202 C 
BRANCH   4   5
ATOM      5  C   UNL A   1      32.431  29.646  25.596  1.00  0.00     0.261 C 
BRANCH   5   6
ATOM      6  O   UNL A   1      32.199  28.898  24.383  1.00  0.00    -0.463 OA
BRANCH   6   7
ATOM      7  C   UNL A   1      30.938  28.926  23.893  1.00  0.00     0.313 C 
ATOM      8  O   UNL A   1      30.211  29.917  23.953  1.00  0.00    -0.252 OA
BRANCH   7   9
ATOM      9  C   UNL A   1      30.434  27.624  23.268  1.00  0.00     0.126 C 
ATOM     10  C   UNL A   1      28.923  27.553  23.460  1.00  0.00     0.025 C 
BRANCH   9  11
ATOM     11  C   UNL A   1      31.098  26.284  23.587  1.00  0.00    -0.031 A 
ATOM     12  C   UNL A   1      32.430  23.785  24.079  1.00  0.00     0.018 A 
ATOM     13  C   UNL A   1      31.662  24.424  25.071  1.00  0.00     0.012 A 
ATOM     14  C   UNL A   1      32.523  24.432  22.843  1.00  0.00     0.131 A 
ATOM     15  C   UNL A   1      31.004  25.648  24.832  1.00  0.00     0.005 A 
ATOM     16  C   UNL A   1      31.862  25.640  22.590  1.00  0.00     0.044 A 
ATOM     17  F   UNL A   1      33.238  23.885  21.847  1.00  0.00    -0.206 F 
BRANCH  12  18
ATOM     18  C   UNL A   1      33.004  22.441  24.298  1.00  0.00    -0.008 A 
ATOM     19  C   UNL A   1      32.816  20.026  24.604  1.00  0.00     0.123 A 
ATOM     20  C   UNL A   1      34.182  19.956  24.885  1.00  0.00     0.092 A 
ATOM     21  C   UNL A   1      32.226  21.266  24.325  1.00  0.00     0.055 A 
ATOM     22  C   UNL A   1      34.970  21.103  24.872  1.00  0.00     0.123 A 
ATOM     23  C   UNL A   1      34.383  22.331  24.562  1.00  0.00     0.055 A 
BRANCH  19  24
ATOM     24  O   UNL A   1      32.150  18.836  24.721  1.00  0.00    -0.497 OA
ATOM     25  C   UNL A   1      32.912  17.740  25.209  1.00  0.00     0.278 C 
ENDBRANCH  19  24
BRANCH  22  26
ATOM     26  O   UNL A   1      36.288  20.908  25.183  1.00  0.00    -0.497 OA
ATOM     27  C   UNL A   1      36.824  19.625  24.877  1.00  0.00     0.278 C 
ENDBRANCH  22  26
ENDBRANCH  12  18
ENDBRANCH   9  11
ENDBRANCH   7   9
ENDBRANCH   6   7
ENDBRANCH   5   6
ENDBRANCH   4   5
ENDBRANCH   3   4
ENDBRANCH   2   3
ENDBRANCH   1   2
BRANCH   1  28
ATOM     28  O   UNL A   1      35.535  32.534  27.763  1.00  0.00    -0.377 OA
BRANCH  28  29
ATOM     29  C   UNL A   1      34.925  33.792  28.001  1.00  0.00     0.188 C 
BRANCH  29  30
ATOM     30  C   UNL A   1      34.020  33.918  29.240  1.00  0.00     0.188 C 
BRANCH  30  31
ATOM     31  O   UNL A   1      34.449  34.903  30.171  1.00  0.00    -0.376 OA
BRANCH  31  32
ATOM     32  C   UNL A   1      34.820  34.494  31.480  1.00  0.00     0.202 C 
BRANCH  32  33
ATOM     33  C   UNL A   1      36.274  34.732  31.929  1.00  0.00     0.261 C 
BRANCH  33  34
ATOM     34  O   UNL A   1      36.732  33.986  33.070  1.00  0.00    -0.460 OA
BRANCH  34  35
ATOM     35  C   UNL A   1      36.418  32.678  33.135  1.00  0.00     0.338 C 
ATOM     36  O   UNL A   1      35.410  32.190  33.623  1.00  0.00    -0.246 OA
BRANCH  35  37
ATOM     37  C   UNL A   1      37.399  31.917  32.332  1.00  0.00     0.060 A 
ATOM     38  C   UNL A   1      38.621  31.577  32.924  1.00  0.00     0.016 A 
ATOM     39  C   UNL A   1      37.133  31.550  31.009  1.00  0.00     0.016 A 
ATOM     40  C   UNL A   1      39.597  30.909  32.186  1.00  0.00     0.010 A 
ATOM     41  C   UNL A   1      38.125  30.900  30.261  1.00  0.00     0.010 A 
ATOM     42  C   UNL A   1      39.375  30.610  30.835  1.00  0.00    -0.014 A 
BRANCH  42  43
ATOM     43  C   UNL A   1      40.521  30.151  30.010  1.00  0.00     0.031 A 
ATOM     44  C   UNL A   1      41.658  31.102  29.751  1.00  0.00     0.074 A 
ATOM     45  C   UNL A   1      40.591  28.886  29.560  1.00  0.00     0.049 A 
ATOM     46  N   UNL A   1      42.785  30.903  29.113  1.00  0.00    -0.248 NA
ATOM     47  C   UNL A   1      41.504  32.463  30.288  1.00  0.00     0.031 C 
ATOM     48  C   UNL A   1      39.572  27.859  29.769  1.00  0.00     0.029 A 
ATOM     49  N   UNL A   1      41.570  28.249  28.837  1.00  0.00    -0.354 N 
ATOM     50  C   UNL A   1      43.470  32.111  29.170  1.00  0.00     0.074 A 
ATOM     51  C   UNL A   1      42.619  33.046  29.874  1.00  0.00     0.031 C 
ATOM     52  C   UNL A   1      39.977  26.720  29.184  1.00  0.00     0.029 A 
ATOM     53  C   UNL A   1      41.270  26.943  28.538  1.00  0.00     0.049 A 
ATOM     54  H   UNL A   1      42.406  28.687  28.559  1.00  0.00     0.167 HD
ATOM     55  C   UNL A   1      44.700  32.410  28.688  1.00  0.00     0.037 A 
ATOM     56  C   UNL A   1      41.956  26.037  27.813  1.00  0.00     0.037 A 
ATOM     57  C   UNL A   1      45.544  31.479  27.982  1.00  0.00     0.049 A 
ATOM     58  C   UNL A   1      43.300  26.410  27.241  1.00  0.00     0.074 A 
ATOM     59  C   UNL A   1      46.818  31.678  27.480  1.00  0.00     0.029 A 
ATOM     60  N   UNL A   1      45.190  30.176  27.661  1.00  0.00    -0.354 N 
ATOM     61  N   UNL A   1      43.960  27.540  27.337  1.00  0.00    -0.248 NA
ATOM     62  C   UNL A   1      44.000  25.373  26.469  1.00  0.00     0.031 C 
ATOM     63  C   UNL A   1      47.207  30.522  26.796  1.00  0.00     0.029 A 
ATOM     64  C   UNL A   1      46.206  29.572  26.936  1.00  0.00     0.049 A 
ATOM     65  H   UNL A   1      44.342  29.744  27.912  1.00  0.00     0.167 HD
ATOM     66  C   UNL A   1      45.158  27.343  26.662  1.00  0.00     0.074 A 
ATOM     67  C   UNL A   1      45.145  25.975  26.186  1.00  0.00     0.031 C 
ATOM     68  C   UNL A   1      46.178  28.214  26.452  1.00  0.00     0.037 A 
BRANCH  55  69
ATOM     69  C   UNL A   1      45.193  33.818  28.872  1.00  0.00     0.064 A 
ATOM     70  C   UNL A   1      45.058  34.792  27.870  1.00  0.00     0.173 A 
ATOM     71  C   UNL A   1      45.791  34.205  30.082  1.00  0.00     0.173 A 
ATOM     72  F   UNL A   1      44.506  34.475  26.688  1.00  0.00    -0.203 F 
ATOM     73  C   UNL A   1      45.530  36.089  28.061  1.00  0.00     0.198 A 
ATOM     74  C   UNL A   1      46.230  35.511  30.282  1.00  0.00     0.198 A 
ATOM     75  F   UNL A   1      45.944  33.317  31.075  1.00  0.00    -0.203 F 
ATOM     76  F   UNL A   1      45.440  36.987  27.070  1.00  0.00    -0.200 F 
ATOM     77  C   UNL A   1      46.108  36.449  29.269  1.00  0.00     0.200 A 
ATOM     78  F   UNL A   1      46.775  35.860  31.455  1.00  0.00    -0.200 F 
ATOM     79  F   UNL A   1      46.557  37.699  29.453  1.00  0.00    -0.200 F 
ENDBRANCH  55  69
BRANCH  56  80
ATOM     80  C   UNL A   1      41.377  24.687  27.577  1.00  0.00     0.064 A 
ATOM     81  C   UNL A   1      40.303  24.495  26.696  1.00  0.00     0.173 A 
ATOM     82  C   UNL A   1      41.879  23.560  28.246  1.00  0.00     0.173 A 
ATOM     83  F   UNL A   1      39.770  25.543  26.052  1.00  0.00    -0.203 F 
ATOM     84  C   UNL A   1      39.742  23.233  26.509  1.00  0.00     0.198 A 
ATOM     85  C   UNL A   1      41.338  22.294  28.033  1.00  0.00     0.198 A 
ATOM     86  F   UNL A   1      42.902  23.688  29.103  1.00  0.00    -0.203 F 
ATOM     87  F   UNL A   1      38.682  23.087  25.702  1.00  0.00    -0.200 F 
ATOM     88  C   UNL A   1      40.264  22.133  27.172  1.00  0.00     0.200 A 
ATOM     89  F   UNL A   1      41.857  21.232  28.664  1.00  0.00    -0.200 F 
ATOM     90  F   UNL A   1      39.729  20.918  26.986  1.00  0.00    -0.200 F 
ENDBRANCH  56  80
BRANCH  68  91
ATOM     91  C   UNL A   1      47.374  27.701  25.695  1.00  0.00     0.064 A 
ATOM     92  C   UNL A   1      48.508  27.198  26.351  1.00  0.00     0.173 A 
ATOM     93  C   UNL A   1      47.390  27.721  24.291  1.00  0.00     0.173 A 
ATOM     94  F   UNL A   1      48.553  27.164  27.692  1.00  0.00    -0.203 F 
ATOM     95  C   UNL A   1      49.630  26.786  25.635  1.00  0.00     0.198 A 
ATOM     96  C   UNL A   1      48.497  27.269  23.577  1.00  0.00     0.198 A 
ATOM     97  F   UNL A   1      46.331  28.179  23.607  1.00  0.00    -0.203 F 
ATOM     98  F   UNL A   1      50.730  26.386  26.289  1.00  0.00    -0.200 F 
ATOM     99  C   UNL A   1      49.623  26.819  24.250  1.00  0.00     0.200 A 
ATOM    100  F   UNL A   1      48.480  27.283  22.236  1.00  0.00    -0.200 F 
ATOM    101  F   UNL A   1      50.704  26.429  23.562  1.00  0.00    -0.200 F 
ENDBRANCH  68  91
ENDBRANCH  42  43
ENDBRANCH  35  37
ENDBRANCH  34  35
ENDBRANCH  33  34
ENDBRANCH  32  33
ENDBRANCH  31  32
ENDBRANCH  30  31
ENDBRANCH  29  30
ENDBRANCH  28  29
ENDBRANCH   1  28
TORSDOF 24
ENDMDL
MODEL 2
REMARK VINA RESULT:     -10.2      4.397      9.107
REMARK SMILES COc1cc(OC)cc(-c2ccc([C@@H](C)C(=O)OCCOCCOCCOCCOC(=O)c3ccc(-c4c5nc(c(-c6c(F)c(F)c(F)c(F)c6F)c6ccc([nH]6)c(-c6c(F)c(F)c(F)c(F)c6F)c6nc(c(-c7c(F)c(F)c(F)c(F)c7F)c7ccc4[nH]7)C=C6)C=C5)cc3)cc2F)c1
REMARK SMILES IDX 23 1 22 2 21 3 20 4 19 5 18 6 16 7 17 8 14 9 15 10 13 11
REMARK SMILES IDX 10 12 11 13 97 14 12 15 96 16 98 17 9 18 3 19 4 20 99 21
REMARK SMILES IDX 5 22 8 23 2 24 1 25 6 26 7 27 24 28 25 29 26 30 27 31 28 32
REMARK SMILES IDX 29 33 30 34 31 35 32 36 33 37 34 38 95 39 35 40 94 41 36 42
REMARK SMILES IDX 37 43 38 44 88 45 39 46 93 47 87 48 89 49 40 50 92 51 86 52
REMARK SMILES IDX 85 53 41 55 73 56 53 57 72 58 54 59 57 60 71 61 90 62 55 63
REMARK SMILES IDX 56 64 70 66 91 67 58 68 42 69 43 70 51 71 44 72 45 73 49 74
REMARK SMILES IDX 52 75 46 76 47 77 50 78 48 79 74 80 75 81 83 82 76 83 77 84
REMARK SMILES IDX 81 85 84 86 78 87 79 88 82 89 80 90 59 91 60 92 68 93 61 94
REMARK SMILES IDX 62 95 66 96 69 97 63 98 64 99 67 100 65 101
REMARK H PARENT 89 54 57 65
REMARK Flexibility Score: inf
ROOT
ATOM      1  C   UNL A   1      30.505  25.189  25.999  1.00  0.00     0.188 C 
ENDROOT
BRANCH   1   2
ATOM      2  C   UNL A   1      31.062  23.769  25.827  1.00  0.00     0.188 C 
BRANCH   2   3
ATOM      3  O   UNL A   1      30.738  22.994  24.682  1.00  0.00    -0.376 OA
BRANCH   3   4
ATOM      4  C   UNL A   1      31.080  23.447  23.381  1.00  0.00     0.202 C 
BRANCH   4   5
ATOM      5  C   UNL A   1      32.277  22.857  22.612  1.00  0.00     0.261 C 
BRANCH   5   6
ATOM      6  O   UNL A   1      33.349  22.294  23.398  1.00  0.00    -0.463 OA
BRANCH   6   7
ATOM      7  C   UNL A   1      34.469  23.044  23.508  1.00  0.00     0.313 C 
ATOM      8  O   UNL A   1      35.106  23.454  22.539  1.00  0.00    -0.252 OA
BRANCH   7   9
ATOM      9  C   UNL A   1      34.936  23.346  24.933  1.00  0.00     0.126 C 
ATOM     10  C   UNL A   1      34.571  24.789  25.263  1.00  0.00     0.025 C 
BRANCH   9  11
ATOM     11  C   UNL A   1      36.360  23.017  25.385  1.00  0.00    -0.031 A 
ATOM     12  C   UNL A   1      39.028  22.505  26.324  1.00  0.00     0.018 A 
ATOM     13  C   UNL A   1      38.288  21.532  25.625  1.00  0.00     0.012 A 
ATOM     14  C   UNL A   1      38.397  23.733  26.549  1.00  0.00     0.131 A 
ATOM     15  C   UNL A   1      36.981  21.782  25.160  1.00  0.00     0.005 A 
ATOM     16  C   UNL A   1      37.104  23.995  26.079  1.00  0.00     0.044 A 
ATOM     17  F   UNL A   1      39.038  24.710  27.209  1.00  0.00    -0.206 F 
BRANCH  12  18
ATOM     18  C   UNL A   1      40.442  22.280  26.689  1.00  0.00    -0.008 A 
ATOM     19  C   UNL A   1      42.646  21.294  26.325  1.00  0.00     0.123 A 
ATOM     20  C   UNL A   1      43.068  21.781  27.563  1.00  0.00     0.092 A 
ATOM     21  C   UNL A   1      41.333  21.530  25.894  1.00  0.00     0.055 A 
ATOM     22  C   UNL A   1      42.204  22.517  28.369  1.00  0.00     0.123 A 
ATOM     23  C   UNL A   1      40.908  22.777  27.922  1.00  0.00     0.055 A 
BRANCH  19  24
ATOM     24  O   UNL A   1      43.572  20.527  25.670  1.00  0.00    -0.497 OA
ATOM     25  C   UNL A   1      43.265  19.145  25.551  1.00  0.00     0.278 C 
ENDBRANCH  19  24
BRANCH  22  26
ATOM     26  O   UNL A   1      42.728  22.921  29.567  1.00  0.00    -0.497 OA
ATOM     27  C   UNL A   1      44.126  23.186  29.586  1.00  0.00     0.278 C 
ENDBRANCH  22  26
ENDBRANCH  12  18
ENDBRANCH   9  11
ENDBRANCH   7   9
ENDBRANCH   6   7
ENDBRANCH   5   6
ENDBRANCH   4   5
ENDBRANCH   3   4
ENDBRANCH   2   3
ENDBRANCH   1   2
BRANCH   1  28
ATOM     28  O   UNL A   1      31.212  26.016  26.901  1.00  0.00    -0.377 OA
BRANCH  28  29
ATOM     29  C   UNL A   1      31.710  27.242  26.388  1.00  0.00     0.188 C 
BRANCH  29  30
ATOM     30  C   UNL A   1      31.259  27.652  24.974  1.00  0.00     0.188 C 
BRANCH  30  31
ATOM     31  O   UNL A   1      30.950  29.034  24.844  1.00  0.00    -0.376 OA
BRANCH  31  32
ATOM     32  C   UNL A   1      31.965  29.991  25.113  1.00  0.00     0.202 C 
BRANCH  32  33
ATOM     33  C   UNL A   1      31.808  30.881  26.360  1.00  0.00     0.261 C 
BRANCH  33  34
ATOM     34  O   UNL A   1      32.879  30.850  27.319  1.00  0.00    -0.460 OA
BRANCH  34  35
ATOM     35  C   UNL A   1      33.533  32.001  27.571  1.00  0.00     0.338 C 
ATOM     36  O   UNL A   1      33.077  33.132  27.502  1.00  0.00    -0.246 OA
BRANCH  35  37
ATOM     37  C   UNL A   1      34.853  31.677  28.151  1.00  0.00     0.060 A 
ATOM     38  C   UNL A   1      35.075  30.371  28.606  1.00  0.00     0.016 A 
ATOM     39  C   UNL A   1      35.862  32.639  28.261  1.00  0.00     0.016 A 
ATOM     40  C   UNL A   1      36.285  30.035  29.211  1.00  0.00     0.010 A 
ATOM     41  C   UNL A   1      37.069  32.306  28.892  1.00  0.00     0.010 A 
ATOM     42  C   UNL A   1      37.271  31.012  29.402  1.00  0.00    -0.014 A 
BRANCH  42  43
ATOM     43  C   UNL A   1      38.424  30.697  30.284  1.00  0.00     0.031 A 
ATOM     44  C   UNL A   1      39.609  29.974  29.703  1.00  0.00     0.074 A 
ATOM     45  C   UNL A   1      38.455  31.113  31.562  1.00  0.00     0.049 A 
ATOM     46  N   UNL A   1      40.747  29.649  30.264  1.00  0.00    -0.248 NA
ATOM     47  C   UNL A   1      39.495  29.564  28.294  1.00  0.00     0.031 C 
ATOM     48  C   UNL A   1      37.388  31.849  32.235  1.00  0.00     0.029 A 
ATOM     49  N   UNL A   1      39.430  30.980  32.521  1.00  0.00    -0.354 N 
ATOM     50  C   UNL A   1      41.481  28.997  29.280  1.00  0.00     0.074 A 
ATOM     51  C   UNL A   1      40.648  28.941  28.099  1.00  0.00     0.031 C 
ATOM     52  C   UNL A   1      37.763  32.099  33.500  1.00  0.00     0.029 A 
ATOM     53  C   UNL A   1      39.086  31.521  33.734  1.00  0.00     0.049 A 
ATOM     54  H   UNL A   1      40.293  30.538  32.353  1.00  0.00     0.167 HD
ATOM     55  C   UNL A   1      42.739  28.498  29.353  1.00  0.00     0.037 A 
ATOM     56  C   UNL A   1      39.756  31.534  34.903  1.00  0.00     0.037 A 
ATOM     57  C   UNL A   1      43.565  28.549  30.532  1.00  0.00     0.049 A 
ATOM     58  C   UNL A   1      41.133  30.925  34.973  1.00  0.00     0.074 A 
ATOM     59  C   UNL A   1      44.864  28.099  30.697  1.00  0.00     0.029 A 
ATOM     60  N   UNL A   1      43.167  29.068  31.756  1.00  0.00    -0.354 N 
ATOM     61  N   UNL A   1      41.838  30.349  34.028  1.00  0.00    -0.248 NA
ATOM     62  C   UNL A   1      41.815  30.981  36.275  1.00  0.00     0.031 C 
ATOM     63  C   UNL A   1      45.225  28.280  32.036  1.00  0.00     0.029 A 
ATOM     64  C   UNL A   1      44.181  28.915  32.690  1.00  0.00     0.049 A 
ATOM     65  H   UNL A   1      42.293  29.485  31.935  1.00  0.00     0.167 HD
ATOM     66  C   UNL A   1      43.049  29.998  34.611  1.00  0.00     0.074 A 
ATOM     67  C   UNL A   1      42.993  30.452  35.986  1.00  0.00     0.031 C 
ATOM     68  C   UNL A   1      44.111  29.356  34.062  1.00  0.00     0.037 A 
BRANCH  55  69
ATOM     69  C   UNL A   1      43.285  27.814  28.131  1.00  0.00     0.064 A 
ATOM     70  C   UNL A   1      42.863  26.532  27.743  1.00  0.00     0.173 A 
ATOM     71  C   UNL A   1      44.230  28.463  27.321  1.00  0.00     0.173 A 
ATOM     72  F   UNL A   1      41.972  25.860  28.488  1.00  0.00    -0.203 F 
ATOM     73  C   UNL A   1      43.390  25.915  26.611  1.00  0.00     0.198 A 
ATOM     74  C   UNL A   1      44.728  27.858  26.170  1.00  0.00     0.198 A 
ATOM     75  F   UNL A   1      44.666  29.690  27.641  1.00  0.00    -0.203 F 
ATOM     76  F   UNL A   1      43.014  24.669  26.292  1.00  0.00    -0.200 F 
ATOM     77  C   UNL A   1      44.316  26.582  25.821  1.00  0.00     0.200 A 
ATOM     78  F   UNL A   1      45.611  28.509  25.402  1.00  0.00    -0.200 F 
ATOM     79  F   UNL A   1      44.817  25.989  24.729  1.00  0.00    -0.200 F 
ENDBRANCH  55  69
BRANCH  56  80
ATOM     80  C   UNL A   1      39.129  32.137  36.110  1.00  0.00     0.064 A 
ATOM     81  C   UNL A   1      38.287  31.390  36.947  1.00  0.00     0.173 A 
ATOM     82  C   UNL A   1      39.346  33.483  36.439  1.00  0.00     0.173 A 
ATOM     83  F   UNL A   1      38.025  30.107  36.661  1.00  0.00    -0.203 F 
ATOM     84  C   UNL A   1      37.672  31.973  38.054  1.00  0.00     0.198 A 
ATOM     85  C   UNL A   1      38.758  34.055  37.565  1.00  0.00     0.198 A 
ATOM     86  F   UNL A   1      40.139  34.243  35.670  1.00  0.00    -0.203 F 
ATOM     87  F   UNL A   1      36.831  31.251  38.807  1.00  0.00    -0.200 F 
ATOM     88  C   UNL A   1      37.914  33.302  38.366  1.00  0.00     0.200 A 
ATOM     89  F   UNL A   1      39.008  35.335  37.871  1.00  0.00    -0.200 F 
ATOM     90  F   UNL A   1      37.329  33.859  39.436  1.00  0.00    -0.200 F 
ENDBRANCH  56  80
BRANCH  68  91
ATOM     91  C   UNL A   1      45.310  29.131  34.945  1.00  0.00     0.064 A 
ATOM     92  C   UNL A   1      46.342  30.075  35.050  1.00  0.00     0.173 A 
ATOM     93  C   UNL A   1      45.430  27.949  35.693  1.00  0.00     0.173 A 
ATOM     94  F   UNL A   1      46.285  31.219  34.350  1.00  0.00    -0.203 F 
ATOM     95  C   UNL A   1      47.473  29.822  35.823  1.00  0.00     0.198 A 
ATOM     96  C   UNL A   1      46.543  27.717  36.499  1.00  0.00     0.198 A 
ATOM     97  F   UNL A   1      44.470  27.014  35.644  1.00  0.00    -0.203 F 
ATOM     98  F   UNL A   1      48.481  30.706  35.841  1.00  0.00    -0.200 F 
ATOM     99  C   UNL A   1      47.571  28.646  36.550  1.00  0.00     0.200 A 
ATOM    100  F   UNL A   1      46.627  26.588  37.216  1.00  0.00    -0.200 F 
ATOM    101  F   UNL A   1      48.661  28.401  37.289  1.00  0.00    -0.200 F 
ENDBRANCH  68  91
ENDBRANCH  42  43
ENDBRANCH  35  37
ENDBRANCH  34  35
ENDBRANCH  33  34
ENDBRANCH  32  33
ENDBRANCH  31  32
ENDBRANCH  30  31
ENDBRANCH  29  30
ENDBRANCH  28  29
ENDBRANCH   1  28
TORSDOF 24
ENDMDL
MODEL 3
REMARK VINA RESULT:     -10.1      0.673      7.111
REMARK SMILES COc1cc(OC)cc(-c2ccc([C@@H](C)C(=O)OCCOCCOCCOCCOC(=O)c3ccc(-c4c5nc(c(-c6c(F)c(F)c(F)c(F)c6F)c6ccc([nH]6)c(-c6c(F)c(F)c(F)c(F)c6F)c6nc(c(-c7c(F)c(F)c(F)c(F)c7F)c7ccc4[nH]7)C=C6)C=C5)cc3)cc2F)c1
REMARK SMILES IDX 23 1 22 2 21 3 20 4 19 5 18 6 16 7 17 8 14 9 15 10 13 11
REMARK SMILES IDX 10 12 11 13 97 14 12 15 96 16 98 17 9 18 3 19 4 20 99 21
REMARK SMILES IDX 5 22 8 23 2 24 1 25 6 26 7 27 24 28 25 29 26 30 27 31 28 32
REMARK SMILES IDX 29 33 30 34 31 35 32 36 33 37 34 38 95 39 35 40 94 41 36 42
REMARK SMILES IDX 37 43 38 44 88 45 39 46 93 47 87 48 89 49 40 50 92 51 86 52
REMARK SMILES IDX 85 53 41 55 73 56 53 57 72 58 54 59 57 60 71 61 90 62 55 63
REMARK SMILES IDX 56 64 70 66 91 67 58 68 42 69 43 70 51 71 44 72 45 73 49 74
REMARK SMILES IDX 52 75 46 76 47 77 50 78 48 79 74 80 75 81 83 82 76 83 77 84
REMARK SMILES IDX 81 85 84 86 78 87 79 88 82 89 80 90 59 91 60 92 68 93 61 94
REMARK SMILES IDX 62 95 66 96 69 97 63 98 64 99 67 100 65 101
REMARK H PARENT 89 54 57 65
REMARK Flexibility Score: inf
ROOT
ATOM      1  C   UNL A   1      34.825  31.353  27.815  1.00  0.00     0.188 C 
ENDROOT
BRANCH   1   2
ATOM      2  C   UNL A   1      35.428  29.983  27.479  1.00  0.00     0.188 C 
BRANCH   2   3
ATOM      3  O   UNL A   1      34.763  29.092  26.596  1.00  0.00    -0.376 OA
BRANCH   3   4
ATOM      4  C   UNL A   1      33.350  28.953  26.635  1.00  0.00     0.202 C 
BRANCH   4   5
ATOM      5  C   UNL A   1      32.450  29.594  25.563  1.00  0.00     0.261 C 
BRANCH   5   6
ATOM      6  O   UNL A   1      32.189  28.818  24.374  1.00  0.00    -0.463 OA
BRANCH   6   7
ATOM      7  C   UNL A   1      30.921  28.850  23.904  1.00  0.00     0.313 C 
ATOM      8  O   UNL A   1      30.217  29.859  23.927  1.00  0.00    -0.252 OA
BRANCH   7   9
ATOM      9  C   UNL A   1      30.378  27.532  23.349  1.00  0.00     0.126 C 
ATOM     10  C   UNL A   1      28.879  27.477  23.623  1.00  0.00     0.025 C 
BRANCH   9  11
ATOM     11  C   UNL A   1      31.051  26.199  23.678  1.00  0.00    -0.031 A 
ATOM     12  C   UNL A   1      32.395  23.709  24.182  1.00  0.00     0.018 A 
ATOM     13  C   UNL A   1      31.687  24.387  25.192  1.00  0.00     0.012 A 
ATOM     14  C   UNL A   1      32.422  24.311  22.921  1.00  0.00     0.131 A 
ATOM     15  C   UNL A   1      31.023  25.607  24.947  1.00  0.00     0.005 A 
ATOM     16  C   UNL A   1      31.755  25.515  22.663  1.00  0.00     0.044 A 
ATOM     17  F   UNL A   1      33.078  23.725  21.906  1.00  0.00    -0.206 F 
BRANCH  12  18
ATOM     18  C   UNL A   1      32.973  22.368  24.416  1.00  0.00    -0.008 A 
ATOM     19  C   UNL A   1      32.789  19.968  24.817  1.00  0.00     0.123 A 
ATOM     20  C   UNL A   1      34.168  19.896  25.023  1.00  0.00     0.092 A 
ATOM     21  C   UNL A   1      32.190  21.201  24.529  1.00  0.00     0.055 A 
ATOM     22  C   UNL A   1      34.961  21.037  24.924  1.00  0.00     0.123 A 
ATOM     23  C   UNL A   1      34.364  22.257  24.605  1.00  0.00     0.055 A 
BRANCH  19  24
ATOM     24  O   UNL A   1      32.124  18.788  25.015  1.00  0.00    -0.497 OA
ATOM     25  C   UNL A   1      32.907  17.703  25.495  1.00  0.00     0.278 C 
ENDBRANCH  19  24
BRANCH  22  26
ATOM     26  O   UNL A   1      36.293  20.842  25.167  1.00  0.00    -0.497 OA
ATOM     27  C   UNL A   1      36.801  19.542  24.887  1.00  0.00     0.278 C 
ENDBRANCH  22  26
ENDBRANCH  12  18
ENDBRANCH   9  11
ENDBRANCH   7   9
ENDBRANCH   6   7
ENDBRANCH   5   6
ENDBRANCH   4   5
ENDBRANCH   3   4
ENDBRANCH   2   3
ENDBRANCH   1   2
BRANCH   1  28
ATOM     28  O   UNL A   1      35.650  32.467  27.538  1.00  0.00    -0.377 OA
BRANCH  28  29
ATOM     29  C   UNL A   1      35.095  33.749  27.783  1.00  0.00     0.188 C 
BRANCH  29  30
ATOM     30  C   UNL A   1      34.204  33.909  29.029  1.00  0.00     0.188 C 
BRANCH  30  31
ATOM     31  O   UNL A   1      34.766  34.736  30.040  1.00  0.00    -0.376 OA
BRANCH  31  32
ATOM     32  C   UNL A   1      35.092  34.158  31.295  1.00  0.00     0.202 C 
BRANCH  32  33
ATOM     33  C   UNL A   1      36.565  34.185  31.745  1.00  0.00     0.261 C 
BRANCH  33  34
ATOM     34  O   UNL A   1      36.943  33.271  32.789  1.00  0.00    -0.460 OA
BRANCH  34  35
ATOM     35  C   UNL A   1      36.617  31.973  32.638  1.00  0.00     0.338 C 
ATOM     36  O   UNL A   1      35.549  31.449  32.916  1.00  0.00    -0.246 OA
BRANCH  35  37
ATOM     37  C   UNL A   1      37.695  31.301  31.881  1.00  0.00     0.060 A 
ATOM     38  C   UNL A   1      38.903  31.037  32.539  1.00  0.00     0.016 A 
ATOM     39  C   UNL A   1      37.533  30.942  30.539  1.00  0.00     0.016 A 
ATOM     40  C   UNL A   1      39.965  30.456  31.849  1.00  0.00     0.010 A 
ATOM     41  C   UNL A   1      38.611  30.381  29.840  1.00  0.00     0.010 A 
ATOM     42  C   UNL A   1      39.843  30.169  30.483  1.00  0.00    -0.014 A 
BRANCH  42  43
ATOM     43  C   UNL A   1      41.065  29.810  29.719  1.00  0.00     0.031 A 
ATOM     44  C   UNL A   1      41.173  28.432  29.123  1.00  0.00     0.074 A 
ATOM     45  C   UNL A   1      42.032  30.715  29.490  1.00  0.00     0.049 A 
ATOM     46  N   UNL A   1      42.114  27.919  28.370  1.00  0.00    -0.248 NA
ATOM     47  C   UNL A   1      40.065  27.508  29.415  1.00  0.00     0.031 C 
ATOM     48  C   UNL A   1      42.033  32.091  29.983  1.00  0.00     0.029 A 
ATOM     49  N   UNL A   1      43.201  30.612  28.775  1.00  0.00    -0.354 N 
ATOM     50  C   UNL A   1      41.714  26.615  28.101  1.00  0.00     0.074 A 
ATOM     51  C   UNL A   1      40.464  26.405  28.799  1.00  0.00     0.031 C 
ATOM     52  C   UNL A   1      43.151  32.703  29.560  1.00  0.00     0.029 A 
ATOM     53  C   UNL A   1      43.956  31.758  28.787  1.00  0.00     0.049 A 
ATOM     54  H   UNL A   1      43.470  29.794  28.300  1.00  0.00     0.167 HD
ATOM     55  C   UNL A   1      42.328  25.682  27.335  1.00  0.00     0.037 A 
ATOM     56  C   UNL A   1      45.165  32.009  28.248  1.00  0.00     0.037 A 
ATOM     57  C   UNL A   1      43.576  25.891  26.645  1.00  0.00     0.049 A 
ATOM     58  C   UNL A   1      45.854  30.936  27.444  1.00  0.00     0.074 A 
ATOM     59  C   UNL A   1      44.264  25.019  25.820  1.00  0.00     0.029 A 
ATOM     60  N   UNL A   1      44.334  27.052  26.715  1.00  0.00    -0.354 N 
ATOM     61  N   UNL A   1      45.449  29.722  27.157  1.00  0.00    -0.248 NA
ATOM     62  C   UNL A   1      47.166  31.277  26.875  1.00  0.00     0.031 C 
ATOM     63  C   UNL A   1      45.469  25.622  25.448  1.00  0.00     0.029 A 
ATOM     64  C   UNL A   1      45.499  26.904  25.978  1.00  0.00     0.049 A 
ATOM     65  H   UNL A   1      44.081  27.862  27.213  1.00  0.00     0.167 HD
ATOM     66  C   UNL A   1      46.441  29.164  26.359  1.00  0.00     0.074 A 
ATOM     67  C   UNL A   1      47.453  30.185  26.183  1.00  0.00     0.031 C 
ATOM     68  C   UNL A   1      46.510  27.920  25.821  1.00  0.00     0.037 A 
BRANCH  55  69
ATOM     69  C   UNL A   1      41.678  24.330  27.234  1.00  0.00     0.064 A 
ATOM     70  C   UNL A   1      42.228  23.191  27.844  1.00  0.00     0.173 A 
ATOM     71  C   UNL A   1      40.471  24.177  26.534  1.00  0.00     0.173 A 
ATOM     72  F   UNL A   1      43.387  23.277  28.514  1.00  0.00    -0.203 F 
ATOM     73  C   UNL A   1      41.611  21.948  27.730  1.00  0.00     0.198 A 
ATOM     74  C   UNL A   1      39.838  22.940  26.452  1.00  0.00     0.198 A 
ATOM     75  F   UNL A   1      39.898  25.232  25.935  1.00  0.00    -0.203 F 
ATOM     76  F   UNL A   1      42.183  20.864  28.273  1.00  0.00    -0.200 F 
ATOM     77  C   UNL A   1      40.413  21.824  27.041  1.00  0.00     0.200 A 
ATOM     78  F   UNL A   1      38.675  22.826  25.799  1.00  0.00    -0.200 F 
ATOM     79  F   UNL A   1      39.818  20.628  26.937  1.00  0.00    -0.200 F 
ENDBRANCH  55  69
BRANCH  56  80
ATOM     80  C   UNL A   1      45.811  33.332  28.461  1.00  0.00     0.064 A 
ATOM     81  C   UNL A   1      46.663  33.564  29.550  1.00  0.00     0.173 A 
ATOM     82  C   UNL A   1      45.570  34.401  27.584  1.00  0.00     0.173 A 
ATOM     83  F   UNL A   1      46.904  32.583  30.432  1.00  0.00    -0.203 F 
ATOM     84  C   UNL A   1      47.233  34.818  29.764  1.00  0.00     0.198 A 
ATOM     85  C   UNL A   1      46.168  35.644  27.781  1.00  0.00     0.198 A 
ATOM     86  F   UNL A   1      44.760  34.235  26.529  1.00  0.00    -0.203 F 
ATOM     87  F   UNL A   1      48.002  35.026  30.842  1.00  0.00    -0.200 F 
ATOM     88  C   UNL A   1      46.991  35.854  28.876  1.00  0.00     0.200 A 
ATOM     89  F   UNL A   1      45.943  36.637  26.911  1.00  0.00    -0.200 F 
ATOM     90  F   UNL A   1      47.546  37.057  29.078  1.00  0.00    -0.200 F 
ENDBRANCH  56  80
BRANCH  68  91
ATOM     91  C   UNL A   1      47.711  27.606  24.969  1.00  0.00     0.064 A 
ATOM     92  C   UNL A   1      47.708  27.803  23.580  1.00  0.00     0.173 A 
ATOM     93  C   UNL A   1      48.882  27.094  25.551  1.00  0.00     0.173 A 
ATOM     94  F   UNL A   1      46.613  28.281  22.968  1.00  0.00    -0.203 F 
ATOM     95  C   UNL A   1      48.807  27.448  22.800  1.00  0.00     0.198 A 
ATOM     96  C   UNL A   1      49.994  26.779  24.774  1.00  0.00     0.198 A 
ATOM     97  F   UNL A   1      48.950  26.896  26.876  1.00  0.00    -0.203 F 
ATOM     98  F   UNL A   1      48.747  27.571  21.466  1.00  0.00    -0.200 F 
ATOM     99  C   UNL A   1      49.949  26.940  23.397  1.00  0.00     0.200 A 
ATOM    100  F   UNL A   1      51.105  26.306  25.356  1.00  0.00    -0.200 F 
ATOM    101  F   UNL A   1      51.004  26.594  22.647  1.00  0.00    -0.200 F 
ENDBRANCH  68  91
ENDBRANCH  42  43
ENDBRANCH  35  37
ENDBRANCH  34  35
ENDBRANCH  33  34
ENDBRANCH  32  33
ENDBRANCH  31  32
ENDBRANCH  30  31
ENDBRANCH  29  30
ENDBRANCH  28  29
ENDBRANCH   1  28
TORSDOF 24
ENDMDL
