MODEL 1
REMARK VINA RESULT:     -11.3      0.000      0.000
REMARK SMILES C[C@H](C(=O)OCCOCCOCCOCCOC(=O)c1ccc(-c2c3nc(c(-c4c(F)c(F)c(F)c(F)c4F)c4ccc([nH]4)c(-c4c(F)c(F)c(F)c(F)c4F)c4nc(c(-c5c(F)c(F)c(F)c(F)c5F)c5ccc2[nH]5)C=C4)C=C3)cc1)c1ccc(-c2ccccc2)c(F)c1
REMARK SMILES IDX 11 1 10 2 9 3 8 4 7 5 6 6 5 7 3 8 4 9 2 10 1 11 83 12 84 13
REMARK SMILES IDX 95 14 85 15 93 16 86 17 94 18 87 19 88 20 92 21 89 22 91 23
REMARK SMILES IDX 90 24 12 25 13 26 14 27 15 28 16 29 17 30 18 31 19 32 20 33
REMARK SMILES IDX 21 34 82 35 22 36 81 37 23 38 24 39 25 40 75 41 26 42 80 43
REMARK SMILES IDX 74 44 76 45 27 46 79 47 73 48 72 49 28 51 60 52 40 53 59 54
REMARK SMILES IDX 41 55 44 56 58 57 77 58 42 59 43 60 57 62 78 63 45 64 29 65
REMARK SMILES IDX 30 66 38 67 31 68 32 69 36 70 39 71 33 72 34 73 37 74 35 75
REMARK SMILES IDX 61 76 62 77 70 78 63 79 64 80 68 81 71 82 65 83 66 84 69 85
REMARK SMILES IDX 67 86 46 87 47 88 55 89 48 90 49 91 53 92 56 93 50 94 51 95
REMARK SMILES IDX 54 96 52 97
REMARK H PARENT 76 50 44 61
REMARK Flexibility Score: inf
ROOT
ATOM      1  O   UNL A   1      38.924  21.590  26.464  1.00  0.00    -0.377 OA
ENDROOT
BRANCH   1   2
ATOM      2  C   UNL A   1      37.907  22.035  25.578  1.00  0.00     0.188 C 
BRANCH   2   3
ATOM      3  C   UNL A   1      37.521  23.498  25.804  1.00  0.00     0.188 C 
BRANCH   3   4
ATOM      4  O   UNL A   1      36.200  23.750  26.270  1.00  0.00    -0.376 OA
BRANCH   4   5
ATOM      5  C   UNL A   1      35.102  23.535  25.387  1.00  0.00     0.202 C 
BRANCH   5   6
ATOM      6  C   UNL A   1      34.197  24.730  25.043  1.00  0.00     0.261 C 
BRANCH   6   7
ATOM      7  O   UNL A   1      33.272  25.060  26.099  1.00  0.00    -0.463 OA
BRANCH   7   8
ATOM      8  C   UNL A   1      31.953  25.025  25.775  1.00  0.00     0.313 C 
ATOM      9  O   UNL A   1      31.054  25.175  26.598  1.00  0.00    -0.252 OA
BRANCH   8  10
ATOM     10  C   UNL A   1      31.684  24.908  24.263  1.00  0.00     0.126 C 
ATOM     11  C   UNL A   1      30.815  23.741  23.789  1.00  0.00     0.025 C 
BRANCH  10  12
ATOM     12  C   UNL A   1      31.044  26.171  23.701  1.00  0.00    -0.031 A 
ATOM     13  C   UNL A   1      31.853  27.219  23.243  1.00  0.00     0.005 A 
ATOM     14  C   UNL A   1      29.656  26.362  23.762  1.00  0.00     0.044 A 
ATOM     15  C   UNL A   1      31.294  28.429  22.862  1.00  0.00     0.012 A 
ATOM     16  C   UNL A   1      29.106  27.592  23.402  1.00  0.00     0.131 A 
ATOM     17  C   UNL A   1      29.913  28.644  22.955  1.00  0.00     0.017 A 
ATOM     18  F   UNL A   1      27.780  27.758  23.525  1.00  0.00    -0.206 F 
BRANCH  17  19
ATOM     19  C   UNL A   1      29.406  29.977  22.638  1.00  0.00    -0.015 A 
ATOM     20  C   UNL A   1      29.146  30.894  23.670  1.00  0.00     0.009 A 
ATOM     21  C   UNL A   1      29.027  30.308  21.330  1.00  0.00     0.009 A 
ATOM     22  C   UNL A   1      28.490  32.094  23.408  1.00  0.00     0.001 A 
ATOM     23  C   UNL A   1      28.367  31.509  21.068  1.00  0.00     0.001 A 
ATOM     24  C   UNL A   1      28.090  32.396  22.108  1.00  0.00     0.000 A 
ENDBRANCH  17  19
ENDBRANCH  10  12
ENDBRANCH   8  10
ENDBRANCH   7   8
ENDBRANCH   6   7
ENDBRANCH   5   6
ENDBRANCH   4   5
ENDBRANCH   3   4
ENDBRANCH   2   3
ENDBRANCH   1   2
BRANCH   1  25
ATOM     25  C   UNL A   1      40.297  21.672  26.084  1.00  0.00     0.188 C 
BRANCH  25  26
ATOM     26  C   UNL A   1      41.127  20.402  26.223  1.00  0.00     0.188 C 
BRANCH  26  27
ATOM     27  O   UNL A   1      42.303  20.334  25.416  1.00  0.00    -0.376 OA
BRANCH  27  28
ATOM     28  C   UNL A   1      43.463  21.039  25.856  1.00  0.00     0.202 C 
BRANCH  28  29
ATOM     29  C   UNL A   1      44.006  22.078  24.876  1.00  0.00     0.261 C 
BRANCH  29  30
ATOM     30  O   UNL A   1      43.219  23.281  24.872  1.00  0.00    -0.460 OA
BRANCH  30  31
ATOM     31  C   UNL A   1      43.912  24.421  25.073  1.00  0.00     0.338 C 
ATOM     32  O   UNL A   1      44.970  24.759  24.558  1.00  0.00    -0.246 OA
BRANCH  31  33
ATOM     33  C   UNL A   1      43.124  25.319  25.928  1.00  0.00     0.060 A 
ATOM     34  C   UNL A   1      43.385  26.696  25.877  1.00  0.00     0.016 A 
ATOM     35  C   UNL A   1      42.206  24.796  26.840  1.00  0.00     0.016 A 
ATOM     36  C   UNL A   1      42.761  27.552  26.777  1.00  0.00     0.010 A 
ATOM     37  C   UNL A   1      41.595  25.652  27.753  1.00  0.00     0.010 A 
ATOM     38  C   UNL A   1      41.906  27.023  27.751  1.00  0.00    -0.014 A 
BRANCH  38  39
ATOM     39  C   UNL A   1      41.502  27.864  28.897  1.00  0.00     0.031 A 
ATOM     40  C   UNL A   1      42.303  27.769  30.163  1.00  0.00     0.074 A 
ATOM     41  C   UNL A   1      40.452  28.695  28.800  1.00  0.00     0.049 A 
ATOM     42  N   UNL A   1      42.092  28.329  31.325  1.00  0.00    -0.248 NA
ATOM     43  C   UNL A   1      43.504  26.919  30.112  1.00  0.00     0.031 C 
ATOM     44  C   UNL A   1      39.644  28.896  27.600  1.00  0.00     0.029 A 
ATOM     45  N   UNL A   1      39.881  29.514  29.738  1.00  0.00    -0.354 N 
ATOM     46  C   UNL A   1      43.125  27.891  32.143  1.00  0.00     0.074 A 
ATOM     47  C   UNL A   1      43.943  26.994  31.358  1.00  0.00     0.031 C 
ATOM     48  C   UNL A   1      38.661  29.768  27.881  1.00  0.00     0.029 A 
ATOM     49  C   UNL A   1      38.752  30.151  29.289  1.00  0.00     0.049 A 
ATOM     50  H   UNL A   1      40.244  29.633  30.645  1.00  0.00     0.167 HD
ATOM     51  C   UNL A   1      43.371  28.219  33.433  1.00  0.00     0.037 A 
ATOM     52  C   UNL A   1      37.877  30.926  29.957  1.00  0.00     0.037 A 
ATOM     53  C   UNL A   1      42.540  29.109  34.202  1.00  0.00     0.049 A 
ATOM     54  C   UNL A   1      38.125  31.212  31.416  1.00  0.00     0.074 A 
ATOM     55  C   UNL A   1      42.693  29.518  35.513  1.00  0.00     0.029 A 
ATOM     56  N   UNL A   1      41.390  29.721  33.721  1.00  0.00    -0.354 N 
ATOM     57  N   UNL A   1      39.109  30.809  32.185  1.00  0.00    -0.248 NA
ATOM     58  C   UNL A   1      37.143  32.065  32.099  1.00  0.00     0.031 C 
ATOM     59  C   UNL A   1      41.604  30.329  35.846  1.00  0.00     0.029 A 
ATOM     60  C   UNL A   1      40.808  30.484  34.721  1.00  0.00     0.049 A 
ATOM     61  H   UNL A   1      41.040  29.628  32.806  1.00  0.00     0.167 HD
ATOM     62  C   UNL A   1      38.884  31.383  33.430  1.00  0.00     0.074 A 
ATOM     63  C   UNL A   1      37.676  32.174  33.308  1.00  0.00     0.031 C 
ATOM     64  C   UNL A   1      39.608  31.269  34.571  1.00  0.00     0.037 A 
BRANCH  51  65
ATOM     65  C   UNL A   1      44.559  27.585  34.098  1.00  0.00     0.064 A 
ATOM     66  C   UNL A   1      44.513  26.279  34.610  1.00  0.00     0.173 A 
ATOM     67  C   UNL A   1      45.768  28.288  34.209  1.00  0.00     0.173 A 
ATOM     68  F   UNL A   1      43.376  25.568  34.546  1.00  0.00    -0.203 F 
ATOM     69  C   UNL A   1      45.622  25.714  35.234  1.00  0.00     0.198 A 
ATOM     70  C   UNL A   1      46.885  27.707  34.803  1.00  0.00     0.198 A 
ATOM     71  F   UNL A   1      45.869  29.540  33.737  1.00  0.00    -0.203 F 
ATOM     72  F   UNL A   1      45.536  24.486  35.766  1.00  0.00    -0.200 F 
ATOM     73  C   UNL A   1      46.809  26.425  35.323  1.00  0.00     0.200 A 
ATOM     74  F   UNL A   1      48.036  28.392  34.876  1.00  0.00    -0.200 F 
ATOM     75  F   UNL A   1      47.878  25.877  35.919  1.00  0.00    -0.200 F 
ENDBRANCH  51  65
BRANCH  52  76
ATOM     76  C   UNL A   1      36.681  31.466  29.260  1.00  0.00     0.064 A 
ATOM     77  C   UNL A   1      35.634  30.626  28.858  1.00  0.00     0.173 A 
ATOM     78  C   UNL A   1      36.562  32.836  28.974  1.00  0.00     0.173 A 
ATOM     79  F   UNL A   1      35.708  29.308  29.091  1.00  0.00    -0.203 F 
ATOM     80  C   UNL A   1      34.525  31.129  28.180  1.00  0.00     0.198 A 
ATOM     81  C   UNL A   1      35.439  33.342  28.324  1.00  0.00     0.198 A 
ATOM     82  F   UNL A   1      37.535  33.684  29.338  1.00  0.00    -0.203 F 
ATOM     83  F   UNL A   1      33.562  30.296  27.765  1.00  0.00    -0.200 F 
ATOM     84  C   UNL A   1      34.426  32.488  27.920  1.00  0.00     0.200 A 
ATOM     85  F   UNL A   1      35.341  34.658  28.090  1.00  0.00    -0.200 F 
ATOM     86  F   UNL A   1      33.357  32.972  27.272  1.00  0.00    -0.200 F 
ENDBRANCH  52  76
BRANCH  64  87
ATOM     87  C   UNL A   1      39.141  32.052  35.765  1.00  0.00     0.064 A 
ATOM     88  C   UNL A   1      38.266  31.504  36.714  1.00  0.00     0.173 A 
ATOM     89  C   UNL A   1      39.611  33.357  35.982  1.00  0.00     0.173 A 
ATOM     90  F   UNL A   1      37.776  30.266  36.547  1.00  0.00    -0.203 F 
ATOM     91  C   UNL A   1      37.856  32.243  37.820  1.00  0.00     0.198 A 
ATOM     92  C   UNL A   1      39.228  34.079  37.108  1.00  0.00     0.198 A 
ATOM     93  F   UNL A   1      40.457  33.925  35.110  1.00  0.00    -0.203 F 
ATOM     94  F   UNL A   1      36.977  31.720  38.686  1.00  0.00    -0.200 F 
ATOM     95  C   UNL A   1      38.345  33.526  38.021  1.00  0.00     0.200 A 
ATOM     96  F   UNL A   1      39.717  35.311  37.308  1.00  0.00    -0.200 F 
ATOM     97  F   UNL A   1      37.956  34.233  39.091  1.00  0.00    -0.200 F 
ENDBRANCH  64  87
ENDBRANCH  38  39
ENDBRANCH  31  33
ENDBRANCH  30  31
ENDBRANCH  29  30
ENDBRANCH  28  29
ENDBRANCH  27  28
ENDBRANCH  26  27
ENDBRANCH  25  26
ENDBRANCH   1  25
TORSDOF 22
ENDMDL
MODEL 2
REMARK VINA RESULT:     -10.5      1.348      2.055
REMARK SMILES C[C@H](C(=O)OCCOCCOCCOCCOC(=O)c1ccc(-c2c3nc(c(-c4c(F)c(F)c(F)c(F)c4F)c4ccc([nH]4)c(-c4c(F)c(F)c(F)c(F)c4F)c4nc(c(-c5c(F)c(F)c(F)c(F)c5F)c5ccc2[nH]5)C=C4)C=C3)cc1)c1ccc(-c2ccccc2)c(F)c1
REMARK SMILES IDX 11 1 10 2 9 3 8 4 7 5 6 6 5 7 3 8 4 9 2 10 1 11 83 12 84 13
REMARK SMILES IDX 95 14 85 15 93 16 86 17 94 18 87 19 88 20 92 21 89 22 91 23
REMARK SMILES IDX 90 24 12 25 13 26 14 27 15 28 16 29 17 30 18 31 19 32 20 33
REMARK SMILES IDX 21 34 82 35 22 36 81 37 23 38 24 39 25 40 75 41 26 42 80 43
REMARK SMILES IDX 74 44 76 45 27 46 79 47 73 48 72 49 28 51 60 52 40 53 59 54
REMARK SMILES IDX 41 55 44 56 58 57 77 58 42 59 43 60 57 62 78 63 45 64 29 65
REMARK SMILES IDX 30 66 38 67 31 68 32 69 36 70 39 71 33 72 34 73 37 74 35 75
REMARK SMILES IDX 61 76 62 77 70 78 63 79 64 80 68 81 71 82 65 83 66 84 69 85
REMARK SMILES IDX 67 86 46 87 47 88 55 89 48 90 49 91 53 92 56 93 50 94 51 95
REMARK SMILES IDX 54 96 52 97
REMARK H PARENT 76 50 44 61
REMARK Flexibility Score: inf
ROOT
ATOM      1  O   UNL A   1      40.489  20.345  26.602  1.00  0.00    -0.377 OA
ENDROOT
BRANCH   1   2
ATOM      2  C   UNL A   1      39.397  20.548  25.718  1.00  0.00     0.188 C 
BRANCH   2   3
ATOM      3  C   UNL A   1      38.736  21.917  25.894  1.00  0.00     0.188 C 
BRANCH   3   4
ATOM      4  O   UNL A   1      37.352  22.009  25.574  1.00  0.00    -0.376 OA
BRANCH   4   5
ATOM      5  C   UNL A   1      36.952  22.788  24.451  1.00  0.00     0.202 C 
BRANCH   5   6
ATOM      6  C   UNL A   1      35.632  22.428  23.747  1.00  0.00     0.261 C 
BRANCH   6   7
ATOM      7  O   UNL A   1      35.145  23.479  22.889  1.00  0.00    -0.463 OA
BRANCH   7   8
ATOM      8  C   UNL A   1      34.082  24.188  23.350  1.00  0.00     0.313 C 
ATOM      9  O   UNL A   1      34.186  25.101  24.166  1.00  0.00    -0.252 OA
BRANCH   8  10
ATOM     10  C   UNL A   1      32.750  23.835  22.665  1.00  0.00     0.126 C 
ATOM     11  C   UNL A   1      32.020  22.578  23.147  1.00  0.00     0.025 C 
BRANCH  10  12
ATOM     12  C   UNL A   1      31.743  24.973  22.757  1.00  0.00    -0.031 A 
ATOM     13  C   UNL A   1      31.911  26.119  21.968  1.00  0.00     0.005 A 
ATOM     14  C   UNL A   1      30.725  24.957  23.721  1.00  0.00     0.044 A 
ATOM     15  C   UNL A   1      31.091  27.223  22.141  1.00  0.00     0.012 A 
ATOM     16  C   UNL A   1      29.922  26.082  23.906  1.00  0.00     0.131 A 
ATOM     17  C   UNL A   1      30.095  27.232  23.127  1.00  0.00     0.017 A 
ATOM     18  F   UNL A   1      28.993  26.051  24.875  1.00  0.00    -0.206 F 
BRANCH  17  19
ATOM     19  C   UNL A   1      29.339  28.467  23.324  1.00  0.00    -0.015 A 
ATOM     20  C   UNL A   1      27.952  28.485  23.102  1.00  0.00     0.009 A 
ATOM     21  C   UNL A   1      29.997  29.677  23.583  1.00  0.00     0.009 A 
ATOM     22  C   UNL A   1      27.247  29.686  23.101  1.00  0.00     0.001 A 
ATOM     23  C   UNL A   1      29.291  30.880  23.580  1.00  0.00     0.001 A 
ATOM     24  C   UNL A   1      27.920  30.885  23.328  1.00  0.00     0.000 A 
ENDBRANCH  17  19
ENDBRANCH  10  12
ENDBRANCH   8  10
ENDBRANCH   7   8
ENDBRANCH   6   7
ENDBRANCH   5   6
ENDBRANCH   4   5
ENDBRANCH   3   4
ENDBRANCH   2   3
ENDBRANCH   1   2
BRANCH   1  25
ATOM     25  C   UNL A   1      41.763  20.923  26.321  1.00  0.00     0.188 C 
BRANCH  25  26
ATOM     26  C   UNL A   1      42.925  19.961  26.112  1.00  0.00     0.188 C 
BRANCH  26  27
ATOM     27  O   UNL A   1      43.669  20.133  24.906  1.00  0.00    -0.376 OA
BRANCH  27  28
ATOM     28  C   UNL A   1      44.939  20.779  24.985  1.00  0.00     0.202 C 
BRANCH  28  29
ATOM     29  C   UNL A   1      44.966  22.228  24.499  1.00  0.00     0.261 C 
BRANCH  29  30
ATOM     30  O   UNL A   1      44.830  23.163  25.582  1.00  0.00    -0.460 OA
BRANCH  30  31
ATOM     31  C   UNL A   1      43.821  24.049  25.452  1.00  0.00     0.338 C 
ATOM     32  O   UNL A   1      43.032  24.159  24.522  1.00  0.00    -0.246 OA
BRANCH  31  33
ATOM     33  C   UNL A   1      43.689  24.816  26.698  1.00  0.00     0.060 A 
ATOM     34  C   UNL A   1      42.829  24.336  27.696  1.00  0.00     0.016 A 
ATOM     35  C   UNL A   1      44.332  26.047  26.837  1.00  0.00     0.016 A 
ATOM     36  C   UNL A   1      42.571  25.112  28.820  1.00  0.00     0.010 A 
ATOM     37  C   UNL A   1      44.059  26.832  27.954  1.00  0.00     0.010 A 
ATOM     38  C   UNL A   1      43.145  26.385  28.924  1.00  0.00    -0.014 A 
BRANCH  38  39
ATOM     39  C   UNL A   1      42.630  27.333  29.933  1.00  0.00     0.031 A 
ATOM     40  C   UNL A   1      43.329  27.405  31.260  1.00  0.00     0.074 A 
ATOM     41  C   UNL A   1      41.571  28.113  29.663  1.00  0.00     0.049 A 
ATOM     42  N   UNL A   1      43.013  28.082  32.332  1.00  0.00    -0.248 NA
ATOM     43  C   UNL A   1      44.552  26.596  31.397  1.00  0.00     0.031 C 
ATOM     44  C   UNL A   1      40.857  28.152  28.390  1.00  0.00     0.029 A 
ATOM     45  N   UNL A   1      40.907  29.010  30.456  1.00  0.00    -0.354 N 
ATOM     46  C   UNL A   1      43.988  27.773  33.271  1.00  0.00     0.074 A 
ATOM     47  C   UNL A   1      44.888  26.822  32.657  1.00  0.00     0.031 C 
ATOM     48  C   UNL A   1      39.833  29.017  28.495  1.00  0.00     0.029 A 
ATOM     49  C   UNL A   1      39.802  29.556  29.854  1.00  0.00     0.049 A 
ATOM     50  H   UNL A   1      41.194  29.241  31.370  1.00  0.00     0.167 HD
ATOM     51  C   UNL A   1      44.121  28.249  34.531  1.00  0.00     0.037 A 
ATOM     52  C   UNL A   1      38.858  30.370  30.361  1.00  0.00     0.037 A 
ATOM     53  C   UNL A   1      43.211  29.190  35.128  1.00  0.00     0.049 A 
ATOM     54  C   UNL A   1      38.981  30.824  31.793  1.00  0.00     0.074 A 
ATOM     55  C   UNL A   1      43.248  29.746  36.393  1.00  0.00     0.029 A 
ATOM     56  N   UNL A   1      42.088  29.706  34.495  1.00  0.00    -0.354 N 
ATOM     57  N   UNL A   1      39.910  30.541  32.675  1.00  0.00    -0.248 NA
ATOM     58  C   UNL A   1      37.927  31.713  32.298  1.00  0.00     0.031 C 
ATOM     59  C   UNL A   1      42.116  30.552  36.548  1.00  0.00     0.029 A 
ATOM     60  C   UNL A   1      41.409  30.555  35.355  1.00  0.00     0.049 A 
ATOM     61  H   UNL A   1      41.814  29.501  33.572  1.00  0.00     0.167 HD
ATOM     62  C   UNL A   1      39.572  31.241  33.827  1.00  0.00     0.074 A 
ATOM     63  C   UNL A   1      38.359  31.972  33.524  1.00  0.00     0.031 C 
ATOM     64  C   UNL A   1      40.206  31.278  35.026  1.00  0.00     0.037 A 
BRANCH  51  65
ATOM     65  C   UNL A   1      45.268  27.732  35.352  1.00  0.00     0.064 A 
ATOM     66  C   UNL A   1      45.141  26.604  36.177  1.00  0.00     0.173 A 
ATOM     67  C   UNL A   1      46.520  28.365  35.300  1.00  0.00     0.173 A 
ATOM     68  F   UNL A   1      43.962  25.971  36.277  1.00  0.00    -0.203 F 
ATOM     69  C   UNL A   1      46.213  26.148  36.939  1.00  0.00     0.198 A 
ATOM     70  C   UNL A   1      47.598  27.886  36.038  1.00  0.00     0.198 A 
ATOM     71  F   UNL A   1      46.698  29.449  34.528  1.00  0.00    -0.203 F 
ATOM     72  F   UNL A   1      46.051  25.103  37.763  1.00  0.00    -0.200 F 
ATOM     73  C   UNL A   1      47.442  26.785  36.863  1.00  0.00     0.200 A 
ATOM     74  F   UNL A   1      48.790  28.496  35.953  1.00  0.00    -0.200 F 
ATOM     75  F   UNL A   1      48.475  26.341  37.594  1.00  0.00    -0.200 F 
ENDBRANCH  51  65
BRANCH  52  76
ATOM     76  C   UNL A   1      37.708  30.789  29.518  1.00  0.00     0.064 A 
ATOM     77  C   UNL A   1      37.613  32.095  29.018  1.00  0.00     0.173 A 
ATOM     78  C   UNL A   1      36.675  29.894  29.199  1.00  0.00     0.173 A 
ATOM     79  F   UNL A   1      38.565  32.993  29.310  1.00  0.00    -0.203 F 
ATOM     80  C   UNL A   1      36.521  32.495  28.251  1.00  0.00     0.198 A 
ATOM     81  C   UNL A   1      35.600  30.287  28.405  1.00  0.00     0.198 A 
ATOM     82  F   UNL A   1      36.717  28.632  29.650  1.00  0.00    -0.203 F 
ATOM     83  F   UNL A   1      36.432  33.763  27.827  1.00  0.00    -0.200 F 
ATOM     84  C   UNL A   1      35.519  31.589  27.940  1.00  0.00     0.200 A 
ATOM     85  F   UNL A   1      34.642  29.402  28.094  1.00  0.00    -0.200 F 
ATOM     86  F   UNL A   1      34.471  31.973  27.197  1.00  0.00    -0.200 F 
ENDBRANCH  52  76
BRANCH  64  87
ATOM     87  C   UNL A   1      39.626  32.172  36.085  1.00  0.00     0.064 A 
ATOM     88  C   UNL A   1      38.563  31.759  36.902  1.00  0.00     0.173 A 
ATOM     89  C   UNL A   1      40.171  33.446  36.310  1.00  0.00     0.173 A 
ATOM     90  F   UNL A   1      37.997  30.557  36.719  1.00  0.00    -0.203 F 
ATOM     91  C   UNL A   1      38.049  32.600  37.886  1.00  0.00     0.198 A 
ATOM     92  C   UNL A   1      39.679  34.268  37.320  1.00  0.00     0.198 A 
ATOM     93  F   UNL A   1      41.194  33.886  35.563  1.00  0.00    -0.203 F 
ATOM     94  F   UNL A   1      36.999  32.206  38.619  1.00  0.00    -0.200 F 
ATOM     95  C   UNL A   1      38.614  33.849  38.100  1.00  0.00     0.200 A 
ATOM     96  F   UNL A   1      40.238  35.467  37.535  1.00  0.00    -0.200 F 
ATOM     97  F   UNL A   1      38.123  34.653  39.054  1.00  0.00    -0.200 F 
ENDBRANCH  64  87
ENDBRANCH  38  39
ENDBRANCH  31  33
ENDBRANCH  30  31
ENDBRANCH  29  30
ENDBRANCH  28  29
ENDBRANCH  27  28
ENDBRANCH  26  27
ENDBRANCH  25  26
ENDBRANCH   1  25
TORSDOF 22
ENDMDL
MODEL 3
REMARK VINA RESULT:     -10.3      4.881      8.064
REMARK SMILES C[C@H](C(=O)OCCOCCOCCOCCOC(=O)c1ccc(-c2c3nc(c(-c4c(F)c(F)c(F)c(F)c4F)c4ccc([nH]4)c(-c4c(F)c(F)c(F)c(F)c4F)c4nc(c(-c5c(F)c(F)c(F)c(F)c5F)c5ccc2[nH]5)C=C4)C=C3)cc1)c1ccc(-c2ccccc2)c(F)c1
REMARK SMILES IDX 11 1 10 2 9 3 8 4 7 5 6 6 5 7 3 8 4 9 2 10 1 11 83 12 84 13
REMARK SMILES IDX 95 14 85 15 93 16 86 17 94 18 87 19 88 20 92 21 89 22 91 23
REMARK SMILES IDX 90 24 12 25 13 26 14 27 15 28 16 29 17 30 18 31 19 32 20 33
REMARK SMILES IDX 21 34 82 35 22 36 81 37 23 38 24 39 25 40 75 41 26 42 80 43
REMARK SMILES IDX 74 44 76 45 27 46 79 47 73 48 72 49 28 51 60 52 40 53 59 54
REMARK SMILES IDX 41 55 44 56 58 57 77 58 42 59 43 60 57 62 78 63 45 64 29 65
REMARK SMILES IDX 30 66 38 67 31 68 32 69 36 70 39 71 33 72 34 73 37 74 35 75
REMARK SMILES IDX 61 76 62 77 70 78 63 79 64 80 68 81 71 82 65 83 66 84 69 85
REMARK SMILES IDX 67 86 46 87 47 88 55 89 48 90 49 91 53 92 56 93 50 94 51 95
REMARK SMILES IDX 54 96 52 97
REMARK H PARENT 76 50 44 61
REMARK Flexibility Score: inf
ROOT
ATOM      1  O   UNL A   1      43.330  23.479  26.226  1.00  0.00    -0.377 OA
ENDROOT
BRANCH   1   2
ATOM      2  C   UNL A   1      44.083  22.766  25.256  1.00  0.00     0.188 C 
BRANCH   2   3
ATOM      3  C   UNL A   1      45.380  22.182  25.821  1.00  0.00     0.188 C 
BRANCH   3   4
ATOM      4  O   UNL A   1      46.600  22.711  25.313  1.00  0.00    -0.376 OA
BRANCH   4   5
ATOM      5  C   UNL A   1      46.750  24.124  25.206  1.00  0.00     0.202 C 
BRANCH   5   6
ATOM      6  C   UNL A   1      46.833  24.948  26.502  1.00  0.00     0.261 C 
BRANCH   6   7
ATOM      7  O   UNL A   1      45.640  25.716  26.761  1.00  0.00    -0.463 OA
BRANCH   7   8
ATOM      8  C   UNL A   1      45.268  26.594  25.794  1.00  0.00     0.313 C 
ATOM      9  O   UNL A   1      44.180  26.547  25.224  1.00  0.00    -0.252 OA
BRANCH   8  10
ATOM     10  C   UNL A   1      46.276  27.734  25.564  1.00  0.00     0.126 C 
ATOM     11  C   UNL A   1      46.619  28.091  24.115  1.00  0.00     0.025 C 
BRANCH  10  12
ATOM     12  C   UNL A   1      45.831  29.030  26.228  1.00  0.00    -0.031 A 
ATOM     13  C   UNL A   1      44.574  29.104  26.842  1.00  0.00     0.005 A 
ATOM     14  C   UNL A   1      46.602  30.197  26.116  1.00  0.00     0.044 A 
ATOM     15  C   UNL A   1      44.093  30.311  27.324  1.00  0.00     0.012 A 
ATOM     16  C   UNL A   1      46.097  31.411  26.580  1.00  0.00     0.131 A 
ATOM     17  C   UNL A   1      44.837  31.490  27.184  1.00  0.00     0.017 A 
ATOM     18  F   UNL A   1      46.838  32.517  26.406  1.00  0.00    -0.206 F 
BRANCH  17  19
ATOM     19  C   UNL A   1      44.223  32.742  27.619  1.00  0.00    -0.015 A 
ATOM     20  C   UNL A   1      43.630  32.831  28.889  1.00  0.00     0.009 A 
ATOM     21  C   UNL A   1      44.078  33.817  26.730  1.00  0.00     0.009 A 
ATOM     22  C   UNL A   1      42.880  33.947  29.248  1.00  0.00     0.001 A 
ATOM     23  C   UNL A   1      43.323  34.934  27.089  1.00  0.00     0.001 A 
ATOM     24  C   UNL A   1      42.717  34.993  28.343  1.00  0.00     0.000 A 
ENDBRANCH  17  19
ENDBRANCH  10  12
ENDBRANCH   8  10
ENDBRANCH   7   8
ENDBRANCH   6   7
ENDBRANCH   5   6
ENDBRANCH   4   5
ENDBRANCH   3   4
ENDBRANCH   2   3
ENDBRANCH   1   2
BRANCH   1  25
ATOM     25  C   UNL A   1      43.583  23.288  27.618  1.00  0.00     0.188 C 
BRANCH  25  26
ATOM     26  C   UNL A   1      42.736  22.244  28.334  1.00  0.00     0.188 C 
BRANCH  26  27
ATOM     27  O   UNL A   1      42.892  20.898  27.884  1.00  0.00    -0.376 OA
BRANCH  27  28
ATOM     28  C   UNL A   1      41.802  20.289  27.194  1.00  0.00     0.202 C 
BRANCH  28  29
ATOM     29  C   UNL A   1      40.493  21.078  27.215  1.00  0.00     0.261 C 
BRANCH  29  30
ATOM     30  O   UNL A   1      40.497  22.155  26.264  1.00  0.00    -0.460 OA
BRANCH  30  31
ATOM     31  C   UNL A   1      39.317  22.791  26.111  1.00  0.00     0.338 C 
ATOM     32  O   UNL A   1      38.267  22.334  25.675  1.00  0.00    -0.246 OA
BRANCH  31  33
ATOM     33  C   UNL A   1      39.412  24.134  26.699  1.00  0.00     0.060 A 
ATOM     34  C   UNL A   1      40.230  25.086  26.074  1.00  0.00     0.016 A 
ATOM     35  C   UNL A   1      38.777  24.418  27.910  1.00  0.00     0.016 A 
ATOM     36  C   UNL A   1      40.456  26.313  26.686  1.00  0.00     0.010 A 
ATOM     37  C   UNL A   1      39.018  25.641  28.531  1.00  0.00     0.010 A 
ATOM     38  C   UNL A   1      39.892  26.571  27.941  1.00  0.00    -0.014 A 
BRANCH  38  39
ATOM     39  C   UNL A   1      40.381  27.718  28.734  1.00  0.00     0.031 A 
ATOM     40  C   UNL A   1      41.785  27.667  29.261  1.00  0.00     0.074 A 
ATOM     41  C   UNL A   1      39.589  28.777  28.967  1.00  0.00     0.049 A 
ATOM     42  N   UNL A   1      42.407  28.499  30.055  1.00  0.00    -0.248 NA
ATOM     43  C   UNL A   1      42.599  26.515  28.839  1.00  0.00     0.031 C 
ATOM     44  C   UNL A   1      38.231  28.942  28.457  1.00  0.00     0.029 A 
ATOM     45  N   UNL A   1      39.816  29.906  29.707  1.00  0.00    -0.354 N 
ATOM     46  C   UNL A   1      43.677  27.966  30.235  1.00  0.00     0.074 A 
ATOM     47  C   UNL A   1      43.728  26.724  29.497  1.00  0.00     0.031 C 
ATOM     48  C   UNL A   1      37.733  30.101  28.920  1.00  0.00     0.029 A 
ATOM     49  C   UNL A   1      38.724  30.732  29.789  1.00  0.00     0.049 A 
ATOM     50  H   UNL A   1      40.678  30.106  30.139  1.00  0.00     0.167 HD
ATOM     51  C   UNL A   1      44.708  28.476  30.948  1.00  0.00     0.037 A 
ATOM     52  C   UNL A   1      38.543  31.851  30.515  1.00  0.00     0.037 A 
ATOM     53  C   UNL A   1      44.635  29.711  31.683  1.00  0.00     0.049 A 
ATOM     54  C   UNL A   1      39.679  32.358  31.366  1.00  0.00     0.074 A 
ATOM     55  C   UNL A   1      45.617  30.328  32.436  1.00  0.00     0.029 A 
ATOM     56  N   UNL A   1      43.504  30.513  31.762  1.00  0.00    -0.354 N 
ATOM     57  N   UNL A   1      40.882  31.861  31.524  1.00  0.00    -0.248 NA
ATOM     58  C   UNL A   1      39.431  33.584  32.136  1.00  0.00     0.031 C 
ATOM     59  C   UNL A   1      45.062  31.472  33.019  1.00  0.00     0.029 A 
ATOM     60  C   UNL A   1      43.756  31.607  32.574  1.00  0.00     0.049 A 
ATOM     61  H   UNL A   1      42.651  30.332  31.307  1.00  0.00     0.167 HD
ATOM     62  C   UNL A   1      41.546  32.728  32.384  1.00  0.00     0.074 A 
ATOM     63  C   UNL A   1      40.613  33.790  32.701  1.00  0.00     0.031 C 
ATOM     64  C   UNL A   1      42.811  32.655  32.868  1.00  0.00     0.037 A 
BRANCH  51  65
ATOM     65  C   UNL A   1      45.982  27.682  30.993  1.00  0.00     0.064 A 
ATOM     66  C   UNL A   1      47.042  27.928  30.106  1.00  0.00     0.173 A 
ATOM     67  C   UNL A   1      46.152  26.669  31.950  1.00  0.00     0.173 A 
ATOM     68  F   UNL A   1      46.925  28.872  29.160  1.00  0.00    -0.203 F 
ATOM     69  C   UNL A   1      48.209  27.171  30.157  1.00  0.00     0.198 A 
ATOM     70  C   UNL A   1      47.335  25.938  32.019  1.00  0.00     0.198 A 
ATOM     71  F   UNL A   1      45.172  26.391  32.823  1.00  0.00    -0.203 F 
ATOM     72  F   UNL A   1      49.185  27.387  29.263  1.00  0.00    -0.200 F 
ATOM     73  C   UNL A   1      48.358  26.183  31.118  1.00  0.00     0.200 A 
ATOM     74  F   UNL A   1      47.482  24.991  32.958  1.00  0.00    -0.200 F 
ATOM     75  F   UNL A   1      49.486  25.459  31.169  1.00  0.00    -0.200 F 
ENDBRANCH  51  65
BRANCH  52  76
ATOM     76  C   UNL A   1      37.233  32.553  30.482  1.00  0.00     0.064 A 
ATOM     77  C   UNL A   1      36.271  32.340  31.477  1.00  0.00     0.173 A 
ATOM     78  C   UNL A   1      36.914  33.449  29.449  1.00  0.00     0.173 A 
ATOM     79  F   UNL A   1      36.520  31.479  32.475  1.00  0.00    -0.203 F 
ATOM     80  C   UNL A   1      35.032  32.977  31.431  1.00  0.00     0.198 A 
ATOM     81  C   UNL A   1      35.688  34.110  29.421  1.00  0.00     0.198 A 
ATOM     82  F   UNL A   1      37.800  33.692  28.473  1.00  0.00    -0.203 F 
ATOM     83  F   UNL A   1      34.112  32.717  32.369  1.00  0.00    -0.200 F 
ATOM     84  C   UNL A   1      34.745  33.867  30.407  1.00  0.00     0.200 A 
ATOM     85  F   UNL A   1      35.422  34.981  28.438  1.00  0.00    -0.200 F 
ATOM     86  F   UNL A   1      33.555  34.483  30.366  1.00  0.00    -0.200 F 
ENDBRANCH  52  76
BRANCH  64  87
ATOM     87  C   UNL A   1      43.276  33.776  33.753  1.00  0.00     0.064 A 
ATOM     88  C   UNL A   1      43.923  34.909  33.237  1.00  0.00     0.173 A 
ATOM     89  C   UNL A   1      43.030  33.733  35.135  1.00  0.00     0.173 A 
ATOM     90  F   UNL A   1      44.193  34.994  31.925  1.00  0.00    -0.203 F 
ATOM     91  C   UNL A   1      44.333  35.942  34.074  1.00  0.00     0.198 A 
ATOM     92  C   UNL A   1      43.409  34.786  35.964  1.00  0.00     0.198 A 
ATOM     93  F   UNL A   1      42.407  32.678  35.679  1.00  0.00    -0.203 F 
ATOM     94  F   UNL A   1      44.998  36.989  33.567  1.00  0.00    -0.200 F 
ATOM     95  C   UNL A   1      44.068  35.884  35.435  1.00  0.00     0.200 A 
ATOM     96  F   UNL A   1      43.135  34.734  37.275  1.00  0.00    -0.200 F 
ATOM     97  F   UNL A   1      44.456  36.884  36.239  1.00  0.00    -0.200 F 
ENDBRANCH  64  87
ENDBRANCH  38  39
ENDBRANCH  31  33
ENDBRANCH  30  31
ENDBRANCH  29  30
ENDBRANCH  28  29
ENDBRANCH  27  28
ENDBRANCH  26  27
ENDBRANCH  25  26
ENDBRANCH   1  25
TORSDOF 22
ENDMDL
