MODEL 1
REMARK VINA RESULT:      -9.7      0.000      0.000
REMARK SMILES CC/C(=C/C(=O)[C@H](Cc1ccc(Cl)cc1Cl)C(=O)OCCOCCOCCOCCOC(=O)c1ccc(-c2c3nc(c(-c4c(F)c(F)c(F)c(F)c4F)c4ccc([nH]4)c(-c4c(F)c(F)c(F)c(F)c4F)c4nc(c(-c5c(F)c(F)c(F)c(F)c5F)c5ccc2[nH]5)C=C4)C=C3)cc1)N(C)C
REMARK SMILES IDX 24 1 23 2 22 3 21 4 20 5 19 6 17 7 18 8 7 9 5 10 6 11 4 12
REMARK SMILES IDX 3 13 2 14 1 15 97 16 98 17 99 18 8 19 9 20 10 21 15 22 11 23
REMARK SMILES IDX 14 24 16 25 12 26 13 27 25 28 26 29 27 30 28 31 29 32 30 33
REMARK SMILES IDX 31 34 32 35 33 36 34 37 35 38 96 39 36 40 95 41 37 42 38 43
REMARK SMILES IDX 39 44 89 45 40 46 94 47 88 48 90 49 41 50 93 51 87 52 86 53
REMARK SMILES IDX 42 55 74 56 54 57 73 58 55 59 58 60 72 61 91 62 56 63 57 64
REMARK SMILES IDX 71 66 92 67 59 68 43 69 44 70 52 71 45 72 46 73 50 74 53 75
REMARK SMILES IDX 47 76 48 77 51 78 49 79 75 80 76 81 84 82 77 83 78 84 82 85
REMARK SMILES IDX 85 86 79 87 80 88 83 89 81 90 60 91 61 92 69 93 62 94 63 95
REMARK SMILES IDX 67 96 70 97 64 98 65 99 68 100 66 101
REMARK H PARENT 90 54 58 65
REMARK Flexibility Score: inf
ROOT
ATOM      1  C   UNL A   1      40.705  23.946  26.961  1.00  0.00     0.188 C 
ENDROOT
BRANCH   1   2
ATOM      2  C   UNL A   1      39.254  24.253  27.280  1.00  0.00     0.188 C 
BRANCH   2   3
ATOM      3  O   UNL A   1      38.310  23.335  26.759  1.00  0.00    -0.376 OA
BRANCH   3   4
ATOM      4  C   UNL A   1      37.593  23.701  25.589  1.00  0.00     0.202 C 
BRANCH   4   5
ATOM      5  C   UNL A   1      36.052  23.667  25.589  1.00  0.00     0.261 C 
BRANCH   5   6
ATOM      6  O   UNL A   1      35.402  24.366  24.488  1.00  0.00    -0.463 OA
BRANCH   6   7
ATOM      7  C   UNL A   1      35.056  23.756  23.310  1.00  0.00     0.317 C 
ATOM      8  O   UNL A   1      35.829  23.014  22.716  1.00  0.00    -0.251 OA
BRANCH   7   9
ATOM      9  C   UNL A   1      33.588  24.023  22.858  1.00  0.00     0.175 C 
BRANCH   9  10
ATOM     10  C   UNL A   1      33.063  25.437  22.435  1.00  0.00     0.171 C 
ATOM     11  O   UNL A   1      33.649  26.066  21.546  1.00  0.00    -0.294 OA
BRANCH  10  12
ATOM     12  C   UNL A   1      31.678  26.127  23.025  1.00  0.00     0.069 C 
ATOM     13  C   UNL A   1      31.216  27.188  23.978  1.00  0.00     0.016 C 
BRANCH  13  14
ATOM     14  C   UNL A   1      29.505  27.049  23.634  1.00  0.00     0.050 C 
ATOM     15  C   UNL A   1      28.711  28.269  23.138  1.00  0.00     0.010 C 
ENDBRANCH  13  14
BRANCH  13  16
ATOM     16  N   UNL A   1      32.196  28.442  25.190  1.00  0.00    -0.381 N 
ATOM     17  C   UNL A   1      33.826  28.778  25.641  1.00  0.00     0.143 C 
ATOM     18  C   UNL A   1      31.783  29.875  26.009  1.00  0.00     0.143 C 
ENDBRANCH  13  16
ENDBRANCH  10  12
ENDBRANCH   9  10
BRANCH   9  19
ATOM     19  C   UNL A   1      32.582  23.498  23.819  1.00  0.00     0.060 C 
BRANCH  19  20
ATOM     20  C   UNL A   1      32.832  22.028  23.852  1.00  0.00    -0.028 A 
ATOM     21  C   UNL A   1      32.166  21.112  22.408  1.00  0.00     0.007 A 
ATOM     22  C   UNL A   1      33.504  21.047  25.330  1.00  0.00     0.045 A 
ATOM     23  C   UNL A   1      32.165  19.296  22.436  1.00  0.00     0.021 A 
ATOM     24  C   UNL A   1      33.517  19.244  25.295  1.00  0.00     0.041 A 
ATOM     25  Cl  UNL A   1      33.608  21.479  27.048  1.00  0.00    -0.084 Cl
ATOM     26  C   UNL A   1      32.870  18.384  23.870  1.00  0.00     0.042 A 
ATOM     27  Cl  UNL A   1      33.042  16.653  23.839  1.00  0.00    -0.084 Cl
ENDBRANCH  19  20
ENDBRANCH   9  19
ENDBRANCH   7   9
ENDBRANCH   6   7
ENDBRANCH   5   6
ENDBRANCH   4   5
ENDBRANCH   3   4
ENDBRANCH   2   3
ENDBRANCH   1   2
BRANCH   1  28
ATOM     28  O   UNL A   1      41.623  24.907  27.464  1.00  0.00    -0.377 OA
BRANCH  28  29
ATOM     29  C   UNL A   1      42.111  25.898  26.573  1.00  0.00     0.188 C 
BRANCH  29  30
ATOM     30  C   UNL A   1      42.669  25.453  25.227  1.00  0.00     0.188 C 
BRANCH  30  31
ATOM     31  O   UNL A   1      43.982  24.931  25.096  1.00  0.00    -0.376 OA
BRANCH  31  32
ATOM     32  C   UNL A   1      44.238  23.540  25.113  1.00  0.00     0.202 C 
BRANCH  32  33
ATOM     33  C   UNL A   1      45.478  23.035  25.857  1.00  0.00     0.261 C 
BRANCH  33  34
ATOM     34  O   UNL A   1      45.431  23.115  27.283  1.00  0.00    -0.460 OA
BRANCH  34  35
ATOM     35  C   UNL A   1      46.147  24.137  27.804  1.00  0.00     0.338 C 
ATOM     36  O   UNL A   1      47.340  24.353  27.708  1.00  0.00    -0.246 OA
BRANCH  35  37
ATOM     37  C   UNL A   1      45.231  25.017  28.537  1.00  0.00     0.060 A 
ATOM     38  C   UNL A   1      45.327  26.404  28.378  1.00  0.00     0.016 A 
ATOM     39  C   UNL A   1      44.366  24.456  29.478  1.00  0.00     0.016 A 
ATOM     40  C   UNL A   1      44.586  27.243  29.205  1.00  0.00     0.010 A 
ATOM     41  C   UNL A   1      43.627  25.296  30.304  1.00  0.00     0.010 A 
ATOM     42  C   UNL A   1      43.768  26.691  30.201  1.00  0.00    -0.014 A 
BRANCH  42  43
ATOM     43  C   UNL A   1      43.173  27.559  31.239  1.00  0.00     0.031 A 
ATOM     44  C   UNL A   1      41.908  28.305  30.922  1.00  0.00     0.074 A 
ATOM     45  C   UNL A   1      43.765  27.686  32.437  1.00  0.00     0.049 A 
ATOM     46  N   UNL A   1      41.275  29.205  31.628  1.00  0.00    -0.248 NA
ATOM     47  C   UNL A   1      41.276  28.000  29.627  1.00  0.00     0.031 C 
ATOM     48  C   UNL A   1      44.970  26.976  32.860  1.00  0.00     0.029 A 
ATOM     49  N   UNL A   1      43.440  28.475  33.508  1.00  0.00    -0.354 N 
ATOM     50  C   UNL A   1      40.182  29.586  30.860  1.00  0.00     0.074 A 
ATOM     51  C   UNL A   1      40.258  28.847  29.619  1.00  0.00     0.031 C 
ATOM     52  C   UNL A   1      45.295  27.375  34.099  1.00  0.00     0.029 A 
ATOM     53  C   UNL A   1      44.350  28.402  34.532  1.00  0.00     0.049 A 
ATOM     54  H   UNL A   1      42.633  29.039  33.540  1.00  0.00     0.167 HD
ATOM     55  C   UNL A   1      39.205  30.471  31.170  1.00  0.00     0.037 A 
ATOM     56  C   UNL A   1      44.428  29.116  35.671  1.00  0.00     0.037 A 
ATOM     57  C   UNL A   1      39.152  31.203  32.409  1.00  0.00     0.049 A 
ATOM     58  C   UNL A   1      43.379  30.161  35.952  1.00  0.00     0.074 A 
ATOM     59  C   UNL A   1      38.197  32.110  32.834  1.00  0.00     0.029 A 
ATOM     60  N   UNL A   1      40.105  31.124  33.415  1.00  0.00    -0.354 N 
ATOM     61  N   UNL A   1      42.332  30.501  35.237  1.00  0.00    -0.248 NA
ATOM     62  C   UNL A   1      43.520  30.920  37.202  1.00  0.00     0.031 C 
ATOM     63  C   UNL A   1      38.614  32.637  34.059  1.00  0.00     0.029 A 
ATOM     64  C   UNL A   1      39.780  31.995  34.442  1.00  0.00     0.049 A 
ATOM     65  H   UNL A   1      40.894  30.536  33.400  1.00  0.00     0.167 HD
ATOM     66  C   UNL A   1      41.673  31.484  35.966  1.00  0.00     0.074 A 
ATOM     67  C   UNL A   1      42.430  31.674  37.185  1.00  0.00     0.031 C 
ATOM     68  C   UNL A   1      40.542  32.166  35.656  1.00  0.00     0.037 A 
BRANCH  55  69
ATOM     69  C   UNL A   1      38.138  30.724  30.142  1.00  0.00     0.064 A 
ATOM     70  C   UNL A   1      37.128  29.788  29.872  1.00  0.00     0.173 A 
ATOM     71  C   UNL A   1      38.108  31.937  29.438  1.00  0.00     0.173 A 
ATOM     72  F   UNL A   1      37.112  28.607  30.508  1.00  0.00    -0.203 F 
ATOM     73  C   UNL A   1      36.150  30.044  28.913  1.00  0.00     0.198 A 
ATOM     74  C   UNL A   1      37.107  32.206  28.508  1.00  0.00     0.198 A 
ATOM     75  F   UNL A   1      39.045  32.871  29.657  1.00  0.00    -0.203 F 
ATOM     76  F   UNL A   1      35.231  29.110  28.631  1.00  0.00    -0.200 F 
ATOM     77  C   UNL A   1      36.136  31.255  28.238  1.00  0.00     0.200 A 
ATOM     78  F   UNL A   1      37.084  33.384  27.872  1.00  0.00    -0.200 F 
ATOM     79  F   UNL A   1      35.189  31.502  27.323  1.00  0.00    -0.200 F 
ENDBRANCH  55  69
BRANCH  56  80
ATOM     80  C   UNL A   1      45.546  28.881  36.621  1.00  0.00     0.064 A 
ATOM     81  C   UNL A   1      45.422  27.954  37.666  1.00  0.00     0.173 A 
ATOM     82  C   UNL A   1      46.754  29.588  36.518  1.00  0.00     0.173 A 
ATOM     83  F   UNL A   1      44.280  27.268  37.819  1.00  0.00    -0.203 F 
ATOM     84  C   UNL A   1      46.450  27.766  38.588  1.00  0.00     0.198 A 
ATOM     85  C   UNL A   1      47.796  29.370  37.417  1.00  0.00     0.198 A 
ATOM     86  F   UNL A   1      46.926  30.486  35.538  1.00  0.00    -0.203 F 
ATOM     87  F   UNL A   1      46.279  26.919  39.611  1.00  0.00    -0.200 F 
ATOM     88  C   UNL A   1      47.638  28.468  38.458  1.00  0.00     0.200 A 
ATOM     89  F   UNL A   1      48.949  30.037  37.278  1.00  0.00    -0.200 F 
ATOM     90  F   UNL A   1      48.627  28.284  39.343  1.00  0.00    -0.200 F 
ENDBRANCH  56  80
BRANCH  68  91
ATOM     91  C   UNL A   1      40.019  33.144  36.671  1.00  0.00     0.064 A 
ATOM     92  C   UNL A   1      38.999  32.806  37.574  1.00  0.00     0.173 A 
ATOM     93  C   UNL A   1      40.583  34.426  36.772  1.00  0.00     0.173 A 
ATOM     94  F   UNL A   1      38.416  31.599  37.515  1.00  0.00    -0.203 F 
ATOM     95  C   UNL A   1      38.543  33.725  38.516  1.00  0.00     0.198 A 
ATOM     96  C   UNL A   1      40.154  35.326  37.744  1.00  0.00     0.198 A 
ATOM     97  F   UNL A   1      41.568  34.800  35.941  1.00  0.00    -0.203 F 
ATOM     98  F   UNL A   1      37.528  33.400  39.329  1.00  0.00    -0.200 F 
ATOM     99  C   UNL A   1      39.128  34.979  38.606  1.00  0.00     0.200 A 
ATOM    100  F   UNL A   1      40.738  36.528  37.843  1.00  0.00    -0.200 F 
ATOM    101  F   UNL A   1      38.697  35.856  39.524  1.00  0.00    -0.200 F 
ENDBRANCH  68  91
ENDBRANCH  42  43
ENDBRANCH  35  37
ENDBRANCH  34  35
ENDBRANCH  33  34
ENDBRANCH  32  33
ENDBRANCH  31  32
ENDBRANCH  30  31
ENDBRANCH  29  30
ENDBRANCH  28  29
ENDBRANCH   1  28
TORSDOF 26
ENDMDL
MODEL 2
REMARK VINA RESULT:      -9.5      5.168      6.754
REMARK SMILES CC/C(=C/C(=O)[C@H](Cc1ccc(Cl)cc1Cl)C(=O)OCCOCCOCCOCCOC(=O)c1ccc(-c2c3nc(c(-c4c(F)c(F)c(F)c(F)c4F)c4ccc([nH]4)c(-c4c(F)c(F)c(F)c(F)c4F)c4nc(c(-c5c(F)c(F)c(F)c(F)c5F)c5ccc2[nH]5)C=C4)C=C3)cc1)N(C)C
REMARK SMILES IDX 24 1 23 2 22 3 21 4 20 5 19 6 17 7 18 8 7 9 5 10 6 11 4 12
REMARK SMILES IDX 3 13 2 14 1 15 97 16 98 17 99 18 8 19 9 20 10 21 15 22 11 23
REMARK SMILES IDX 14 24 16 25 12 26 13 27 25 28 26 29 27 30 28 31 29 32 30 33
REMARK SMILES IDX 31 34 32 35 33 36 34 37 35 38 96 39 36 40 95 41 37 42 38 43
REMARK SMILES IDX 39 44 89 45 40 46 94 47 88 48 90 49 41 50 93 51 87 52 86 53
REMARK SMILES IDX 42 55 74 56 54 57 73 58 55 59 58 60 72 61 91 62 56 63 57 64
REMARK SMILES IDX 71 66 92 67 59 68 43 69 44 70 52 71 45 72 46 73 50 74 53 75
REMARK SMILES IDX 47 76 48 77 51 78 49 79 75 80 76 81 84 82 77 83 78 84 82 85
REMARK SMILES IDX 85 86 79 87 80 88 83 89 81 90 60 91 61 92 69 93 62 94 63 95
REMARK SMILES IDX 67 96 70 97 64 98 65 99 68 100 66 101
REMARK H PARENT 90 54 58 65
REMARK Flexibility Score: inf
ROOT
ATOM      1  C   UNL A   1      39.072  22.599  26.384  1.00  0.00     0.188 C 
ENDROOT
BRANCH   1   2
ATOM      2  C   UNL A   1      38.421  21.575  25.473  1.00  0.00     0.188 C 
BRANCH   2   3
ATOM      3  O   UNL A   1      37.031  21.385  25.666  1.00  0.00    -0.376 OA
BRANCH   3   4
ATOM      4  C   UNL A   1      36.141  21.906  24.690  1.00  0.00     0.202 C 
BRANCH   4   5
ATOM      5  C   UNL A   1      36.693  22.698  23.490  1.00  0.00     0.261 C 
BRANCH   5   6
ATOM      6  O   UNL A   1      35.742  23.570  22.813  1.00  0.00    -0.463 OA
BRANCH   6   7
ATOM      7  C   UNL A   1      34.604  24.048  23.410  1.00  0.00     0.317 C 
ATOM      8  O   UNL A   1      34.629  24.579  24.514  1.00  0.00    -0.251 OA
BRANCH   7   9
ATOM      9  C   UNL A   1      33.322  23.933  22.530  1.00  0.00     0.175 C 
BRANCH   9  10
ATOM     10  C   UNL A   1      32.783  25.105  21.641  1.00  0.00     0.171 C 
ATOM     11  O   UNL A   1      33.133  25.187  20.458  1.00  0.00    -0.294 OA
BRANCH  10  12
ATOM     12  C   UNL A   1      31.659  26.210  22.147  1.00  0.00     0.069 C 
ATOM     13  C   UNL A   1      31.142  26.863  23.395  1.00  0.00     0.016 C 
BRANCH  13  14
ATOM     14  C   UNL A   1      30.020  27.954  22.610  1.00  0.00     0.050 C 
ATOM     15  C   UNL A   1      29.671  29.307  23.255  1.00  0.00     0.010 C 
ENDBRANCH  13  14
BRANCH  13  16
ATOM     16  N   UNL A   1      31.616  26.661  25.327  1.00  0.00    -0.381 N 
ATOM     17  C   UNL A   1      31.704  27.651  26.736  1.00  0.00     0.143 C 
ATOM     18  C   UNL A   1      31.815  25.334  26.373  1.00  0.00     0.143 C 
ENDBRANCH  13  16
ENDBRANCH  10  12
ENDBRANCH   9  10
BRANCH   9  19
ATOM     19  C   UNL A   1      32.143  23.433  23.286  1.00  0.00     0.060 C 
BRANCH  19  20
ATOM     20  C   UNL A   1      32.461  22.003  23.567  1.00  0.00    -0.028 A 
ATOM     21  C   UNL A   1      32.027  20.848  22.209  1.00  0.00     0.007 A 
ATOM     22  C   UNL A   1      32.993  21.291  25.243  1.00  0.00     0.045 A 
ATOM     23  C   UNL A   1      32.114  19.059  22.508  1.00  0.00     0.021 A 
ATOM     24  C   UNL A   1      33.101  19.506  25.479  1.00  0.00     0.041 A 
ATOM     25  Cl  UNL A   1      32.860  21.969  26.877  1.00  0.00    -0.084 Cl
ATOM     26  C   UNL A   1      32.681  18.410  24.134  1.00  0.00     0.042 A 
ATOM     27  Cl  UNL A   1      32.942  16.708  24.382  1.00  0.00    -0.084 Cl
ENDBRANCH  19  20
ENDBRANCH   9  19
ENDBRANCH   7   9
ENDBRANCH   6   7
ENDBRANCH   5   6
ENDBRANCH   4   5
ENDBRANCH   3   4
ENDBRANCH   2   3
ENDBRANCH   1   2
BRANCH   1  28
ATOM     28  O   UNL A   1      40.113  22.072  27.194  1.00  0.00    -0.377 OA
BRANCH  28  29
ATOM     29  C   UNL A   1      40.741  20.869  26.780  1.00  0.00     0.188 C 
BRANCH  29  30
ATOM     30  C   UNL A   1      42.050  20.961  26.006  1.00  0.00     0.188 C 
BRANCH  30  31
ATOM     31  O   UNL A   1      42.868  22.119  26.055  1.00  0.00    -0.376 OA
BRANCH  31  32
ATOM     32  C   UNL A   1      43.113  22.910  24.907  1.00  0.00     0.202 C 
BRANCH  32  33
ATOM     33  C   UNL A   1      44.401  22.666  24.115  1.00  0.00     0.261 C 
BRANCH  33  34
ATOM     34  O   UNL A   1      45.453  23.611  24.322  1.00  0.00    -0.460 OA
BRANCH  34  35
ATOM     35  C   UNL A   1      45.965  23.605  25.573  1.00  0.00     0.338 C 
ATOM     36  O   UNL A   1      46.259  22.650  26.266  1.00  0.00    -0.246 OA
BRANCH  35  37
ATOM     37  C   UNL A   1      46.141  24.994  26.009  1.00  0.00     0.060 A 
ATOM     38  C   UNL A   1      46.670  25.261  27.277  1.00  0.00     0.016 A 
ATOM     39  C   UNL A   1      45.659  26.022  25.196  1.00  0.00     0.016 A 
ATOM     40  C   UNL A   1      46.669  26.566  27.760  1.00  0.00     0.010 A 
ATOM     41  C   UNL A   1      45.658  27.325  25.681  1.00  0.00     0.010 A 
ATOM     42  C   UNL A   1      46.122  27.595  26.981  1.00  0.00    -0.014 A 
BRANCH  42  43
ATOM     43  C   UNL A   1      45.889  28.930  27.572  1.00  0.00     0.031 A 
ATOM     44  C   UNL A   1      44.571  29.208  28.238  1.00  0.00     0.074 A 
ATOM     45  C   UNL A   1      46.837  29.877  27.499  1.00  0.00     0.049 A 
ATOM     46  N   UNL A   1      44.103  30.331  28.717  1.00  0.00    -0.248 NA
ATOM     47  C   UNL A   1      43.651  28.066  28.371  1.00  0.00     0.031 C 
ATOM     48  C   UNL A   1      48.163  29.697  26.913  1.00  0.00     0.029 A 
ATOM     49  N   UNL A   1      46.817  31.185  27.904  1.00  0.00    -0.354 N 
ATOM     50  C   UNL A   1      42.833  30.037  29.194  1.00  0.00     0.074 A 
ATOM     51  C   UNL A   1      42.588  28.639  28.913  1.00  0.00     0.031 C 
ATOM     52  C   UNL A   1      48.828  30.861  26.980  1.00  0.00     0.029 A 
ATOM     53  C   UNL A   1      47.955  31.875  27.568  1.00  0.00     0.049 A 
ATOM     54  H   UNL A   1      46.062  31.591  28.389  1.00  0.00     0.167 HD
ATOM     55  C   UNL A   1      41.956  30.863  29.813  1.00  0.00     0.037 A 
ATOM     56  C   UNL A   1      48.237  33.186  27.689  1.00  0.00     0.037 A 
ATOM     57  C   UNL A   1      42.216  32.254  30.076  1.00  0.00     0.049 A 
ATOM     58  C   UNL A   1      47.208  34.102  28.298  1.00  0.00     0.074 A 
ATOM     59  C   UNL A   1      41.405  33.177  30.714  1.00  0.00     0.029 A 
ATOM     60  N   UNL A   1      43.370  32.928  29.699  1.00  0.00    -0.354 N 
ATOM     61  N   UNL A   1      46.018  33.817  28.772  1.00  0.00    -0.248 NA
ATOM     62  C   UNL A   1      47.563  35.525  28.392  1.00  0.00     0.031 C 
ATOM     63  C   UNL A   1      42.034  34.423  30.652  1.00  0.00     0.029 A 
ATOM     64  C   UNL A   1      43.275  34.263  30.057  1.00  0.00     0.049 A 
ATOM     65  H   UNL A   1      44.140  32.517  29.246  1.00  0.00     0.167 HD
ATOM     66  C   UNL A   1      45.500  35.015  29.252  1.00  0.00     0.074 A 
ATOM     67  C   UNL A   1      46.512  36.025  29.025  1.00  0.00     0.031 C 
ATOM     68  C   UNL A   1      44.297  35.255  29.831  1.00  0.00     0.037 A 
BRANCH  55  69
ATOM     69  C   UNL A   1      40.623  30.295  30.213  1.00  0.00     0.064 A 
ATOM     70  C   UNL A   1      39.624  30.005  29.271  1.00  0.00     0.173 A 
ATOM     71  C   UNL A   1      40.353  30.006  31.559  1.00  0.00     0.173 A 
ATOM     72  F   UNL A   1      39.824  30.269  27.970  1.00  0.00    -0.203 F 
ATOM     73  C   UNL A   1      38.395  29.481  29.665  1.00  0.00     0.198 A 
ATOM     74  C   UNL A   1      39.138  29.446  31.946  1.00  0.00     0.198 A 
ATOM     75  F   UNL A   1      41.271  30.258  32.504  1.00  0.00    -0.203 F 
ATOM     76  F   UNL A   1      37.436  29.269  28.753  1.00  0.00    -0.200 F 
ATOM     77  C   UNL A   1      38.156  29.195  31.000  1.00  0.00     0.200 A 
ATOM     78  F   UNL A   1      38.917  29.152  33.234  1.00  0.00    -0.200 F 
ATOM     79  F   UNL A   1      36.977  28.682  31.377  1.00  0.00    -0.200 F 
ENDBRANCH  55  69
BRANCH  56  80
ATOM     80  C   UNL A   1      49.541  33.712  27.209  1.00  0.00     0.064 A 
ATOM     81  C   UNL A   1      49.664  34.282  25.934  1.00  0.00     0.173 A 
ATOM     82  C   UNL A   1      50.696  33.642  28.004  1.00  0.00     0.173 A 
ATOM     83  F   UNL A   1      48.595  34.353  25.127  1.00  0.00    -0.203 F 
ATOM     84  C   UNL A   1      50.896  34.732  25.461  1.00  0.00     0.198 A 
ATOM     85  C   UNL A   1      51.918  34.129  27.547  1.00  0.00     0.198 A 
ATOM     86  F   UNL A   1      50.635  33.108  29.232  1.00  0.00    -0.203 F 
ATOM     87  F   UNL A   1      50.995  35.214  24.216  1.00  0.00    -0.200 F 
ATOM     88  C   UNL A   1      52.019  34.662  26.270  1.00  0.00     0.200 A 
ATOM     89  F   UNL A   1      52.998  34.076  28.337  1.00  0.00    -0.200 F 
ATOM     90  F   UNL A   1      53.202  35.098  25.816  1.00  0.00    -0.200 F 
ENDBRANCH  56  80
BRANCH  68  91
ATOM     91  C   UNL A   1      44.024  36.654  30.312  1.00  0.00     0.064 A 
ATOM     92  C   UNL A   1      44.277  37.050  31.633  1.00  0.00     0.173 A 
ATOM     93  C   UNL A   1      43.546  37.626  29.418  1.00  0.00     0.173 A 
ATOM     94  F   UNL A   1      44.724  36.160  32.532  1.00  0.00    -0.203 F 
ATOM     95  C   UNL A   1      44.031  38.357  32.049  1.00  0.00     0.198 A 
ATOM     96  C   UNL A   1      43.342  38.941  29.827  1.00  0.00     0.198 A 
ATOM     97  F   UNL A   1      43.295  37.307  28.139  1.00  0.00    -0.203 F 
ATOM     98  F   UNL A   1      44.225  38.696  33.332  1.00  0.00    -0.200 F 
ATOM     99  C   UNL A   1      43.574  39.302  31.144  1.00  0.00     0.200 A 
ATOM    100  F   UNL A   1      42.924  39.857  28.944  1.00  0.00    -0.200 F 
ATOM    101  F   UNL A   1      43.352  40.562  31.544  1.00  0.00    -0.200 F 
ENDBRANCH  68  91
ENDBRANCH  42  43
ENDBRANCH  35  37
ENDBRANCH  34  35
ENDBRANCH  33  34
ENDBRANCH  32  33
ENDBRANCH  31  32
ENDBRANCH  30  31
ENDBRANCH  29  30
ENDBRANCH  28  29
ENDBRANCH   1  28
TORSDOF 26
ENDMDL
MODEL 3
REMARK VINA RESULT:      -8.8      1.688      3.202
REMARK SMILES CC/C(=C/C(=O)[C@H](Cc1ccc(Cl)cc1Cl)C(=O)OCCOCCOCCOCCOC(=O)c1ccc(-c2c3nc(c(-c4c(F)c(F)c(F)c(F)c4F)c4ccc([nH]4)c(-c4c(F)c(F)c(F)c(F)c4F)c4nc(c(-c5c(F)c(F)c(F)c(F)c5F)c5ccc2[nH]5)C=C4)C=C3)cc1)N(C)C
REMARK SMILES IDX 24 1 23 2 22 3 21 4 20 5 19 6 17 7 18 8 7 9 5 10 6 11 4 12
REMARK SMILES IDX 3 13 2 14 1 15 97 16 98 17 99 18 8 19 9 20 10 21 15 22 11 23
REMARK SMILES IDX 14 24 16 25 12 26 13 27 25 28 26 29 27 30 28 31 29 32 30 33
REMARK SMILES IDX 31 34 32 35 33 36 34 37 35 38 96 39 36 40 95 41 37 42 38 43
REMARK SMILES IDX 39 44 89 45 40 46 94 47 88 48 90 49 41 50 93 51 87 52 86 53
REMARK SMILES IDX 42 55 74 56 54 57 73 58 55 59 58 60 72 61 91 62 56 63 57 64
REMARK SMILES IDX 71 66 92 67 59 68 43 69 44 70 52 71 45 72 46 73 50 74 53 75
REMARK SMILES IDX 47 76 48 77 51 78 49 79 75 80 76 81 84 82 77 83 78 84 82 85
REMARK SMILES IDX 85 86 79 87 80 88 83 89 81 90 60 91 61 92 69 93 62 94 63 95
REMARK SMILES IDX 67 96 70 97 64 98 65 99 68 100 66 101
REMARK H PARENT 90 54 58 65
REMARK Flexibility Score: inf
ROOT
ATOM      1  C   UNL A   1      38.413  23.852  26.448  1.00  0.00     0.188 C 
ENDROOT
BRANCH   1   2
ATOM      2  C   UNL A   1      37.174  23.658  25.593  1.00  0.00     0.188 C 
BRANCH   2   3
ATOM      3  O   UNL A   1      36.045  23.136  26.269  1.00  0.00    -0.376 OA
BRANCH   3   4
ATOM      4  C   UNL A   1      34.785  23.750  26.044  1.00  0.00     0.202 C 
BRANCH   4   5
ATOM      5  C   UNL A   1      34.658  24.891  25.016  1.00  0.00     0.261 C 
BRANCH   5   6
ATOM      6  O   UNL A   1      34.429  26.220  25.568  1.00  0.00    -0.463 OA
BRANCH   6   7
ATOM      7  C   UNL A   1      33.184  26.695  25.892  1.00  0.00     0.317 C 
ATOM      8  O   UNL A   1      32.811  26.787  27.056  1.00  0.00    -0.251 OA
BRANCH   7   9
ATOM      9  C   UNL A   1      32.344  27.177  24.670  1.00  0.00     0.175 C 
BRANCH   9  10
ATOM     10  C   UNL A   1      32.124  28.688  24.322  1.00  0.00     0.171 C 
ATOM     11  O   UNL A   1      32.836  29.548  24.852  1.00  0.00    -0.294 OA
BRANCH  10  12
ATOM     12  C   UNL A   1      31.054  29.229  23.180  1.00  0.00     0.069 C 
ATOM     13  C   UNL A   1      29.618  29.098  22.770  1.00  0.00     0.016 C 
BRANCH  13  14
ATOM     14  C   UNL A   1      29.664  30.270  21.470  1.00  0.00     0.050 C 
ATOM     15  C   UNL A   1      28.584  31.361  21.369  1.00  0.00     0.010 C 
ENDBRANCH  13  14
BRANCH  13  16
ATOM     16  N   UNL A   1      28.092  28.028  23.497  1.00  0.00    -0.381 N 
ATOM     17  C   UNL A   1      26.379  28.166  23.633  1.00  0.00     0.143 C 
ATOM     18  C   UNL A   1      27.897  26.411  23.985  1.00  0.00     0.143 C 
ENDBRANCH  13  16
ENDBRANCH  10  12
ENDBRANCH   9  10
BRANCH   9  19
ATOM     19  C   UNL A   1      30.995  26.555  24.613  1.00  0.00     0.060 C 
BRANCH  19  20
ATOM     20  C   UNL A   1      31.260  25.118  24.312  1.00  0.00    -0.028 A 
ATOM     21  C   UNL A   1      30.966  23.981  25.722  1.00  0.00     0.007 A 
ATOM     22  C   UNL A   1      32.101  24.446  22.750  1.00  0.00     0.045 A 
ATOM     23  C   UNL A   1      31.492  22.248  25.584  1.00  0.00     0.021 A 
ATOM     24  C   UNL A   1      32.570  22.708  22.646  1.00  0.00     0.041 A 
ATOM     25  Cl  UNL A   1      33.094  25.269  21.531  1.00  0.00    -0.084 Cl
ATOM     26  C   UNL A   1      32.261  21.626  24.032  1.00  0.00     0.042 A 
ATOM     27  Cl  UNL A   1      32.607  19.934  23.815  1.00  0.00    -0.084 Cl
ENDBRANCH  19  20
ENDBRANCH   9  19
ENDBRANCH   7   9
ENDBRANCH   6   7
ENDBRANCH   5   6
ENDBRANCH   4   5
ENDBRANCH   3   4
ENDBRANCH   2   3
ENDBRANCH   1   2
BRANCH   1  28
ATOM     28  O   UNL A   1      39.342  22.780  26.371  1.00  0.00    -0.377 OA
BRANCH  28  29
ATOM     29  C   UNL A   1      40.724  23.082  26.486  1.00  0.00     0.188 C 
BRANCH  29  30
ATOM     30  C   UNL A   1      41.707  21.930  26.653  1.00  0.00     0.188 C 
BRANCH  30  31
ATOM     31  O   UNL A   1      42.907  21.855  25.900  1.00  0.00    -0.376 OA
BRANCH  31  32
ATOM     32  C   UNL A   1      43.165  22.726  24.816  1.00  0.00     0.202 C 
BRANCH  32  33
ATOM     33  C   UNL A   1      44.502  23.471  24.780  1.00  0.00     0.261 C 
BRANCH  33  34
ATOM     34  O   UNL A   1      44.639  24.559  25.696  1.00  0.00    -0.460 OA
BRANCH  34  35
ATOM     35  C   UNL A   1      43.629  25.457  25.644  1.00  0.00     0.338 C 
ATOM     36  O   UNL A   1      42.975  25.806  24.680  1.00  0.00    -0.246 OA
BRANCH  35  37
ATOM     37  C   UNL A   1      43.403  25.979  26.995  1.00  0.00     0.060 A 
ATOM     38  C   UNL A   1      42.330  25.498  27.754  1.00  0.00     0.016 A 
ATOM     39  C   UNL A   1      44.191  27.038  27.449  1.00  0.00     0.016 A 
ATOM     40  C   UNL A   1      42.007  26.117  28.957  1.00  0.00     0.010 A 
ATOM     41  C   UNL A   1      43.866  27.658  28.651  1.00  0.00     0.010 A 
ATOM     42  C   UNL A   1      42.747  27.228  29.387  1.00  0.00    -0.014 A 
BRANCH  42  43
ATOM     43  C   UNL A   1      42.270  28.043  30.524  1.00  0.00     0.031 A 
ATOM     44  C   UNL A   1      41.035  28.879  30.349  1.00  0.00     0.074 A 
ATOM     45  C   UNL A   1      42.942  28.041  31.686  1.00  0.00     0.049 A 
ATOM     46  N   UNL A   1      40.502  29.755  31.162  1.00  0.00    -0.248 NA
ATOM     47  C   UNL A   1      40.307  28.714  29.080  1.00  0.00     0.031 C 
ATOM     48  C   UNL A   1      44.126  27.235  31.974  1.00  0.00     0.029 A 
ATOM     49  N   UNL A   1      42.732  28.761  32.833  1.00  0.00    -0.354 N 
ATOM     50  C   UNL A   1      39.389  30.255  30.499  1.00  0.00     0.074 A 
ATOM     51  C   UNL A   1      39.343  29.613  29.204  1.00  0.00     0.031 C 
ATOM     52  C   UNL A   1      44.551  27.516  33.215  1.00  0.00     0.029 A 
ATOM     53  C   UNL A   1      43.698  28.557  33.786  1.00  0.00     0.049 A 
ATOM     54  H   UNL A   1      41.964  29.363  32.962  1.00  0.00     0.167 HD
ATOM     55  C   UNL A   1      38.488  31.165  30.939  1.00  0.00     0.037 A 
ATOM     56  C   UNL A   1      43.889  29.173  34.968  1.00  0.00     0.037 A 
ATOM     57  C   UNL A   1      38.556  31.799  32.230  1.00  0.00     0.049 A 
ATOM     58  C   UNL A   1      42.924  30.249  35.396  1.00  0.00     0.074 A 
ATOM     59  C   UNL A   1      37.686  32.720  32.785  1.00  0.00     0.029 A 
ATOM     60  N   UNL A   1      39.563  31.588  33.162  1.00  0.00    -0.354 N 
ATOM     61  N   UNL A   1      41.858  30.701  34.780  1.00  0.00    -0.248 NA
ATOM     62  C   UNL A   1      43.188  30.898  36.687  1.00  0.00     0.031 C 
ATOM     63  C   UNL A   1      38.208  33.125  34.016  1.00  0.00     0.029 A 
ATOM     64  C   UNL A   1      39.356  32.392  34.271  1.00  0.00     0.049 A 
ATOM     65  H   UNL A   1      40.313  30.961  33.051  1.00  0.00     0.167 HD
ATOM     66  C   UNL A   1      41.305  31.658  35.623  1.00  0.00     0.074 A 
ATOM     67  C   UNL A   1      42.147  31.709  36.800  1.00  0.00     0.031 C 
ATOM     68  C   UNL A   1      40.200  32.424  35.441  1.00  0.00     0.037 A 
BRANCH  55  69
ATOM     69  C   UNL A   1      37.376  31.557  30.007  1.00  0.00     0.064 A 
ATOM     70  C   UNL A   1      37.339  32.811  29.378  1.00  0.00     0.173 A 
ATOM     71  C   UNL A   1      36.347  30.650  29.713  1.00  0.00     0.173 A 
ATOM     72  F   UNL A   1      38.292  33.722  29.630  1.00  0.00    -0.203 F 
ATOM     73  C   UNL A   1      36.297  33.154  28.519  1.00  0.00     0.198 A 
ATOM     74  C   UNL A   1      35.328  30.980  28.823  1.00  0.00     0.198 A 
ATOM     75  F   UNL A   1      36.333  29.434  30.280  1.00  0.00    -0.203 F 
ATOM     76  F   UNL A   1      36.253  34.379  27.978  1.00  0.00    -0.200 F 
ATOM     77  C   UNL A   1      35.298  32.235  28.236  1.00  0.00     0.200 A 
ATOM     78  F   UNL A   1      34.374  30.084  28.536  1.00  0.00    -0.200 F 
ATOM     79  F   UNL A   1      34.301  32.563  27.403  1.00  0.00    -0.200 F 
ENDBRANCH  55  69
BRANCH  56  80
ATOM     80  C   UNL A   1      45.048  28.802  35.821  1.00  0.00     0.064 A 
ATOM     81  C   UNL A   1      46.298  29.413  35.646  1.00  0.00     0.173 A 
ATOM     82  C   UNL A   1      44.938  27.819  36.816  1.00  0.00     0.173 A 
ATOM     83  F   UNL A   1      46.460  30.344  34.695  1.00  0.00    -0.203 F 
ATOM     84  C   UNL A   1      47.399  29.033  36.411  1.00  0.00     0.198 A 
ATOM     85  C   UNL A   1      46.029  27.467  37.608  1.00  0.00     0.198 A 
ATOM     86  F   UNL A   1      43.765  27.203  37.026  1.00  0.00    -0.203 F 
ATOM     87  F   UNL A   1      48.594  29.590  36.179  1.00  0.00    -0.200 F 
ATOM     88  C   UNL A   1      47.262  28.067  37.395  1.00  0.00     0.200 A 
ATOM     89  F   UNL A   1      45.889  26.546  38.570  1.00  0.00    -0.200 F 
ATOM     90  F   UNL A   1      48.320  27.704  38.133  1.00  0.00    -0.200 F 
ENDBRANCH  56  80
BRANCH  68  91
ATOM     91  C   UNL A   1      39.801  33.346  36.560  1.00  0.00     0.064 A 
ATOM     92  C   UNL A   1      40.325  34.641  36.681  1.00  0.00     0.173 A 
ATOM     93  C   UNL A   1      38.840  32.939  37.500  1.00  0.00     0.173 A 
ATOM     94  F   UNL A   1      41.255  35.077  35.817  1.00  0.00    -0.203 F 
ATOM     95  C   UNL A   1      39.927  35.481  37.718  1.00  0.00     0.198 A 
ATOM     96  C   UNL A   1      38.413  33.798  38.509  1.00  0.00     0.198 A 
ATOM     97  F   UNL A   1      38.297  31.714  37.428  1.00  0.00    -0.203 F 
ATOM     98  F   UNL A   1      40.486  36.693  37.847  1.00  0.00    -0.200 F 
ATOM     99  C   UNL A   1      38.964  35.063  38.623  1.00  0.00     0.200 A 
ATOM    100  F   UNL A   1      37.465  33.398  39.368  1.00  0.00    -0.200 F 
ATOM    101  F   UNL A   1      38.572  35.879  39.612  1.00  0.00    -0.200 F 
ENDBRANCH  68  91
ENDBRANCH  42  43
ENDBRANCH  35  37
ENDBRANCH  34  35
ENDBRANCH  33  34
ENDBRANCH  32  33
ENDBRANCH  31  32
ENDBRANCH  30  31
ENDBRANCH  29  30
ENDBRANCH  28  29
ENDBRANCH   1  28
TORSDOF 26
ENDMDL
