MODEL 1
REMARK VINA RESULT:      -9.9      0.000      0.000
REMARK SMILES Cc1cc(C)cc(-c2ccc([C@@H](C)C(=O)OCCOCCOCCOCCOC(=O)c3ccc(-c4c5nc(c(-c6c(F)c(F)c(F)c(F)c6F)c6ccc([nH]6)c(-c6c(F)c(F)c(F)c(F)c6F)c6nc(c(-c7c(F)c(F)c(F)c(F)c7F)c7ccc4[nH]7)C=C6)C=C5)cc3)cc2F)c1
REMARK SMILES IDX 22 1 21 2 20 3 19 4 18 5 17 6 16 7 14 8 15 9 12 10 13 11
REMARK SMILES IDX 11 12 8 13 9 14 95 15 10 16 94 17 96 18 7 19 1 20 2 21 3 22
REMARK SMILES IDX 97 23 4 24 5 25 6 26 23 27 24 28 25 29 26 30 27 31 28 32
REMARK SMILES IDX 29 33 30 34 31 35 32 36 93 37 33 38 92 39 34 40 35 41 36 42
REMARK SMILES IDX 86 43 37 44 91 45 85 46 87 47 38 48 90 49 84 50 83 51 39 53
REMARK SMILES IDX 71 54 51 55 70 56 52 57 55 58 69 59 88 60 53 61 54 62 68 64
REMARK SMILES IDX 89 65 56 66 40 67 41 68 49 69 42 70 43 71 47 72 50 73 44 74
REMARK SMILES IDX 45 75 48 76 46 77 72 78 73 79 81 80 74 81 75 82 79 83 82 84
REMARK SMILES IDX 76 85 77 86 80 87 78 88 57 89 58 90 66 91 59 92 60 93 64 94
REMARK SMILES IDX 67 95 61 96 62 97 65 98 63 99
REMARK H PARENT 87 52 55 63
REMARK Flexibility Score: inf
ROOT
ATOM      1  O   UNL A   1      42.452  23.524  26.396  1.00  0.00    -0.377 OA
ENDROOT
BRANCH   1   2
ATOM      2  C   UNL A   1      42.067  22.818  27.557  1.00  0.00     0.188 C 
BRANCH   2   3
ATOM      3  C   UNL A   1      40.662  22.201  27.507  1.00  0.00     0.188 C 
BRANCH   3   4
ATOM      4  O   UNL A   1      39.550  22.963  27.060  1.00  0.00    -0.376 OA
BRANCH   4   5
ATOM      5  C   UNL A   1      38.621  22.425  26.132  1.00  0.00     0.202 C 
BRANCH   5   6
ATOM      6  C   UNL A   1      37.272  23.106  25.825  1.00  0.00     0.261 C 
BRANCH   6   7
ATOM      7  O   UNL A   1      37.111  23.702  24.521  1.00  0.00    -0.463 OA
BRANCH   7   8
ATOM      8  C   UNL A   1      35.930  23.473  23.904  1.00  0.00     0.313 C 
ATOM      9  O   UNL A   1      35.841  23.109  22.732  1.00  0.00    -0.252 OA
BRANCH   8  10
ATOM     10  C   UNL A   1      34.674  23.715  24.741  1.00  0.00     0.126 C 
ATOM     11  C   UNL A   1      33.717  22.550  24.508  1.00  0.00     0.025 C 
BRANCH  10  12
ATOM     12  C   UNL A   1      33.930  25.051  24.704  1.00  0.00    -0.031 A 
ATOM     13  C   UNL A   1      32.459  27.522  24.746  1.00  0.00     0.017 A 
ATOM     14  C   UNL A   1      33.316  27.185  23.681  1.00  0.00     0.012 A 
ATOM     15  C   UNL A   1      32.367  26.599  25.793  1.00  0.00     0.131 A 
ATOM     16  C   UNL A   1      34.039  25.974  23.657  1.00  0.00     0.005 A 
ATOM     17  C   UNL A   1      33.066  25.386  25.770  1.00  0.00     0.044 A 
ATOM     18  F   UNL A   1      31.580  26.852  26.850  1.00  0.00    -0.206 F 
BRANCH  13  19
ATOM     19  C   UNL A   1      31.650  28.757  24.716  1.00  0.00    -0.015 A 
ATOM     20  C   UNL A   1      31.261  32.110  26.543  1.00  0.00     0.044 C 
ATOM     21  C   UNL A   1      31.059  30.977  25.577  1.00  0.00    -0.050 A 
ATOM     22  C   UNL A   1      30.056  31.084  24.606  1.00  0.00     0.006 A 
ATOM     23  C   UNL A   1      31.843  29.810  25.629  1.00  0.00     0.012 A 
ATOM     24  C   UNL A   1      29.830  30.049  23.695  1.00  0.00    -0.050 A 
ATOM     25  C   UNL A   1      28.740  30.176  22.673  1.00  0.00     0.044 C 
ATOM     26  C   UNL A   1      30.632  28.901  23.756  1.00  0.00     0.012 A 
ENDBRANCH  13  19
ENDBRANCH  10  12
ENDBRANCH   8  10
ENDBRANCH   7   8
ENDBRANCH   6   7
ENDBRANCH   5   6
ENDBRANCH   4   5
ENDBRANCH   3   4
ENDBRANCH   2   3
ENDBRANCH   1   2
BRANCH   1  27
ATOM     27  C   UNL A   1      42.966  22.758  25.319  1.00  0.00     0.188 C 
BRANCH  27  28
ATOM     28  C   UNL A   1      43.847  21.541  25.658  1.00  0.00     0.188 C 
BRANCH  28  29
ATOM     29  O   UNL A   1      45.241  21.782  25.531  1.00  0.00    -0.376 OA
BRANCH  29  30
ATOM     30  C   UNL A   1      45.706  22.576  24.450  1.00  0.00     0.202 C 
BRANCH  30  31
ATOM     31  C   UNL A   1      46.319  23.954  24.763  1.00  0.00     0.261 C 
BRANCH  31  32
ATOM     32  O   UNL A   1      45.433  24.963  25.276  1.00  0.00    -0.460 OA
BRANCH  32  33
ATOM     33  C   UNL A   1      45.831  26.249  25.246  1.00  0.00     0.338 C 
ATOM     34  O   UNL A   1      46.398  26.826  24.333  1.00  0.00    -0.246 OA
BRANCH  33  35
ATOM     35  C   UNL A   1      45.280  26.918  26.446  1.00  0.00     0.060 A 
ATOM     36  C   UNL A   1      44.526  26.167  27.359  1.00  0.00     0.016 A 
ATOM     37  C   UNL A   1      45.520  28.274  26.682  1.00  0.00     0.016 A 
ATOM     38  C   UNL A   1      43.990  26.774  28.497  1.00  0.00     0.010 A 
ATOM     39  C   UNL A   1      44.958  28.887  27.805  1.00  0.00     0.010 A 
ATOM     40  C   UNL A   1      44.168  28.147  28.704  1.00  0.00    -0.014 A 
BRANCH  40  41
ATOM     41  C   UNL A   1      43.393  28.850  29.756  1.00  0.00     0.031 A 
ATOM     42  C   UNL A   1      44.017  29.015  31.114  1.00  0.00     0.074 A 
ATOM     43  C   UNL A   1      42.163  29.338  29.516  1.00  0.00     0.049 A 
ATOM     44  N   UNL A   1      43.501  29.501  32.213  1.00  0.00    -0.248 NA
ATOM     45  C   UNL A   1      45.413  28.568  31.251  1.00  0.00     0.031 C 
ATOM     46  C   UNL A   1      41.475  29.294  28.229  1.00  0.00     0.029 A 
ATOM     47  N   UNL A   1      41.268  29.955  30.359  1.00  0.00    -0.354 N 
ATOM     48  C   UNL A   1      44.502  29.408  33.171  1.00  0.00     0.074 A 
ATOM     49  C   UNL A   1      45.648  28.799  32.533  1.00  0.00     0.031 C 
ATOM     50  C   UNL A   1      40.256  29.844  28.370  1.00  0.00     0.029 A 
ATOM     51  C   UNL A   1      40.062  30.238  29.766  1.00  0.00     0.049 A 
ATOM     52  H   UNL A   1      41.473  30.172  31.296  1.00  0.00     0.167 HD
ATOM     53  C   UNL A   1      44.465  29.801  34.465  1.00  0.00     0.037 A 
ATOM     54  C   UNL A   1      38.923  30.728  30.297  1.00  0.00     0.037 A 
ATOM     55  C   UNL A   1      43.325  30.413  35.092  1.00  0.00     0.049 A 
ATOM     56  C   UNL A   1      38.877  31.077  31.765  1.00  0.00     0.074 A 
ATOM     57  C   UNL A   1      43.204  30.871  36.393  1.00  0.00     0.029 A 
ATOM     58  N   UNL A   1      42.108  30.646  34.470  1.00  0.00    -0.354 N 
ATOM     59  N   UNL A   1      39.830  31.002  32.662  1.00  0.00    -0.248 NA
ATOM     60  C   UNL A   1      37.598  31.573  32.296  1.00  0.00     0.031 C 
ATOM     61  C   UNL A   1      41.894  31.316  36.577  1.00  0.00     0.029 A 
ATOM     62  C   UNL A   1      41.218  31.205  35.372  1.00  0.00     0.049 A 
ATOM     63  H   UNL A   1      41.907  30.444  33.528  1.00  0.00     0.167 HD
ATOM     64  C   UNL A   1      39.278  31.462  33.851  1.00  0.00     0.074 A 
ATOM     65  C   UNL A   1      37.907  31.826  33.562  1.00  0.00     0.031 C 
ATOM     66  C   UNL A   1      39.857  31.573  35.072  1.00  0.00     0.037 A 
BRANCH  53  67
ATOM     67  C   UNL A   1      45.683  29.567  35.309  1.00  0.00     0.064 A 
ATOM     68  C   UNL A   1      46.736  30.494  35.302  1.00  0.00     0.173 A 
ATOM     69  C   UNL A   1      45.851  28.388  36.050  1.00  0.00     0.173 A 
ATOM     70  F   UNL A   1      46.626  31.637  34.606  1.00  0.00    -0.203 F 
ATOM     71  C   UNL A   1      47.921  30.240  35.986  1.00  0.00     0.198 A 
ATOM     72  C   UNL A   1      47.027  28.150  36.757  1.00  0.00     0.198 A 
ATOM     73  F   UNL A   1      44.869  27.475  36.100  1.00  0.00    -0.203 F 
ATOM     74  F   UNL A   1      48.929  31.122  35.928  1.00  0.00    -0.200 F 
ATOM     75  C   UNL A   1      48.065  29.069  36.714  1.00  0.00     0.200 A 
ATOM     76  F   UNL A   1      47.156  27.029  37.481  1.00  0.00    -0.200 F 
ATOM     77  F   UNL A   1      49.206  28.826  37.374  1.00  0.00    -0.200 F 
ENDBRANCH  53  67
BRANCH  54  78
ATOM     78  C   UNL A   1      37.723  30.899  29.435  1.00  0.00     0.064 A 
ATOM     79  C   UNL A   1      37.411  32.140  28.858  1.00  0.00     0.173 A 
ATOM     80  C   UNL A   1      36.855  29.829  29.181  1.00  0.00     0.173 A 
ATOM     81  F   UNL A   1      38.212  33.197  29.062  1.00  0.00    -0.203 F 
ATOM     82  C   UNL A   1      36.264  32.310  28.086  1.00  0.00     0.198 A 
ATOM     83  C   UNL A   1      35.722  29.992  28.383  1.00  0.00     0.198 A 
ATOM     84  F   UNL A   1      37.123  28.615  29.684  1.00  0.00    -0.203 F 
ATOM     85  F   UNL A   1      35.971  33.516  27.581  1.00  0.00    -0.200 F 
ATOM     86  C   UNL A   1      35.422  31.235  27.846  1.00  0.00     0.200 A 
ATOM     87  F   UNL A   1      34.928  28.944  28.129  1.00  0.00    -0.200 F 
ATOM     88  F   UNL A   1      34.324  31.395  27.094  1.00  0.00    -0.200 F 
ENDBRANCH  54  78
BRANCH  66  89
ATOM     89  C   UNL A   1      39.037  32.129  36.201  1.00  0.00     0.064 A 
ATOM     90  C   UNL A   1      39.183  33.471  36.588  1.00  0.00     0.173 A 
ATOM     91  C   UNL A   1      38.201  31.311  36.974  1.00  0.00     0.173 A 
ATOM     92  F   UNL A   1      39.980  34.294  35.890  1.00  0.00    -0.203 F 
ATOM     93  C   UNL A   1      38.546  33.964  37.724  1.00  0.00     0.198 A 
ATOM     94  C   UNL A   1      37.540  31.815  38.091  1.00  0.00     0.198 A 
ATOM     95  F   UNL A   1      38.021  30.024  36.640  1.00  0.00    -0.203 F 
ATOM     96  F   UNL A   1      38.744  35.233  38.104  1.00  0.00    -0.200 F 
ATOM     97  C   UNL A   1      37.725  33.136  38.474  1.00  0.00     0.200 A 
ATOM     98  F   UNL A   1      36.729  31.020  38.803  1.00  0.00    -0.200 F 
ATOM     99  F   UNL A   1      37.113  33.610  39.568  1.00  0.00    -0.200 F 
ENDBRANCH  66  89
ENDBRANCH  40  41
ENDBRANCH  33  35
ENDBRANCH  32  33
ENDBRANCH  31  32
ENDBRANCH  30  31
ENDBRANCH  29  30
ENDBRANCH  28  29
ENDBRANCH  27  28
ENDBRANCH   1  27
TORSDOF 22
ENDMDL
MODEL 2
REMARK VINA RESULT:      -9.8      5.490     11.539
REMARK SMILES Cc1cc(C)cc(-c2ccc([C@@H](C)C(=O)OCCOCCOCCOCCOC(=O)c3ccc(-c4c5nc(c(-c6c(F)c(F)c(F)c(F)c6F)c6ccc([nH]6)c(-c6c(F)c(F)c(F)c(F)c6F)c6nc(c(-c7c(F)c(F)c(F)c(F)c7F)c7ccc4[nH]7)C=C6)C=C5)cc3)cc2F)c1
REMARK SMILES IDX 22 1 21 2 20 3 19 4 18 5 17 6 16 7 14 8 15 9 12 10 13 11
REMARK SMILES IDX 11 12 8 13 9 14 95 15 10 16 94 17 96 18 7 19 1 20 2 21 3 22
REMARK SMILES IDX 97 23 4 24 5 25 6 26 23 27 24 28 25 29 26 30 27 31 28 32
REMARK SMILES IDX 29 33 30 34 31 35 32 36 93 37 33 38 92 39 34 40 35 41 36 42
REMARK SMILES IDX 86 43 37 44 91 45 85 46 87 47 38 48 90 49 84 50 83 51 39 53
REMARK SMILES IDX 71 54 51 55 70 56 52 57 55 58 69 59 88 60 53 61 54 62 68 64
REMARK SMILES IDX 89 65 56 66 40 67 41 68 49 69 42 70 43 71 47 72 50 73 44 74
REMARK SMILES IDX 45 75 48 76 46 77 72 78 73 79 81 80 74 81 75 82 79 83 82 84
REMARK SMILES IDX 76 85 77 86 80 87 78 88 57 89 58 90 66 91 59 92 60 93 64 94
REMARK SMILES IDX 67 95 61 96 62 97 65 98 63 99
REMARK H PARENT 87 52 55 63
REMARK Flexibility Score: inf
ROOT
ATOM      1  O   UNL A   1      34.306  30.930  27.609  1.00  0.00    -0.377 OA
ENDROOT
BRANCH   1   2
ATOM      2  C   UNL A   1      33.111  31.635  27.339  1.00  0.00     0.188 C 
BRANCH   2   3
ATOM      3  C   UNL A   1      31.928  30.762  26.895  1.00  0.00     0.188 C 
BRANCH   3   4
ATOM      4  O   UNL A   1      31.677  30.527  25.518  1.00  0.00    -0.376 OA
BRANCH   4   5
ATOM      5  C   UNL A   1      31.965  29.270  24.927  1.00  0.00     0.202 C 
BRANCH   5   6
ATOM      6  C   UNL A   1      33.215  28.447  25.300  1.00  0.00     0.261 C 
BRANCH   6   7
ATOM      7  O   UNL A   1      33.083  27.491  26.372  1.00  0.00    -0.463 OA
BRANCH   7   8
ATOM      8  C   UNL A   1      31.846  26.980  26.566  1.00  0.00     0.313 C 
ATOM      9  O   UNL A   1      31.089  27.367  27.456  1.00  0.00    -0.252 OA
BRANCH   8  10
ATOM     10  C   UNL A   1      31.425  25.855  25.621  1.00  0.00     0.126 C 
ATOM     11  C   UNL A   1      29.955  25.544  25.879  1.00  0.00     0.025 C 
BRANCH  10  12
ATOM     12  C   UNL A   1      32.243  24.569  25.490  1.00  0.00    -0.031 A 
ATOM     13  C   UNL A   1      33.740  22.143  25.112  1.00  0.00     0.017 A 
ATOM     14  C   UNL A   1      33.575  22.724  26.384  1.00  0.00     0.012 A 
ATOM     15  C   UNL A   1      33.149  22.811  24.035  1.00  0.00     0.131 A 
ATOM     16  C   UNL A   1      32.842  23.914  26.573  1.00  0.00     0.005 A 
ATOM     17  C   UNL A   1      32.403  23.984  24.215  1.00  0.00     0.044 A 
ATOM     18  F   UNL A   1      33.270  22.328  22.790  1.00  0.00    -0.206 F 
BRANCH  13  19
ATOM     19  C   UNL A   1      34.443  20.855  24.944  1.00  0.00    -0.015 A 
ATOM     20  C   UNL A   1      37.983  19.373  24.929  1.00  0.00     0.044 C 
ATOM     21  C   UNL A   1      36.489  19.503  24.851  1.00  0.00    -0.050 A 
ATOM     22  C   UNL A   1      35.719  18.361  24.601  1.00  0.00     0.006 A 
ATOM     23  C   UNL A   1      35.844  20.744  25.013  1.00  0.00     0.012 A 
ATOM     24  C   UNL A   1      34.328  18.442  24.512  1.00  0.00    -0.050 A 
ATOM     25  C   UNL A   1      33.523  17.209  24.225  1.00  0.00     0.044 C 
ATOM     26  C   UNL A   1      33.705  19.685  24.689  1.00  0.00     0.012 A 
ENDBRANCH  13  19
ENDBRANCH  10  12
ENDBRANCH   8  10
ENDBRANCH   7   8
ENDBRANCH   6   7
ENDBRANCH   5   6
ENDBRANCH   4   5
ENDBRANCH   3   4
ENDBRANCH   2   3
ENDBRANCH   1   2
BRANCH   1  27
ATOM     27  C   UNL A   1      35.066  31.359  28.726  1.00  0.00     0.188 C 
BRANCH  27  28
ATOM     28  C   UNL A   1      34.984  32.845  29.125  1.00  0.00     0.188 C 
BRANCH  28  29
ATOM     29  O   UNL A   1      34.073  33.110  30.183  1.00  0.00    -0.376 OA
BRANCH  29  30
ATOM     30  C   UNL A   1      34.577  33.250  31.504  1.00  0.00     0.202 C 
BRANCH  30  31
ATOM     31  C   UNL A   1      35.264  32.038  32.158  1.00  0.00     0.261 C 
BRANCH  31  32
ATOM     32  O   UNL A   1      36.286  32.311  33.131  1.00  0.00    -0.460 OA
BRANCH  32  33
ATOM     33  C   UNL A   1      37.253  33.197  32.823  1.00  0.00     0.338 C 
ATOM     34  O   UNL A   1      37.375  34.334  33.245  1.00  0.00    -0.246 OA
BRANCH  33  35
ATOM     35  C   UNL A   1      38.277  32.483  32.027  1.00  0.00     0.060 A 
ATOM     36  C   UNL A   1      39.259  31.736  32.693  1.00  0.00     0.016 A 
ATOM     37  C   UNL A   1      38.259  32.533  30.631  1.00  0.00     0.016 A 
ATOM     38  C   UNL A   1      40.240  31.057  31.966  1.00  0.00     0.010 A 
ATOM     39  C   UNL A   1      39.258  31.879  29.906  1.00  0.00     0.010 A 
ATOM     40  C   UNL A   1      40.269  31.159  30.570  1.00  0.00    -0.014 A 
BRANCH  40  41
ATOM     41  C   UNL A   1      41.445  30.667  29.810  1.00  0.00     0.031 A 
ATOM     42  C   UNL A   1      41.414  29.261  29.278  1.00  0.00     0.074 A 
ATOM     43  C   UNL A   1      42.518  31.447  29.589  1.00  0.00     0.049 A 
ATOM     44  N   UNL A   1      42.354  28.579  28.675  1.00  0.00    -0.248 NA
ATOM     45  C   UNL A   1      40.153  28.523  29.453  1.00  0.00     0.031 C 
ATOM     46  C   UNL A   1      42.644  32.842  30.001  1.00  0.00     0.029 A 
ATOM     47  N   UNL A   1      43.714  31.165  28.974  1.00  0.00    -0.354 N 
ATOM     48  C   UNL A   1      41.802  27.332  28.410  1.00  0.00     0.074 A 
ATOM     49  C   UNL A   1      40.454  27.342  28.935  1.00  0.00     0.031 C 
ATOM     50  C   UNL A   1      43.860  33.292  29.643  1.00  0.00     0.029 A 
ATOM     51  C   UNL A   1      44.612  32.204  29.017  1.00  0.00     0.049 A 
ATOM     52  H   UNL A   1      43.909  30.301  28.544  1.00  0.00     0.167 HD
ATOM     53  C   UNL A   1      42.370  26.279  27.780  1.00  0.00     0.037 A 
ATOM     54  C   UNL A   1      45.902  32.258  28.626  1.00  0.00     0.037 A 
ATOM     55  C   UNL A   1      43.708  26.278  27.252  1.00  0.00     0.049 A 
ATOM     56  C   UNL A   1      46.543  31.041  28.006  1.00  0.00     0.074 A 
ATOM     57  C   UNL A   1      44.361  25.265  26.572  1.00  0.00     0.029 A 
ATOM     58  N   UNL A   1      44.600  27.335  27.352  1.00  0.00    -0.354 N 
ATOM     59  N   UNL A   1      46.012  29.871  27.743  1.00  0.00    -0.248 NA
ATOM     60  C   UNL A   1      47.962  31.148  27.632  1.00  0.00     0.031 C 
ATOM     61  C   UNL A   1      45.669  25.683  26.322  1.00  0.00     0.029 A 
ATOM     62  C   UNL A   1      45.811  26.983  26.780  1.00  0.00     0.049 A 
ATOM     63  H   UNL A   1      44.401  28.205  27.767  1.00  0.00     0.167 HD
ATOM     64  C   UNL A   1      47.018  29.115  27.154  1.00  0.00     0.074 A 
ATOM     65  C   UNL A   1      48.191  29.961  27.086  1.00  0.00     0.031 C 
ATOM     66  C   UNL A   1      46.971  27.835  26.709  1.00  0.00     0.037 A 
BRANCH  53  67
ATOM     67  C   UNL A   1      41.563  25.022  27.638  1.00  0.00     0.064 A 
ATOM     68  C   UNL A   1      41.930  23.865  28.342  1.00  0.00     0.173 A 
ATOM     69  C   UNL A   1      40.488  24.933  26.742  1.00  0.00     0.173 A 
ATOM     70  F   UNL A   1      42.954  23.897  29.209  1.00  0.00    -0.203 F 
ATOM     71  C   UNL A   1      41.266  22.659  28.136  1.00  0.00     0.198 A 
ATOM     72  C   UNL A   1      39.807  23.731  26.561  1.00  0.00     0.198 A 
ATOM     73  F   UNL A   1      40.089  26.014  26.055  1.00  0.00    -0.203 F 
ATOM     74  F   UNL A   1      41.664  21.558  28.788  1.00  0.00    -0.200 F 
ATOM     75  C   UNL A   1      40.204  22.594  27.247  1.00  0.00     0.200 A 
ATOM     76  F   UNL A   1      38.765  23.675  25.719  1.00  0.00    -0.200 F 
ATOM     77  F   UNL A   1      39.564  21.433  27.052  1.00  0.00    -0.200 F 
ENDBRANCH  53  67
BRANCH  54  78
ATOM     78  C   UNL A   1      46.680  33.510  28.830  1.00  0.00     0.064 A 
ATOM     79  C   UNL A   1      47.444  33.713  29.989  1.00  0.00     0.173 A 
ATOM     80  C   UNL A   1      46.664  34.536  27.875  1.00  0.00     0.173 A 
ATOM     81  F   UNL A   1      47.500  32.760  30.933  1.00  0.00    -0.203 F 
ATOM     82  C   UNL A   1      48.137  34.903  30.198  1.00  0.00     0.198 A 
ATOM     83  C   UNL A   1      47.383  35.715  28.072  1.00  0.00     0.198 A 
ATOM     84  F   UNL A   1      45.974  34.380  26.736  1.00  0.00    -0.203 F 
ATOM     85  F   UNL A   1      48.826  35.085  31.334  1.00  0.00    -0.200 F 
ATOM     86  C   UNL A   1      48.110  35.901  29.237  1.00  0.00     0.200 A 
ATOM     87  F   UNL A   1      47.378  36.665  27.127  1.00  0.00    -0.200 F 
ATOM     88  F   UNL A   1      48.786  37.042  29.434  1.00  0.00    -0.200 F 
ENDBRANCH  54  78
BRANCH  66  89
ATOM     89  C   UNL A   1      48.206  27.254  26.083  1.00  0.00     0.064 A 
ATOM     90  C   UNL A   1      49.209  26.688  26.888  1.00  0.00     0.173 A 
ATOM     91  C   UNL A   1      48.455  27.364  24.708  1.00  0.00     0.173 A 
ATOM     92  F   UNL A   1      49.027  26.569  28.212  1.00  0.00    -0.203 F 
ATOM     93  C   UNL A   1      50.424  26.282  26.343  1.00  0.00     0.198 A 
ATOM     94  C   UNL A   1      49.659  26.927  24.161  1.00  0.00     0.198 A 
ATOM     95  F   UNL A   1      47.526  27.889  23.894  1.00  0.00    -0.203 F 
ATOM     96  F   UNL A   1      51.385  25.794  27.139  1.00  0.00    -0.200 F 
ATOM     97  C   UNL A   1      50.647  26.400  24.980  1.00  0.00     0.200 A 
ATOM     98  F   UNL A   1      49.866  27.022  22.840  1.00  0.00    -0.200 F 
ATOM     99  F   UNL A   1      51.818  26.011  24.455  1.00  0.00    -0.200 F 
ENDBRANCH  66  89
ENDBRANCH  40  41
ENDBRANCH  33  35
ENDBRANCH  32  33
ENDBRANCH  31  32
ENDBRANCH  30  31
ENDBRANCH  29  30
ENDBRANCH  28  29
ENDBRANCH  27  28
ENDBRANCH   1  27
TORSDOF 22
ENDMDL
MODEL 3
REMARK VINA RESULT:      -9.6      5.647     11.940
REMARK SMILES Cc1cc(C)cc(-c2ccc([C@@H](C)C(=O)OCCOCCOCCOCCOC(=O)c3ccc(-c4c5nc(c(-c6c(F)c(F)c(F)c(F)c6F)c6ccc([nH]6)c(-c6c(F)c(F)c(F)c(F)c6F)c6nc(c(-c7c(F)c(F)c(F)c(F)c7F)c7ccc4[nH]7)C=C6)C=C5)cc3)cc2F)c1
REMARK SMILES IDX 22 1 21 2 20 3 19 4 18 5 17 6 16 7 14 8 15 9 12 10 13 11
REMARK SMILES IDX 11 12 8 13 9 14 95 15 10 16 94 17 96 18 7 19 1 20 2 21 3 22
REMARK SMILES IDX 97 23 4 24 5 25 6 26 23 27 24 28 25 29 26 30 27 31 28 32
REMARK SMILES IDX 29 33 30 34 31 35 32 36 93 37 33 38 92 39 34 40 35 41 36 42
REMARK SMILES IDX 86 43 37 44 91 45 85 46 87 47 38 48 90 49 84 50 83 51 39 53
REMARK SMILES IDX 71 54 51 55 70 56 52 57 55 58 69 59 88 60 53 61 54 62 68 64
REMARK SMILES IDX 89 65 56 66 40 67 41 68 49 69 42 70 43 71 47 72 50 73 44 74
REMARK SMILES IDX 45 75 48 76 46 77 72 78 73 79 81 80 74 81 75 82 79 83 82 84
REMARK SMILES IDX 76 85 77 86 80 87 78 88 57 89 58 90 66 91 59 92 60 93 64 94
REMARK SMILES IDX 67 95 61 96 62 97 65 98 63 99
REMARK H PARENT 87 52 55 63
REMARK Flexibility Score: inf
ROOT
ATOM      1  O   UNL A   1      37.407  31.756  36.943  1.00  0.00    -0.377 OA
ENDROOT
BRANCH   1   2
ATOM      2  C   UNL A   1      37.687  32.182  35.626  1.00  0.00     0.188 C 
BRANCH   2   3
ATOM      3  C   UNL A   1      36.833  33.356  35.127  1.00  0.00     0.188 C 
BRANCH   3   4
ATOM      4  O   UNL A   1      35.862  33.164  34.108  1.00  0.00    -0.376 OA
BRANCH   4   5
ATOM      5  C   UNL A   1      35.924  32.042  33.241  1.00  0.00     0.202 C 
BRANCH   5   6
ATOM      6  C   UNL A   1      36.883  31.982  32.035  1.00  0.00     0.261 C 
BRANCH   6   7
ATOM      7  O   UNL A   1      38.230  31.528  32.279  1.00  0.00    -0.463 OA
BRANCH   7   8
ATOM      8  C   UNL A   1      39.210  32.441  32.091  1.00  0.00     0.313 C 
ATOM      9  O   UNL A   1      39.291  33.485  32.737  1.00  0.00    -0.252 OA
BRANCH   8  10
ATOM     10  C   UNL A   1      40.225  32.124  30.993  1.00  0.00     0.126 C 
ATOM     11  C   UNL A   1      40.153  33.232  29.947  1.00  0.00     0.025 C 
BRANCH  10  12
ATOM     12  C   UNL A   1      40.286  30.747  30.330  1.00  0.00    -0.031 A 
ATOM     13  C   UNL A   1      40.418  28.102  29.209  1.00  0.00     0.017 A 
ATOM     14  C   UNL A   1      40.429  29.254  28.399  1.00  0.00     0.012 A 
ATOM     15  C   UNL A   1      40.327  28.306  30.589  1.00  0.00     0.131 A 
ATOM     16  C   UNL A   1      40.365  30.552  28.946  1.00  0.00     0.005 A 
ATOM     17  C   UNL A   1      40.281  29.593  31.143  1.00  0.00     0.044 A 
ATOM     18  F   UNL A   1      40.299  27.259  31.428  1.00  0.00    -0.206 F 
BRANCH  13  19
ATOM     19  C   UNL A   1      40.566  26.754  28.624  1.00  0.00    -0.015 A 
ATOM     20  C   UNL A   1      43.182  23.990  28.129  1.00  0.00     0.044 C 
ATOM     21  C   UNL A   1      41.892  24.759  28.093  1.00  0.00    -0.050 A 
ATOM     22  C   UNL A   1      40.776  24.185  27.474  1.00  0.00     0.006 A 
ATOM     23  C   UNL A   1      41.780  26.044  28.658  1.00  0.00     0.012 A 
ATOM     24  C   UNL A   1      39.561  24.872  27.412  1.00  0.00    -0.050 A 
ATOM     25  C   UNL A   1      38.381  24.246  26.728  1.00  0.00     0.044 C 
ATOM     26  C   UNL A   1      39.467  26.144  27.991  1.00  0.00     0.012 A 
ENDBRANCH  13  19
ENDBRANCH  10  12
ENDBRANCH   8  10
ENDBRANCH   7   8
ENDBRANCH   6   7
ENDBRANCH   5   6
ENDBRANCH   4   5
ENDBRANCH   3   4
ENDBRANCH   2   3
ENDBRANCH   1   2
BRANCH   1  27
ATOM     27  C   UNL A   1      37.569  32.713  37.977  1.00  0.00     0.188 C 
BRANCH  27  28
ATOM     28  C   UNL A   1      37.843  32.194  39.401  1.00  0.00     0.188 C 
BRANCH  28  29
ATOM     29  O   UNL A   1      39.200  32.304  39.807  1.00  0.00    -0.376 OA
BRANCH  29  30
ATOM     30  C   UNL A   1      39.534  33.202  40.854  1.00  0.00     0.202 C 
BRANCH  30  31
ATOM     31  C   UNL A   1      40.245  34.519  40.491  1.00  0.00     0.261 C 
BRANCH  31  32
ATOM     32  O   UNL A   1      39.620  35.348  39.497  1.00  0.00    -0.460 OA
BRANCH  32  33
ATOM     33  C   UNL A   1      40.367  36.273  38.864  1.00  0.00     0.338 C 
ATOM     34  O   UNL A   1      40.679  37.378  39.274  1.00  0.00    -0.246 OA
BRANCH  33  35
ATOM     35  C   UNL A   1      40.926  35.641  37.648  1.00  0.00     0.060 A 
ATOM     36  C   UNL A   1      40.050  35.156  36.666  1.00  0.00     0.016 A 
ATOM     37  C   UNL A   1      42.308  35.544  37.465  1.00  0.00     0.016 A 
ATOM     38  C   UNL A   1      40.552  34.552  35.512  1.00  0.00     0.010 A 
ATOM     39  C   UNL A   1      42.809  34.911  36.324  1.00  0.00     0.010 A 
ATOM     40  C   UNL A   1      41.934  34.388  35.354  1.00  0.00    -0.014 A 
BRANCH  40  41
ATOM     41  C   UNL A   1      42.465  33.523  34.272  1.00  0.00     0.031 A 
ATOM     42  C   UNL A   1      42.786  34.154  32.945  1.00  0.00     0.074 A 
ATOM     43  C   UNL A   1      42.663  32.206  34.457  1.00  0.00     0.049 A 
ATOM     44  N   UNL A   1      43.164  33.591  31.826  1.00  0.00    -0.248 NA
ATOM     45  C   UNL A   1      42.662  35.618  32.871  1.00  0.00     0.031 C 
ATOM     46  C   UNL A   1      42.446  31.489  35.710  1.00  0.00     0.029 A 
ATOM     47  N   UNL A   1      43.080  31.234  33.578  1.00  0.00    -0.354 N 
ATOM     48  C   UNL A   1      43.311  34.629  30.915  1.00  0.00     0.074 A 
ATOM     49  C   UNL A   1      42.962  35.853  31.602  1.00  0.00     0.031 C 
ATOM     50  C   UNL A   1      42.714  30.186  35.516  1.00  0.00     0.029 A 
ATOM     51  C   UNL A   1      43.078  29.970  34.116  1.00  0.00     0.049 A 
ATOM     52  H   UNL A   1      43.352  31.426  32.652  1.00  0.00     0.167 HD
ATOM     53  C   UNL A   1      43.708  34.563  29.624  1.00  0.00     0.037 A 
ATOM     54  C   UNL A   1      43.311  28.775  33.535  1.00  0.00     0.037 A 
ATOM     55  C   UNL A   1      44.062  33.343  28.948  1.00  0.00     0.049 A 
ATOM     56  C   UNL A   1      43.666  28.718  32.069  1.00  0.00     0.074 A 
ATOM     57  C   UNL A   1      44.502  33.181  27.647  1.00  0.00     0.029 A 
ATOM     58  N   UNL A   1      44.008  32.079  29.515  1.00  0.00    -0.354 N 
ATOM     59  N   UNL A   1      43.819  29.702  31.217  1.00  0.00    -0.248 NA
ATOM     60  C   UNL A   1      43.874  27.385  31.482  1.00  0.00     0.031 C 
ATOM     61  C   UNL A   1      44.649  31.814  27.405  1.00  0.00     0.029 A 
ATOM     62  C   UNL A   1      44.370  31.128  28.576  1.00  0.00     0.049 A 
ATOM     63  H   UNL A   1      43.751  31.887  30.445  1.00  0.00     0.167 HD
ATOM     64  C   UNL A   1      44.165  29.114  30.006  1.00  0.00     0.074 A 
ATOM     65  C   UNL A   1      44.211  27.685  30.234  1.00  0.00     0.031 C 
ATOM     66  C   UNL A   1      44.422  29.707  28.814  1.00  0.00     0.037 A 
BRANCH  53  67
ATOM     67  C   UNL A   1      43.764  35.838  28.836  1.00  0.00     0.064 A 
ATOM     68  C   UNL A   1      42.676  36.223  28.038  1.00  0.00     0.173 A 
ATOM     69  C   UNL A   1      44.920  36.631  28.797  1.00  0.00     0.173 A 
ATOM     70  F   UNL A   1      41.547  35.497  28.038  1.00  0.00    -0.203 F 
ATOM     71  C   UNL A   1      42.751  37.340  27.211  1.00  0.00     0.198 A 
ATOM     72  C   UNL A   1      44.981  37.765  27.990  1.00  0.00     0.198 A 
ATOM     73  F   UNL A   1      45.983  36.314  29.551  1.00  0.00    -0.203 F 
ATOM     74  F   UNL A   1      41.714  37.661  26.426  1.00  0.00    -0.200 F 
ATOM     75  C   UNL A   1      43.904  38.111  27.190  1.00  0.00     0.200 A 
ATOM     76  F   UNL A   1      46.087  38.524  27.988  1.00  0.00    -0.200 F 
ATOM     77  F   UNL A   1      43.974  39.187  26.395  1.00  0.00    -0.200 F 
ENDBRANCH  53  67
BRANCH  54  78
ATOM     78  C   UNL A   1      43.198  27.531  34.341  1.00  0.00     0.064 A 
ATOM     79  C   UNL A   1      44.331  26.912  34.891  1.00  0.00     0.173 A 
ATOM     80  C   UNL A   1      41.954  26.925  34.568  1.00  0.00     0.173 A 
ATOM     81  F   UNL A   1      45.546  27.453  34.711  1.00  0.00    -0.203 F 
ATOM     82  C   UNL A   1      44.228  25.723  35.610  1.00  0.00     0.198 A 
ATOM     83  C   UNL A   1      41.849  25.751  35.313  1.00  0.00     0.198 A 
ATOM     84  F   UNL A   1      40.837  27.492  34.090  1.00  0.00    -0.203 F 
ATOM     85  F   UNL A   1      45.333  25.134  36.089  1.00  0.00    -0.200 F 
ATOM     86  C   UNL A   1      42.987  25.146  35.824  1.00  0.00     0.200 A 
ATOM     87  F   UNL A   1      40.644  25.212  35.543  1.00  0.00    -0.200 F 
ATOM     88  F   UNL A   1      42.887  24.007  36.525  1.00  0.00    -0.200 F 
ENDBRANCH  54  78
BRANCH  66  89
ATOM     89  C   UNL A   1      44.801  28.834  27.652  1.00  0.00     0.064 A 
ATOM     90  C   UNL A   1      43.834  28.457  26.706  1.00  0.00     0.173 A 
ATOM     91  C   UNL A   1      46.081  28.274  27.541  1.00  0.00     0.173 A 
ATOM     92  F   UNL A   1      42.589  28.954  26.773  1.00  0.00    -0.203 F 
ATOM     93  C   UNL A   1      44.128  27.529  25.709  1.00  0.00     0.198 A 
ATOM     94  C   UNL A   1      46.381  27.371  26.523  1.00  0.00     0.198 A 
ATOM     95  F   UNL A   1      47.042  28.609  28.414  1.00  0.00    -0.203 F 
ATOM     96  F   UNL A   1      43.175  27.145  24.851  1.00  0.00    -0.200 F 
ATOM     97  C   UNL A   1      45.401  26.989  25.619  1.00  0.00     0.200 A 
ATOM     98  F   UNL A   1      47.618  26.865  26.423  1.00  0.00    -0.200 F 
ATOM     99  F   UNL A   1      45.684  26.095  24.660  1.00  0.00    -0.200 F 
ENDBRANCH  66  89
ENDBRANCH  40  41
ENDBRANCH  33  35
ENDBRANCH  32  33
ENDBRANCH  31  32
ENDBRANCH  30  31
ENDBRANCH  29  30
ENDBRANCH  28  29
ENDBRANCH  27  28
ENDBRANCH   1  27
TORSDOF 22
ENDMDL
