MODEL 1
REMARK VINA RESULT:     -10.0      0.000      0.000
REMARK SMILES CCc1cccc(-c2ccc([C@@H](C)C(=O)OCCOCCOCCOCCOC(=O)c3ccc(-c4c5nc(c(-c6c(F)c(F)c(F)c(F)c6F)c6ccc([nH]6)c(-c6c(F)c(F)c(F)c(F)c6F)c6nc(c(-c7c(F)c(F)c(F)c(F)c7F)c7ccc4[nH]7)C=C6)C=C5)cc3)cc2)c1
REMARK SMILES IDX 21 1 20 2 19 3 18 4 17 5 16 6 14 7 15 8 12 9 13 10 11 11
REMARK SMILES IDX 8 12 9 13 95 14 10 15 94 16 7 17 3 18 4 19 96 20 5 21 6 22
REMARK SMILES IDX 2 23 1 24 22 25 23 26 24 27 25 28 26 29 27 30 28 31 29 32
REMARK SMILES IDX 30 33 31 34 32 35 93 36 33 37 92 38 34 39 35 40 36 41 86 42
REMARK SMILES IDX 37 43 91 44 85 45 87 46 38 47 90 48 84 49 83 50 39 52 71 53
REMARK SMILES IDX 51 54 70 55 52 56 55 57 69 58 88 59 53 60 54 61 68 63 89 64
REMARK SMILES IDX 56 65 40 66 41 67 49 68 42 69 43 70 47 71 50 72 44 73 45 74
REMARK SMILES IDX 48 75 46 76 72 77 73 78 81 79 74 80 75 81 79 82 82 83 76 84
REMARK SMILES IDX 77 85 80 86 78 87 57 88 58 89 66 90 59 91 60 92 64 93 67 94
REMARK SMILES IDX 61 95 62 96 65 97 63 98
REMARK H PARENT 87 51 55 62
REMARK Flexibility Score: inf
ROOT
ATOM      1  C   UNL A   1      33.815  26.096  25.197  1.00  0.00     0.188 C 
ENDROOT
BRANCH   1   2
ATOM      2  C   UNL A   1      32.550  25.741  25.993  1.00  0.00     0.188 C 
BRANCH   2   3
ATOM      3  O   UNL A   1      32.188  24.387  26.222  1.00  0.00    -0.376 OA
BRANCH   3   4
ATOM      4  C   UNL A   1      31.032  23.831  25.614  1.00  0.00     0.202 C 
BRANCH   4   5
ATOM      5  C   UNL A   1      30.952  23.594  24.093  1.00  0.00     0.261 C 
BRANCH   5   6
ATOM      6  O   UNL A   1      32.178  23.247  23.416  1.00  0.00    -0.463 OA
BRANCH   6   7
ATOM      7  C   UNL A   1      32.282  21.968  22.987  1.00  0.00     0.313 C 
ATOM      8  O   UNL A   1      31.644  21.524  22.033  1.00  0.00    -0.252 OA
BRANCH   7   9
ATOM      9  C   UNL A   1      33.231  21.067  23.775  1.00  0.00     0.126 C 
ATOM     10  C   UNL A   1      32.426  20.363  24.863  1.00  0.00     0.025 C 
BRANCH   9  11
ATOM     11  C   UNL A   1      34.561  21.583  24.328  1.00  0.00    -0.034 A 
ATOM     12  C   UNL A   1      37.061  22.437  25.459  1.00  0.00    -0.018 A 
ATOM     13  C   UNL A   1      36.238  23.313  24.723  1.00  0.00     0.009 A 
ATOM     14  C   UNL A   1      36.619  21.117  25.597  1.00  0.00     0.009 A 
ATOM     15  C   UNL A   1      35.009  22.899  24.172  1.00  0.00     0.005 A 
ATOM     16  C   UNL A   1      35.390  20.702  25.055  1.00  0.00     0.005 A 
BRANCH  12  17
ATOM     17  C   UNL A   1      38.282  22.916  26.149  1.00  0.00    -0.018 A 
ATOM     18  C   UNL A   1      40.494  22.546  27.176  1.00  0.00    -0.048 A 
ATOM     19  C   UNL A   1      40.503  23.886  27.594  1.00  0.00     0.004 A 
ATOM     20  C   UNL A   1      39.372  22.072  26.462  1.00  0.00     0.012 A 
ATOM     21  C   UNL A   1      39.442  24.734  27.294  1.00  0.00     0.001 A 
ATOM     22  C   UNL A   1      38.347  24.253  26.579  1.00  0.00     0.009 A 
BRANCH  18  23
ATOM     23  C   UNL A   1      41.659  21.679  27.605  1.00  0.00     0.032 C 
ATOM     24  C   UNL A   1      42.409  20.934  26.512  1.00  0.00     0.009 C 
ENDBRANCH  18  23
ENDBRANCH  12  17
ENDBRANCH   9  11
ENDBRANCH   7   9
ENDBRANCH   6   7
ENDBRANCH   5   6
ENDBRANCH   4   5
ENDBRANCH   3   4
ENDBRANCH   2   3
ENDBRANCH   1   2
BRANCH   1  25
ATOM     25  O   UNL A   1      33.592  26.470  23.853  1.00  0.00    -0.377 OA
BRANCH  25  26
ATOM     26  C   UNL A   1      32.319  27.016  23.550  1.00  0.00     0.188 C 
BRANCH  26  27
ATOM     27  C   UNL A   1      32.271  28.494  23.119  1.00  0.00     0.188 C 
BRANCH  27  28
ATOM     28  O   UNL A   1      32.518  29.411  24.177  1.00  0.00    -0.376 OA
BRANCH  28  29
ATOM     29  C   UNL A   1      31.528  29.589  25.181  1.00  0.00     0.202 C 
BRANCH  29  30
ATOM     30  C   UNL A   1      31.871  30.447  26.412  1.00  0.00     0.261 C 
BRANCH  30  31
ATOM     31  O   UNL A   1      33.212  30.363  26.917  1.00  0.00    -0.460 OA
BRANCH  31  32
ATOM     32  C   UNL A   1      33.749  31.451  27.502  1.00  0.00     0.338 C 
ATOM     33  O   UNL A   1      33.178  32.490  27.789  1.00  0.00    -0.246 OA
BRANCH  32  34
ATOM     34  C   UNL A   1      35.123  31.107  27.929  1.00  0.00     0.060 A 
ATOM     35  C   UNL A   1      35.440  29.764  28.173  1.00  0.00     0.016 A 
ATOM     36  C   UNL A   1      36.093  32.100  28.090  1.00  0.00     0.016 A 
ATOM     37  C   UNL A   1      36.715  29.413  28.618  1.00  0.00     0.010 A 
ATOM     38  C   UNL A   1      37.363  31.750  28.563  1.00  0.00     0.010 A 
ATOM     39  C   UNL A   1      37.667  30.409  28.864  1.00  0.00    -0.014 A 
BRANCH  39  40
ATOM     40  C   UNL A   1      38.895  30.079  29.630  1.00  0.00     0.031 A 
ATOM     41  C   UNL A   1      39.020  30.607  31.035  1.00  0.00     0.074 A 
ATOM     42  C   UNL A   1      39.866  29.308  29.112  1.00  0.00     0.049 A 
ATOM     43  N   UNL A   1      40.014  30.508  31.880  1.00  0.00    -0.248 NA
ATOM     44  C   UNL A   1      37.863  31.354  31.554  1.00  0.00     0.031 C 
ATOM     45  C   UNL A   1      39.841  28.693  27.788  1.00  0.00     0.029 A 
ATOM     46  N   UNL A   1      41.074  28.921  29.642  1.00  0.00    -0.354 N 
ATOM     47  C   UNL A   1      39.606  31.184  33.022  1.00  0.00     0.074 A 
ATOM     48  C   UNL A   1      38.288  31.717  32.754  1.00  0.00     0.031 C 
ATOM     49  C   UNL A   1      40.989  28.017  27.600  1.00  0.00     0.029 A 
ATOM     50  C   UNL A   1      41.843  28.184  28.776  1.00  0.00     0.049 A 
ATOM     51  H   UNL A   1      41.360  29.151  30.555  1.00  0.00     0.167 HD
ATOM     52  C   UNL A   1      40.268  31.341  34.193  1.00  0.00     0.037 A 
ATOM     53  C   UNL A   1      43.104  27.723  28.911  1.00  0.00     0.037 A 
ATOM     54  C   UNL A   1      41.580  30.812  34.456  1.00  0.00     0.049 A 
ATOM     55  C   UNL A   1      43.854  27.987  30.194  1.00  0.00     0.074 A 
ATOM     56  C   UNL A   1      42.330  30.904  35.615  1.00  0.00     0.029 A 
ATOM     57  N   UNL A   1      42.342  30.100  33.542  1.00  0.00    -0.354 N 
ATOM     58  N   UNL A   1      43.455  28.607  31.278  1.00  0.00    -0.248 NA
ATOM     59  C   UNL A   1      45.234  27.481  30.271  1.00  0.00     0.031 C 
ATOM     60  C   UNL A   1      43.571  30.307  35.381  1.00  0.00     0.029 A 
ATOM     61  C   UNL A   1      43.568  29.775  34.101  1.00  0.00     0.049 A 
ATOM     62  H   UNL A   1      42.055  29.862  32.630  1.00  0.00     0.167 HD
ATOM     63  C   UNL A   1      44.515  28.533  32.175  1.00  0.00     0.074 A 
ATOM     64  C   UNL A   1      45.570  27.797  31.514  1.00  0.00     0.031 C 
ATOM     65  C   UNL A   1      44.605  29.028  33.435  1.00  0.00     0.037 A 
BRANCH  52  66
ATOM     66  C   UNL A   1      39.598  32.147  35.268  1.00  0.00     0.064 A 
ATOM     67  C   UNL A   1      38.802  31.548  36.258  1.00  0.00     0.173 A 
ATOM     68  C   UNL A   1      39.787  33.536  35.332  1.00  0.00     0.173 A 
ATOM     69  F   UNL A   1      38.576  30.226  36.234  1.00  0.00    -0.203 F 
ATOM     70  C   UNL A   1      38.202  32.313  37.254  1.00  0.00     0.198 A 
ATOM     71  C   UNL A   1      39.214  34.293  36.351  1.00  0.00     0.198 A 
ATOM     72  F   UNL A   1      40.541  34.159  34.414  1.00  0.00    -0.203 F 
ATOM     73  F   UNL A   1      37.406  31.727  38.160  1.00  0.00    -0.200 F 
ATOM     74  C   UNL A   1      38.416  33.683  37.305  1.00  0.00     0.200 A 
ATOM     75  F   UNL A   1      39.434  35.614  36.406  1.00  0.00    -0.200 F 
ATOM     76  F   UNL A   1      37.846  34.416  38.272  1.00  0.00    -0.200 F 
ENDBRANCH  52  66
BRANCH  53  77
ATOM     77  C   UNL A   1      43.753  26.982  27.795  1.00  0.00     0.064 A 
ATOM     78  C   UNL A   1      44.333  27.660  26.713  1.00  0.00     0.173 A 
ATOM     79  C   UNL A   1      43.769  25.579  27.765  1.00  0.00     0.173 A 
ATOM     80  F   UNL A   1      44.319  29.001  26.678  1.00  0.00    -0.203 F 
ATOM     81  C   UNL A   1      44.880  26.966  25.635  1.00  0.00     0.198 A 
ATOM     82  C   UNL A   1      44.347  24.886  26.704  1.00  0.00     0.198 A 
ATOM     83  F   UNL A   1      43.223  24.880  28.770  1.00  0.00    -0.203 F 
ATOM     84  F   UNL A   1      45.374  27.640  24.587  1.00  0.00    -0.200 F 
ATOM     85  C   UNL A   1      44.891  25.579  25.635  1.00  0.00     0.200 A 
ATOM     86  F   UNL A   1      44.366  23.546  26.713  1.00  0.00    -0.200 F 
ATOM     87  F   UNL A   1      45.417  24.912  24.598  1.00  0.00    -0.200 F 
ENDBRANCH  53  77
BRANCH  65  88
ATOM     88  C   UNL A   1      45.864  28.746  34.207  1.00  0.00     0.064 A 
ATOM     89  C   UNL A   1      46.043  27.555  34.927  1.00  0.00     0.173 A 
ATOM     90  C   UNL A   1      46.927  29.664  34.188  1.00  0.00     0.173 A 
ATOM     91  F   UNL A   1      45.058  26.648  34.989  1.00  0.00    -0.203 F 
ATOM     92  C   UNL A   1      47.226  27.308  35.620  1.00  0.00     0.198 A 
ATOM     93  C   UNL A   1      48.121  29.398  34.851  1.00  0.00     0.198 A 
ATOM     94  F   UNL A   1      46.814  30.814  33.507  1.00  0.00    -0.203 F 
ATOM     95  F   UNL A   1      47.354  26.188  36.345  1.00  0.00    -0.200 F 
ATOM     96  C   UNL A   1      48.266  28.225  35.575  1.00  0.00     0.200 A 
ATOM     97  F   UNL A   1      49.131  30.276  34.789  1.00  0.00    -0.200 F 
ATOM     98  F   UNL A   1      49.407  27.980  36.235  1.00  0.00    -0.200 F 
ENDBRANCH  65  88
ENDBRANCH  39  40
ENDBRANCH  32  34
ENDBRANCH  31  32
ENDBRANCH  30  31
ENDBRANCH  29  30
ENDBRANCH  28  29
ENDBRANCH  27  28
ENDBRANCH  26  27
ENDBRANCH  25  26
ENDBRANCH   1  25
TORSDOF 23
ENDMDL
MODEL 2
REMARK VINA RESULT:     -10.0      0.564      7.063
REMARK SMILES CCc1cccc(-c2ccc([C@@H](C)C(=O)OCCOCCOCCOCCOC(=O)c3ccc(-c4c5nc(c(-c6c(F)c(F)c(F)c(F)c6F)c6ccc([nH]6)c(-c6c(F)c(F)c(F)c(F)c6F)c6nc(c(-c7c(F)c(F)c(F)c(F)c7F)c7ccc4[nH]7)C=C6)C=C5)cc3)cc2)c1
REMARK SMILES IDX 21 1 20 2 19 3 18 4 17 5 16 6 14 7 15 8 12 9 13 10 11 11
REMARK SMILES IDX 8 12 9 13 95 14 10 15 94 16 7 17 3 18 4 19 96 20 5 21 6 22
REMARK SMILES IDX 2 23 1 24 22 25 23 26 24 27 25 28 26 29 27 30 28 31 29 32
REMARK SMILES IDX 30 33 31 34 32 35 93 36 33 37 92 38 34 39 35 40 36 41 86 42
REMARK SMILES IDX 37 43 91 44 85 45 87 46 38 47 90 48 84 49 83 50 39 52 71 53
REMARK SMILES IDX 51 54 70 55 52 56 55 57 69 58 88 59 53 60 54 61 68 63 89 64
REMARK SMILES IDX 56 65 40 66 41 67 49 68 42 69 43 70 47 71 50 72 44 73 45 74
REMARK SMILES IDX 48 75 46 76 72 77 73 78 81 79 74 80 75 81 79 82 82 83 76 84
REMARK SMILES IDX 77 85 80 86 78 87 57 88 58 89 66 90 59 91 60 92 64 93 67 94
REMARK SMILES IDX 61 95 62 96 65 97 63 98
REMARK H PARENT 87 51 55 62
REMARK Flexibility Score: inf
ROOT
ATOM      1  C   UNL A   1      33.871  26.000  25.124  1.00  0.00     0.188 C 
ENDROOT
BRANCH   1   2
ATOM      2  C   UNL A   1      32.482  25.758  25.732  1.00  0.00     0.188 C 
BRANCH   2   3
ATOM      3  O   UNL A   1      32.036  24.443  26.032  1.00  0.00    -0.376 OA
BRANCH   3   4
ATOM      4  C   UNL A   1      30.901  23.894  25.380  1.00  0.00     0.202 C 
BRANCH   4   5
ATOM      5  C   UNL A   1      30.915  23.563  23.874  1.00  0.00     0.261 C 
BRANCH   5   6
ATOM      6  O   UNL A   1      32.168  23.130  23.307  1.00  0.00    -0.463 OA
BRANCH   6   7
ATOM      7  C   UNL A   1      32.257  21.819  22.985  1.00  0.00     0.313 C 
ATOM      8  O   UNL A   1      31.653  21.315  22.039  1.00  0.00    -0.252 OA
BRANCH   7   9
ATOM      9  C   UNL A   1      33.143  20.961  23.887  1.00  0.00     0.126 C 
ATOM     10  C   UNL A   1      32.294  20.459  25.050  1.00  0.00     0.025 C 
BRANCH   9  11
ATOM     11  C   UNL A   1      34.507  21.450  24.379  1.00  0.00    -0.034 A 
ATOM     12  C   UNL A   1      37.083  22.241  25.376  1.00  0.00    -0.018 A 
ATOM     13  C   UNL A   1      36.166  23.176  24.858  1.00  0.00     0.009 A 
ATOM     14  C   UNL A   1      36.695  20.897  25.363  1.00  0.00     0.009 A 
ATOM     15  C   UNL A   1      34.900  22.793  24.373  1.00  0.00     0.005 A 
ATOM     16  C   UNL A   1      35.430  20.511  24.887  1.00  0.00     0.005 A 
BRANCH  12  17
ATOM     17  C   UNL A   1      38.354  22.669  26.008  1.00  0.00    -0.018 A 
ATOM     18  C   UNL A   1      40.603  22.212  26.910  1.00  0.00    -0.048 A 
ATOM     19  C   UNL A   1      40.678  23.543  27.348  1.00  0.00     0.004 A 
ATOM     20  C   UNL A   1      39.431  21.786  26.249  1.00  0.00     0.012 A 
ATOM     21  C   UNL A   1      39.631  24.430  27.118  1.00  0.00     0.001 A 
ATOM     22  C   UNL A   1      38.485  23.996  26.455  1.00  0.00     0.009 A 
BRANCH  18  23
ATOM     23  C   UNL A   1      41.760  21.301  27.263  1.00  0.00     0.032 C 
ATOM     24  C   UNL A   1      42.661  20.850  26.123  1.00  0.00     0.009 C 
ENDBRANCH  18  23
ENDBRANCH  12  17
ENDBRANCH   9  11
ENDBRANCH   7   9
ENDBRANCH   6   7
ENDBRANCH   5   6
ENDBRANCH   4   5
ENDBRANCH   3   4
ENDBRANCH   2   3
ENDBRANCH   1   2
BRANCH   1  25
ATOM     25  O   UNL A   1      33.877  26.302  23.745  1.00  0.00    -0.377 OA
BRANCH  25  26
ATOM     26  C   UNL A   1      32.687  26.858  23.211  1.00  0.00     0.188 C 
BRANCH  26  27
ATOM     27  C   UNL A   1      32.730  28.335  22.780  1.00  0.00     0.188 C 
BRANCH  27  28
ATOM     28  O   UNL A   1      32.812  29.251  23.864  1.00  0.00    -0.376 OA
BRANCH  28  29
ATOM     29  C   UNL A   1      31.770  29.270  24.830  1.00  0.00     0.202 C 
BRANCH  29  30
ATOM     30  C   UNL A   1      31.967  30.100  26.111  1.00  0.00     0.261 C 
BRANCH  30  31
ATOM     31  O   UNL A   1      33.296  30.172  26.649  1.00  0.00    -0.460 OA
BRANCH  31  32
ATOM     32  C   UNL A   1      33.662  31.284  27.315  1.00  0.00     0.338 C 
ATOM     33  O   UNL A   1      32.968  32.257  27.561  1.00  0.00    -0.246 OA
BRANCH  32  34
ATOM     34  C   UNL A   1      35.007  31.053  27.885  1.00  0.00     0.060 A 
ATOM     35  C   UNL A   1      35.342  29.765  28.326  1.00  0.00     0.016 A 
ATOM     36  C   UNL A   1      35.933  32.094  27.984  1.00  0.00     0.016 A 
ATOM     37  C   UNL A   1      36.588  29.524  28.906  1.00  0.00     0.010 A 
ATOM     38  C   UNL A   1      37.171  31.858  28.592  1.00  0.00     0.010 A 
ATOM     39  C   UNL A   1      37.489  30.581  29.089  1.00  0.00    -0.014 A 
BRANCH  39  40
ATOM     40  C   UNL A   1      38.662  30.400  29.982  1.00  0.00     0.031 A 
ATOM     41  C   UNL A   1      39.844  29.632  29.454  1.00  0.00     0.074 A 
ATOM     42  C   UNL A   1      38.697  30.924  31.219  1.00  0.00     0.049 A 
ATOM     43  N   UNL A   1      40.955  29.291  30.055  1.00  0.00    -0.248 NA
ATOM     44  C   UNL A   1      39.758  29.187  28.054  1.00  0.00     0.031 C 
ATOM     45  C   UNL A   1      37.641  31.730  31.826  1.00  0.00     0.029 A 
ATOM     46  N   UNL A   1      39.662  30.842  32.193  1.00  0.00    -0.354 N 
ATOM     47  C   UNL A   1      41.692  28.585  29.113  1.00  0.00     0.074 A 
ATOM     48  C   UNL A   1      40.892  28.519  27.909  1.00  0.00     0.031 C 
ATOM     49  C   UNL A   1      38.009  32.057  33.078  1.00  0.00     0.029 A 
ATOM     50  C   UNL A   1      39.307  31.451  33.371  1.00  0.00     0.049 A 
ATOM     51  H   UNL A   1      40.525  30.389  32.059  1.00  0.00     0.167 HD
ATOM     52  C   UNL A   1      42.928  28.047  29.237  1.00  0.00     0.037 A 
ATOM     53  C   UNL A   1      39.948  31.488  34.558  1.00  0.00     0.037 A 
ATOM     54  C   UNL A   1      43.720  28.111  30.436  1.00  0.00     0.049 A 
ATOM     55  C   UNL A   1      41.287  30.804  34.697  1.00  0.00     0.074 A 
ATOM     56  C   UNL A   1      44.990  27.609  30.659  1.00  0.00     0.029 A 
ATOM     57  N   UNL A   1      43.313  28.707  31.621  1.00  0.00    -0.354 N 
ATOM     58  N   UNL A   1      41.988  30.158  33.796  1.00  0.00    -0.248 NA
ATOM     59  C   UNL A   1      41.925  30.858  36.021  1.00  0.00     0.031 C 
ATOM     60  C   UNL A   1      45.324  27.842  31.996  1.00  0.00     0.029 A 
ATOM     61  C   UNL A   1      44.294  28.556  32.587  1.00  0.00     0.049 A 
ATOM     62  H   UNL A   1      42.452  29.168  31.755  1.00  0.00     0.167 HD
ATOM     63  C   UNL A   1      43.160  29.765  34.432  1.00  0.00     0.074 A 
ATOM     64  C   UNL A   1      43.082  30.254  35.791  1.00  0.00     0.031 C 
ATOM     65  C   UNL A   1      44.209  29.062  33.934  1.00  0.00     0.037 A 
BRANCH  52  66
ATOM     66  C   UNL A   1      43.487  27.308  28.055  1.00  0.00     0.064 A 
ATOM     67  C   UNL A   1      44.111  27.976  26.990  1.00  0.00     0.173 A 
ATOM     68  C   UNL A   1      43.433  25.907  28.007  1.00  0.00     0.173 A 
ATOM     69  F   UNL A   1      44.176  29.316  26.978  1.00  0.00    -0.203 F 
ATOM     70  C   UNL A   1      44.635  27.270  25.910  1.00  0.00     0.198 A 
ATOM     71  C   UNL A   1      43.990  25.202  26.943  1.00  0.00     0.198 A 
ATOM     72  F   UNL A   1      42.852  25.217  29.001  1.00  0.00    -0.203 F 
ATOM     73  F   UNL A   1      45.182  27.931  24.881  1.00  0.00    -0.200 F 
ATOM     74  C   UNL A   1      44.582  25.884  25.893  1.00  0.00     0.200 A 
ATOM     75  F   UNL A   1      43.950  23.862  26.935  1.00  0.00    -0.200 F 
ATOM     76  F   UNL A   1      45.098  25.206  24.857  1.00  0.00    -0.200 F 
ENDBRANCH  52  66
BRANCH  53  77
ATOM     77  C   UNL A   1      39.329  32.178  35.722  1.00  0.00     0.064 A 
ATOM     78  C   UNL A   1      39.665  33.501  36.046  1.00  0.00     0.173 A 
ATOM     79  C   UNL A   1      38.421  31.516  36.563  1.00  0.00     0.173 A 
ATOM     80  F   UNL A   1      40.551  34.170  35.292  1.00  0.00    -0.203 F 
ATOM     81  C   UNL A   1      39.138  34.125  37.175  1.00  0.00     0.198 A 
ATOM     82  C   UNL A   1      37.867  32.152  37.672  1.00  0.00     0.198 A 
ATOM     83  F   UNL A   1      38.069  30.248  36.304  1.00  0.00    -0.203 F 
ATOM     84  F   UNL A   1      39.523  35.368  37.493  1.00  0.00    -0.200 F 
ATOM     85  C   UNL A   1      38.235  33.451  37.984  1.00  0.00     0.200 A 
ATOM     86  F   UNL A   1      36.986  31.501  38.443  1.00  0.00    -0.200 F 
ATOM     87  F   UNL A   1      37.729  34.051  39.070  1.00  0.00    -0.200 F 
ENDBRANCH  53  77
BRANCH  65  88
ATOM     88  C   UNL A   1      45.384  28.826  34.842  1.00  0.00     0.064 A 
ATOM     89  C   UNL A   1      45.477  27.688  35.657  1.00  0.00     0.173 A 
ATOM     90  C   UNL A   1      46.457  29.732  34.860  1.00  0.00     0.173 A 
ATOM     91  F   UNL A   1      44.476  26.795  35.687  1.00  0.00    -0.203 F 
ATOM     92  C   UNL A   1      46.584  27.482  36.477  1.00  0.00     0.198 A 
ATOM     93  C   UNL A   1      47.578  29.504  35.653  1.00  0.00     0.198 A 
ATOM     94  F   UNL A   1      46.427  30.832  34.093  1.00  0.00    -0.203 F 
ATOM     95  F   UNL A   1      46.625  26.415  37.287  1.00  0.00    -0.200 F 
ATOM     96  C   UNL A   1      47.637  28.385  36.468  1.00  0.00     0.200 A 
ATOM     97  F   UNL A   1      48.602  30.367  35.627  1.00  0.00    -0.200 F 
ATOM     98  F   UNL A   1      48.706  28.178  37.250  1.00  0.00    -0.200 F 
ENDBRANCH  65  88
ENDBRANCH  39  40
ENDBRANCH  32  34
ENDBRANCH  31  32
ENDBRANCH  30  31
ENDBRANCH  29  30
ENDBRANCH  28  29
ENDBRANCH  27  28
ENDBRANCH  26  27
ENDBRANCH  25  26
ENDBRANCH   1  25
TORSDOF 23
ENDMDL
MODEL 3
REMARK VINA RESULT:     -10.0      4.142      7.358
REMARK SMILES CCc1cccc(-c2ccc([C@@H](C)C(=O)OCCOCCOCCOCCOC(=O)c3ccc(-c4c5nc(c(-c6c(F)c(F)c(F)c(F)c6F)c6ccc([nH]6)c(-c6c(F)c(F)c(F)c(F)c6F)c6nc(c(-c7c(F)c(F)c(F)c(F)c7F)c7ccc4[nH]7)C=C6)C=C5)cc3)cc2)c1
REMARK SMILES IDX 21 1 20 2 19 3 18 4 17 5 16 6 14 7 15 8 12 9 13 10 11 11
REMARK SMILES IDX 8 12 9 13 95 14 10 15 94 16 7 17 3 18 4 19 96 20 5 21 6 22
REMARK SMILES IDX 2 23 1 24 22 25 23 26 24 27 25 28 26 29 27 30 28 31 29 32
REMARK SMILES IDX 30 33 31 34 32 35 93 36 33 37 92 38 34 39 35 40 36 41 86 42
REMARK SMILES IDX 37 43 91 44 85 45 87 46 38 47 90 48 84 49 83 50 39 52 71 53
REMARK SMILES IDX 51 54 70 55 52 56 55 57 69 58 88 59 53 60 54 61 68 63 89 64
REMARK SMILES IDX 56 65 40 66 41 67 49 68 42 69 43 70 47 71 50 72 44 73 45 74
REMARK SMILES IDX 48 75 46 76 72 77 73 78 81 79 74 80 75 81 79 82 82 83 76 84
REMARK SMILES IDX 77 85 80 86 78 87 57 88 58 89 66 90 59 91 60 92 64 93 67 94
REMARK SMILES IDX 61 95 62 96 65 97 63 98
REMARK H PARENT 87 51 55 62
REMARK Flexibility Score: inf
ROOT
ATOM      1  C   UNL A   1      35.087  31.035  28.450  1.00  0.00     0.188 C 
ENDROOT
BRANCH   1   2
ATOM      2  C   UNL A   1      34.424  29.920  27.629  1.00  0.00     0.188 C 
BRANCH   2   3
ATOM      3  O   UNL A   1      33.135  30.101  27.059  1.00  0.00    -0.376 OA
BRANCH   3   4
ATOM      4  C   UNL A   1      32.875  29.721  25.715  1.00  0.00     0.202 C 
BRANCH   4   5
ATOM      5  C   UNL A   1      31.509  29.984  25.052  1.00  0.00     0.261 C 
BRANCH   5   6
ATOM      6  O   UNL A   1      30.715  28.832  24.697  1.00  0.00    -0.463 OA
BRANCH   6   7
ATOM      7  C   UNL A   1      30.893  28.345  23.448  1.00  0.00     0.313 C 
ATOM      8  O   UNL A   1      31.511  28.950  22.571  1.00  0.00    -0.252 OA
BRANCH   7   9
ATOM      9  C   UNL A   1      30.256  26.988  23.155  1.00  0.00     0.126 C 
ATOM     10  C   UNL A   1      28.822  27.013  23.674  1.00  0.00     0.025 C 
BRANCH   9  11
ATOM     11  C   UNL A   1      30.948  25.675  23.528  1.00  0.00    -0.034 A 
ATOM     12  C   UNL A   1      32.374  23.284  24.240  1.00  0.00    -0.018 A 
ATOM     13  C   UNL A   1      31.110  23.241  23.618  1.00  0.00     0.009 A 
ATOM     14  C   UNL A   1      32.900  24.549  24.521  1.00  0.00     0.009 A 
ATOM     15  C   UNL A   1      30.411  24.411  23.263  1.00  0.00     0.005 A 
ATOM     16  C   UNL A   1      32.208  25.720  24.162  1.00  0.00     0.005 A 
BRANCH  12  17
ATOM     17  C   UNL A   1      33.161  22.052  24.485  1.00  0.00    -0.018 A 
ATOM     18  C   UNL A   1      35.250  20.879  25.069  1.00  0.00    -0.048 A 
ATOM     19  C   UNL A   1      34.621  19.657  24.786  1.00  0.00     0.004 A 
ATOM     20  C   UNL A   1      34.510  22.070  24.906  1.00  0.00     0.012 A 
ATOM     21  C   UNL A   1      33.293  19.616  24.374  1.00  0.00     0.001 A 
ATOM     22  C   UNL A   1      32.574  20.801  24.228  1.00  0.00     0.009 A 
BRANCH  18  23
ATOM     23  C   UNL A   1      36.716  20.833  25.446  1.00  0.00     0.032 C 
ATOM     24  C   UNL A   1      37.607  19.892  24.650  1.00  0.00     0.009 C 
ENDBRANCH  18  23
ENDBRANCH  12  17
ENDBRANCH   9  11
ENDBRANCH   7   9
ENDBRANCH   6   7
ENDBRANCH   5   6
ENDBRANCH   4   5
ENDBRANCH   3   4
ENDBRANCH   2   3
ENDBRANCH   1   2
BRANCH   1  25
ATOM     25  O   UNL A   1      35.627  32.097  27.691  1.00  0.00    -0.377 OA
BRANCH  25  26
ATOM     26  C   UNL A   1      35.178  33.402  28.018  1.00  0.00     0.188 C 
BRANCH  26  27
ATOM     27  C   UNL A   1      34.270  33.547  29.252  1.00  0.00     0.188 C 
BRANCH  27  28
ATOM     28  O   UNL A   1      34.755  34.468  30.221  1.00  0.00    -0.376 OA
BRANCH  28  29
ATOM     29  C   UNL A   1      34.427  34.265  31.589  1.00  0.00     0.202 C 
BRANCH  29  30
ATOM     30  C   UNL A   1      34.465  32.832  32.151  1.00  0.00     0.261 C 
BRANCH  30  31
ATOM     31  O   UNL A   1      35.548  32.502  33.034  1.00  0.00    -0.460 OA
BRANCH  31  32
ATOM     32  C   UNL A   1      36.705  33.182  32.914  1.00  0.00     0.338 C 
ATOM     33  O   UNL A   1      37.009  34.222  33.475  1.00  0.00    -0.246 OA
BRANCH  32  34
ATOM     34  C   UNL A   1      37.645  32.349  32.133  1.00  0.00     0.060 A 
ATOM     35  C   UNL A   1      38.541  31.516  32.818  1.00  0.00     0.016 A 
ATOM     36  C   UNL A   1      37.645  32.386  30.736  1.00  0.00     0.016 A 
ATOM     37  C   UNL A   1      39.467  30.750  32.110  1.00  0.00     0.010 A 
ATOM     38  C   UNL A   1      38.593  31.639  30.028  1.00  0.00     0.010 A 
ATOM     39  C   UNL A   1      39.532  30.846  30.714  1.00  0.00    -0.014 A 
BRANCH  39  40
ATOM     40  C   UNL A   1      40.706  30.292  29.993  1.00  0.00     0.031 A 
ATOM     41  C   UNL A   1      41.873  31.205  29.729  1.00  0.00     0.074 A 
ATOM     42  C   UNL A   1      40.754  29.006  29.604  1.00  0.00     0.049 A 
ATOM     43  N   UNL A   1      42.981  30.976  29.070  1.00  0.00    -0.248 NA
ATOM     44  C   UNL A   1      41.774  32.565  30.282  1.00  0.00     0.031 C 
ATOM     45  C   UNL A   1      39.714  28.010  29.846  1.00  0.00     0.029 A 
ATOM     46  N   UNL A   1      41.722  28.323  28.908  1.00  0.00    -0.354 N 
ATOM     47  C   UNL A   1      43.703  32.162  29.124  1.00  0.00     0.074 A 
ATOM     48  C   UNL A   1      42.896  33.118  29.851  1.00  0.00     0.031 C 
ATOM     49  C   UNL A   1      40.092  26.844  29.293  1.00  0.00     0.029 A 
ATOM     50  C   UNL A   1      41.382  27.023  28.627  1.00  0.00     0.049 A 
ATOM     51  H   UNL A   1      42.578  28.727  28.637  1.00  0.00     0.167 HD
ATOM     52  C   UNL A   1      44.930  32.427  28.618  1.00  0.00     0.037 A 
ATOM     53  C   UNL A   1      42.029  26.096  27.890  1.00  0.00     0.037 A 
ATOM     54  C   UNL A   1      45.728  31.475  27.893  1.00  0.00     0.049 A 
ATOM     55  C   UNL A   1      43.357  26.444  27.263  1.00  0.00     0.074 A 
ATOM     56  C   UNL A   1      46.991  31.642  27.352  1.00  0.00     0.029 A 
ATOM     57  N   UNL A   1      45.336  30.178  27.598  1.00  0.00    -0.354 N 
ATOM     58  N   UNL A   1      44.044  27.559  27.335  1.00  0.00    -0.248 NA
ATOM     59  C   UNL A   1      44.001  25.400  26.451  1.00  0.00     0.031 C 
ATOM     60  C   UNL A   1      47.334  30.469  26.674  1.00  0.00     0.029 A 
ATOM     61  C   UNL A   1      46.318  29.544  26.855  1.00  0.00     0.049 A 
ATOM     62  H   UNL A   1      44.483  29.768  27.875  1.00  0.00     0.167 HD
ATOM     63  C   UNL A   1      45.212  27.338  26.615  1.00  0.00     0.074 A 
ATOM     64  C   UNL A   1      45.148  25.979  26.123  1.00  0.00     0.031 C 
ATOM     65  C   UNL A   1      46.247  28.184  26.383  1.00  0.00     0.037 A 
BRANCH  52  66
ATOM     66  C   UNL A   1      45.472  33.816  28.800  1.00  0.00     0.064 A 
ATOM     67  C   UNL A   1      45.279  34.819  27.838  1.00  0.00     0.173 A 
ATOM     68  C   UNL A   1      46.162  34.158  29.974  1.00  0.00     0.173 A 
ATOM     69  F   UNL A   1      44.641  34.542  26.691  1.00  0.00    -0.203 F 
ATOM     70  C   UNL A   1      45.779  36.104  28.033  1.00  0.00     0.198 A 
ATOM     71  C   UNL A   1      46.629  35.453  30.181  1.00  0.00     0.198 A 
ATOM     72  F   UNL A   1      46.371  33.238  30.928  1.00  0.00    -0.203 F 
ATOM     73  F   UNL A   1      45.625  37.033  27.079  1.00  0.00    -0.200 F 
ATOM     74  C   UNL A   1      46.444  36.422  29.208  1.00  0.00     0.200 A 
ATOM     75  F   UNL A   1      47.259  35.761  31.323  1.00  0.00    -0.200 F 
ATOM     76  F   UNL A   1      46.914  37.663  29.399  1.00  0.00    -0.200 F 
ENDBRANCH  52  66
BRANCH  53  77
ATOM     77  C   UNL A   1      41.426  24.751  27.683  1.00  0.00     0.064 A 
ATOM     78  C   UNL A   1      41.969  23.609  28.289  1.00  0.00     0.173 A 
ATOM     79  C   UNL A   1      40.319  24.572  26.838  1.00  0.00     0.173 A 
ATOM     80  F   UNL A   1      43.046  23.721  29.082  1.00  0.00    -0.203 F 
ATOM     81  C   UNL A   1      41.448  22.341  28.040  1.00  0.00     0.198 A 
ATOM     82  C   UNL A   1      39.776  23.308  26.618  1.00  0.00     0.198 A 
ATOM     83  F   UNL A   1      39.763  25.628  26.227  1.00  0.00    -0.203 F 
ATOM     84  F   UNL A   1      42.025  21.262  28.586  1.00  0.00    -0.200 F 
ATOM     85  C   UNL A   1      40.348  22.193  27.209  1.00  0.00     0.200 A 
ATOM     86  F   UNL A   1      38.705  23.171  25.823  1.00  0.00    -0.200 F 
ATOM     87  F   UNL A   1      39.846  20.973  26.969  1.00  0.00    -0.200 F 
ENDBRANCH  53  77
BRANCH  65  88
ATOM     88  C   UNL A   1      47.422  27.653  25.610  1.00  0.00     0.064 A 
ATOM     89  C   UNL A   1      47.474  27.704  24.209  1.00  0.00     0.173 A 
ATOM     90  C   UNL A   1      48.535  27.127  26.286  1.00  0.00     0.173 A 
ATOM     91  F   UNL A   1      46.435  28.186  23.511  1.00  0.00    -0.203 F 
ATOM     92  C   UNL A   1      48.582  27.222  23.515  1.00  0.00     0.198 A 
ATOM     93  C   UNL A   1      49.655  26.680  25.591  1.00  0.00     0.198 A 
ATOM     94  F   UNL A   1      48.544  27.064  27.626  1.00  0.00    -0.203 F 
ATOM     95  F   UNL A   1      48.585  27.231  22.174  1.00  0.00    -0.200 F 
ATOM     96  C   UNL A   1      49.674  26.719  24.206  1.00  0.00     0.200 A 
ATOM     97  F   UNL A   1      50.716  26.214  26.262  1.00  0.00    -0.200 F 
ATOM     98  F   UNL A   1      50.743  26.265  23.536  1.00  0.00    -0.200 F 
ENDBRANCH  65  88
ENDBRANCH  39  40
ENDBRANCH  32  34
ENDBRANCH  31  32
ENDBRANCH  30  31
ENDBRANCH  29  30
ENDBRANCH  28  29
ENDBRANCH  27  28
ENDBRANCH  26  27
ENDBRANCH  25  26
ENDBRANCH   1  25
TORSDOF 23
ENDMDL
