MODEL 1
REMARK VINA RESULT:     -11.9      0.000      0.000
REMARK SMILES CCCc1cc(S(F)(F)(F)(F)F)cc2c1O[C@@H](C(F)(F)F)C(C(=O)OCCOCCOCCOCCOC(=O)c1ccc(-c3c4nc(c(-c5c(F)c(F)c(F)c(F)c5F)c5ccc([nH]5)c(-c5c(F)c(F)c(F)c(F)c5F)c5nc(c(-c6c(F)c(F)c(F)c(F)c6F)c6ccc3[nH]6)C=C5)C=C4)cc1)=C2
REMARK SMILES IDX 31 1 30 2 29 3 28 4 27 5 26 6 25 7 23 8 24 9 22 10 4 11 5 12
REMARK SMILES IDX 15 13 6 14 14 15 16 16 13 17 103 18 17 19 3 20 2 21 1 22
REMARK SMILES IDX 7 23 8 24 9 25 10 26 11 27 12 28 18 29 19 30 20 31 21 32
REMARK SMILES IDX 32 33 33 34 34 35 35 36 36 37 37 38 38 39 39 40 40 41 41 42
REMARK SMILES IDX 102 43 42 44 101 45 43 46 44 47 45 48 95 49 46 50 100 51
REMARK SMILES IDX 94 52 96 53 47 54 99 55 93 56 92 57 48 59 80 60 60 61 79 62
REMARK SMILES IDX 61 63 64 64 78 65 97 66 62 67 63 68 77 70 98 71 65 72 49 73
REMARK SMILES IDX 50 74 58 75 51 76 52 77 56 78 59 79 53 80 54 81 57 82 55 83
REMARK SMILES IDX 81 84 82 85 90 86 83 87 84 88 88 89 91 90 85 91 86 92 89 93
REMARK SMILES IDX 87 94 66 95 67 96 75 97 68 98 69 99 73 100 76 101 70 102
REMARK SMILES IDX 71 103 74 104 72 105
REMARK H PARENT 96 58 64 69
REMARK Flexibility Score: inf
ROOT
ATOM      1  O   UNL A   1      33.235  28.478  24.585  1.00  0.00    -0.377 OA
ENDROOT
BRANCH   1   2
ATOM      2  C   UNL A   1      33.059  28.956  23.259  1.00  0.00     0.188 C 
BRANCH   2   3
ATOM      3  C   UNL A   1      31.904  28.218  22.603  1.00  0.00     0.188 C 
BRANCH   3   4
ATOM      4  O   UNL A   1      31.419  27.217  23.487  1.00  0.00    -0.376 OA
BRANCH   4   5
ATOM      5  C   UNL A   1      30.008  27.329  23.602  1.00  0.00     0.202 C 
BRANCH   5   6
ATOM      6  C   UNL A   1      29.468  26.148  24.392  1.00  0.00     0.261 C 
BRANCH   6   7
ATOM      7  O   UNL A   1      30.403  25.081  24.348  1.00  0.00    -0.460 OA
BRANCH   7   8
ATOM      8  C   UNL A   1      30.732  24.375  25.536  1.00  0.00     0.338 C 
ATOM      9  O   UNL A   1      30.085  24.598  26.607  1.00  0.00    -0.246 OA
BRANCH   8  10
ATOM     10  C   UNL A   1      31.855  23.351  25.525  1.00  0.00     0.087 C 
ATOM     11  C   UNL A   1      35.095  20.756  25.055  1.00  0.00    -0.004 A 
ATOM     12  C   UNL A   1      34.874  19.415  24.801  1.00  0.00     0.032 A 
ATOM     13  C   UNL A   1      34.012  21.597  25.152  1.00  0.00     0.131 A 
ATOM     14  C   UNL A   1      33.602  18.928  24.644  1.00  0.00     0.108 A 
ATOM     15  C   UNL A   1      32.714  21.138  25.017  1.00  0.00     0.019 A 
ATOM     16  O   UNL A   1      34.252  22.942  25.292  1.00  0.00    -0.475 OA
ATOM     17  C   UNL A   1      32.527  19.785  24.757  1.00  0.00     0.036 A 
ATOM     18  C   UNL A   1      31.640  22.113  25.097  1.00  0.00     0.027 C 
ATOM     19  C   UNL A   1      33.252  23.724  26.003  1.00  0.00     0.316 C 
BRANCH  11  20
ATOM     20  C   UNL A   1      36.478  21.295  25.379  1.00  0.00     0.039 C 
BRANCH  20  21
ATOM     21  C   UNL A   1      36.907  22.271  24.296  1.00  0.00     0.001 C 
ATOM     22  C   UNL A   1      37.541  23.495  24.938  1.00  0.00     0.004 C 
ENDBRANCH  20  21
ENDBRANCH  11  20
BRANCH  14  23
ATOM     23  S   UNL A   1      33.335  17.173  24.288  1.00  0.00     0.310 S 
ATOM     24  F   UNL A   1      34.843  16.681  24.252  1.00  0.00    -0.094 F 
ATOM     25  F   UNL A   1      33.452  17.422  22.736  1.00  0.00    -0.094 F 
ATOM     26  F   UNL A   1      32.912  15.697  24.048  1.00  0.00    -0.094 F 
ATOM     27  F   UNL A   1      33.361  16.905  25.844  1.00  0.00    -0.094 F 
ATOM     28  F   UNL A   1      33.874  18.637  24.547  1.00  0.00    -0.094 F 
ENDBRANCH  14  23
BRANCH  19  29
ATOM     29  C   UNL A   1      33.491  25.200  25.733  1.00  0.00     0.430 C 
ATOM     30  F   UNL A   1      32.628  25.926  26.437  1.00  0.00    -0.167 F 
ATOM     31  F   UNL A   1      34.732  25.520  26.087  1.00  0.00    -0.167 F 
ATOM     32  F   UNL A   1      33.323  25.446  24.436  1.00  0.00    -0.167 F 
ENDBRANCH  19  29
ENDBRANCH   8  10
ENDBRANCH   7   8
ENDBRANCH   6   7
ENDBRANCH   5   6
ENDBRANCH   4   5
ENDBRANCH   3   4
ENDBRANCH   2   3
ENDBRANCH   1   2
BRANCH   1  33
ATOM     33  C   UNL A   1      33.203  29.573  25.490  1.00  0.00     0.188 C 
BRANCH  33  34
ATOM     34  C   UNL A   1      31.774  30.070  25.633  1.00  0.00     0.188 C 
BRANCH  34  35
ATOM     35  O   UNL A   1      31.634  30.760  26.865  1.00  0.00    -0.376 OA
BRANCH  35  36
ATOM     36  C   UNL A   1      31.464  32.147  26.615  1.00  0.00     0.202 C 
BRANCH  36  37
ATOM     37  C   UNL A   1      32.613  32.920  27.242  1.00  0.00     0.261 C 
BRANCH  37  38
ATOM     38  O   UNL A   1      32.159  34.208  27.632  1.00  0.00    -0.460 OA
BRANCH  38  39
ATOM     39  C   UNL A   1      32.902  34.967  28.575  1.00  0.00     0.338 C 
ATOM     40  O   UNL A   1      32.586  36.175  28.808  1.00  0.00    -0.246 OA
BRANCH  39  41
ATOM     41  C   UNL A   1      34.074  34.331  29.306  1.00  0.00     0.060 A 
ATOM     42  C   UNL A   1      33.860  33.534  30.418  1.00  0.00     0.016 A 
ATOM     43  C   UNL A   1      35.291  34.501  28.804  1.00  0.00     0.016 A 
ATOM     44  C   UNL A   1      35.043  33.186  31.110  1.00  0.00     0.010 A 
ATOM     45  C   UNL A   1      36.394  34.017  29.465  1.00  0.00     0.010 A 
ATOM     46  C   UNL A   1      36.260  33.270  30.603  1.00  0.00    -0.014 A 
BRANCH  46  47
ATOM     47  C   UNL A   1      37.448  32.574  31.249  1.00  0.00     0.031 A 
ATOM     48  C   UNL A   1      38.028  31.515  30.550  1.00  0.00     0.074 A 
ATOM     49  C   UNL A   1      37.854  32.988  32.506  1.00  0.00     0.049 A 
ATOM     50  N   UNL A   1      39.059  30.758  30.929  1.00  0.00    -0.248 NA
ATOM     51  C   UNL A   1      37.574  31.051  29.230  1.00  0.00     0.031 C 
ATOM     52  C   UNL A   1      37.279  34.062  33.213  1.00  0.00     0.029 A 
ATOM     53  N   UNL A   1      38.859  32.459  33.286  1.00  0.00    -0.354 N 
ATOM     54  C   UNL A   1      39.340  29.856  29.986  1.00  0.00     0.074 A 
ATOM     55  C   UNL A   1      38.385  30.028  28.882  1.00  0.00     0.031 C 
ATOM     56  C   UNL A   1      37.920  34.170  34.407  1.00  0.00     0.029 A 
ATOM     57  C   UNL A   1      38.907  33.168  34.466  1.00  0.00     0.049 A 
ATOM     58  H   UNL A   1      39.442  31.704  33.042  1.00  0.00     0.167 HD
ATOM     59  C   UNL A   1      40.356  28.900  30.001  1.00  0.00     0.037 A 
ATOM     60  C   UNL A   1      39.753  32.965  35.544  1.00  0.00     0.037 A 
ATOM     61  C   UNL A   1      41.231  28.726  31.062  1.00  0.00     0.049 A 
ATOM     62  C   UNL A   1      40.732  31.970  35.584  1.00  0.00     0.074 A 
ATOM     63  C   UNL A   1      42.266  27.771  31.092  1.00  0.00     0.029 A 
ATOM     64  N   UNL A   1      41.263  29.418  32.253  1.00  0.00    -0.354 N 
ATOM     65  N   UNL A   1      41.038  31.095  34.626  1.00  0.00    -0.248 NA
ATOM     66  C   UNL A   1      41.612  31.724  36.734  1.00  0.00     0.031 C 
ATOM     67  C   UNL A   1      42.907  27.880  32.286  1.00  0.00     0.029 A 
ATOM     68  C   UNL A   1      42.282  28.904  33.023  1.00  0.00     0.049 A 
ATOM     69  H   UNL A   1      40.660  30.154  32.508  1.00  0.00     0.167 HD
ATOM     70  C   UNL A   1      42.043  30.311  35.022  1.00  0.00     0.074 A 
ATOM     71  C   UNL A   1      42.422  30.700  36.388  1.00  0.00     0.031 C 
ATOM     72  C   UNL A   1      42.662  29.289  34.300  1.00  0.00     0.037 A 
BRANCH  59  73
ATOM     73  C   UNL A   1      40.512  27.998  28.788  1.00  0.00     0.064 A 
ATOM     74  C   UNL A   1      41.344  28.397  27.755  1.00  0.00     0.173 A 
ATOM     75  C   UNL A   1      39.862  26.842  28.741  1.00  0.00     0.173 A 
ATOM     76  F   UNL A   1      42.201  29.408  27.864  1.00  0.00    -0.203 F 
ATOM     77  C   UNL A   1      41.199  27.632  26.574  1.00  0.00     0.198 A 
ATOM     78  C   UNL A   1      39.875  26.078  27.599  1.00  0.00     0.198 A 
ATOM     79  F   UNL A   1      39.192  26.417  29.809  1.00  0.00    -0.203 F 
ATOM     80  F   UNL A   1      41.671  28.146  25.442  1.00  0.00    -0.200 F 
ATOM     81  C   UNL A   1      40.628  26.443  26.518  1.00  0.00     0.200 A 
ATOM     82  F   UNL A   1      39.144  24.968  27.544  1.00  0.00    -0.200 F 
ATOM     83  F   UNL A   1      40.778  25.642  25.465  1.00  0.00    -0.200 F 
ENDBRANCH  59  73
BRANCH  60  84
ATOM     84  C   UNL A   1      39.608  33.878  36.751  1.00  0.00     0.064 A 
ATOM     85  C   UNL A   1      40.348  35.046  36.807  1.00  0.00     0.173 A 
ATOM     86  C   UNL A   1      38.784  33.536  37.735  1.00  0.00     0.173 A 
ATOM     87  F   UNL A   1      40.982  35.555  35.753  1.00  0.00    -0.203 F 
ATOM     88  C   UNL A   1      40.370  35.652  38.085  1.00  0.00     0.198 A 
ATOM     89  C   UNL A   1      38.760  34.254  38.907  1.00  0.00     0.198 A 
ATOM     90  F   UNL A   1      37.977  32.490  37.587  1.00  0.00    -0.203 F 
ATOM     91  F   UNL A   1      41.320  36.550  38.330  1.00  0.00    -0.200 F 
ATOM     92  C   UNL A   1      39.511  35.386  39.053  1.00  0.00     0.200 A 
ATOM     93  F   UNL A   1      37.994  33.841  39.912  1.00  0.00    -0.200 F 
ATOM     94  F   UNL A   1      39.384  36.180  40.114  1.00  0.00    -0.200 F 
ENDBRANCH  60  84
BRANCH  72  95
ATOM     95  C   UNL A   1      43.822  28.555  34.951  1.00  0.00     0.064 A 
ATOM     96  C   UNL A   1      45.112  29.039  34.807  1.00  0.00     0.173 A 
ATOM     97  C   UNL A   1      43.567  27.479  35.688  1.00  0.00     0.173 A 
ATOM     98  F   UNL A   1      45.384  30.238  34.300  1.00  0.00    -0.203 F 
ATOM     99  C   UNL A   1      46.112  28.142  35.250  1.00  0.00     0.198 A 
ATOM    100  C   UNL A   1      44.594  26.725  36.202  1.00  0.00     0.198 A 
ATOM    101  F   UNL A   1      42.308  27.128  35.928  1.00  0.00    -0.203 F 
ATOM    102  F   UNL A   1      47.358  28.350  34.832  1.00  0.00    -0.200 F 
ATOM    103  C   UNL A   1      45.896  27.112  36.047  1.00  0.00     0.200 A 
ATOM    104  F   UNL A   1      44.318  25.603  36.860  1.00  0.00    -0.200 F 
ATOM    105  F   UNL A   1      46.892  26.486  36.668  1.00  0.00    -0.200 F 
ENDBRANCH  72  95
ENDBRANCH  46  47
ENDBRANCH  39  41
ENDBRANCH  38  39
ENDBRANCH  37  38
ENDBRANCH  36  37
ENDBRANCH  35  36
ENDBRANCH  34  35
ENDBRANCH  33  34
ENDBRANCH   1  33
TORSDOF 24
ENDMDL
MODEL 2
REMARK VINA RESULT:     -11.6      0.687      6.692
REMARK SMILES CCCc1cc(S(F)(F)(F)(F)F)cc2c1O[C@@H](C(F)(F)F)C(C(=O)OCCOCCOCCOCCOC(=O)c1ccc(-c3c4nc(c(-c5c(F)c(F)c(F)c(F)c5F)c5ccc([nH]5)c(-c5c(F)c(F)c(F)c(F)c5F)c5nc(c(-c6c(F)c(F)c(F)c(F)c6F)c6ccc3[nH]6)C=C5)C=C4)cc1)=C2
REMARK SMILES IDX 31 1 30 2 29 3 28 4 27 5 26 6 25 7 23 8 24 9 22 10 4 11 5 12
REMARK SMILES IDX 15 13 6 14 14 15 16 16 13 17 103 18 17 19 3 20 2 21 1 22
REMARK SMILES IDX 7 23 8 24 9 25 10 26 11 27 12 28 18 29 19 30 20 31 21 32
REMARK SMILES IDX 32 33 33 34 34 35 35 36 36 37 37 38 38 39 39 40 40 41 41 42
REMARK SMILES IDX 102 43 42 44 101 45 43 46 44 47 45 48 95 49 46 50 100 51
REMARK SMILES IDX 94 52 96 53 47 54 99 55 93 56 92 57 48 59 80 60 60 61 79 62
REMARK SMILES IDX 61 63 64 64 78 65 97 66 62 67 63 68 77 70 98 71 65 72 49 73
REMARK SMILES IDX 50 74 58 75 51 76 52 77 56 78 59 79 53 80 54 81 57 82 55 83
REMARK SMILES IDX 81 84 82 85 90 86 83 87 84 88 88 89 91 90 85 91 86 92 89 93
REMARK SMILES IDX 87 94 66 95 67 96 75 97 68 98 69 99 73 100 76 101 70 102
REMARK SMILES IDX 71 103 74 104 72 105
REMARK H PARENT 96 58 64 69
REMARK Flexibility Score: inf
ROOT
ATOM      1  O   UNL A   1      32.412  28.636  23.985  1.00  0.00    -0.377 OA
ENDROOT
BRANCH   1   2
ATOM      2  C   UNL A   1      32.099  29.265  22.750  1.00  0.00     0.188 C 
BRANCH   2   3
ATOM      3  C   UNL A   1      30.702  28.858  22.314  1.00  0.00     0.188 C 
BRANCH   3   4
ATOM      4  O   UNL A   1      30.390  27.582  22.855  1.00  0.00    -0.376 OA
BRANCH   4   5
ATOM      5  C   UNL A   1      29.114  27.631  23.478  1.00  0.00     0.202 C 
BRANCH   5   6
ATOM      6  C   UNL A   1      28.869  26.335  24.233  1.00  0.00     0.261 C 
BRANCH   6   7
ATOM      7  O   UNL A   1      30.084  25.608  24.334  1.00  0.00    -0.460 OA
BRANCH   7   8
ATOM      8  C   UNL A   1      30.410  24.933  25.541  1.00  0.00     0.338 C 
ATOM      9  O   UNL A   1      29.733  25.152  26.594  1.00  0.00    -0.246 OA
BRANCH   8  10
ATOM     10  C   UNL A   1      31.567  23.949  25.572  1.00  0.00     0.087 C 
ATOM     11  C   UNL A   1      34.891  21.444  25.206  1.00  0.00    -0.004 A 
ATOM     12  C   UNL A   1      34.714  20.085  25.023  1.00  0.00     0.032 A 
ATOM     13  C   UNL A   1      33.781  22.252  25.270  1.00  0.00     0.131 A 
ATOM     14  C   UNL A   1      33.459  19.548  24.903  1.00  0.00     0.108 A 
ATOM     15  C   UNL A   1      32.498  21.743  25.171  1.00  0.00     0.019 A 
ATOM     16  O   UNL A   1      33.975  23.610  25.338  1.00  0.00    -0.475 OA
ATOM     17  C   UNL A   1      32.356  20.373  24.983  1.00  0.00     0.036 A 
ATOM     18  C   UNL A   1      31.392  22.684  25.211  1.00  0.00     0.027 C 
ATOM     19  C   UNL A   1      32.955  24.393  26.017  1.00  0.00     0.316 C 
BRANCH  11  20
ATOM     20  C   UNL A   1      36.257  22.046  25.489  1.00  0.00     0.039 C 
BRANCH  20  21
ATOM     21  C   UNL A   1      37.107  21.987  24.229  1.00  0.00     0.001 C 
ATOM     22  C   UNL A   1      36.575  22.983  23.212  1.00  0.00     0.004 C 
ENDBRANCH  20  21
ENDBRANCH  11  20
BRANCH  14  23
ATOM     23  S   UNL A   1      33.249  17.769  24.641  1.00  0.00     0.310 S 
ATOM     24  F   UNL A   1      31.739  17.751  24.157  1.00  0.00    -0.094 F 
ATOM     25  F   UNL A   1      32.709  17.569  26.108  1.00  0.00    -0.094 F 
ATOM     26  F   UNL A   1      33.277  16.232  24.411  1.00  0.00    -0.094 F 
ATOM     27  F   UNL A   1      33.655  17.995  23.131  1.00  0.00    -0.094 F 
ATOM     28  F   UNL A   1      33.117  19.334  24.823  1.00  0.00    -0.094 F 
ENDBRANCH  14  23
BRANCH  19  29
ATOM     29  C   UNL A   1      33.141  25.861  25.669  1.00  0.00     0.430 C 
ATOM     30  F   UNL A   1      34.395  26.222  25.927  1.00  0.00    -0.167 F 
ATOM     31  F   UNL A   1      32.883  26.047  24.378  1.00  0.00    -0.167 F 
ATOM     32  F   UNL A   1      32.308  26.598  26.399  1.00  0.00    -0.167 F 
ENDBRANCH  19  29
ENDBRANCH   8  10
ENDBRANCH   7   8
ENDBRANCH   6   7
ENDBRANCH   5   6
ENDBRANCH   4   5
ENDBRANCH   3   4
ENDBRANCH   2   3
ENDBRANCH   1   2
BRANCH   1  33
ATOM     33  C   UNL A   1      32.808  29.619  24.930  1.00  0.00     0.188 C 
BRANCH  33  34
ATOM     34  C   UNL A   1      31.574  30.297  25.504  1.00  0.00     0.188 C 
BRANCH  34  35
ATOM     35  O   UNL A   1      31.900  30.901  26.746  1.00  0.00    -0.376 OA
BRANCH  35  36
ATOM     36  C   UNL A   1      31.415  32.235  26.766  1.00  0.00     0.202 C 
BRANCH  36  37
ATOM     37  C   UNL A   1      32.570  33.192  27.011  1.00  0.00     0.261 C 
BRANCH  37  38
ATOM     38  O   UNL A   1      32.195  34.143  27.998  1.00  0.00    -0.460 OA
BRANCH  38  39
ATOM     39  C   UNL A   1      33.193  34.893  28.674  1.00  0.00     0.338 C 
ATOM     40  O   UNL A   1      33.143  36.163  28.674  1.00  0.00    -0.246 OA
BRANCH  39  41
ATOM     41  C   UNL A   1      34.320  34.176  29.400  1.00  0.00     0.060 A 
ATOM     42  C   UNL A   1      34.060  33.416  30.527  1.00  0.00     0.016 A 
ATOM     43  C   UNL A   1      35.541  34.241  28.880  1.00  0.00     0.016 A 
ATOM     44  C   UNL A   1      35.220  32.985  31.210  1.00  0.00     0.010 A 
ATOM     45  C   UNL A   1      36.610  33.679  29.534  1.00  0.00     0.010 A 
ATOM     46  C   UNL A   1      36.433  32.962  30.685  1.00  0.00    -0.014 A 
BRANCH  46  47
ATOM     47  C   UNL A   1      37.570  32.184  31.328  1.00  0.00     0.031 A 
ATOM     48  C   UNL A   1      37.949  32.554  32.619  1.00  0.00     0.074 A 
ATOM     49  C   UNL A   1      38.196  31.195  30.590  1.00  0.00     0.049 A 
ATOM     50  N   UNL A   1      38.921  32.025  33.364  1.00  0.00    -0.248 NA
ATOM     51  C   UNL A   1      37.308  33.628  33.392  1.00  0.00     0.031 C 
ATOM     52  C   UNL A   1      37.813  30.810  29.290  1.00  0.00     0.029 A 
ATOM     53  N   UNL A   1      39.273  30.420  30.958  1.00  0.00    -0.354 N 
ATOM     54  C   UNL A   1      38.972  32.630  34.553  1.00  0.00     0.074 A 
ATOM     55  C   UNL A   1      37.939  33.674  34.585  1.00  0.00     0.031 C 
ATOM     56  C   UNL A   1      38.654  29.826  28.877  1.00  0.00     0.029 A 
ATOM     57  C   UNL A   1      39.577  29.578  29.911  1.00  0.00     0.049 A 
ATOM     58  H   UNL A   1      39.746  30.461  31.822  1.00  0.00     0.167 HD
ATOM     59  C   UNL A   1      39.838  32.351  35.611  1.00  0.00     0.037 A 
ATOM     60  C   UNL A   1      40.597  28.643  29.841  1.00  0.00     0.037 A 
ATOM     61  C   UNL A   1      40.831  31.385  35.557  1.00  0.00     0.049 A 
ATOM     62  C   UNL A   1      41.501  28.404  30.879  1.00  0.00     0.074 A 
ATOM     63  C   UNL A   1      41.708  31.085  36.617  1.00  0.00     0.029 A 
ATOM     64  N   UNL A   1      41.150  30.561  34.501  1.00  0.00    -0.354 N 
ATOM     65  N   UNL A   1      41.527  28.981  32.081  1.00  0.00    -0.248 NA
ATOM     66  C   UNL A   1      42.606  27.439  30.804  1.00  0.00     0.031 C 
ATOM     67  C   UNL A   1      42.550  30.100  36.204  1.00  0.00     0.029 A 
ATOM     68  C   UNL A   1      42.213  29.770  34.877  1.00  0.00     0.049 A 
ATOM     69  H   UNL A   1      40.696  30.541  33.627  1.00  0.00     0.167 HD
ATOM     70  C   UNL A   1      42.525  28.480  32.811  1.00  0.00     0.074 A 
ATOM     71  C   UNL A   1      43.239  27.486  31.997  1.00  0.00     0.031 C 
ATOM     72  C   UNL A   1      42.869  28.809  34.123  1.00  0.00     0.037 A 
BRANCH  59  73
ATOM     73  C   UNL A   1      39.685  33.150  36.894  1.00  0.00     0.064 A 
ATOM     74  C   UNL A   1      40.425  34.309  37.058  1.00  0.00     0.173 A 
ATOM     75  C   UNL A   1      38.838  32.735  37.830  1.00  0.00     0.173 A 
ATOM     76  F   UNL A   1      41.084  34.895  36.063  1.00  0.00    -0.203 F 
ATOM     77  C   UNL A   1      40.417  34.813  38.381  1.00  0.00     0.198 A 
ATOM     78  C   UNL A   1      38.786  33.360  39.053  1.00  0.00     0.198 A 
ATOM     79  F   UNL A   1      38.033  31.706  37.581  1.00  0.00    -0.203 F 
ATOM     80  F   UNL A   1      41.362  35.686  38.716  1.00  0.00    -0.200 F 
ATOM     81  C   UNL A   1      39.535  34.476  39.304  1.00  0.00     0.200 A 
ATOM     82  F   UNL A   1      37.996  32.872  40.005  1.00  0.00    -0.200 F 
ATOM     83  F   UNL A   1      39.384  35.185  40.420  1.00  0.00    -0.200 F 
ENDBRANCH  59  73
BRANCH  60  84
ATOM     84  C   UNL A   1      40.740  27.832  28.564  1.00  0.00     0.064 A 
ATOM     85  C   UNL A   1      41.583  28.288  27.565  1.00  0.00     0.173 A 
ATOM     86  C   UNL A   1      40.047  26.707  28.421  1.00  0.00     0.173 A 
ATOM     87  F   UNL A   1      42.478  29.254  27.756  1.00  0.00    -0.203 F 
ATOM     88  C   UNL A   1      41.408  27.634  26.323  1.00  0.00     0.198 A 
ATOM     89  C   UNL A   1      40.030  26.046  27.217  1.00  0.00     0.198 A 
ATOM     90  F   UNL A   1      39.365  26.218  29.452  1.00  0.00    -0.203 F 
ATOM     91  F   UNL A   1      41.896  28.226  25.236  1.00  0.00    -0.200 F 
ATOM     92  C   UNL A   1      40.793  26.475  26.167  1.00  0.00     0.200 A 
ATOM     93  F   UNL A   1      39.258  24.972  27.071  1.00  0.00    -0.200 F 
ATOM     94  F   UNL A   1      40.912  25.764  25.049  1.00  0.00    -0.200 F 
ENDBRANCH  60  84
BRANCH  72  95
ATOM     95  C   UNL A   1      44.032  28.070  34.763  1.00  0.00     0.064 A 
ATOM     96  C   UNL A   1      45.309  28.601  34.693  1.00  0.00     0.173 A 
ATOM     97  C   UNL A   1      43.790  26.941  35.420  1.00  0.00     0.173 A 
ATOM     98  F   UNL A   1      45.558  29.838  34.273  1.00  0.00    -0.203 F 
ATOM     99  C   UNL A   1      46.324  27.708  35.110  1.00  0.00     0.198 A 
ATOM    100  C   UNL A   1      44.825  26.187  35.918  1.00  0.00     0.198 A 
ATOM    101  F   UNL A   1      42.536  26.537  35.596  1.00  0.00    -0.203 F 
ATOM    102  F   UNL A   1      47.575  27.981  34.747  1.00  0.00    -0.200 F 
ATOM    103  C   UNL A   1      46.118  26.622  35.832  1.00  0.00     0.200 A 
ATOM    104  F   UNL A   1      44.565  25.016  36.493  1.00  0.00    -0.200 F 
ATOM    105  F   UNL A   1      47.114  25.987  36.443  1.00  0.00    -0.200 F 
ENDBRANCH  72  95
ENDBRANCH  46  47
ENDBRANCH  39  41
ENDBRANCH  38  39
ENDBRANCH  37  38
ENDBRANCH  36  37
ENDBRANCH  35  36
ENDBRANCH  34  35
ENDBRANCH  33  34
ENDBRANCH   1  33
TORSDOF 24
ENDMDL
MODEL 3
REMARK VINA RESULT:     -10.8      2.876      4.355
REMARK SMILES CCCc1cc(S(F)(F)(F)(F)F)cc2c1O[C@@H](C(F)(F)F)C(C(=O)OCCOCCOCCOCCOC(=O)c1ccc(-c3c4nc(c(-c5c(F)c(F)c(F)c(F)c5F)c5ccc([nH]5)c(-c5c(F)c(F)c(F)c(F)c5F)c5nc(c(-c6c(F)c(F)c(F)c(F)c6F)c6ccc3[nH]6)C=C5)C=C4)cc1)=C2
REMARK SMILES IDX 31 1 30 2 29 3 28 4 27 5 26 6 25 7 23 8 24 9 22 10 4 11 5 12
REMARK SMILES IDX 15 13 6 14 14 15 16 16 13 17 103 18 17 19 3 20 2 21 1 22
REMARK SMILES IDX 7 23 8 24 9 25 10 26 11 27 12 28 18 29 19 30 20 31 21 32
REMARK SMILES IDX 32 33 33 34 34 35 35 36 36 37 37 38 38 39 39 40 40 41 41 42
REMARK SMILES IDX 102 43 42 44 101 45 43 46 44 47 45 48 95 49 46 50 100 51
REMARK SMILES IDX 94 52 96 53 47 54 99 55 93 56 92 57 48 59 80 60 60 61 79 62
REMARK SMILES IDX 61 63 64 64 78 65 97 66 62 67 63 68 77 70 98 71 65 72 49 73
REMARK SMILES IDX 50 74 58 75 51 76 52 77 56 78 59 79 53 80 54 81 57 82 55 83
REMARK SMILES IDX 81 84 82 85 90 86 83 87 84 88 88 89 91 90 85 91 86 92 89 93
REMARK SMILES IDX 87 94 66 95 67 96 75 97 68 98 69 99 73 100 76 101 70 102
REMARK SMILES IDX 71 103 74 104 72 105
REMARK H PARENT 96 58 64 69
REMARK Flexibility Score: inf
ROOT
ATOM      1  O   UNL A   1      28.115  30.508  23.426  1.00  0.00    -0.377 OA
ENDROOT
BRANCH   1   2
ATOM      2  C   UNL A   1      28.231  29.337  22.631  1.00  0.00     0.188 C 
BRANCH   2   3
ATOM      3  C   UNL A   1      27.451  28.205  23.279  1.00  0.00     0.188 C 
BRANCH   3   4
ATOM      4  O   UNL A   1      28.331  27.131  23.574  1.00  0.00    -0.376 OA
BRANCH   4   5
ATOM      5  C   UNL A   1      29.675  27.585  23.497  1.00  0.00     0.202 C 
BRANCH   5   6
ATOM      6  C   UNL A   1      30.592  26.407  23.207  1.00  0.00     0.261 C 
BRANCH   6   7
ATOM      7  O   UNL A   1      30.094  25.248  23.857  1.00  0.00    -0.460 OA
BRANCH   7   8
ATOM      8  C   UNL A   1      30.579  24.891  25.144  1.00  0.00     0.338 C 
ATOM      9  O   UNL A   1      30.036  25.380  26.184  1.00  0.00    -0.246 OA
BRANCH   8  10
ATOM     10  C   UNL A   1      31.744  23.925  25.276  1.00  0.00     0.087 C 
ATOM     11  C   UNL A   1      35.149  21.505  25.230  1.00  0.00    -0.004 A 
ATOM     12  C   UNL A   1      35.037  20.162  24.924  1.00  0.00     0.032 A 
ATOM     13  C   UNL A   1      34.021  22.290  25.186  1.00  0.00     0.131 A 
ATOM     14  C   UNL A   1      33.828  19.617  24.578  1.00  0.00     0.108 A 
ATOM     15  C   UNL A   1      32.781  21.770  24.858  1.00  0.00     0.019 A 
ATOM     16  O   UNL A   1      34.168  23.641  25.381  1.00  0.00    -0.475 OA
ATOM     17  C   UNL A   1      32.704  20.417  24.552  1.00  0.00     0.036 A 
ATOM     18  C   UNL A   1      31.657  22.688  24.801  1.00  0.00     0.027 C 
ATOM     19  C   UNL A   1      33.038  24.355  25.955  1.00  0.00     0.316 C 
BRANCH  11  20
ATOM     20  C   UNL A   1      36.442  22.105  25.757  1.00  0.00     0.039 C 
BRANCH  20  21
ATOM     21  C   UNL A   1      37.618  21.537  24.979  1.00  0.00     0.001 C 
ATOM     22  C   UNL A   1      38.874  21.610  25.833  1.00  0.00     0.004 C 
ENDBRANCH  20  21
ENDBRANCH  11  20
BRANCH  14  23
ATOM     23  S   UNL A   1      33.707  17.860  24.158  1.00  0.00     0.310 S 
ATOM     24  F   UNL A   1      33.402  17.267  25.597  1.00  0.00    -0.094 F 
ATOM     25  F   UNL A   1      35.236  17.633  24.465  1.00  0.00    -0.094 F 
ATOM     26  F   UNL A   1      33.575  16.415  23.602  1.00  0.00    -0.094 F 
ATOM     27  F   UNL A   1      32.149  18.059  23.990  1.00  0.00    -0.094 F 
ATOM     28  F   UNL A   1      33.802  19.290  24.826  1.00  0.00    -0.094 F 
ENDBRANCH  14  23
BRANCH  19  29
ATOM     29  C   UNL A   1      33.235  25.847  25.747  1.00  0.00     0.430 C 
ATOM     30  F   UNL A   1      33.105  26.136  24.456  1.00  0.00    -0.167 F 
ATOM     31  F   UNL A   1      32.323  26.517  26.446  1.00  0.00    -0.167 F 
ATOM     32  F   UNL A   1      34.452  26.194  26.159  1.00  0.00    -0.167 F 
ENDBRANCH  19  29
ENDBRANCH   8  10
ENDBRANCH   7   8
ENDBRANCH   6   7
ENDBRANCH   5   6
ENDBRANCH   4   5
ENDBRANCH   3   4
ENDBRANCH   2   3
ENDBRANCH   1   2
BRANCH   1  33
ATOM     33  C   UNL A   1      29.304  31.278  23.311  1.00  0.00     0.188 C 
BRANCH  33  34
ATOM     34  C   UNL A   1      29.830  31.608  24.698  1.00  0.00     0.188 C 
BRANCH  34  35
ATOM     35  O   UNL A   1      30.678  30.561  25.144  1.00  0.00    -0.376 OA
BRANCH  35  36
ATOM     36  C   UNL A   1      31.662  31.089  26.020  1.00  0.00     0.202 C 
BRANCH  36  37
ATOM     37  C   UNL A   1      32.090  30.016  27.008  1.00  0.00     0.261 C 
BRANCH  37  38
ATOM     38  O   UNL A   1      33.499  29.849  26.943  1.00  0.00    -0.460 OA
BRANCH  38  39
ATOM     39  C   UNL A   1      34.349  30.688  27.712  1.00  0.00     0.338 C 
ATOM     40  O   UNL A   1      33.946  31.835  28.080  1.00  0.00    -0.246 OA
BRANCH  39  41
ATOM     41  C   UNL A   1      35.742  30.211  28.094  1.00  0.00     0.060 A 
ATOM     42  C   UNL A   1      36.824  30.470  27.270  1.00  0.00     0.016 A 
ATOM     43  C   UNL A   1      35.898  29.612  29.268  1.00  0.00     0.016 A 
ATOM     44  C   UNL A   1      38.007  29.793  27.646  1.00  0.00     0.010 A 
ATOM     45  C   UNL A   1      37.117  29.091  29.631  1.00  0.00     0.010 A 
ATOM     46  C   UNL A   1      38.218  29.259  28.836  1.00  0.00    -0.014 A 
BRANCH  46  47
ATOM     47  C   UNL A   1      39.608  28.851  29.297  1.00  0.00     0.031 A 
ATOM     48  C   UNL A   1      40.113  27.643  28.814  1.00  0.00     0.074 A 
ATOM     49  C   UNL A   1      40.272  29.663  30.200  1.00  0.00     0.049 A 
ATOM     50  N   UNL A   1      41.293  27.085  29.094  1.00  0.00    -0.248 NA
ATOM     51  C   UNL A   1      39.394  26.761  27.883  1.00  0.00     0.031 C 
ATOM     52  C   UNL A   1      39.772  30.888  30.683  1.00  0.00     0.029 A 
ATOM     53  N   UNL A   1      41.501  29.450  30.783  1.00  0.00    -0.354 N 
ATOM     54  C   UNL A   1      41.428  25.936  28.428  1.00  0.00     0.074 A 
ATOM     55  C   UNL A   1      40.207  25.708  27.644  1.00  0.00     0.031 C 
ATOM     56  C   UNL A   1      40.681  31.399  31.555  1.00  0.00     0.029 A 
ATOM     57  C   UNL A   1      41.765  30.504  31.629  1.00  0.00     0.049 A 
ATOM     58  H   UNL A   1      42.090  28.676  30.622  1.00  0.00     0.167 HD
ATOM     59  C   UNL A   1      42.524  25.072  28.441  1.00  0.00     0.037 A 
ATOM     60  C   UNL A   1      42.880  30.690  32.430  1.00  0.00     0.037 A 
ATOM     61  C   UNL A   1      43.658  25.280  29.210  1.00  0.00     0.049 A 
ATOM     62  C   UNL A   1      43.951  29.795  32.488  1.00  0.00     0.074 A 
ATOM     63  C   UNL A   1      44.775  24.422  29.230  1.00  0.00     0.029 A 
ATOM     64  N   UNL A   1      43.911  26.322  30.075  1.00  0.00    -0.354 N 
ATOM     65  N   UNL A   1      44.104  28.668  31.793  1.00  0.00    -0.248 NA
ATOM     66  C   UNL A   1      45.122  29.966  33.358  1.00  0.00     0.031 C 
ATOM     67  C   UNL A   1      45.685  24.935  30.101  1.00  0.00     0.029 A 
ATOM     68  C   UNL A   1      45.150  26.120  30.641  1.00  0.00     0.049 A 
ATOM     69  H   UNL A   1      43.309  27.080  30.257  1.00  0.00     0.167 HD
ATOM     70  C   UNL A   1      45.266  28.089  32.104  1.00  0.00     0.074 A 
ATOM     71  C   UNL A   1      45.935  28.913  33.121  1.00  0.00     0.031 C 
ATOM     72  C   UNL A   1      45.798  26.911  31.579  1.00  0.00     0.037 A 
BRANCH  59  73
ATOM     73  C   UNL A   1      42.470  23.832  27.565  1.00  0.00     0.064 A 
ATOM     74  C   UNL A   1      42.025  22.639  28.111  1.00  0.00     0.173 A 
ATOM     75  C   UNL A   1      42.837  23.911  26.291  1.00  0.00     0.173 A 
ATOM     76  F   UNL A   1      41.415  22.566  29.291  1.00  0.00    -0.203 F 
ATOM     77  C   UNL A   1      42.278  21.507  27.301  1.00  0.00     0.198 A 
ATOM     78  C   UNL A   1      42.932  22.778  25.519  1.00  0.00     0.198 A 
ATOM     79  F   UNL A   1      43.115  25.096  25.757  1.00  0.00    -0.203 F 
ATOM     80  F   UNL A   1      42.223  20.310  27.877  1.00  0.00    -0.200 F 
ATOM     81  C   UNL A   1      42.565  21.557  26.013  1.00  0.00     0.200 A 
ATOM     82  F   UNL A   1      43.388  22.870  24.273  1.00  0.00    -0.200 F 
ATOM     83  F   UNL A   1      42.500  20.477  25.238  1.00  0.00    -0.200 F 
ENDBRANCH  59  73
BRANCH  60  84
ATOM     84  C   UNL A   1      42.941  31.939  33.295  1.00  0.00     0.064 A 
ATOM     85  C   UNL A   1      43.525  33.086  32.784  1.00  0.00     0.173 A 
ATOM     86  C   UNL A   1      42.446  31.908  34.527  1.00  0.00     0.173 A 
ATOM     87  F   UNL A   1      43.801  33.246  31.492  1.00  0.00    -0.203 F 
ATOM     88  C   UNL A   1      43.801  34.073  33.759  1.00  0.00     0.198 A 
ATOM     89  C   UNL A   1      42.637  32.966  35.383  1.00  0.00     0.198 A 
ATOM     90  F   UNL A   1      41.760  30.845  34.935  1.00  0.00    -0.203 F 
ATOM     91  F   UNL A   1      44.667  35.032  33.442  1.00  0.00    -0.200 F 
ATOM     92  C   UNL A   1      43.259  34.108  34.963  1.00  0.00     0.200 A 
ATOM     93  F   UNL A   1      42.211  32.875  36.640  1.00  0.00    -0.200 F 
ATOM     94  F   UNL A   1      43.314  35.197  35.724  1.00  0.00    -0.200 F 
ENDBRANCH  60  84
BRANCH  72  95
ATOM     95  C   UNL A   1      47.168  26.467  32.062  1.00  0.00     0.064 A 
ATOM     96  C   UNL A   1      48.307  26.932  31.426  1.00  0.00     0.173 A 
ATOM     97  C   UNL A   1      47.247  25.670  33.122  1.00  0.00     0.173 A 
ATOM     98  F   UNL A   1      48.289  27.920  30.536  1.00  0.00    -0.203 F 
ATOM     99  C   UNL A   1      49.492  26.262  31.812  1.00  0.00     0.198 A 
ATOM    100  C   UNL A   1      48.457  25.158  33.523  1.00  0.00     0.198 A 
ATOM    101  F   UNL A   1      46.144  25.362  33.799  1.00  0.00    -0.203 F 
ATOM    102  F   UNL A   1      50.554  26.378  31.019  1.00  0.00    -0.200 F 
ATOM    103  C   UNL A   1      49.618  25.529  32.903  1.00  0.00     0.200 A 
ATOM    104  F   UNL A   1      48.501  24.291  34.531  1.00  0.00    -0.200 F 
ATOM    105  F   UNL A   1      50.809  25.171  33.374  1.00  0.00    -0.200 F 
ENDBRANCH  72  95
ENDBRANCH  46  47
ENDBRANCH  39  41
ENDBRANCH  38  39
ENDBRANCH  37  38
ENDBRANCH  36  37
ENDBRANCH  35  36
ENDBRANCH  34  35
ENDBRANCH  33  34
ENDBRANCH   1  33
TORSDOF 24
ENDMDL
