MODEL 1
REMARK VINA RESULT:     -10.4      0.000      0.000
REMARK SMILES CC1(C)COCCN1C(=O)N1CCO[C@@H](CC(=O)OCCOCCOCCOCCOC(=O)c2ccc(-c3c4nc(c(-c5c(F)c(F)c(F)c(F)c5F)c5ccc([nH]5)c(-c5c(F)c(F)c(F)c(F)c5F)c5nc(c(-c6c(F)c(F)c(F)c(F)c6F)c6ccc3[nH]6)C=C5)C=C4)cc2)C1
REMARK SMILES IDX 24 1 23 2 22 3 21 4 20 5 19 6 17 7 18 8 16 9 15 10 11 11
REMARK SMILES IDX 12 12 97 13 13 14 14 15 9 16 10 17 8 18 1 19 2 20 3 21 4 22
REMARK SMILES IDX 5 23 7 24 6 25 25 26 26 27 27 28 28 29 29 30 30 31 31 32
REMARK SMILES IDX 32 33 33 34 34 35 35 36 96 37 36 38 95 39 37 40 38 41 39 42
REMARK SMILES IDX 89 43 40 44 94 45 88 46 90 47 41 48 93 49 87 50 86 51 42 53
REMARK SMILES IDX 74 54 54 55 73 56 55 57 58 58 72 59 91 60 56 61 57 62 71 64
REMARK SMILES IDX 92 65 59 66 43 67 44 68 52 69 45 70 46 71 50 72 53 73 47 74
REMARK SMILES IDX 48 75 51 76 49 77 75 78 76 79 84 80 77 81 78 82 82 83 85 84
REMARK SMILES IDX 79 85 80 86 83 87 81 88 60 89 61 90 69 91 62 92 63 93 67 94
REMARK SMILES IDX 70 95 64 96 65 97 68 98 66 99
REMARK H PARENT 90 52 58 63
REMARK Flexibility Score: inf
ROOT
ATOM      1  C   UNL A   1      32.104  27.120  22.359  1.00  0.00     0.188 C 
ENDROOT
BRANCH   1   2
ATOM      2  C   UNL A   1      32.151  25.773  21.612  1.00  0.00     0.188 C 
BRANCH   2   3
ATOM      3  O   UNL A   1      32.518  24.591  22.304  1.00  0.00    -0.376 OA
BRANCH   3   4
ATOM      4  C   UNL A   1      31.536  23.781  22.927  1.00  0.00     0.202 C 
BRANCH   4   5
ATOM      5  C   UNL A   1      31.838  22.966  24.181  1.00  0.00     0.261 C 
BRANCH   5   6
ATOM      6  O   UNL A   1      31.157  23.343  25.389  1.00  0.00    -0.463 OA
BRANCH   6   7
ATOM      7  C   UNL A   1      31.890  23.612  26.493  1.00  0.00     0.308 C 
ATOM      8  O   UNL A   1      31.421  23.700  27.623  1.00  0.00    -0.252 OA
BRANCH   7   9
ATOM      9  C   UNL A   1      33.358  23.845  26.227  1.00  0.00     0.156 C 
BRANCH   9  10
ATOM     10  C   UNL A   1      34.406  22.928  26.863  1.00  0.00     0.149 C 
ATOM     11  N   UNL A   1      33.952  20.743  25.760  1.00  0.00    -0.320 N 
ATOM     12  C   UNL A   1      35.197  20.876  25.005  1.00  0.00     0.150 C 
ATOM     13  C   UNL A   1      34.046  21.443  27.039  1.00  0.00     0.154 C 
ATOM     14  C   UNL A   1      35.616  22.339  24.852  1.00  0.00     0.182 C 
ATOM     15  O   UNL A   1      35.650  23.035  26.112  1.00  0.00    -0.374 OA
BRANCH  11  16
ATOM     16  C   UNL A   1      33.408  19.476  25.800  1.00  0.00     0.320 C 
ATOM     17  O   UNL A   1      32.888  19.071  26.843  1.00  0.00    -0.248 OA
BRANCH  16  18
ATOM     18  N   UNL A   1      33.373  18.737  24.620  1.00  0.00    -0.315 N 
ATOM     19  C   UNL A   1      32.786  16.352  25.102  1.00  0.00     0.037 C 
ATOM     20  C   UNL A   1      33.797  17.295  24.429  1.00  0.00     0.062 C 
ATOM     21  C   UNL A   1      35.151  16.884  24.994  1.00  0.00     0.037 C 
ATOM     22  C   UNL A   1      33.878  16.985  22.895  1.00  0.00     0.188 C 
ATOM     23  O   UNL A   1      32.685  17.328  22.186  1.00  0.00    -0.377 OA
ATOM     24  C   UNL A   1      32.255  19.133  23.747  1.00  0.00     0.150 C 
ATOM     25  C   UNL A   1      32.454  18.735  22.292  1.00  0.00     0.182 C 
ENDBRANCH  16  18
ENDBRANCH  11  16
ENDBRANCH   9  10
ENDBRANCH   7   9
ENDBRANCH   6   7
ENDBRANCH   5   6
ENDBRANCH   4   5
ENDBRANCH   3   4
ENDBRANCH   2   3
ENDBRANCH   1   2
BRANCH   1  26
ATOM     26  O   UNL A   1      31.731  27.078  23.726  1.00  0.00    -0.377 OA
BRANCH  26  27
ATOM     27  C   UNL A   1      32.747  27.136  24.719  1.00  0.00     0.188 C 
BRANCH  27  28
ATOM     28  C   UNL A   1      33.388  28.486  25.097  1.00  0.00     0.188 C 
BRANCH  28  29
ATOM     29  O   UNL A   1      32.683  29.633  24.660  1.00  0.00    -0.376 OA
BRANCH  29  30
ATOM     30  C   UNL A   1      31.542  30.082  25.375  1.00  0.00     0.202 C 
BRANCH  30  31
ATOM     31  C   UNL A   1      31.699  31.197  26.426  1.00  0.00     0.261 C 
BRANCH  31  32
ATOM     32  O   UNL A   1      32.787  31.069  27.354  1.00  0.00    -0.460 OA
BRANCH  32  33
ATOM     33  C   UNL A   1      33.558  32.146  27.591  1.00  0.00     0.338 C 
ATOM     34  O   UNL A   1      33.215  33.317  27.595  1.00  0.00    -0.246 OA
BRANCH  33  35
ATOM     35  C   UNL A   1      34.874  31.663  28.059  1.00  0.00     0.060 A 
ATOM     36  C   UNL A   1      35.039  30.299  28.339  1.00  0.00     0.016 A 
ATOM     37  C   UNL A   1      35.935  32.554  28.227  1.00  0.00     0.016 A 
ATOM     38  C   UNL A   1      36.252  29.830  28.841  1.00  0.00     0.010 A 
ATOM     39  C   UNL A   1      37.139  32.091  28.761  1.00  0.00     0.010 A 
ATOM     40  C   UNL A   1      37.281  30.736  29.115  1.00  0.00    -0.014 A 
BRANCH  40  41
ATOM     41  C   UNL A   1      38.385  30.327  30.015  1.00  0.00     0.031 A 
ATOM     42  C   UNL A   1      39.396  29.350  29.478  1.00  0.00     0.074 A 
ATOM     43  C   UNL A   1      38.512  30.823  31.255  1.00  0.00     0.049 A 
ATOM     44  N   UNL A   1      40.414  28.785  30.075  1.00  0.00    -0.248 NA
ATOM     45  C   UNL A   1      39.229  28.956  28.070  1.00  0.00     0.031 C 
ATOM     46  C   UNL A   1      37.640  31.825  31.860  1.00  0.00     0.029 A 
ATOM     47  N   UNL A   1      39.432  30.537  32.232  1.00  0.00    -0.354 N 
ATOM     48  C   UNL A   1      41.000  27.966  29.119  1.00  0.00     0.074 A 
ATOM     49  C   UNL A   1      40.204  28.076  27.917  1.00  0.00     0.031 C 
ATOM     50  C   UNL A   1      38.062  32.066  33.113  1.00  0.00     0.029 A 
ATOM     51  C   UNL A   1      39.208  31.206  33.408  1.00  0.00     0.049 A 
ATOM     52  H   UNL A   1      40.181  29.912  32.101  1.00  0.00     0.167 HD
ATOM     53  C   UNL A   1      42.109  27.197  29.229  1.00  0.00     0.037 A 
ATOM     54  C   UNL A   1      39.847  31.112  34.590  1.00  0.00     0.037 A 
ATOM     55  C   UNL A   1      42.885  27.078  30.434  1.00  0.00     0.049 A 
ATOM     56  C   UNL A   1      41.007  30.157  34.728  1.00  0.00     0.074 A 
ATOM     57  C   UNL A   1      44.021  26.322  30.660  1.00  0.00     0.029 A 
ATOM     58  N   UNL A   1      42.591  27.725  31.627  1.00  0.00    -0.354 N 
ATOM     59  N   UNL A   1      41.567  29.391  33.823  1.00  0.00    -0.248 NA
ATOM     60  C   UNL A   1      41.625  30.057  36.058  1.00  0.00     0.031 C 
ATOM     61  C   UNL A   1      44.377  26.462  32.005  1.00  0.00     0.029 A 
ATOM     62  C   UNL A   1      43.506  27.360  32.601  1.00  0.00     0.049 A 
ATOM     63  H   UNL A   1      41.842  28.349  31.761  1.00  0.00     0.167 HD
ATOM     64  C   UNL A   1      42.621  28.747  34.461  1.00  0.00     0.074 A 
ATOM     65  C   UNL A   1      42.629  29.223  35.829  1.00  0.00     0.031 C 
ATOM     66  C   UNL A   1      43.507  27.850  33.959  1.00  0.00     0.037 A 
BRANCH  53  67
ATOM     67  C   UNL A   1      42.510  26.397  28.023  1.00  0.00     0.064 A 
ATOM     68  C   UNL A   1      43.424  26.888  27.076  1.00  0.00     0.173 A 
ATOM     69  C   UNL A   1      41.957  25.126  27.798  1.00  0.00     0.173 A 
ATOM     70  F   UNL A   1      43.969  28.104  27.231  1.00  0.00    -0.203 F 
ATOM     71  C   UNL A   1      43.731  26.158  25.930  1.00  0.00     0.198 A 
ATOM     72  C   UNL A   1      42.298  24.384  26.671  1.00  0.00     0.198 A 
ATOM     73  F   UNL A   1      41.080  24.606  28.670  1.00  0.00    -0.203 F 
ATOM     74  F   UNL A   1      44.548  26.681  25.005  1.00  0.00    -0.200 F 
ATOM     75  C   UNL A   1      43.172  24.905  25.731  1.00  0.00     0.200 A 
ATOM     76  F   UNL A   1      41.766  23.166  26.488  1.00  0.00    -0.200 F 
ATOM     77  F   UNL A   1      43.466  24.206  24.626  1.00  0.00    -0.200 F 
ENDBRANCH  53  67
BRANCH  54  78
ATOM     78  C   UNL A   1      39.410  31.944  35.741  1.00  0.00     0.064 A 
ATOM     79  C   UNL A   1      39.997  33.194  35.988  1.00  0.00     0.173 A 
ATOM     80  C   UNL A   1      38.410  31.510  36.623  1.00  0.00     0.173 A 
ATOM     81  F   UNL A   1      40.977  33.642  35.189  1.00  0.00    -0.203 F 
ATOM     82  C   UNL A   1      39.612  33.968  37.080  1.00  0.00     0.198 A 
ATOM     83  C   UNL A   1      38.004  32.299  37.698  1.00  0.00     0.198 A 
ATOM     84  F   UNL A   1      37.820  30.320  36.437  1.00  0.00    -0.203 F 
ATOM     85  F   UNL A   1      40.220  35.138  37.316  1.00  0.00    -0.200 F 
ATOM     86  C   UNL A   1      38.610  33.525  37.929  1.00  0.00     0.200 A 
ATOM     87  F   UNL A   1      37.028  31.872  38.510  1.00  0.00    -0.200 F 
ATOM     88  F   UNL A   1      38.234  34.274  38.974  1.00  0.00    -0.200 F 
ENDBRANCH  54  78
BRANCH  66  89
ATOM     89  C   UNL A   1      44.592  27.357  34.876  1.00  0.00     0.064 A 
ATOM     90  C   UNL A   1      45.775  28.082  35.084  1.00  0.00     0.173 A 
ATOM     91  C   UNL A   1      44.424  26.161  35.591  1.00  0.00     0.173 A 
ATOM     92  F   UNL A   1      45.994  29.225  34.417  1.00  0.00    -0.203 F 
ATOM     93  C   UNL A   1      46.761  27.611  35.949  1.00  0.00     0.198 A 
ATOM     94  C   UNL A   1      45.394  25.713  36.483  1.00  0.00     0.198 A 
ATOM     95  F   UNL A   1      43.308  25.432  35.438  1.00  0.00    -0.203 F 
ATOM     96  F   UNL A   1      47.907  28.293  36.089  1.00  0.00    -0.200 F 
ATOM     97  C   UNL A   1      46.566  26.433  36.654  1.00  0.00     0.200 A 
ATOM     98  F   UNL A   1      45.195  24.584  37.176  1.00  0.00    -0.200 F 
ATOM     99  F   UNL A   1      47.512  25.988  37.492  1.00  0.00    -0.200 F 
ENDBRANCH  66  89
ENDBRANCH  40  41
ENDBRANCH  33  35
ENDBRANCH  32  33
ENDBRANCH  31  32
ENDBRANCH  30  31
ENDBRANCH  29  30
ENDBRANCH  28  29
ENDBRANCH  27  28
ENDBRANCH  26  27
ENDBRANCH   1  26
TORSDOF 23
ENDMDL
MODEL 2
REMARK VINA RESULT:     -10.2      1.115      7.303
REMARK SMILES CC1(C)COCCN1C(=O)N1CCO[C@@H](CC(=O)OCCOCCOCCOCCOC(=O)c2ccc(-c3c4nc(c(-c5c(F)c(F)c(F)c(F)c5F)c5ccc([nH]5)c(-c5c(F)c(F)c(F)c(F)c5F)c5nc(c(-c6c(F)c(F)c(F)c(F)c6F)c6ccc3[nH]6)C=C5)C=C4)cc2)C1
REMARK SMILES IDX 24 1 23 2 22 3 21 4 20 5 19 6 17 7 18 8 16 9 15 10 11 11
REMARK SMILES IDX 12 12 97 13 13 14 14 15 9 16 10 17 8 18 1 19 2 20 3 21 4 22
REMARK SMILES IDX 5 23 7 24 6 25 25 26 26 27 27 28 28 29 29 30 30 31 31 32
REMARK SMILES IDX 32 33 33 34 34 35 35 36 96 37 36 38 95 39 37 40 38 41 39 42
REMARK SMILES IDX 89 43 40 44 94 45 88 46 90 47 41 48 93 49 87 50 86 51 42 53
REMARK SMILES IDX 74 54 54 55 73 56 55 57 58 58 72 59 91 60 56 61 57 62 71 64
REMARK SMILES IDX 92 65 59 66 43 67 44 68 52 69 45 70 46 71 50 72 53 73 47 74
REMARK SMILES IDX 48 75 51 76 49 77 75 78 76 79 84 80 77 81 78 82 82 83 85 84
REMARK SMILES IDX 79 85 80 86 83 87 81 88 60 89 61 90 69 91 62 92 63 93 67 94
REMARK SMILES IDX 70 95 64 96 65 97 68 98 66 99
REMARK H PARENT 90 52 58 63
REMARK Flexibility Score: inf
ROOT
ATOM      1  C   UNL A   1      30.318  27.838  23.985  1.00  0.00     0.188 C 
ENDROOT
BRANCH   1   2
ATOM      2  C   UNL A   1      29.387  26.619  23.831  1.00  0.00     0.188 C 
BRANCH   2   3
ATOM      3  O   UNL A   1      29.936  25.332  23.601  1.00  0.00    -0.376 OA
BRANCH   3   4
ATOM      4  C   UNL A   1      30.728  24.694  24.587  1.00  0.00     0.202 C 
BRANCH   4   5
ATOM      5  C   UNL A   1      32.251  24.674  24.511  1.00  0.00     0.261 C 
BRANCH   5   6
ATOM      6  O   UNL A   1      32.858  23.597  23.777  1.00  0.00    -0.463 OA
BRANCH   6   7
ATOM      7  C   UNL A   1      34.148  23.718  23.389  1.00  0.00     0.308 C 
ATOM      8  O   UNL A   1      34.600  23.244  22.352  1.00  0.00    -0.252 OA
BRANCH   7   9
ATOM      9  C   UNL A   1      35.027  24.460  24.368  1.00  0.00     0.156 C 
BRANCH   9  10
ATOM     10  C   UNL A   1      35.591  23.734  25.593  1.00  0.00     0.149 C 
ATOM     11  N   UNL A   1      34.845  21.388  25.221  1.00  0.00    -0.320 N 
ATOM     12  C   UNL A   1      36.226  21.005  24.932  1.00  0.00     0.150 C 
ATOM     13  C   UNL A   1      34.806  22.527  26.135  1.00  0.00     0.154 C 
ATOM     14  C   UNL A   1      37.055  22.191  24.437  1.00  0.00     0.182 C 
ATOM     15  O   UNL A   1      36.963  23.329  25.315  1.00  0.00    -0.374 OA
BRANCH  11  16
ATOM     16  C   UNL A   1      33.983  20.350  25.507  1.00  0.00     0.320 C 
ATOM     17  O   UNL A   1      33.539  20.229  26.652  1.00  0.00    -0.248 OA
BRANCH  16  18
ATOM     18  N   UNL A   1      33.562  19.535  24.459  1.00  0.00    -0.315 N 
ATOM     19  C   UNL A   1      32.668  17.370  25.342  1.00  0.00     0.037 C 
ATOM     20  C   UNL A   1      33.666  18.026  24.373  1.00  0.00     0.062 C 
ATOM     21  C   UNL A   1      35.012  17.397  24.714  1.00  0.00     0.037 C 
ATOM     22  C   UNL A   1      33.359  17.575  22.904  1.00  0.00     0.188 C 
ATOM     23  O   UNL A   1      32.125  18.093  22.402  1.00  0.00    -0.377 OA
ATOM     24  C   UNL A   1      32.375  20.075  23.776  1.00  0.00     0.150 C 
ATOM     25  C   UNL A   1      32.182  19.521  22.372  1.00  0.00     0.182 C 
ENDBRANCH  16  18
ENDBRANCH  11  16
ENDBRANCH   9  10
ENDBRANCH   7   9
ENDBRANCH   6   7
ENDBRANCH   5   6
ENDBRANCH   4   5
ENDBRANCH   3   4
ENDBRANCH   2   3
ENDBRANCH   1   2
BRANCH   1  26
ATOM     26  O   UNL A   1      30.966  27.990  25.236  1.00  0.00    -0.377 OA
BRANCH  26  27
ATOM     27  C   UNL A   1      32.287  28.518  25.267  1.00  0.00     0.188 C 
BRANCH  27  28
ATOM     28  C   UNL A   1      32.698  29.519  26.364  1.00  0.00     0.188 C 
BRANCH  28  29
ATOM     29  O   UNL A   1      32.515  30.884  26.036  1.00  0.00    -0.376 OA
BRANCH  29  30
ATOM     30  C   UNL A   1      31.695  31.707  26.851  1.00  0.00     0.202 C 
BRANCH  30  31
ATOM     31  C   UNL A   1      32.171  33.127  27.212  1.00  0.00     0.261 C 
BRANCH  31  32
ATOM     32  O   UNL A   1      33.156  33.239  28.251  1.00  0.00    -0.460 OA
BRANCH  32  33
ATOM     33  C   UNL A   1      34.263  33.965  28.009  1.00  0.00     0.338 C 
ATOM     34  O   UNL A   1      34.329  35.159  27.764  1.00  0.00    -0.246 OA
BRANCH  33  35
ATOM     35  C   UNL A   1      35.433  33.109  28.296  1.00  0.00     0.060 A 
ATOM     36  C   UNL A   1      35.244  31.729  28.460  1.00  0.00     0.016 A 
ATOM     37  C   UNL A   1      36.707  33.668  28.408  1.00  0.00     0.016 A 
ATOM     38  C   UNL A   1      36.321  30.910  28.793  1.00  0.00     0.010 A 
ATOM     39  C   UNL A   1      37.780  32.853  28.774  1.00  0.00     0.010 A 
ATOM     40  C   UNL A   1      37.579  31.482  29.015  1.00  0.00    -0.014 A 
BRANCH  40  41
ATOM     41  C   UNL A   1      38.603  30.710  29.758  1.00  0.00     0.031 A 
ATOM     42  C   UNL A   1      38.798  31.034  31.215  1.00  0.00     0.074 A 
ATOM     43  C   UNL A   1      39.317  29.734  29.177  1.00  0.00     0.049 A 
ATOM     44  N   UNL A   1      39.665  30.556  32.070  1.00  0.00    -0.248 NA
ATOM     45  C   UNL A   1      37.886  32.042  31.780  1.00  0.00     0.031 C 
ATOM     46  C   UNL A   1      39.169  29.282  27.798  1.00  0.00     0.029 A 
ATOM     47  N   UNL A   1      40.320  28.949  29.688  1.00  0.00    -0.354 N 
ATOM     48  C   UNL A   1      39.407  31.210  33.268  1.00  0.00     0.074 A 
ATOM     49  C   UNL A   1      38.332  32.145  33.021  1.00  0.00     0.031 C 
ATOM     50  C   UNL A   1      40.059  28.301  27.566  1.00  0.00     0.029 A 
ATOM     51  C   UNL A   1      40.863  28.087  28.770  1.00  0.00     0.049 A 
ATOM     52  H   UNL A   1      40.622  29.001  30.624  1.00  0.00     0.167 HD
ATOM     53  C   UNL A   1      40.006  31.040  34.470  1.00  0.00     0.037 A 
ATOM     54  C   UNL A   1      41.905  27.242  28.889  1.00  0.00     0.037 A 
ATOM     55  C   UNL A   1      41.088  30.122  34.704  1.00  0.00     0.049 A 
ATOM     56  C   UNL A   1      42.638  27.155  30.205  1.00  0.00     0.074 A 
ATOM     57  C   UNL A   1      41.775  29.875  35.879  1.00  0.00     0.029 A 
ATOM     58  N   UNL A   1      41.653  29.308  33.732  1.00  0.00    -0.354 N 
ATOM     59  N   UNL A   1      42.389  27.766  31.339  1.00  0.00    -0.248 NA
ATOM     60  C   UNL A   1      43.802  26.258  30.254  1.00  0.00     0.031 C 
ATOM     61  C   UNL A   1      42.795  28.959  35.604  1.00  0.00     0.029 A 
ATOM     62  C   UNL A   1      42.701  28.581  34.274  1.00  0.00     0.049 A 
ATOM     63  H   UNL A   1      41.355  29.256  32.795  1.00  0.00     0.167 HD
ATOM     64  C   UNL A   1      43.337  27.301  32.243  1.00  0.00     0.074 A 
ATOM     65  C   UNL A   1      44.160  26.349  31.527  1.00  0.00     0.031 C 
ATOM     66  C   UNL A   1      43.507  27.628  33.549  1.00  0.00     0.037 A 
BRANCH  53  67
ATOM     67  C   UNL A   1      39.526  31.903  35.603  1.00  0.00     0.064 A 
ATOM     68  C   UNL A   1      38.522  31.476  36.487  1.00  0.00     0.173 A 
ATOM     69  C   UNL A   1      40.064  33.185  35.795  1.00  0.00     0.173 A 
ATOM     70  F   UNL A   1      37.960  30.267  36.338  1.00  0.00    -0.203 F 
ATOM     71  C   UNL A   1      38.044  32.317  37.489  1.00  0.00     0.198 A 
ATOM     72  C   UNL A   1      39.610  34.007  36.823  1.00  0.00     0.198 A 
ATOM     73  F   UNL A   1      41.027  33.645  34.982  1.00  0.00    -0.203 F 
ATOM     74  F   UNL A   1      37.033  31.915  38.272  1.00  0.00    -0.200 F 
ATOM     75  C   UNL A   1      38.592  33.579  37.659  1.00  0.00     0.200 A 
ATOM     76  F   UNL A   1      40.151  35.222  36.995  1.00  0.00    -0.200 F 
ATOM     77  F   UNL A   1      38.128  34.389  38.622  1.00  0.00    -0.200 F 
ENDBRANCH  53  67
BRANCH  54  78
ATOM     78  C   UNL A   1      42.319  26.404  27.733  1.00  0.00     0.064 A 
ATOM     79  C   UNL A   1      41.717  25.160  27.495  1.00  0.00     0.173 A 
ATOM     80  C   UNL A   1      43.330  26.817  26.852  1.00  0.00     0.173 A 
ATOM     81  F   UNL A   1      40.764  24.709  28.326  1.00  0.00    -0.203 F 
ATOM     82  C   UNL A   1      42.118  24.357  26.431  1.00  0.00     0.198 A 
ATOM     83  C   UNL A   1      43.710  26.025  25.770  1.00  0.00     0.198 A 
ATOM     84  F   UNL A   1      43.944  27.995  27.038  1.00  0.00    -0.203 F 
ATOM     85  F   UNL A   1      41.554  23.154  26.253  1.00  0.00    -0.200 F 
ATOM     86  C   UNL A   1      43.108  24.793  25.563  1.00  0.00     0.200 A 
ATOM     87  F   UNL A   1      44.658  26.455  24.928  1.00  0.00    -0.200 F 
ATOM     88  F   UNL A   1      43.487  24.023  24.535  1.00  0.00    -0.200 F 
ENDBRANCH  54  78
BRANCH  66  89
ATOM     89  C   UNL A   1      44.592  26.915  34.308  1.00  0.00     0.064 A 
ATOM     90  C   UNL A   1      44.373  25.681  34.936  1.00  0.00     0.173 A 
ATOM     91  C   UNL A   1      45.886  27.460  34.369  1.00  0.00     0.173 A 
ATOM     92  F   UNL A   1      43.154  25.121  34.920  1.00  0.00    -0.203 F 
ATOM     93  C   UNL A   1      45.399  25.033  35.622  1.00  0.00     0.198 A 
ATOM     94  C   UNL A   1      46.917  26.791  35.023  1.00  0.00     0.198 A 
ATOM     95  F   UNL A   1      46.154  28.634  33.778  1.00  0.00    -0.203 F 
ATOM     96  F   UNL A   1      45.151  23.881  36.262  1.00  0.00    -0.200 F 
ATOM     97  C   UNL A   1      46.671  25.584  35.657  1.00  0.00     0.200 A 
ATOM     98  F   UNL A   1      48.149  27.317  35.039  1.00  0.00    -0.200 F 
ATOM     99  F   UNL A   1      47.658  24.955  36.309  1.00  0.00    -0.200 F 
ENDBRANCH  66  89
ENDBRANCH  40  41
ENDBRANCH  33  35
ENDBRANCH  32  33
ENDBRANCH  31  32
ENDBRANCH  30  31
ENDBRANCH  29  30
ENDBRANCH  28  29
ENDBRANCH  27  28
ENDBRANCH  26  27
ENDBRANCH   1  26
TORSDOF 23
ENDMDL
MODEL 3
REMARK VINA RESULT:      -9.3      1.956      8.271
REMARK SMILES CC1(C)COCCN1C(=O)N1CCO[C@@H](CC(=O)OCCOCCOCCOCCOC(=O)c2ccc(-c3c4nc(c(-c5c(F)c(F)c(F)c(F)c5F)c5ccc([nH]5)c(-c5c(F)c(F)c(F)c(F)c5F)c5nc(c(-c6c(F)c(F)c(F)c(F)c6F)c6ccc3[nH]6)C=C5)C=C4)cc2)C1
REMARK SMILES IDX 24 1 23 2 22 3 21 4 20 5 19 6 17 7 18 8 16 9 15 10 11 11
REMARK SMILES IDX 12 12 97 13 13 14 14 15 9 16 10 17 8 18 1 19 2 20 3 21 4 22
REMARK SMILES IDX 5 23 7 24 6 25 25 26 26 27 27 28 28 29 29 30 30 31 31 32
REMARK SMILES IDX 32 33 33 34 34 35 35 36 96 37 36 38 95 39 37 40 38 41 39 42
REMARK SMILES IDX 89 43 40 44 94 45 88 46 90 47 41 48 93 49 87 50 86 51 42 53
REMARK SMILES IDX 74 54 54 55 73 56 55 57 58 58 72 59 91 60 56 61 57 62 71 64
REMARK SMILES IDX 92 65 59 66 43 67 44 68 52 69 45 70 46 71 50 72 53 73 47 74
REMARK SMILES IDX 48 75 51 76 49 77 75 78 76 79 84 80 77 81 78 82 82 83 85 84
REMARK SMILES IDX 79 85 80 86 83 87 81 88 60 89 61 90 69 91 62 92 63 93 67 94
REMARK SMILES IDX 70 95 64 96 65 97 68 98 66 99
REMARK H PARENT 90 52 58 63
REMARK Flexibility Score: inf
ROOT
ATOM      1  C   UNL A   1      30.727  25.042  26.247  1.00  0.00     0.188 C 
ENDROOT
BRANCH   1   2
ATOM      2  C   UNL A   1      32.013  24.370  26.768  1.00  0.00     0.188 C 
BRANCH   2   3
ATOM      3  O   UNL A   1      32.068  22.960  26.913  1.00  0.00    -0.376 OA
BRANCH   3   4
ATOM      4  C   UNL A   1      31.503  22.108  25.933  1.00  0.00     0.202 C 
BRANCH   4   5
ATOM      5  C   UNL A   1      32.365  21.213  25.046  1.00  0.00     0.261 C 
BRANCH   5   6
ATOM      6  O   UNL A   1      33.067  21.844  23.962  1.00  0.00    -0.463 OA
BRANCH   6   7
ATOM      7  C   UNL A   1      32.370  22.230  22.871  1.00  0.00     0.308 C 
ATOM      8  O   UNL A   1      32.004  21.466  21.984  1.00  0.00    -0.252 OA
BRANCH   7   9
ATOM      9  C   UNL A   1      32.102  23.714  22.793  1.00  0.00     0.156 C 
BRANCH   9  10
ATOM     10  C   UNL A   1      33.163  24.655  22.214  1.00  0.00     0.149 C 
ATOM     11  N   UNL A   1      32.567  26.840  23.247  1.00  0.00    -0.320 N 
ATOM     12  C   UNL A   1      33.761  26.759  24.086  1.00  0.00     0.150 C 
ATOM     13  C   UNL A   1      32.769  26.125  21.989  1.00  0.00     0.154 C 
ATOM     14  C   UNL A   1      34.214  25.313  24.293  1.00  0.00     0.182 C 
ATOM     15  O   UNL A   1      34.354  24.599  23.050  1.00  0.00    -0.374 OA
BRANCH  11  16
ATOM     16  C   UNL A   1      31.988  28.089  23.148  1.00  0.00     0.320 C 
ATOM     17  O   UNL A   1      32.684  29.058  22.836  1.00  0.00    -0.248 OA
BRANCH  16  18
ATOM     18  N   UNL A   1      30.607  28.189  23.305  1.00  0.00    -0.315 N 
ATOM     19  C   UNL A   1      29.652  29.783  21.627  1.00  0.00     0.037 C 
ATOM     20  C   UNL A   1      29.751  29.425  23.120  1.00  0.00     0.062 C 
ATOM     21  C   UNL A   1      30.218  30.707  23.799  1.00  0.00     0.037 C 
ATOM     22  C   UNL A   1      28.321  29.148  23.699  1.00  0.00     0.188 C 
ATOM     23  O   UNL A   1      27.725  27.957  23.181  1.00  0.00    -0.377 OA
ATOM     24  C   UNL A   1      29.914  26.943  22.939  1.00  0.00     0.150 C 
ATOM     25  C   UNL A   1      28.522  26.827  23.542  1.00  0.00     0.182 C 
ENDBRANCH  16  18
ENDBRANCH  11  16
ENDBRANCH   9  10
ENDBRANCH   7   9
ENDBRANCH   6   7
ENDBRANCH   5   6
ENDBRANCH   4   5
ENDBRANCH   3   4
ENDBRANCH   2   3
ENDBRANCH   1   2
BRANCH   1  26
ATOM     26  O   UNL A   1      30.467  26.358  26.704  1.00  0.00    -0.377 OA
BRANCH  26  27
ATOM     27  C   UNL A   1      31.500  27.332  26.621  1.00  0.00     0.188 C 
BRANCH  27  28
ATOM     28  C   UNL A   1      31.396  28.645  27.422  1.00  0.00     0.188 C 
BRANCH  28  29
ATOM     29  O   UNL A   1      32.544  29.471  27.378  1.00  0.00    -0.376 OA
BRANCH  29  30
ATOM     30  C   UNL A   1      32.559  30.625  26.551  1.00  0.00     0.202 C 
BRANCH  30  31
ATOM     31  C   UNL A   1      32.186  31.992  27.154  1.00  0.00     0.261 C 
BRANCH  31  32
ATOM     32  O   UNL A   1      33.216  32.993  27.186  1.00  0.00    -0.460 OA
BRANCH  32  33
ATOM     33  C   UNL A   1      33.722  33.355  28.380  1.00  0.00     0.338 C 
ATOM     34  O   UNL A   1      33.214  34.093  29.208  1.00  0.00    -0.246 OA
BRANCH  33  35
ATOM     35  C   UNL A   1      34.927  32.535  28.623  1.00  0.00     0.060 A 
ATOM     36  C   UNL A   1      34.775  31.213  29.064  1.00  0.00     0.016 A 
ATOM     37  C   UNL A   1      36.199  33.074  28.424  1.00  0.00     0.016 A 
ATOM     38  C   UNL A   1      35.897  30.441  29.360  1.00  0.00     0.010 A 
ATOM     39  C   UNL A   1      37.323  32.313  28.753  1.00  0.00     0.010 A 
ATOM     40  C   UNL A   1      37.171  31.012  29.268  1.00  0.00    -0.014 A 
BRANCH  40  41
ATOM     41  C   UNL A   1      38.307  30.363  29.963  1.00  0.00     0.031 A 
ATOM     42  C   UNL A   1      38.574  30.765  31.388  1.00  0.00     0.074 A 
ATOM     43  C   UNL A   1      39.061  29.425  29.368  1.00  0.00     0.049 A 
ATOM     44  N   UNL A   1      39.537  30.399  32.195  1.00  0.00    -0.248 NA
ATOM     45  C   UNL A   1      37.620  31.716  31.980  1.00  0.00     0.031 C 
ATOM     46  C   UNL A   1      38.857  28.903  28.021  1.00  0.00     0.029 A 
ATOM     47  N   UNL A   1      40.162  28.751  29.833  1.00  0.00    -0.354 N 
ATOM     48  C   UNL A   1      39.307  31.080  33.383  1.00  0.00     0.074 A 
ATOM     49  C   UNL A   1      38.141  31.911  33.180  1.00  0.00     0.031 C 
ATOM     50  C   UNL A   1      39.811  27.991  27.761  1.00  0.00     0.029 A 
ATOM     51  C   UNL A   1      40.712  27.898  28.910  1.00  0.00     0.049 A 
ATOM     52  H   UNL A   1      40.523  28.868  30.742  1.00  0.00     0.167 HD
ATOM     53  C   UNL A   1      40.002  31.014  34.544  1.00  0.00     0.037 A 
ATOM     54  C   UNL A   1      41.829  27.149  28.985  1.00  0.00     0.037 A 
ATOM     55  C   UNL A   1      41.173  30.201  34.732  1.00  0.00     0.049 A 
ATOM     56  C   UNL A   1      42.657  27.182  30.245  1.00  0.00     0.074 A 
ATOM     57  C   UNL A   1      41.958  30.064  35.862  1.00  0.00     0.029 A 
ATOM     58  N   UNL A   1      41.737  29.395  33.752  1.00  0.00    -0.354 N 
ATOM     59  N   UNL A   1      42.436  27.818  31.371  1.00  0.00    -0.248 NA
ATOM     60  C   UNL A   1      43.895  26.389  30.243  1.00  0.00     0.031 C 
ATOM     61  C   UNL A   1      43.033  29.226  35.547  1.00  0.00     0.029 A 
ATOM     62  C   UNL A   1      42.880  28.783  34.243  1.00  0.00     0.049 A 
ATOM     63  H   UNL A   1      41.380  29.278  32.843  1.00  0.00     0.167 HD
ATOM     64  C   UNL A   1      43.481  27.474  32.220  1.00  0.00     0.074 A 
ATOM     65  C   UNL A   1      44.332  26.564  31.482  1.00  0.00     0.031 C 
ATOM     66  C   UNL A   1      43.712  27.870  33.497  1.00  0.00     0.037 A 
BRANCH  53  67
ATOM     67  C   UNL A   1      39.528  31.882  35.675  1.00  0.00     0.064 A 
ATOM     68  C   UNL A   1      38.518  31.466  36.558  1.00  0.00     0.173 A 
ATOM     69  C   UNL A   1      40.079  33.159  35.868  1.00  0.00     0.173 A 
ATOM     70  F   UNL A   1      37.944  30.262  36.408  1.00  0.00    -0.203 F 
ATOM     71  C   UNL A   1      38.047  32.312  37.559  1.00  0.00     0.198 A 
ATOM     72  C   UNL A   1      39.632  33.985  36.896  1.00  0.00     0.198 A 
ATOM     73  F   UNL A   1      41.048  33.608  35.057  1.00  0.00    -0.203 F 
ATOM     74  F   UNL A   1      37.031  31.920  38.340  1.00  0.00    -0.200 F 
ATOM     75  C   UNL A   1      38.608  33.568  37.730  1.00  0.00     0.200 A 
ATOM     76  F   UNL A   1      40.186  35.194  37.068  1.00  0.00    -0.200 F 
ATOM     77  F   UNL A   1      38.151  34.382  38.692  1.00  0.00    -0.200 F 
ENDBRANCH  53  67
BRANCH  54  78
ATOM     78  C   UNL A   1      42.233  26.299  27.834  1.00  0.00     0.064 A 
ATOM     79  C   UNL A   1      41.735  24.996  27.693  1.00  0.00     0.173 A 
ATOM     80  C   UNL A   1      43.131  26.761  26.860  1.00  0.00     0.173 A 
ATOM     81  F   UNL A   1      40.895  24.499  28.613  1.00  0.00    -0.203 F 
ATOM     82  C   UNL A   1      42.129  24.184  26.633  1.00  0.00     0.198 A 
ATOM     83  C   UNL A   1      43.502  25.958  25.783  1.00  0.00     0.198 A 
ATOM     84  F   UNL A   1      43.643  27.998  26.950  1.00  0.00    -0.203 F 
ATOM     85  F   UNL A   1      41.670  22.928  26.548  1.00  0.00    -0.200 F 
ATOM     86  C   UNL A   1      43.006  24.668  25.673  1.00  0.00     0.200 A 
ATOM     87  F   UNL A   1      44.340  26.433  24.853  1.00  0.00    -0.200 F 
ATOM     88  F   UNL A   1      43.378  23.889  24.649  1.00  0.00    -0.200 F 
ENDBRANCH  54  78
BRANCH  66  89
ATOM     89  C   UNL A   1      44.906  27.285  34.201  1.00  0.00     0.064 A 
ATOM     90  C   UNL A   1      46.170  27.891  34.151  1.00  0.00     0.173 A 
ATOM     91  C   UNL A   1      44.769  26.121  34.974  1.00  0.00     0.173 A 
ATOM     92  F   UNL A   1      46.360  28.998  33.417  1.00  0.00    -0.203 F 
ATOM     93  C   UNL A   1      47.257  27.337  34.822  1.00  0.00     0.198 A 
ATOM     94  C   UNL A   1      45.849  25.591  35.674  1.00  0.00     0.198 A 
ATOM     95  F   UNL A   1      43.581  25.504  35.064  1.00  0.00    -0.203 F 
ATOM     96  F   UNL A   1      48.468  27.903  34.715  1.00  0.00    -0.200 F 
ATOM     97  C   UNL A   1      47.095  26.193  35.590  1.00  0.00     0.200 A 
ATOM     98  F   UNL A   1      45.684  24.497  36.429  1.00  0.00    -0.200 F 
ATOM     99  F   UNL A   1      48.140  25.668  36.243  1.00  0.00    -0.200 F 
ENDBRANCH  66  89
ENDBRANCH  40  41
ENDBRANCH  33  35
ENDBRANCH  32  33
ENDBRANCH  31  32
ENDBRANCH  30  31
ENDBRANCH  29  30
ENDBRANCH  28  29
ENDBRANCH  27  28
ENDBRANCH  26  27
ENDBRANCH   1  26
TORSDOF 23
ENDMDL
