MODEL 1
REMARK VINA RESULT:     -10.4      0.000      0.000
REMARK SMILES C[C@@H](C(=O)OCCOCCOCCOCCOC(=O)c1ccc(-c2c3nc(c(-c4c(F)c(F)c(F)c(F)c4F)c4ccc([nH]4)c(-c4c(F)c(F)c(F)c(F)c4F)c4nc(c(-c5c(F)c(F)c(F)c(F)c5F)c5ccc2[nH]5)C=C4)C=C3)cc1)c1ccc(C[C@H]2CCC[C@H]2O)cc1
REMARK SMILES IDX 10 1 9 2 8 3 7 4 6 5 5 6 3 7 4 8 2 9 1 10 83 11 84 12 95 13
REMARK SMILES IDX 85 14 94 15 86 16 87 17 88 18 89 19 92 20 90 21 91 22 93 23
REMARK SMILES IDX 11 25 12 26 13 27 14 28 15 29 16 30 17 31 18 32 19 33 20 34
REMARK SMILES IDX 21 35 82 36 22 37 81 38 23 39 24 40 25 41 75 42 26 43 80 44
REMARK SMILES IDX 74 45 76 46 27 47 79 48 73 49 72 50 28 52 60 53 40 54 59 55
REMARK SMILES IDX 41 56 44 57 58 58 77 59 42 60 43 61 57 63 78 64 45 65 29 66
REMARK SMILES IDX 30 67 38 68 31 69 32 70 36 71 39 72 33 73 34 74 37 75 35 76
REMARK SMILES IDX 61 77 62 78 70 79 63 80 64 81 68 82 71 83 65 84 66 85 69 86
REMARK SMILES IDX 67 87 46 88 47 89 55 90 48 91 49 92 53 93 56 94 50 95 51 96
REMARK SMILES IDX 54 97 52 98
REMARK H PARENT 93 24 76 51 44 62
REMARK Flexibility Score: inf
ROOT
ATOM      1  C   UNL A   1      35.439  29.951  27.792  1.00  0.00     0.188 C 
ENDROOT
BRANCH   1   2
ATOM      2  C   UNL A   1      34.795  28.913  26.853  1.00  0.00     0.188 C 
BRANCH   2   3
ATOM      3  O   UNL A   1      33.561  29.206  26.216  1.00  0.00    -0.376 OA
BRANCH   3   4
ATOM      4  C   UNL A   1      32.377  28.524  26.596  1.00  0.00     0.202 C 
BRANCH   4   5
ATOM      5  C   UNL A   1      32.255  26.985  26.570  1.00  0.00     0.261 C 
BRANCH   5   6
ATOM      6  O   UNL A   1      32.856  26.281  25.467  1.00  0.00    -0.463 OA
BRANCH   6   7
ATOM      7  C   UNL A   1      32.226  26.375  24.268  1.00  0.00     0.313 C 
ATOM      8  O   UNL A   1      31.138  26.925  24.122  1.00  0.00    -0.252 OA
BRANCH   7   9
ATOM      9  C   UNL A   1      32.996  25.731  23.090  1.00  0.00     0.126 C 
ATOM     10  C   UNL A   1      32.470  25.950  21.665  1.00  0.00     0.025 C 
BRANCH   9  11
ATOM     11  C   UNL A   1      33.328  24.274  23.417  1.00  0.00    -0.034 A 
ATOM     12  C   UNL A   1      32.354  23.278  23.595  1.00  0.00     0.005 A 
ATOM     13  C   UNL A   1      34.659  23.939  23.697  1.00  0.00     0.005 A 
ATOM     14  C   UNL A   1      32.688  22.030  24.130  1.00  0.00     0.004 A 
ATOM     15  C   UNL A   1      34.993  22.689  24.221  1.00  0.00     0.004 A 
ATOM     16  C   UNL A   1      34.001  21.743  24.502  1.00  0.00    -0.048 A 
BRANCH  16  17
ATOM     17  C   UNL A   1      34.343  20.464  25.228  1.00  0.00     0.041 C 
BRANCH  17  18
ATOM     18  C   UNL A   1      33.966  19.134  24.545  1.00  0.00     0.022 C 
ATOM     19  C   UNL A   1      35.064  18.059  24.478  1.00  0.00     0.007 C 
ATOM     20  C   UNL A   1      32.725  18.387  25.057  1.00  0.00     0.117 C 
ATOM     21  C   UNL A   1      34.343  16.708  24.473  1.00  0.00     0.003 C 
ATOM     22  C   UNL A   1      32.854  17.025  24.381  1.00  0.00     0.032 C 
BRANCH  20  23
ATOM     23  O   UNL A   1      32.689  18.210  26.463  1.00  0.00    -0.393 OA
ATOM     24  H   UNL A   1      32.315  17.339  26.669  1.00  0.00     0.210 HD
ENDBRANCH  20  23
ENDBRANCH  17  18
ENDBRANCH  16  17
ENDBRANCH   9  11
ENDBRANCH   7   9
ENDBRANCH   6   7
ENDBRANCH   5   6
ENDBRANCH   4   5
ENDBRANCH   3   4
ENDBRANCH   2   3
ENDBRANCH   1   2
BRANCH   1  25
ATOM     25  O   UNL A   1      35.064  31.292  27.546  1.00  0.00    -0.377 OA
BRANCH  25  26
ATOM     26  C   UNL A   1      35.493  32.257  28.492  1.00  0.00     0.188 C 
BRANCH  26  27
ATOM     27  C   UNL A   1      34.441  33.199  29.109  1.00  0.00     0.188 C 
BRANCH  27  28
ATOM     28  O   UNL A   1      34.090  32.881  30.450  1.00  0.00    -0.376 OA
BRANCH  28  29
ATOM     29  C   UNL A   1      34.353  33.828  31.473  1.00  0.00     0.202 C 
BRANCH  29  30
ATOM     30  C   UNL A   1      35.034  33.314  32.753  1.00  0.00     0.261 C 
BRANCH  30  31
ATOM     31  O   UNL A   1      35.666  32.028  32.664  1.00  0.00    -0.460 OA
BRANCH  31  32
ATOM     32  C   UNL A   1      36.821  31.846  33.337  1.00  0.00     0.338 C 
ATOM     33  O   UNL A   1      37.005  31.971  34.536  1.00  0.00    -0.246 OA
BRANCH  32  34
ATOM     34  C   UNL A   1      37.802  31.266  32.397  1.00  0.00     0.060 A 
ATOM     35  C   UNL A   1      38.835  30.465  32.907  1.00  0.00     0.016 A 
ATOM     36  C   UNL A   1      37.696  31.491  31.023  1.00  0.00     0.016 A 
ATOM     37  C   UNL A   1      39.785  29.917  32.045  1.00  0.00     0.010 A 
ATOM     38  C   UNL A   1      38.665  30.964  30.163  1.00  0.00     0.010 A 
ATOM     39  C   UNL A   1      39.732  30.205  30.676  1.00  0.00    -0.014 A 
BRANCH  39  40
ATOM     40  C   UNL A   1      40.903  29.900  29.818  1.00  0.00     0.031 A 
ATOM     41  C   UNL A   1      40.989  28.534  29.196  1.00  0.00     0.074 A 
ATOM     42  C   UNL A   1      41.856  30.817  29.572  1.00  0.00     0.049 A 
ATOM     43  N   UNL A   1      41.931  28.010  28.455  1.00  0.00    -0.248 NA
ATOM     44  C   UNL A   1      39.852  27.633  29.449  1.00  0.00     0.031 C 
ATOM     45  C   UNL A   1      41.859  32.189  30.073  1.00  0.00     0.029 A 
ATOM     46  N   UNL A   1      43.014  30.720  28.840  1.00  0.00    -0.354 N 
ATOM     47  C   UNL A   1      41.507  26.719  28.166  1.00  0.00     0.074 A 
ATOM     48  C   UNL A   1      40.238  26.528  28.833  1.00  0.00     0.031 C 
ATOM     49  C   UNL A   1      42.974  32.806  29.641  1.00  0.00     0.029 A 
ATOM     50  C   UNL A   1      43.779  31.861  28.868  1.00  0.00     0.049 A 
ATOM     51  H   UNL A   1      43.271  29.911  28.343  1.00  0.00     0.167 HD
ATOM     52  C   UNL A   1      42.118  25.780  27.406  1.00  0.00     0.037 A 
ATOM     53  C   UNL A   1      45.000  32.099  28.348  1.00  0.00     0.037 A 
ATOM     54  C   UNL A   1      43.380  25.976  26.744  1.00  0.00     0.049 A 
ATOM     55  C   UNL A   1      45.700  31.006  27.576  1.00  0.00     0.074 A 
ATOM     56  C   UNL A   1      44.075  25.095  25.934  1.00  0.00     0.029 A 
ATOM     57  N   UNL A   1      44.145  27.131  26.829  1.00  0.00    -0.354 N 
ATOM     58  N   UNL A   1      45.283  29.798  27.282  1.00  0.00    -0.248 NA
ATOM     59  C   UNL A   1      47.043  31.313  27.063  1.00  0.00     0.031 C 
ATOM     60  C   UNL A   1      45.290  25.692  25.583  1.00  0.00     0.029 A 
ATOM     61  C   UNL A   1      45.320  26.972  26.112  1.00  0.00     0.049 A 
ATOM     62  H   UNL A   1      43.890  27.943  27.324  1.00  0.00     0.167 HD
ATOM     63  C   UNL A   1      46.291  29.217  26.521  1.00  0.00     0.074 A 
ATOM     64  C   UNL A   1      47.335  30.211  26.389  1.00  0.00     0.031 C 
ATOM     65  C   UNL A   1      46.347  27.975  25.979  1.00  0.00     0.037 A 
BRANCH  52  66
ATOM     66  C   UNL A   1      41.449  24.442  27.281  1.00  0.00     0.064 A 
ATOM     67  C   UNL A   1      40.284  24.261  26.518  1.00  0.00     0.173 A 
ATOM     68  C   UNL A   1      41.999  23.317  27.912  1.00  0.00     0.173 A 
ATOM     69  F   UNL A   1      39.706  25.307  25.909  1.00  0.00    -0.203 F 
ATOM     70  C   UNL A   1      39.683  23.010  26.415  1.00  0.00     0.198 A 
ATOM     71  C   UNL A   1      41.415  22.060  27.778  1.00  0.00     0.198 A 
ATOM     72  F   UNL A   1      43.112  23.432  28.651  1.00  0.00    -0.203 F 
ATOM     73  F   UNL A   1      38.541  22.871  25.725  1.00  0.00    -0.200 F 
ATOM     74  C   UNL A   1      40.252  21.909  27.038  1.00  0.00     0.200 A 
ATOM     75  F   UNL A   1      41.975  20.995  28.368  1.00  0.00    -0.200 F 
ATOM     76  F   UNL A   1      39.677  20.704  26.929  1.00  0.00    -0.200 F 
ENDBRANCH  52  66
BRANCH  53  77
ATOM     77  C   UNL A   1      45.655  33.420  28.546  1.00  0.00     0.064 A 
ATOM     78  C   UNL A   1      45.523  34.445  27.598  1.00  0.00     0.173 A 
ATOM     79  C   UNL A   1      46.458  33.674  29.669  1.00  0.00     0.173 A 
ATOM     80  F   UNL A   1      44.789  34.244  26.494  1.00  0.00    -0.203 F 
ATOM     81  C   UNL A   1      46.186  35.662  27.753  1.00  0.00     0.198 A 
ATOM     82  C   UNL A   1      47.093  34.902  29.839  1.00  0.00     0.198 A 
ATOM     83  F   UNL A   1      46.624  32.728  30.604  1.00  0.00    -0.203 F 
ATOM     84  F   UNL A   1      46.088  36.600  26.802  1.00  0.00    -0.200 F 
ATOM     85  C   UNL A   1      46.966  35.892  28.876  1.00  0.00     0.200 A 
ATOM     86  F   UNL A   1      47.837  35.124  30.932  1.00  0.00    -0.200 F 
ATOM     87  F   UNL A   1      47.603  37.060  29.024  1.00  0.00    -0.200 F 
ENDBRANCH  53  77
BRANCH  65  88
ATOM     88  C   UNL A   1      47.551  27.632  25.146  1.00  0.00     0.064 A 
ATOM     89  C   UNL A   1      48.724  27.115  25.714  1.00  0.00     0.173 A 
ATOM     90  C   UNL A   1      47.511  27.782  23.750  1.00  0.00     0.173 A 
ATOM     91  F   UNL A   1      48.820  26.963  27.043  1.00  0.00    -0.203 F 
ATOM     92  C   UNL A   1      49.822  26.789  24.921  1.00  0.00     0.198 A 
ATOM     93  C   UNL A   1      48.596  27.420  22.957  1.00  0.00     0.198 A 
ATOM     94  F   UNL A   1      46.410  28.262  23.152  1.00  0.00    -0.203 F 
ATOM     95  F   UNL A   1      50.951  26.348  25.492  1.00  0.00    -0.200 F 
ATOM     96  C   UNL A   1      49.754  26.934  23.543  1.00  0.00     0.200 A 
ATOM     97  F   UNL A   1      48.520  27.542  21.625  1.00  0.00    -0.200 F 
ATOM     98  F   UNL A   1      50.807  26.610  22.781  1.00  0.00    -0.200 F 
ENDBRANCH  65  88
ENDBRANCH  39  40
ENDBRANCH  32  34
ENDBRANCH  31  32
ENDBRANCH  30  31
ENDBRANCH  29  30
ENDBRANCH  28  29
ENDBRANCH  27  28
ENDBRANCH  26  27
ENDBRANCH  25  26
ENDBRANCH   1  25
TORSDOF 24
ENDMDL
MODEL 2
REMARK VINA RESULT:     -10.0      1.262      7.317
REMARK SMILES C[C@@H](C(=O)OCCOCCOCCOCCOC(=O)c1ccc(-c2c3nc(c(-c4c(F)c(F)c(F)c(F)c4F)c4ccc([nH]4)c(-c4c(F)c(F)c(F)c(F)c4F)c4nc(c(-c5c(F)c(F)c(F)c(F)c5F)c5ccc2[nH]5)C=C4)C=C3)cc1)c1ccc(C[C@H]2CCC[C@H]2O)cc1
REMARK SMILES IDX 10 1 9 2 8 3 7 4 6 5 5 6 3 7 4 8 2 9 1 10 83 11 84 12 95 13
REMARK SMILES IDX 85 14 94 15 86 16 87 17 88 18 89 19 92 20 90 21 91 22 93 23
REMARK SMILES IDX 11 25 12 26 13 27 14 28 15 29 16 30 17 31 18 32 19 33 20 34
REMARK SMILES IDX 21 35 82 36 22 37 81 38 23 39 24 40 25 41 75 42 26 43 80 44
REMARK SMILES IDX 74 45 76 46 27 47 79 48 73 49 72 50 28 52 60 53 40 54 59 55
REMARK SMILES IDX 41 56 44 57 58 58 77 59 42 60 43 61 57 63 78 64 45 65 29 66
REMARK SMILES IDX 30 67 38 68 31 69 32 70 36 71 39 72 33 73 34 74 37 75 35 76
REMARK SMILES IDX 61 77 62 78 70 79 63 80 64 81 68 82 71 83 65 84 66 85 69 86
REMARK SMILES IDX 67 87 46 88 47 89 55 90 48 91 49 92 53 93 56 94 50 95 51 96
REMARK SMILES IDX 54 97 52 98
REMARK H PARENT 93 24 76 51 44 62
REMARK Flexibility Score: inf
ROOT
ATOM      1  C   UNL A   1      34.799  32.551  28.006  1.00  0.00     0.188 C 
ENDROOT
BRANCH   1   2
ATOM      2  C   UNL A   1      35.025  31.030  28.102  1.00  0.00     0.188 C 
BRANCH   2   3
ATOM      3  O   UNL A   1      34.197  30.144  27.363  1.00  0.00    -0.376 OA
BRANCH   3   4
ATOM      4  C   UNL A   1      32.848  30.484  27.089  1.00  0.00     0.202 C 
BRANCH   4   5
ATOM      5  C   UNL A   1      32.136  30.089  25.778  1.00  0.00     0.261 C 
BRANCH   5   6
ATOM      6  O   UNL A   1      32.467  28.816  25.189  1.00  0.00    -0.463 OA
BRANCH   6   7
ATOM      7  C   UNL A   1      31.468  27.898  25.124  1.00  0.00     0.313 C 
ATOM      8  O   UNL A   1      31.014  27.326  26.111  1.00  0.00    -0.252 OA
BRANCH   7   9
ATOM      9  C   UNL A   1      30.942  27.629  23.694  1.00  0.00     0.126 C 
ATOM     10  C   UNL A   1      29.539  28.129  23.324  1.00  0.00     0.025 C 
BRANCH   9  11
ATOM     11  C   UNL A   1      31.210  26.174  23.303  1.00  0.00    -0.034 A 
ATOM     12  C   UNL A   1      30.290  25.134  23.508  1.00  0.00     0.005 A 
ATOM     13  C   UNL A   1      32.491  25.830  22.849  1.00  0.00     0.005 A 
ATOM     14  C   UNL A   1      30.671  23.796  23.365  1.00  0.00     0.004 A 
ATOM     15  C   UNL A   1      32.866  24.494  22.696  1.00  0.00     0.004 A 
ATOM     16  C   UNL A   1      31.978  23.461  23.013  1.00  0.00    -0.048 A 
BRANCH  16  17
ATOM     17  C   UNL A   1      32.440  22.024  23.013  1.00  0.00     0.041 C 
BRANCH  17  18
ATOM     18  C   UNL A   1      33.302  21.552  24.202  1.00  0.00     0.022 C 
ATOM     19  C   UNL A   1      34.000  22.648  25.024  1.00  0.00     0.007 C 
ATOM     20  C   UNL A   1      32.645  20.641  25.251  1.00  0.00     0.117 C 
ATOM     21  C   UNL A   1      34.142  22.094  26.445  1.00  0.00     0.003 C 
ATOM     22  C   UNL A   1      33.668  20.645  26.383  1.00  0.00     0.032 C 
BRANCH  20  23
ATOM     23  O   UNL A   1      31.403  21.116  25.742  1.00  0.00    -0.393 OA
ATOM     24  H   UNL A   1      30.724  20.436  25.616  1.00  0.00     0.210 HD
ENDBRANCH  20  23
ENDBRANCH  17  18
ENDBRANCH  16  17
ENDBRANCH   9  11
ENDBRANCH   7   9
ENDBRANCH   6   7
ENDBRANCH   5   6
ENDBRANCH   4   5
ENDBRANCH   3   4
ENDBRANCH   2   3
ENDBRANCH   1   2
BRANCH   1  25
ATOM     25  O   UNL A   1      34.020  33.105  29.046  1.00  0.00    -0.377 OA
BRANCH  25  26
ATOM     26  C   UNL A   1      33.728  34.490  28.955  1.00  0.00     0.188 C 
BRANCH  26  27
ATOM     27  C   UNL A   1      33.422  35.263  30.252  1.00  0.00     0.188 C 
BRANCH  27  28
ATOM     28  O   UNL A   1      33.708  34.539  31.442  1.00  0.00    -0.376 OA
BRANCH  28  29
ATOM     29  C   UNL A   1      34.931  34.785  32.120  1.00  0.00     0.202 C 
BRANCH  29  30
ATOM     30  C   UNL A   1      35.163  34.043  33.447  1.00  0.00     0.261 C 
BRANCH  30  31
ATOM     31  O   UNL A   1      36.080  32.939  33.408  1.00  0.00    -0.460 OA
BRANCH  31  32
ATOM     32  C   UNL A   1      35.902  32.007  32.450  1.00  0.00     0.338 C 
ATOM     33  O   UNL A   1      34.843  31.575  32.026  1.00  0.00    -0.246 OA
BRANCH  32  34
ATOM     34  C   UNL A   1      37.221  31.729  31.843  1.00  0.00     0.060 A 
ATOM     35  C   UNL A   1      37.440  32.094  30.508  1.00  0.00     0.016 A 
ATOM     36  C   UNL A   1      38.239  31.131  32.589  1.00  0.00     0.016 A 
ATOM     37  C   UNL A   1      38.670  31.830  29.904  1.00  0.00     0.010 A 
ATOM     38  C   UNL A   1      39.462  30.842  31.975  1.00  0.00     0.010 A 
ATOM     39  C   UNL A   1      39.668  31.159  30.620  1.00  0.00    -0.014 A 
BRANCH  39  40
ATOM     40  C   UNL A   1      40.834  30.595  29.897  1.00  0.00     0.031 A 
ATOM     41  C   UNL A   1      42.013  31.494  29.644  1.00  0.00     0.074 A 
ATOM     42  C   UNL A   1      40.864  29.311  29.496  1.00  0.00     0.049 A 
ATOM     43  N   UNL A   1      43.122  31.255  28.993  1.00  0.00    -0.248 NA
ATOM     44  C   UNL A   1      41.924  32.853  30.202  1.00  0.00     0.031 C 
ATOM     45  C   UNL A   1      39.808  28.329  29.728  1.00  0.00     0.029 A 
ATOM     46  N   UNL A   1      41.823  28.620  28.799  1.00  0.00    -0.354 N 
ATOM     47  C   UNL A   1      43.854  32.434  29.054  1.00  0.00     0.074 A 
ATOM     48  C   UNL A   1      43.054  33.396  29.778  1.00  0.00     0.031 C 
ATOM     49  C   UNL A   1      40.174  27.160  29.171  1.00  0.00     0.029 A 
ATOM     50  C   UNL A   1      41.469  27.324  28.513  1.00  0.00     0.049 A 
ATOM     51  H   UNL A   1      42.683  29.016  28.529  1.00  0.00     0.167 HD
ATOM     52  C   UNL A   1      45.087  32.689  28.555  1.00  0.00     0.037 A 
ATOM     53  C   UNL A   1      42.111  26.391  27.782  1.00  0.00     0.037 A 
ATOM     54  C   UNL A   1      45.879  31.728  27.835  1.00  0.00     0.049 A 
ATOM     55  C   UNL A   1      43.447  26.727  27.163  1.00  0.00     0.074 A 
ATOM     56  C   UNL A   1      47.148  31.880  27.307  1.00  0.00     0.029 A 
ATOM     57  N   UNL A   1      45.470  30.438  27.530  1.00  0.00    -0.354 N 
ATOM     58  N   UNL A   1      44.146  27.834  27.247  1.00  0.00    -0.248 NA
ATOM     59  C   UNL A   1      44.082  25.681  26.348  1.00  0.00     0.031 C 
ATOM     60  C   UNL A   1      47.480  30.705  26.625  1.00  0.00     0.029 A 
ATOM     61  C   UNL A   1      46.449  29.794  26.792  1.00  0.00     0.049 A 
ATOM     62  H   UNL A   1      44.611  30.038  27.800  1.00  0.00     0.167 HD
ATOM     63  C   UNL A   1      45.316  27.604  26.530  1.00  0.00     0.074 A 
ATOM     64  C   UNL A   1      45.236  26.249  26.028  1.00  0.00     0.031 C 
ATOM     65  C   UNL A   1      46.362  28.439  26.309  1.00  0.00     0.037 A 
BRANCH  52  66
ATOM     66  C   UNL A   1      45.638  34.073  28.737  1.00  0.00     0.064 A 
ATOM     67  C   UNL A   1      46.434  34.418  29.841  1.00  0.00     0.173 A 
ATOM     68  C   UNL A   1      45.390  35.063  27.775  1.00  0.00     0.173 A 
ATOM     69  F   UNL A   1      46.687  33.515  30.800  1.00  0.00    -0.203 F 
ATOM     70  C   UNL A   1      46.936  35.708  29.987  1.00  0.00     0.198 A 
ATOM     71  C   UNL A   1      45.923  36.343  27.906  1.00  0.00     0.198 A 
ATOM     72  F   UNL A   1      44.638  34.788  26.699  1.00  0.00    -0.203 F 
ATOM     73  F   UNL A   1      47.649  36.030  31.076  1.00  0.00    -0.200 F 
ATOM     74  C   UNL A   1      46.688  36.667  29.016  1.00  0.00     0.200 A 
ATOM     75  F   UNL A   1      45.694  37.263  26.959  1.00  0.00    -0.200 F 
ATOM     76  F   UNL A   1      47.181  37.905  29.153  1.00  0.00    -0.200 F 
ENDBRANCH  52  66
BRANCH  53  77
ATOM     77  C   UNL A   1      41.501  25.049  27.575  1.00  0.00     0.064 A 
ATOM     78  C   UNL A   1      40.407  24.875  26.716  1.00  0.00     0.173 A 
ATOM     79  C   UNL A   1      41.974  23.920  28.263  1.00  0.00     0.173 A 
ATOM     80  F   UNL A   1      39.899  25.927  26.058  1.00  0.00    -0.203 F 
ATOM     81  C   UNL A   1      39.795  23.630  26.569  1.00  0.00     0.198 A 
ATOM     82  C   UNL A   1      41.383  22.670  28.089  1.00  0.00     0.198 A 
ATOM     83  F   UNL A   1      43.014  24.031  29.101  1.00  0.00    -0.203 F 
ATOM     84  F   UNL A   1      38.715  23.507  25.786  1.00  0.00    -0.200 F 
ATOM     85  C   UNL A   1      40.287  22.528  27.251  1.00  0.00     0.200 A 
ATOM     86  F   UNL A   1      41.869  21.605  28.741  1.00  0.00    -0.200 F 
ATOM     87  F   UNL A   1      39.699  21.333  27.110  1.00  0.00    -0.200 F 
ENDBRANCH  53  77
BRANCH  65  88
ATOM     88  C   UNL A   1      47.532  27.898  25.535  1.00  0.00     0.064 A 
ATOM     89  C   UNL A   1      48.684  27.413  26.171  1.00  0.00     0.173 A 
ATOM     90  C   UNL A   1      47.478  27.823  24.133  1.00  0.00     0.173 A 
ATOM     91  F   UNL A   1      48.793  27.473  27.506  1.00  0.00    -0.203 F 
ATOM     92  C   UNL A   1      49.749  26.903  25.433  1.00  0.00     0.198 A 
ATOM     93  C   UNL A   1      48.529  27.277  23.401  1.00  0.00     0.198 A 
ATOM     94  F   UNL A   1      46.396  28.262  23.473  1.00  0.00    -0.203 F 
ATOM     95  F   UNL A   1      50.862  26.496  26.060  1.00  0.00    -0.200 F 
ATOM     96  C   UNL A   1      49.667  26.827  24.051  1.00  0.00     0.200 A 
ATOM     97  F   UNL A   1      48.438  27.187  22.067  1.00  0.00    -0.200 F 
ATOM     98  F   UNL A   1      50.689  26.325  23.343  1.00  0.00    -0.200 F 
ENDBRANCH  65  88
ENDBRANCH  39  40
ENDBRANCH  32  34
ENDBRANCH  31  32
ENDBRANCH  30  31
ENDBRANCH  29  30
ENDBRANCH  28  29
ENDBRANCH  27  28
ENDBRANCH  26  27
ENDBRANCH  25  26
ENDBRANCH   1  25
TORSDOF 24
ENDMDL
MODEL 3
REMARK VINA RESULT:      -9.6      1.178      2.557
REMARK SMILES C[C@@H](C(=O)OCCOCCOCCOCCOC(=O)c1ccc(-c2c3nc(c(-c4c(F)c(F)c(F)c(F)c4F)c4ccc([nH]4)c(-c4c(F)c(F)c(F)c(F)c4F)c4nc(c(-c5c(F)c(F)c(F)c(F)c5F)c5ccc2[nH]5)C=C4)C=C3)cc1)c1ccc(C[C@H]2CCC[C@H]2O)cc1
REMARK SMILES IDX 10 1 9 2 8 3 7 4 6 5 5 6 3 7 4 8 2 9 1 10 83 11 84 12 95 13
REMARK SMILES IDX 85 14 94 15 86 16 87 17 88 18 89 19 92 20 90 21 91 22 93 23
REMARK SMILES IDX 11 25 12 26 13 27 14 28 15 29 16 30 17 31 18 32 19 33 20 34
REMARK SMILES IDX 21 35 82 36 22 37 81 38 23 39 24 40 25 41 75 42 26 43 80 44
REMARK SMILES IDX 74 45 76 46 27 47 79 48 73 49 72 50 28 52 60 53 40 54 59 55
REMARK SMILES IDX 41 56 44 57 58 58 77 59 42 60 43 61 57 63 78 64 45 65 29 66
REMARK SMILES IDX 30 67 38 68 31 69 32 70 36 71 39 72 33 73 34 74 37 75 35 76
REMARK SMILES IDX 61 77 62 78 70 79 63 80 64 81 68 82 71 83 65 84 66 85 69 86
REMARK SMILES IDX 67 87 46 88 47 89 55 90 48 91 49 92 53 93 56 94 50 95 51 96
REMARK SMILES IDX 54 97 52 98
REMARK H PARENT 93 24 76 51 44 62
REMARK Flexibility Score: inf
ROOT
ATOM      1  C   UNL A   1      35.165  29.741  27.899  1.00  0.00     0.188 C 
ENDROOT
BRANCH   1   2
ATOM      2  C   UNL A   1      34.540  29.244  26.581  1.00  0.00     0.188 C 
BRANCH   2   3
ATOM      3  O   UNL A   1      33.532  30.013  25.943  1.00  0.00    -0.376 OA
BRANCH   3   4
ATOM      4  C   UNL A   1      32.167  29.827  26.278  1.00  0.00     0.202 C 
BRANCH   4   5
ATOM      5  C   UNL A   1      31.434  28.482  26.081  1.00  0.00     0.261 C 
BRANCH   5   6
ATOM      6  O   UNL A   1      31.495  27.868  24.780  1.00  0.00    -0.463 OA
BRANCH   6   7
ATOM      7  C   UNL A   1      30.555  28.255  23.879  1.00  0.00     0.313 C 
ATOM      8  O   UNL A   1      30.494  29.391  23.416  1.00  0.00    -0.252 OA
BRANCH   7   9
ATOM      9  C   UNL A   1      29.560  27.140  23.476  1.00  0.00     0.126 C 
ATOM     10  C   UNL A   1      28.058  27.453  23.506  1.00  0.00     0.025 C 
BRANCH   9  11
ATOM     11  C   UNL A   1      29.940  25.827  24.164  1.00  0.00    -0.034 A 
ATOM     12  C   UNL A   1      29.728  25.578  25.529  1.00  0.00     0.005 A 
ATOM     13  C   UNL A   1      30.666  24.876  23.434  1.00  0.00     0.005 A 
ATOM     14  C   UNL A   1      30.309  24.473  26.160  1.00  0.00     0.004 A 
ATOM     15  C   UNL A   1      31.237  23.768  24.062  1.00  0.00     0.004 A 
ATOM     16  C   UNL A   1      31.117  23.588  25.445  1.00  0.00    -0.048 A 
BRANCH  16  17
ATOM     17  C   UNL A   1      31.877  22.489  26.145  1.00  0.00     0.041 C 
BRANCH  17  18
ATOM     18  C   UNL A   1      33.257  22.102  25.577  1.00  0.00     0.022 C 
ATOM     19  C   UNL A   1      34.487  22.642  26.325  1.00  0.00     0.007 C 
ATOM     20  C   UNL A   1      33.557  20.609  25.368  1.00  0.00     0.117 C 
ATOM     21  C   UNL A   1      35.609  21.625  26.097  1.00  0.00     0.003 C 
ATOM     22  C   UNL A   1      35.060  20.606  25.105  1.00  0.00     0.032 C 
BRANCH  20  23
ATOM     23  O   UNL A   1      33.277  19.794  26.492  1.00  0.00    -0.393 OA
ATOM     24  H   UNL A   1      32.354  19.500  26.457  1.00  0.00     0.210 HD
ENDBRANCH  20  23
ENDBRANCH  17  18
ENDBRANCH  16  17
ENDBRANCH   9  11
ENDBRANCH   7   9
ENDBRANCH   6   7
ENDBRANCH   5   6
ENDBRANCH   4   5
ENDBRANCH   3   4
ENDBRANCH   2   3
ENDBRANCH   1   2
BRANCH   1  25
ATOM     25  O   UNL A   1      35.143  31.142  28.078  1.00  0.00    -0.377 OA
BRANCH  25  26
ATOM     26  C   UNL A   1      35.646  31.635  29.310  1.00  0.00     0.188 C 
BRANCH  26  27
ATOM     27  C   UNL A   1      34.851  32.734  30.040  1.00  0.00     0.188 C 
BRANCH  27  28
ATOM     28  O   UNL A   1      34.407  32.365  31.340  1.00  0.00    -0.376 OA
BRANCH  28  29
ATOM     29  C   UNL A   1      34.399  33.344  32.368  1.00  0.00     0.202 C 
BRANCH  29  30
ATOM     30  C   UNL A   1      35.270  33.073  33.607  1.00  0.00     0.261 C 
BRANCH  30  31
ATOM     31  O   UNL A   1      36.242  32.024  33.484  1.00  0.00    -0.460 OA
BRANCH  31  32
ATOM     32  C   UNL A   1      37.513  32.297  33.844  1.00  0.00     0.338 C 
ATOM     33  O   UNL A   1      37.893  32.799  34.889  1.00  0.00    -0.246 OA
BRANCH  32  34
ATOM     34  C   UNL A   1      38.406  31.699  32.831  1.00  0.00     0.060 A 
ATOM     35  C   UNL A   1      39.343  30.738  33.239  1.00  0.00     0.016 A 
ATOM     36  C   UNL A   1      38.309  32.064  31.487  1.00  0.00     0.016 A 
ATOM     37  C   UNL A   1      40.209  30.167  32.307  1.00  0.00     0.010 A 
ATOM     38  C   UNL A   1      39.196  31.512  30.558  1.00  0.00     0.010 A 
ATOM     39  C   UNL A   1      40.173  30.588  30.972  1.00  0.00    -0.014 A 
BRANCH  39  40
ATOM     40  C   UNL A   1      41.288  30.231  30.061  1.00  0.00     0.031 A 
ATOM     41  C   UNL A   1      41.248  28.889  29.384  1.00  0.00     0.074 A 
ATOM     42  C   UNL A   1      42.301  31.083  29.817  1.00  0.00     0.049 A 
ATOM     43  N   UNL A   1      42.122  28.327  28.589  1.00  0.00    -0.248 NA
ATOM     44  C   UNL A   1      40.053  28.068  29.642  1.00  0.00     0.031 C 
ATOM     45  C   UNL A   1      42.426  32.428  30.371  1.00  0.00     0.029 A 
ATOM     46  N   UNL A   1      43.423  30.929  29.041  1.00  0.00    -0.354 N 
ATOM     47  C   UNL A   1      41.589  27.086  28.266  1.00  0.00     0.074 A 
ATOM     48  C   UNL A   1      40.332  26.963  28.969  1.00  0.00     0.031 C 
ATOM     49  C   UNL A   1      43.571  32.976  29.924  1.00  0.00     0.029 A 
ATOM     50  C   UNL A   1      44.274  32.006  29.086  1.00  0.00     0.049 A 
ATOM     51  H   UNL A   1      43.600  30.124  28.504  1.00  0.00     0.167 HD
ATOM     52  C   UNL A   1      42.101  26.135  27.447  1.00  0.00     0.037 A 
ATOM     53  C   UNL A   1      45.492  32.172  28.532  1.00  0.00     0.037 A 
ATOM     54  C   UNL A   1      43.352  26.262  26.749  1.00  0.00     0.049 A 
ATOM     55  C   UNL A   1      46.079  31.063  27.693  1.00  0.00     0.074 A 
ATOM     56  C   UNL A   1      43.949  25.366  25.880  1.00  0.00     0.029 A 
ATOM     57  N   UNL A   1      44.206  27.351  26.851  1.00  0.00    -0.354 N 
ATOM     58  N   UNL A   1      45.561  29.903  27.367  1.00  0.00    -0.248 NA
ATOM     59  C   UNL A   1      47.425  31.288  27.145  1.00  0.00     0.031 C 
ATOM     60  C   UNL A   1      45.195  25.883  25.510  1.00  0.00     0.029 A 
ATOM     61  C   UNL A   1      45.341  27.134  26.087  1.00  0.00     0.049 A 
ATOM     62  H   UNL A   1      44.031  28.159  27.386  1.00  0.00     0.167 HD
ATOM     63  C   UNL A   1      46.496  29.279  26.548  1.00  0.00     0.074 A 
ATOM     64  C   UNL A   1      47.609  30.196  26.418  1.00  0.00     0.031 C 
ATOM     65  C   UNL A   1      46.437  28.061  25.956  1.00  0.00     0.037 A 
BRANCH  52  66
ATOM     66  C   UNL A   1      41.326  24.859  27.295  1.00  0.00     0.064 A 
ATOM     67  C   UNL A   1      41.723  23.668  27.923  1.00  0.00     0.173 A 
ATOM     68  C   UNL A   1      40.150  24.835  26.531  1.00  0.00     0.173 A 
ATOM     69  F   UNL A   1      42.850  23.631  28.651  1.00  0.00    -0.203 F 
ATOM     70  C   UNL A   1      40.986  22.497  27.769  1.00  0.00     0.198 A 
ATOM     71  C   UNL A   1      39.397  23.671  26.407  1.00  0.00     0.198 A 
ATOM     72  F   UNL A   1      39.723  25.944  25.910  1.00  0.00    -0.203 F 
ATOM     73  F   UNL A   1      41.413  21.358  28.335  1.00  0.00    -0.200 F 
ATOM     74  C   UNL A   1      39.820  22.500  27.019  1.00  0.00     0.200 A 
ATOM     75  F   UNL A   1      38.262  23.680  25.694  1.00  0.00    -0.200 F 
ATOM     76  F   UNL A   1      39.107  21.374  26.880  1.00  0.00    -0.200 F 
ENDBRANCH  52  66
BRANCH  53  77
ATOM     77  C   UNL A   1      46.253  33.431  28.758  1.00  0.00     0.064 A 
ATOM     78  C   UNL A   1      47.085  33.584  29.877  1.00  0.00     0.173 A 
ATOM     79  C   UNL A   1      46.135  34.521  27.882  1.00  0.00     0.173 A 
ATOM     80  F   UNL A   1      47.210  32.583  30.759  1.00  0.00    -0.203 F 
ATOM     81  C   UNL A   1      47.750  34.785  30.122  1.00  0.00     0.198 A 
ATOM     82  C   UNL A   1      46.827  35.709  28.111  1.00  0.00     0.198 A 
ATOM     83  F   UNL A   1      45.349  34.431  26.800  1.00  0.00    -0.203 F 
ATOM     84  F   UNL A   1      48.491  34.921  31.230  1.00  0.00    -0.200 F 
ATOM     85  C   UNL A   1      47.626  35.844  29.236  1.00  0.00     0.200 A 
ATOM     86  F   UNL A   1      46.713  36.725  27.246  1.00  0.00    -0.200 F 
ATOM     87  F   UNL A   1      48.265  36.997  29.473  1.00  0.00    -0.200 F 
ENDBRANCH  53  77
BRANCH  65  88
ATOM     88  C   UNL A   1      47.584  27.663  25.068  1.00  0.00     0.064 A 
ATOM     89  C   UNL A   1      47.536  27.824  23.676  1.00  0.00     0.173 A 
ATOM     90  C   UNL A   1      48.767  27.154  25.628  1.00  0.00     0.173 A 
ATOM     91  F   UNL A   1      46.426  28.294  23.089  1.00  0.00    -0.203 F 
ATOM     92  C   UNL A   1      48.617  27.463  22.875  1.00  0.00     0.198 A 
ATOM     93  C   UNL A   1      49.859  26.829  24.828  1.00  0.00     0.198 A 
ATOM     94  F   UNL A   1      48.872  26.989  26.955  1.00  0.00    -0.203 F 
ATOM     95  F   UNL A   1      48.527  27.575  21.542  1.00  0.00    -0.200 F 
ATOM     96  C   UNL A   1      49.780  26.974  23.452  1.00  0.00     0.200 A 
ATOM     97  F   UNL A   1      50.988  26.376  25.390  1.00  0.00    -0.200 F 
ATOM     98  F   UNL A   1      50.822  26.637  22.680  1.00  0.00    -0.200 F 
ENDBRANCH  65  88
ENDBRANCH  39  40
ENDBRANCH  32  34
ENDBRANCH  31  32
ENDBRANCH  30  31
ENDBRANCH  29  30
ENDBRANCH  28  29
ENDBRANCH  27  28
ENDBRANCH  26  27
ENDBRANCH  25  26
ENDBRANCH   1  25
TORSDOF 24
ENDMDL
