MODEL 1
REMARK VINA RESULT:     -10.4      0.000      0.000
REMARK SMILES O=C(OCCOCCOCCOCCOC(=O)[C@H]1CS[C@H](c2nc3ccccc3s2)[NH2+]1)c1ccc(-c2c3nc(c(-c4c(F)c(F)c(F)c(F)c4F)c4ccc([nH]4)c(-c4c(F)c(F)c(F)c(F)c4F)c4nc(c(-c5c(F)c(F)c(F)c(F)c5F)c5ccc2[nH]5)C=C4)C=C3)cc1
REMARK SMILES IDX 8 1 7 2 6 3 5 4 4 5 3 6 2 7 1 8 32 9 33 10 94 11 34 12 93 13
REMARK SMILES IDX 35 14 36 15 37 16 87 17 38 18 92 19 86 20 88 21 39 22 91 23
REMARK SMILES IDX 85 24 84 25 40 27 72 28 52 29 71 30 53 31 56 32 70 33 89 34
REMARK SMILES IDX 54 35 55 36 69 38 90 39 57 40 41 41 42 42 50 43 43 44 44 45
REMARK SMILES IDX 48 46 51 47 45 48 46 49 49 50 47 51 73 52 74 53 82 54 75 55
REMARK SMILES IDX 76 56 80 57 83 58 77 59 78 60 81 61 79 62 58 63 59 64 67 65
REMARK SMILES IDX 60 66 61 67 65 68 68 69 62 70 63 71 66 72 64 73 9 74 10 75
REMARK SMILES IDX 11 76 12 77 13 78 14 79 15 80 16 81 17 82 18 83 19 84 31 85
REMARK SMILES IDX 20 86 21 87 22 90 23 91 30 92 24 93 29 94 25 95 28 96 26 97
REMARK SMILES IDX 27 98
REMARK H PARENT 88 26 56 37 31 88 31 89
REMARK Flexibility Score: inf
ROOT
ATOM      1  C   UNL A   1      33.481  27.181  23.697  1.00  0.00     0.188 C 
ENDROOT
BRANCH   1   2
ATOM      2  C   UNL A   1      33.644  28.310  24.712  1.00  0.00     0.188 C 
BRANCH   2   3
ATOM      3  O   UNL A   1      32.489  28.467  25.543  1.00  0.00    -0.376 OA
BRANCH   3   4
ATOM      4  C   UNL A   1      31.671  29.607  25.266  1.00  0.00     0.202 C 
BRANCH   4   5
ATOM      5  C   UNL A   1      31.819  30.770  26.249  1.00  0.00     0.261 C 
BRANCH   5   6
ATOM      6  O   UNL A   1      32.804  30.536  27.264  1.00  0.00    -0.460 OA
BRANCH   6   7
ATOM      7  C   UNL A   1      33.783  31.366  27.702  1.00  0.00     0.338 C 
ATOM      8  O   UNL A   1      33.533  32.570  27.755  1.00  0.00    -0.246 OA
BRANCH   7   9
ATOM      9  C   UNL A   1      35.166  30.930  28.097  1.00  0.00     0.060 A 
ATOM     10  C   UNL A   1      35.580  29.616  28.315  1.00  0.00     0.016 A 
ATOM     11  C   UNL A   1      36.137  31.943  28.223  1.00  0.00     0.016 A 
ATOM     12  C   UNL A   1      36.874  29.303  28.683  1.00  0.00     0.010 A 
ATOM     13  C   UNL A   1      37.447  31.647  28.613  1.00  0.00     0.010 A 
ATOM     14  C   UNL A   1      37.797  30.320  28.878  1.00  0.00    -0.014 A 
BRANCH  14  15
ATOM     15  C   UNL A   1      38.998  29.950  29.638  1.00  0.00     0.031 A 
ATOM     16  C   UNL A   1      39.088  30.458  31.046  1.00  0.00     0.074 A 
ATOM     17  C   UNL A   1      39.825  29.006  29.160  1.00  0.00     0.049 A 
ATOM     18  N   UNL A   1      40.020  30.279  31.939  1.00  0.00    -0.248 NA
ATOM     19  C   UNL A   1      37.942  31.255  31.524  1.00  0.00     0.031 C 
ATOM     20  C   UNL A   1      39.664  28.317  27.877  1.00  0.00     0.029 A 
ATOM     21  N   UNL A   1      40.929  28.427  29.718  1.00  0.00    -0.354 N 
ATOM     22  C   UNL A   1      39.591  30.969  33.065  1.00  0.00     0.074 A 
ATOM     23  C   UNL A   1      38.315  31.566  32.753  1.00  0.00     0.031 C 
ATOM     24  C   UNL A   1      40.634  27.397  27.752  1.00  0.00     0.029 A 
ATOM     25  C   UNL A   1      41.518  27.487  28.909  1.00  0.00     0.049 A 
ATOM     26  H   UNL A   1      41.270  28.661  30.611  1.00  0.00     0.167 HD
ATOM     27  C   UNL A   1      40.228  31.097  34.250  1.00  0.00     0.037 A 
ATOM     28  C   UNL A   1      42.671  26.819  29.086  1.00  0.00     0.037 A 
ATOM     29  C   UNL A   1      41.501  30.485  34.509  1.00  0.00     0.049 A 
ATOM     30  C   UNL A   1      43.438  27.093  30.354  1.00  0.00     0.074 A 
ATOM     31  C   UNL A   1      42.314  30.602  35.618  1.00  0.00     0.029 A 
ATOM     32  N   UNL A   1      42.145  29.630  33.619  1.00  0.00    -0.354 N 
ATOM     33  N   UNL A   1      43.096  27.834  31.384  1.00  0.00    -0.248 NA
ATOM     34  C   UNL A   1      44.753  26.459  30.480  1.00  0.00     0.031 C 
ATOM     35  C   UNL A   1      43.477  29.862  35.374  1.00  0.00     0.029 A 
ATOM     36  C   UNL A   1      43.359  29.230  34.142  1.00  0.00     0.049 A 
ATOM     37  H   UNL A   1      41.787  29.352  32.745  1.00  0.00     0.167 HD
ATOM     38  C   UNL A   1      44.140  27.739  32.291  1.00  0.00     0.074 A 
ATOM     39  C   UNL A   1      45.119  26.850  31.693  1.00  0.00     0.031 C 
ATOM     40  C   UNL A   1      44.288  28.329  33.504  1.00  0.00     0.037 A 
BRANCH  27  41
ATOM     41  C   UNL A   1      39.601  32.008  35.264  1.00  0.00     0.064 A 
ATOM     42  C   UNL A   1      39.898  33.378  35.332  1.00  0.00     0.173 A 
ATOM     43  C   UNL A   1      38.744  31.476  36.241  1.00  0.00     0.173 A 
ATOM     44  F   UNL A   1      40.742  33.930  34.447  1.00  0.00    -0.203 F 
ATOM     45  C   UNL A   1      39.393  34.171  36.361  1.00  0.00     0.198 A 
ATOM     46  C   UNL A   1      38.217  32.279  37.250  1.00  0.00     0.198 A 
ATOM     47  F   UNL A   1      38.439  30.171  36.234  1.00  0.00    -0.203 F 
ATOM     48  F   UNL A   1      39.753  35.460  36.450  1.00  0.00    -0.200 F 
ATOM     49  C   UNL A   1      38.551  33.622  37.317  1.00  0.00     0.200 A 
ATOM     50  F   UNL A   1      37.405  31.744  38.173  1.00  0.00    -0.200 F 
ATOM     51  F   UNL A   1      38.081  34.383  38.315  1.00  0.00    -0.200 F 
ENDBRANCH  27  41
BRANCH  28  52
ATOM     52  C   UNL A   1      43.192  25.906  28.032  1.00  0.00     0.064 A 
ATOM     53  C   UNL A   1      43.912  26.391  26.933  1.00  0.00     0.173 A 
ATOM     54  C   UNL A   1      42.956  24.521  28.089  1.00  0.00     0.173 A 
ATOM     55  F   UNL A   1      44.150  27.706  26.815  1.00  0.00    -0.203 F 
ATOM     56  C   UNL A   1      44.356  25.535  25.924  1.00  0.00     0.198 A 
ATOM     57  C   UNL A   1      43.428  23.663  27.098  1.00  0.00     0.198 A 
ATOM     58  F   UNL A   1      42.267  23.998  29.114  1.00  0.00    -0.203 F 
ATOM     59  F   UNL A   1      44.995  26.035  24.858  1.00  0.00    -0.200 F 
ATOM     60  C   UNL A   1      44.118  24.171  26.010  1.00  0.00     0.200 A 
ATOM     61  F   UNL A   1      43.206  22.345  27.196  1.00  0.00    -0.200 F 
ATOM     62  F   UNL A   1      44.542  23.351  25.040  1.00  0.00    -0.200 F 
ENDBRANCH  28  52
BRANCH  40  63
ATOM     63  C   UNL A   1      45.528  27.985  34.272  1.00  0.00     0.064 A 
ATOM     64  C   UNL A   1      46.695  28.753  34.172  1.00  0.00     0.173 A 
ATOM     65  C   UNL A   1      45.523  26.897  35.158  1.00  0.00     0.173 A 
ATOM     66  F   UNL A   1      46.750  29.793  33.325  1.00  0.00    -0.203 F 
ATOM     67  C   UNL A   1      47.826  28.426  34.912  1.00  0.00     0.198 A 
ATOM     68  C   UNL A   1      46.643  26.596  35.924  1.00  0.00     0.198 A 
ATOM     69  F   UNL A   1      44.424  26.139  35.294  1.00  0.00    -0.203 F 
ATOM     70  F   UNL A   1      48.951  29.140  34.762  1.00  0.00    -0.200 F 
ATOM     71  C   UNL A   1      47.796  27.356  35.793  1.00  0.00     0.200 A 
ATOM     72  F   UNL A   1      46.605  25.574  36.789  1.00  0.00    -0.200 F 
ATOM     73  F   UNL A   1      48.883  27.050  36.514  1.00  0.00    -0.200 F 
ENDBRANCH  40  63
ENDBRANCH  14  15
ENDBRANCH   7   9
ENDBRANCH   6   7
ENDBRANCH   5   6
ENDBRANCH   4   5
ENDBRANCH   3   4
ENDBRANCH   2   3
ENDBRANCH   1   2
BRANCH   1  74
ATOM     74  O   UNL A   1      32.555  27.433  22.649  1.00  0.00    -0.377 OA
BRANCH  74  75
ATOM     75  C   UNL A   1      31.511  26.481  22.477  1.00  0.00     0.188 C 
BRANCH  75  76
ATOM     76  C   UNL A   1      30.223  26.661  23.321  1.00  0.00     0.188 C 
BRANCH  76  77
ATOM     77  O   UNL A   1      29.992  25.620  24.249  1.00  0.00    -0.376 OA
BRANCH  77  78
ATOM     78  C   UNL A   1      30.275  25.933  25.608  1.00  0.00     0.202 C 
BRANCH  78  79
ATOM     79  C   UNL A   1      31.410  25.172  26.323  1.00  0.00     0.261 C 
BRANCH  79  80
ATOM     80  O   UNL A   1      31.038  23.961  27.028  1.00  0.00    -0.459 OA
BRANCH  80  81
ATOM     81  C   UNL A   1      31.179  22.748  26.434  1.00  0.00     0.365 C 
ATOM     82  O   UNL A   1      30.231  22.037  26.115  1.00  0.00    -0.245 OA
BRANCH  81  83
ATOM     83  C   UNL A   1      32.683  22.431  26.157  1.00  0.00     0.304 C 
ATOM     84  C   UNL A   1      32.981  20.941  26.346  1.00  0.00     0.153 C 
ATOM     85  N   UNL A   1      33.079  22.831  24.764  1.00  0.00    -0.317 N 
ATOM     86  S   UNL A   1      33.888  20.397  24.872  1.00  0.00    -0.085 SA
ATOM     87  C   UNL A   1      34.277  22.091  24.353  1.00  0.00     0.303 C 
ATOM     88  H   UNL A   1      33.276  23.831  24.743  1.00  0.00     0.348 HD
ATOM     89  H   UNL A   1      32.315  22.617  24.123  1.00  0.00     0.348 HD
BRANCH  87  90
ATOM     90  C   UNL A   1      35.634  22.531  24.861  1.00  0.00     0.163 A 
ATOM     91  N   UNL A   1      36.665  21.706  24.891  1.00  0.00    -0.234 NA
ATOM     92  S   UNL A   1      35.988  24.127  25.399  1.00  0.00    -0.112 S 
ATOM     93  C   UNL A   1      37.722  22.277  25.562  1.00  0.00     0.082 A 
ATOM     94  C   UNL A   1      37.539  23.605  25.945  1.00  0.00     0.055 A 
ATOM     95  C   UNL A   1      38.919  21.619  25.904  1.00  0.00     0.030 A 
ATOM     96  C   UNL A   1      38.521  24.302  26.669  1.00  0.00     0.021 A 
ATOM     97  C   UNL A   1      39.886  22.290  26.657  1.00  0.00     0.002 A 
ATOM     98  C   UNL A   1      39.685  23.614  27.035  1.00  0.00     0.002 A 
ENDBRANCH  87  90
ENDBRANCH  81  83
ENDBRANCH  80  81
ENDBRANCH  79  80
ENDBRANCH  78  79
ENDBRANCH  77  78
ENDBRANCH  76  77
ENDBRANCH  75  76
ENDBRANCH  74  75
ENDBRANCH   1  74
TORSDOF 21
ENDMDL
MODEL 2
REMARK VINA RESULT:     -10.2      0.740      7.293
REMARK SMILES O=C(OCCOCCOCCOCCOC(=O)[C@H]1CS[C@H](c2nc3ccccc3s2)[NH2+]1)c1ccc(-c2c3nc(c(-c4c(F)c(F)c(F)c(F)c4F)c4ccc([nH]4)c(-c4c(F)c(F)c(F)c(F)c4F)c4nc(c(-c5c(F)c(F)c(F)c(F)c5F)c5ccc2[nH]5)C=C4)C=C3)cc1
REMARK SMILES IDX 8 1 7 2 6 3 5 4 4 5 3 6 2 7 1 8 32 9 33 10 94 11 34 12 93 13
REMARK SMILES IDX 35 14 36 15 37 16 87 17 38 18 92 19 86 20 88 21 39 22 91 23
REMARK SMILES IDX 85 24 84 25 40 27 72 28 52 29 71 30 53 31 56 32 70 33 89 34
REMARK SMILES IDX 54 35 55 36 69 38 90 39 57 40 41 41 42 42 50 43 43 44 44 45
REMARK SMILES IDX 48 46 51 47 45 48 46 49 49 50 47 51 73 52 74 53 82 54 75 55
REMARK SMILES IDX 76 56 80 57 83 58 77 59 78 60 81 61 79 62 58 63 59 64 67 65
REMARK SMILES IDX 60 66 61 67 65 68 68 69 62 70 63 71 66 72 64 73 9 74 10 75
REMARK SMILES IDX 11 76 12 77 13 78 14 79 15 80 16 81 17 82 18 83 19 84 31 85
REMARK SMILES IDX 20 86 21 87 22 90 23 91 30 92 24 93 29 94 25 95 28 96 26 97
REMARK SMILES IDX 27 98
REMARK H PARENT 88 26 56 37 31 88 31 89
REMARK Flexibility Score: inf
ROOT
ATOM      1  C   UNL A   1      33.711  28.006  23.477  1.00  0.00     0.188 C 
ENDROOT
BRANCH   1   2
ATOM      2  C   UNL A   1      33.197  29.275  24.151  1.00  0.00     0.188 C 
BRANCH   2   3
ATOM      3  O   UNL A   1      32.063  29.027  24.988  1.00  0.00    -0.376 OA
BRANCH   3   4
ATOM      4  C   UNL A   1      31.120  30.097  25.097  1.00  0.00     0.202 C 
BRANCH   4   5
ATOM      5  C   UNL A   1      31.476  31.178  26.121  1.00  0.00     0.261 C 
BRANCH   5   6
ATOM      6  O   UNL A   1      32.556  30.808  26.988  1.00  0.00    -0.460 OA
BRANCH   6   7
ATOM      7  C   UNL A   1      33.551  31.585  27.481  1.00  0.00     0.338 C 
ATOM      8  O   UNL A   1      33.402  32.806  27.432  1.00  0.00    -0.246 OA
BRANCH   7   9
ATOM      9  C   UNL A   1      34.840  31.070  28.054  1.00  0.00     0.060 A 
ATOM     10  C   UNL A   1      35.104  29.750  28.421  1.00  0.00     0.016 A 
ATOM     11  C   UNL A   1      35.887  32.002  28.198  1.00  0.00     0.016 A 
ATOM     12  C   UNL A   1      36.320  29.361  28.948  1.00  0.00     0.010 A 
ATOM     13  C   UNL A   1      37.119  31.630  28.746  1.00  0.00     0.010 A 
ATOM     14  C   UNL A   1      37.312  30.308  29.156  1.00  0.00    -0.014 A 
BRANCH  14  15
ATOM     15  C   UNL A   1      38.393  29.906  30.066  1.00  0.00     0.031 A 
ATOM     16  C   UNL A   1      39.508  29.098  29.471  1.00  0.00     0.074 A 
ATOM     17  C   UNL A   1      38.478  30.458  31.287  1.00  0.00     0.049 A 
ATOM     18  N   UNL A   1      40.583  28.622  30.032  1.00  0.00    -0.248 NA
ATOM     19  C   UNL A   1      39.409  28.816  28.026  1.00  0.00     0.031 C 
ATOM     20  C   UNL A   1      37.526  31.425  31.840  1.00  0.00     0.029 A 
ATOM     21  N   UNL A   1      39.429  30.328  32.257  1.00  0.00    -0.354 N 
ATOM     22  C   UNL A   1      41.265  27.957  29.022  1.00  0.00     0.074 A 
ATOM     23  C   UNL A   1      40.493  28.092  27.810  1.00  0.00     0.031 C 
ATOM     24  C   UNL A   1      37.953  31.809  33.054  1.00  0.00     0.029 A 
ATOM     25  C   UNL A   1      39.160  31.061  33.386  1.00  0.00     0.049 A 
ATOM     26  H   UNL A   1      40.229  29.762  32.158  1.00  0.00     0.167 HD
ATOM     27  C   UNL A   1      42.432  27.281  29.116  1.00  0.00     0.037 A 
ATOM     28  C   UNL A   1      39.809  31.074  34.563  1.00  0.00     0.037 A 
ATOM     29  C   UNL A   1      43.161  27.173  30.348  1.00  0.00     0.049 A 
ATOM     30  C   UNL A   1      41.026  30.194  34.688  1.00  0.00     0.074 A 
ATOM     31  C   UNL A   1      44.300  26.445  30.625  1.00  0.00     0.029 A 
ATOM     32  N   UNL A   1      42.799  27.827  31.522  1.00  0.00    -0.354 N 
ATOM     33  N   UNL A   1      41.621  29.469  33.768  1.00  0.00    -0.248 NA
ATOM     34  C   UNL A   1      41.652  30.117  36.011  1.00  0.00     0.031 C 
ATOM     35  C   UNL A   1      44.594  26.615  31.984  1.00  0.00     0.029 A 
ATOM     36  C   UNL A   1      43.679  27.501  32.536  1.00  0.00     0.049 A 
ATOM     37  H   UNL A   1      42.028  28.433  31.616  1.00  0.00     0.167 HD
ATOM     38  C   UNL A   1      42.703  28.867  34.391  1.00  0.00     0.074 A 
ATOM     39  C   UNL A   1      42.690  29.331  35.767  1.00  0.00     0.031 C 
ATOM     40  C   UNL A   1      43.624  28.008  33.886  1.00  0.00     0.037 A 
BRANCH  27  41
ATOM     41  C   UNL A   1      42.890  26.542  27.894  1.00  0.00     0.064 A 
ATOM     42  C   UNL A   1      42.669  25.167  27.718  1.00  0.00     0.173 A 
ATOM     43  C   UNL A   1      43.638  27.213  26.914  1.00  0.00     0.173 A 
ATOM     44  F   UNL A   1      41.994  24.468  28.643  1.00  0.00    -0.203 F 
ATOM     45  C   UNL A   1      43.212  24.486  26.630  1.00  0.00     0.198 A 
ATOM     46  C   UNL A   1      44.154  26.536  25.811  1.00  0.00     0.198 A 
ATOM     47  F   UNL A   1      43.893  28.524  27.038  1.00  0.00    -0.203 F 
ATOM     48  F   UNL A   1      43.055  23.159  26.523  1.00  0.00    -0.200 F 
ATOM     49  C   UNL A   1      43.952  25.171  25.676  1.00  0.00     0.200 A 
ATOM     50  F   UNL A   1      44.869  27.201  24.894  1.00  0.00    -0.200 F 
ATOM     51  F   UNL A   1      44.488  24.512  24.641  1.00  0.00    -0.200 F 
ENDBRANCH  27  41
BRANCH  28  52
ATOM     52  C   UNL A   1      39.293  31.873  35.708  1.00  0.00     0.064 A 
ATOM     53  C   UNL A   1      39.730  33.184  35.943  1.00  0.00     0.173 A 
ATOM     54  C   UNL A   1      38.366  31.330  36.614  1.00  0.00     0.173 A 
ATOM     55  F   UNL A   1      40.631  33.746  35.123  1.00  0.00    -0.203 F 
ATOM     56  C   UNL A   1      39.279  33.910  37.046  1.00  0.00     0.198 A 
ATOM     57  C   UNL A   1      37.890  32.067  37.696  1.00  0.00     0.198 A 
ATOM     58  F   UNL A   1      37.914  30.078  36.446  1.00  0.00    -0.203 F 
ATOM     59  F   UNL A   1      39.756  35.141  37.275  1.00  0.00    -0.200 F 
ATOM     60  C   UNL A   1      38.356  33.353  37.919  1.00  0.00     0.200 A 
ATOM     61  F   UNL A   1      36.987  31.529  38.527  1.00  0.00    -0.200 F 
ATOM     62  F   UNL A   1      37.925  34.051  38.979  1.00  0.00    -0.200 F 
ENDBRANCH  28  52
BRANCH  40  63
ATOM     63  C   UNL A   1      44.711  27.564  34.817  1.00  0.00     0.064 A 
ATOM     64  C   UNL A   1      44.598  26.395  35.580  1.00  0.00     0.173 A 
ATOM     65  C   UNL A   1      45.902  28.300  34.903  1.00  0.00     0.173 A 
ATOM     66  F   UNL A   1      43.470  25.668  35.541  1.00  0.00    -0.203 F 
ATOM     67  C   UNL A   1      45.630  25.992  36.420  1.00  0.00     0.198 A 
ATOM     68  C   UNL A   1      46.946  27.875  35.714  1.00  0.00     0.198 A 
ATOM     69  F   UNL A   1      46.059  29.421  34.182  1.00  0.00    -0.203 F 
ATOM     70  F   UNL A   1      45.482  24.900  37.184  1.00  0.00    -0.200 F 
ATOM     71  C   UNL A   1      46.806  26.726  36.479  1.00  0.00     0.200 A 
ATOM     72  F   UNL A   1      48.088  28.573  35.755  1.00  0.00    -0.200 F 
ATOM     73  F   UNL A   1      47.804  26.329  37.279  1.00  0.00    -0.200 F 
ENDBRANCH  40  63
ENDBRANCH  14  15
ENDBRANCH   7   9
ENDBRANCH   6   7
ENDBRANCH   5   6
ENDBRANCH   4   5
ENDBRANCH   3   4
ENDBRANCH   2   3
ENDBRANCH   1   2
BRANCH   1  74
ATOM     74  O   UNL A   1      32.986  27.591  22.327  1.00  0.00    -0.377 OA
BRANCH  74  75
ATOM     75  C   UNL A   1      32.637  26.213  22.256  1.00  0.00     0.188 C 
BRANCH  75  76
ATOM     76  C   UNL A   1      31.223  25.800  22.740  1.00  0.00     0.188 C 
BRANCH  76  77
ATOM     77  O   UNL A   1      31.222  25.039  23.932  1.00  0.00    -0.376 OA
BRANCH  77  78
ATOM     78  C   UNL A   1      30.893  25.754  25.118  1.00  0.00     0.202 C 
BRANCH  78  79
ATOM     79  C   UNL A   1      31.564  25.339  26.443  1.00  0.00     0.261 C 
BRANCH  79  80
ATOM     80  O   UNL A   1      31.045  24.150  27.091  1.00  0.00    -0.459 OA
BRANCH  80  81
ATOM     81  C   UNL A   1      31.111  22.944  26.470  1.00  0.00     0.365 C 
ATOM     82  O   UNL A   1      30.121  22.305  26.125  1.00  0.00    -0.245 OA
BRANCH  81  83
ATOM     83  C   UNL A   1      32.593  22.534  26.198  1.00  0.00     0.304 C 
ATOM     84  C   UNL A   1      32.822  21.049  26.497  1.00  0.00     0.153 C 
ATOM     85  N   UNL A   1      32.984  22.807  24.774  1.00  0.00    -0.317 N 
ATOM     86  S   UNL A   1      33.678  20.351  25.058  1.00  0.00    -0.085 SA
ATOM     87  C   UNL A   1      34.139  21.980  24.405  1.00  0.00     0.303 C 
ATOM     88  H   UNL A   1      33.229  23.792  24.674  1.00  0.00     0.348 HD
ATOM     89  H   UNL A   1      32.200  22.582  24.161  1.00  0.00     0.348 HD
BRANCH  87  90
ATOM     90  C   UNL A   1      35.523  22.390  24.861  1.00  0.00     0.163 A 
ATOM     91  N   UNL A   1      36.540  21.548  24.837  1.00  0.00    -0.234 NA
ATOM     92  S   UNL A   1      35.927  23.973  25.403  1.00  0.00    -0.112 S 
ATOM     93  C   UNL A   1      37.634  22.092  25.470  1.00  0.00     0.082 A 
ATOM     94  C   UNL A   1      37.491  23.419  25.876  1.00  0.00     0.055 A 
ATOM     95  C   UNL A   1      38.833  21.410  25.753  1.00  0.00     0.030 A 
ATOM     96  C   UNL A   1      38.515  24.089  26.566  1.00  0.00     0.021 A 
ATOM     97  C   UNL A   1      39.842  22.055  26.472  1.00  0.00     0.002 A 
ATOM     98  C   UNL A   1      39.681  23.377  26.874  1.00  0.00     0.002 A 
ENDBRANCH  87  90
ENDBRANCH  81  83
ENDBRANCH  80  81
ENDBRANCH  79  80
ENDBRANCH  78  79
ENDBRANCH  77  78
ENDBRANCH  76  77
ENDBRANCH  75  76
ENDBRANCH  74  75
ENDBRANCH   1  74
TORSDOF 21
ENDMDL
MODEL 3
REMARK VINA RESULT:     -10.2      4.660      9.781
REMARK SMILES O=C(OCCOCCOCCOCCOC(=O)[C@H]1CS[C@H](c2nc3ccccc3s2)[NH2+]1)c1ccc(-c2c3nc(c(-c4c(F)c(F)c(F)c(F)c4F)c4ccc([nH]4)c(-c4c(F)c(F)c(F)c(F)c4F)c4nc(c(-c5c(F)c(F)c(F)c(F)c5F)c5ccc2[nH]5)C=C4)C=C3)cc1
REMARK SMILES IDX 8 1 7 2 6 3 5 4 4 5 3 6 2 7 1 8 32 9 33 10 94 11 34 12 93 13
REMARK SMILES IDX 35 14 36 15 37 16 87 17 38 18 92 19 86 20 88 21 39 22 91 23
REMARK SMILES IDX 85 24 84 25 40 27 72 28 52 29 71 30 53 31 56 32 70 33 89 34
REMARK SMILES IDX 54 35 55 36 69 38 90 39 57 40 41 41 42 42 50 43 43 44 44 45
REMARK SMILES IDX 48 46 51 47 45 48 46 49 49 50 47 51 73 52 74 53 82 54 75 55
REMARK SMILES IDX 76 56 80 57 83 58 77 59 78 60 81 61 79 62 58 63 59 64 67 65
REMARK SMILES IDX 60 66 61 67 65 68 68 69 62 70 63 71 66 72 64 73 9 74 10 75
REMARK SMILES IDX 11 76 12 77 13 78 14 79 15 80 16 81 17 82 18 83 19 84 31 85
REMARK SMILES IDX 20 86 21 87 22 90 23 91 30 92 24 93 29 94 25 95 28 96 26 97
REMARK SMILES IDX 27 98
REMARK H PARENT 88 26 56 37 31 88 31 89
REMARK Flexibility Score: inf
ROOT
ATOM      1  C   UNL A   1      36.051  22.870  24.043  1.00  0.00     0.188 C 
ENDROOT
BRANCH   1   2
ATOM      2  C   UNL A   1      36.995  21.717  24.376  1.00  0.00     0.188 C 
BRANCH   2   3
ATOM      3  O   UNL A   1      37.598  21.861  25.666  1.00  0.00    -0.376 OA
BRANCH   3   4
ATOM      4  C   UNL A   1      38.947  21.400  25.780  1.00  0.00     0.202 C 
BRANCH   4   5
ATOM      5  C   UNL A   1      39.175  19.943  25.375  1.00  0.00     0.261 C 
BRANCH   5   6
ATOM      6  O   UNL A   1      40.213  19.299  26.125  1.00  0.00    -0.460 OA
BRANCH   6   7
ATOM      7  C   UNL A   1      41.550  19.524  26.088  1.00  0.00     0.338 C 
ATOM      8  O   UNL A   1      42.280  18.588  25.762  1.00  0.00    -0.246 OA
BRANCH   7   9
ATOM      9  C   UNL A   1      42.213  20.823  26.446  1.00  0.00     0.060 A 
ATOM     10  C   UNL A   1      42.531  21.253  27.734  1.00  0.00     0.016 A 
ATOM     11  C   UNL A   1      42.576  21.665  25.376  1.00  0.00     0.016 A 
ATOM     12  C   UNL A   1      43.138  22.470  27.976  1.00  0.00     0.010 A 
ATOM     13  C   UNL A   1      43.175  22.909  25.603  1.00  0.00     0.010 A 
ATOM     14  C   UNL A   1      43.418  23.320  26.916  1.00  0.00    -0.014 A 
BRANCH  14  15
ATOM     15  C   UNL A   1      43.682  24.719  27.276  1.00  0.00     0.031 A 
ATOM     16  C   UNL A   1      45.033  25.262  26.922  1.00  0.00     0.074 A 
ATOM     17  C   UNL A   1      42.669  25.510  27.667  1.00  0.00     0.049 A 
ATOM     18  N   UNL A   1      45.529  26.453  27.110  1.00  0.00    -0.248 NA
ATOM     19  C   UNL A   1      45.944  24.335  26.224  1.00  0.00     0.031 C 
ATOM     20  C   UNL A   1      41.277  25.079  27.824  1.00  0.00     0.029 A 
ATOM     21  N   UNL A   1      42.643  26.845  27.951  1.00  0.00    -0.354 N 
ATOM     22  C   UNL A   1      46.816  26.405  26.589  1.00  0.00     0.074 A 
ATOM     23  C   UNL A   1      47.029  25.076  26.070  1.00  0.00     0.031 C 
ATOM     24  C   UNL A   1      40.529  26.140  28.167  1.00  0.00     0.029 A 
ATOM     25  C   UNL A   1      41.401  27.298  28.323  1.00  0.00     0.049 A 
ATOM     26  H   UNL A   1      43.436  27.425  27.896  1.00  0.00     0.167 HD
ATOM     27  C   UNL A   1      47.736  27.394  26.567  1.00  0.00     0.037 A 
ATOM     28  C   UNL A   1      41.044  28.511  28.781  1.00  0.00     0.037 A 
ATOM     29  C   UNL A   1      47.476  28.700  27.101  1.00  0.00     0.049 A 
ATOM     30  C   UNL A   1      42.127  29.554  28.885  1.00  0.00     0.074 A 
ATOM     31  C   UNL A   1      48.334  29.772  27.240  1.00  0.00     0.029 A 
ATOM     32  N   UNL A   1      46.237  29.104  27.592  1.00  0.00    -0.354 N 
ATOM     33  N   UNL A   1      43.381  29.487  28.498  1.00  0.00    -0.248 NA
ATOM     34  C   UNL A   1      41.756  30.831  29.502  1.00  0.00     0.031 C 
ATOM     35  C   UNL A   1      47.628  30.806  27.868  1.00  0.00     0.029 A 
ATOM     36  C   UNL A   1      46.313  30.401  28.059  1.00  0.00     0.049 A 
ATOM     37  H   UNL A   1      45.426  28.545  27.605  1.00  0.00     0.167 HD
ATOM     38  C   UNL A   1      43.944  30.716  28.803  1.00  0.00     0.074 A 
ATOM     39  C   UNL A   1      42.885  31.516  29.390  1.00  0.00     0.031 C 
ATOM     40  C   UNL A   1      45.217  31.153  28.622  1.00  0.00     0.037 A 
BRANCH  27  41
ATOM     41  C   UNL A   1      49.102  27.040  26.056  1.00  0.00     0.064 A 
ATOM     42  C   UNL A   1      49.455  27.159  24.703  1.00  0.00     0.173 A 
ATOM     43  C   UNL A   1      50.052  26.491  26.933  1.00  0.00     0.173 A 
ATOM     44  F   UNL A   1      48.572  27.641  23.815  1.00  0.00    -0.203 F 
ATOM     45  C   UNL A   1      50.690  26.708  24.241  1.00  0.00     0.198 A 
ATOM     46  C   UNL A   1      51.297  26.069  26.473  1.00  0.00     0.198 A 
ATOM     47  F   UNL A   1      49.763  26.339  28.233  1.00  0.00    -0.203 F 
ATOM     48  F   UNL A   1      50.976  26.760  22.932  1.00  0.00    -0.200 F 
ATOM     49  C   UNL A   1      51.611  26.166  25.126  1.00  0.00     0.200 A 
ATOM     50  F   UNL A   1      52.183  25.545  27.331  1.00  0.00    -0.200 F 
ATOM     51  F   UNL A   1      52.791  25.717  24.678  1.00  0.00    -0.200 F 
ENDBRANCH  27  41
BRANCH  28  52
ATOM     52  C   UNL A   1      39.650  28.775  29.230  1.00  0.00     0.064 A 
ATOM     53  C   UNL A   1      38.689  29.309  28.360  1.00  0.00     0.173 A 
ATOM     54  C   UNL A   1      39.252  28.522  30.554  1.00  0.00     0.173 A 
ATOM     55  F   UNL A   1      39.018  29.590  27.090  1.00  0.00    -0.203 F 
ATOM     56  C   UNL A   1      37.397  29.599  28.801  1.00  0.00     0.198 A 
ATOM     57  C   UNL A   1      37.953  28.780  30.984  1.00  0.00     0.198 A 
ATOM     58  F   UNL A   1      40.128  28.016  31.434  1.00  0.00    -0.203 F 
ATOM     59  F   UNL A   1      36.516  30.160  27.961  1.00  0.00    -0.200 F 
ATOM     60  C   UNL A   1      37.029  29.330  30.110  1.00  0.00     0.200 A 
ATOM     61  F   UNL A   1      37.599  28.505  32.247  1.00  0.00    -0.200 F 
ATOM     62  F   UNL A   1      35.788  29.611  30.532  1.00  0.00    -0.200 F 
ENDBRANCH  28  52
BRANCH  40  63
ATOM     63  C   UNL A   1      45.505  32.568  29.020  1.00  0.00     0.064 A 
ATOM     64  C   UNL A   1      45.291  33.640  28.143  1.00  0.00     0.173 A 
ATOM     65  C   UNL A   1      45.953  32.853  30.318  1.00  0.00     0.173 A 
ATOM     66  F   UNL A   1      44.877  33.413  26.886  1.00  0.00    -0.203 F 
ATOM     67  C   UNL A   1      45.544  34.947  28.543  1.00  0.00     0.198 A 
ATOM     68  C   UNL A   1      46.169  34.163  30.727  1.00  0.00     0.198 A 
ATOM     69  F   UNL A   1      46.162  31.859  31.195  1.00  0.00    -0.203 F 
ATOM     70  F   UNL A   1      45.386  35.954  27.673  1.00  0.00    -0.200 F 
ATOM     71  C   UNL A   1      45.973  35.208  29.836  1.00  0.00     0.200 A 
ATOM     72  F   UNL A   1      46.564  34.415  31.982  1.00  0.00    -0.200 F 
ATOM     73  F   UNL A   1      46.204  36.469  30.224  1.00  0.00    -0.200 F 
ENDBRANCH  40  63
ENDBRANCH  14  15
ENDBRANCH   7   9
ENDBRANCH   6   7
ENDBRANCH   5   6
ENDBRANCH   4   5
ENDBRANCH   3   4
ENDBRANCH   2   3
ENDBRANCH   1   2
BRANCH   1  74
ATOM     74  O   UNL A   1      36.077  23.960  24.954  1.00  0.00    -0.377 OA
BRANCH  74  75
ATOM     75  C   UNL A   1      34.872  24.226  25.664  1.00  0.00     0.188 C 
BRANCH  75  76
ATOM     76  C   UNL A   1      34.494  23.274  26.827  1.00  0.00     0.188 C 
BRANCH  76  77
ATOM     77  O   UNL A   1      33.303  22.543  26.610  1.00  0.00    -0.376 OA
BRANCH  77  78
ATOM     78  C   UNL A   1      33.477  21.173  26.268  1.00  0.00     0.202 C 
BRANCH  78  79
ATOM     79  C   UNL A   1      32.741  20.620  25.029  1.00  0.00     0.261 C 
BRANCH  79  80
ATOM     80  O   UNL A   1      33.246  21.032  23.735  1.00  0.00    -0.459 OA
BRANCH  80  81
ATOM     81  C   UNL A   1      32.432  21.659  22.846  1.00  0.00     0.365 C 
ATOM     82  O   UNL A   1      31.771  21.065  21.999  1.00  0.00    -0.245 OA
BRANCH  81  83
ATOM     83  C   UNL A   1      32.403  23.199  23.102  1.00  0.00     0.304 C 
ATOM     84  C   UNL A   1      33.280  23.946  22.092  1.00  0.00     0.153 C 
ATOM     85  N   UNL A   1      31.005  23.741  23.023  1.00  0.00    -0.317 N 
ATOM     86  S   UNL A   1      32.274  25.301  21.426  1.00  0.00    -0.085 SA
ATOM     87  C   UNL A   1      31.041  25.182  22.752  1.00  0.00     0.303 C 
ATOM     88  H   UNL A   1      30.527  23.575  23.908  1.00  0.00     0.348 HD
ATOM     89  H   UNL A   1      30.503  23.270  22.269  1.00  0.00     0.348 HD
BRANCH  87  90
ATOM     90  C   UNL A   1      31.346  26.144  23.882  1.00  0.00     0.163 A 
ATOM     91  N   UNL A   1      32.394  26.945  23.847  1.00  0.00    -0.234 NA
ATOM     92  S   UNL A   1      30.359  26.327  25.280  1.00  0.00    -0.112 S 
ATOM     93  C   UNL A   1      32.560  27.579  25.058  1.00  0.00     0.082 A 
ATOM     94  C   UNL A   1      31.551  27.351  25.993  1.00  0.00     0.055 A 
ATOM     95  C   UNL A   1      33.659  28.385  25.411  1.00  0.00     0.030 A 
ATOM     96  C   UNL A   1      31.608  27.904  27.283  1.00  0.00     0.021 A 
ATOM     97  C   UNL A   1      33.745  28.908  26.704  1.00  0.00     0.002 A 
ATOM     98  C   UNL A   1      32.732  28.667  27.626  1.00  0.00     0.002 A 
ENDBRANCH  87  90
ENDBRANCH  81  83
ENDBRANCH  80  81
ENDBRANCH  79  80
ENDBRANCH  78  79
ENDBRANCH  77  78
ENDBRANCH  76  77
ENDBRANCH  75  76
ENDBRANCH  74  75
ENDBRANCH   1  74
TORSDOF 21
ENDMDL
