MODEL 1
REMARK VINA RESULT:     -11.2      0.000      0.000
REMARK SMILES C/C(=N\NC(N)=O)c1nnn(-c2ccc(C(=O)OCCOCCOCCOCCOC(=O)c3ccc(-c4c5nc(c(-c6c(F)c(F)c(F)c(F)c6F)c6ccc([nH]6)c(-c6c(F)c(F)c(F)c(F)c6F)c6nc(c(-c7c(F)c(F)c(F)c(F)c7F)c7ccc4[nH]7)C=C6)C=C5)cc3)cc2)c1C
REMARK SMILES IDX 23 1 22 2 21 3 20 4 19 5 18 6 16 7 17 8 15 9 12 10 13 11
REMARK SMILES IDX 97 12 14 13 96 14 11 15 8 16 9 17 98 18 10 19 99 20 2 21
REMARK SMILES IDX 1 22 3 23 4 24 5 25 6 27 7 28 24 31 25 32 26 33 27 34 28 35
REMARK SMILES IDX 29 36 30 37 31 38 32 39 33 40 34 41 95 42 35 43 94 44 36 45
REMARK SMILES IDX 37 46 38 47 88 48 39 49 93 50 87 51 89 52 40 53 92 54 86 55
REMARK SMILES IDX 85 56 41 58 73 59 53 60 72 61 54 62 57 63 71 64 90 65 55 66
REMARK SMILES IDX 56 67 70 69 91 70 58 71 42 72 43 73 51 74 44 75 45 76 49 77
REMARK SMILES IDX 52 78 46 79 47 80 50 81 48 82 74 83 75 84 83 85 76 86 77 87
REMARK SMILES IDX 81 88 84 89 78 90 79 91 82 92 80 93 59 94 60 95 68 96 61 97
REMARK SMILES IDX 62 98 66 99 69 100 63 101 64 102 67 103 65 104
REMARK H PARENT 4 26 6 29 6 30 89 57 57 68
REMARK Flexibility Score: inf
ROOT
ATOM      1  C   UNL A   1      31.982  28.819  27.337  1.00  0.00     0.188 C 
ENDROOT
BRANCH   1   2
ATOM      2  C   UNL A   1      31.404  27.817  26.311  1.00  0.00     0.188 C 
BRANCH   2   3
ATOM      3  O   UNL A   1      31.238  28.360  25.015  1.00  0.00    -0.376 OA
BRANCH   3   4
ATOM      4  C   UNL A   1      30.242  27.880  24.142  1.00  0.00     0.202 C 
BRANCH   4   5
ATOM      5  C   UNL A   1      30.480  27.850  22.628  1.00  0.00     0.261 C 
BRANCH   5   6
ATOM      6  O   UNL A   1      31.423  26.889  22.154  1.00  0.00    -0.460 OA
BRANCH   6   7
ATOM      7  C   UNL A   1      32.728  27.146  22.388  1.00  0.00     0.338 C 
ATOM      8  O   UNL A   1      33.278  28.231  22.371  1.00  0.00    -0.246 OA
BRANCH   7   9
ATOM      9  C   UNL A   1      33.356  25.886  22.850  1.00  0.00     0.060 A 
ATOM     10  C   UNL A   1      34.274  23.435  23.730  1.00  0.00     0.067 A 
ATOM     11  C   UNL A   1      34.089  23.626  22.358  1.00  0.00     0.029 A 
ATOM     12  C   UNL A   1      34.168  24.497  24.637  1.00  0.00     0.029 A 
ATOM     13  C   UNL A   1      33.600  24.858  21.923  1.00  0.00     0.018 A 
ATOM     14  C   UNL A   1      33.709  25.729  24.195  1.00  0.00     0.018 A 
BRANCH  10  15
ATOM     15  N   UNL A   1      34.228  22.126  24.244  1.00  0.00    -0.217 N 
ATOM     16  C   UNL A   1      33.661  20.052  24.570  1.00  0.00     0.132 A 
ATOM     17  N   UNL A   1      34.926  20.250  25.065  1.00  0.00    -0.128 NA
ATOM     18  C   UNL A   1      33.204  21.224  24.005  1.00  0.00     0.071 A 
ATOM     19  N   UNL A   1      35.295  21.493  24.770  1.00  0.00    -0.061 NA
ATOM     20  C   UNL A   1      32.003  21.515  23.181  1.00  0.00     0.069 C 
BRANCH  16  21
ATOM     21  C   UNL A   1      33.009  18.755  24.514  1.00  0.00     0.087 C 
ATOM     22  C   UNL A   1      32.514  18.309  23.160  1.00  0.00     0.071 C 
ATOM     23  N   UNL A   1      32.932  18.120  25.646  1.00  0.00    -0.174 NA
BRANCH  23  24
ATOM     24  N   UNL A   1      32.258  16.938  25.766  1.00  0.00    -0.229 N 
ATOM     25  C   UNL A   1      32.762  15.682  25.498  1.00  0.00     0.332 C 
ATOM     26  H   UNL A   1      31.324  16.986  26.073  1.00  0.00     0.195 HD
ATOM     27  N   UNL A   1      31.833  14.701  25.671  1.00  0.00    -0.350 N 
ATOM     28  O   UNL A   1      33.901  15.397  25.153  1.00  0.00    -0.247 OA
ATOM     29  H   UNL A   1      30.918  14.933  25.949  1.00  0.00     0.161 HD
ATOM     30  H   UNL A   1      32.078  13.759  25.519  1.00  0.00     0.161 HD
ENDBRANCH  23  24
ENDBRANCH  16  21
ENDBRANCH  10  15
ENDBRANCH   7   9
ENDBRANCH   6   7
ENDBRANCH   5   6
ENDBRANCH   4   5
ENDBRANCH   3   4
ENDBRANCH   2   3
ENDBRANCH   1   2
BRANCH   1  31
ATOM     31  O   UNL A   1      32.499  30.067  26.893  1.00  0.00    -0.377 OA
BRANCH  31  32
ATOM     32  C   UNL A   1      33.822  30.459  27.248  1.00  0.00     0.188 C 
BRANCH  32  33
ATOM     33  C   UNL A   1      34.128  31.714  28.120  1.00  0.00     0.188 C 
BRANCH  33  34
ATOM     34  O   UNL A   1      33.671  32.953  27.607  1.00  0.00    -0.376 OA
BRANCH  34  35
ATOM     35  C   UNL A   1      34.122  34.214  28.053  1.00  0.00     0.202 C 
BRANCH  35  36
ATOM     36  C   UNL A   1      33.552  34.774  29.351  1.00  0.00     0.261 C 
BRANCH  36  37
ATOM     37  O   UNL A   1      34.347  34.458  30.470  1.00  0.00    -0.460 OA
BRANCH  37  38
ATOM     38  C   UNL A   1      33.735  34.666  31.653  1.00  0.00     0.338 C 
ATOM     39  O   UNL A   1      32.658  35.185  31.851  1.00  0.00    -0.246 OA
BRANCH  38  40
ATOM     40  C   UNL A   1      34.650  34.198  32.703  1.00  0.00     0.060 A 
ATOM     41  C   UNL A   1      35.692  35.080  32.988  1.00  0.00     0.016 A 
ATOM     42  C   UNL A   1      34.752  32.811  32.853  1.00  0.00     0.016 A 
ATOM     43  C   UNL A   1      36.954  34.553  32.991  1.00  0.00     0.010 A 
ATOM     44  C   UNL A   1      36.006  32.291  32.784  1.00  0.00     0.010 A 
ATOM     45  C   UNL A   1      37.074  33.187  32.737  1.00  0.00    -0.014 A 
BRANCH  45  46
ATOM     46  C   UNL A   1      38.370  32.668  32.397  1.00  0.00     0.031 A 
ATOM     47  C   UNL A   1      39.262  32.609  33.569  1.00  0.00     0.074 A 
ATOM     48  C   UNL A   1      38.583  32.176  31.162  1.00  0.00     0.049 A 
ATOM     49  N   UNL A   1      40.379  33.228  33.752  1.00  0.00    -0.248 NA
ATOM     50  C   UNL A   1      38.739  31.939  34.774  1.00  0.00     0.031 C 
ATOM     51  C   UNL A   1      37.611  31.988  30.076  1.00  0.00     0.029 A 
ATOM     52  N   UNL A   1      39.712  31.617  30.659  1.00  0.00    -0.354 N 
ATOM     53  C   UNL A   1      40.792  32.847  35.023  1.00  0.00     0.074 A 
ATOM     54  C   UNL A   1      39.650  32.279  35.680  1.00  0.00     0.031 C 
ATOM     55  C   UNL A   1      38.137  31.157  29.146  1.00  0.00     0.029 A 
ATOM     56  C   UNL A   1      39.506  30.854  29.516  1.00  0.00     0.049 A 
ATOM     57  H   UNL A   1      40.599  31.741  31.067  1.00  0.00     0.167 HD
ATOM     58  C   UNL A   1      42.112  32.721  35.314  1.00  0.00     0.037 A 
ATOM     59  C   UNL A   1      40.388  29.944  29.031  1.00  0.00     0.037 A 
ATOM     60  C   UNL A   1      42.915  33.498  34.405  1.00  0.00     0.049 A 
ATOM     61  C   UNL A   1      41.709  30.254  29.650  1.00  0.00     0.074 A 
ATOM     62  C   UNL A   1      42.997  34.845  34.109  1.00  0.00     0.029 A 
ATOM     63  N   UNL A   1      43.522  32.846  33.360  1.00  0.00    -0.354 N 
ATOM     64  N   UNL A   1      42.384  31.345  29.405  1.00  0.00    -0.248 NA
ATOM     65  C   UNL A   1      42.030  29.593  30.909  1.00  0.00     0.031 C 
ATOM     66  C   UNL A   1      43.230  34.905  32.704  1.00  0.00     0.029 A 
ATOM     67  C   UNL A   1      43.331  33.597  32.228  1.00  0.00     0.049 A 
ATOM     68  H   UNL A   1      44.009  31.992  33.414  1.00  0.00     0.167 HD
ATOM     69  C   UNL A   1      42.912  31.725  30.634  1.00  0.00     0.074 A 
ATOM     70  C   UNL A   1      42.710  30.574  31.509  1.00  0.00     0.031 C 
ATOM     71  C   UNL A   1      43.193  33.033  30.905  1.00  0.00     0.037 A 
BRANCH  58  72
ATOM     72  C   UNL A   1      42.663  31.580  36.137  1.00  0.00     0.064 A 
ATOM     73  C   UNL A   1      43.490  31.887  37.232  1.00  0.00     0.173 A 
ATOM     74  C   UNL A   1      42.665  30.221  35.739  1.00  0.00     0.173 A 
ATOM     75  F   UNL A   1      43.574  33.143  37.693  1.00  0.00    -0.203 F 
ATOM     76  C   UNL A   1      44.322  30.929  37.817  1.00  0.00     0.198 A 
ATOM     77  C   UNL A   1      43.452  29.259  36.362  1.00  0.00     0.198 A 
ATOM     78  F   UNL A   1      41.997  29.774  34.671  1.00  0.00    -0.203 F 
ATOM     79  F   UNL A   1      45.190  31.300  38.767  1.00  0.00    -0.200 F 
ATOM     80  C   UNL A   1      44.310  29.620  37.375  1.00  0.00     0.200 A 
ATOM     81  F   UNL A   1      43.432  27.997  35.908  1.00  0.00    -0.200 F 
ATOM     82  F   UNL A   1      45.155  28.717  37.889  1.00  0.00    -0.200 F 
ENDBRANCH  58  72
BRANCH  59  83
ATOM     83  C   UNL A   1      40.071  28.631  28.417  1.00  0.00     0.064 A 
ATOM     84  C   UNL A   1      40.616  28.258  27.178  1.00  0.00     0.173 A 
ATOM     85  C   UNL A   1      39.428  27.611  29.148  1.00  0.00     0.173 A 
ATOM     86  F   UNL A   1      41.292  29.153  26.444  1.00  0.00    -0.203 F 
ATOM     87  C   UNL A   1      40.528  26.943  26.704  1.00  0.00     0.198 A 
ATOM     88  C   UNL A   1      39.333  26.303  28.670  1.00  0.00     0.198 A 
ATOM     89  F   UNL A   1      38.960  27.836  30.384  1.00  0.00    -0.203 F 
ATOM     90  F   UNL A   1      41.105  26.612  25.541  1.00  0.00    -0.200 F 
ATOM     91  C   UNL A   1      39.891  25.967  27.452  1.00  0.00     0.200 A 
ATOM     92  F   UNL A   1      38.748  25.362  29.425  1.00  0.00    -0.200 F 
ATOM     93  F   UNL A   1      39.853  24.697  27.024  1.00  0.00    -0.200 F 
ENDBRANCH  59  83
BRANCH  71  94
ATOM     94  C   UNL A   1      43.114  34.015  29.768  1.00  0.00     0.064 A 
ATOM     95  C   UNL A   1      44.164  34.236  28.860  1.00  0.00     0.173 A 
ATOM     96  C   UNL A   1      41.881  34.613  29.482  1.00  0.00     0.173 A 
ATOM     97  F   UNL A   1      45.342  33.619  29.010  1.00  0.00    -0.203 F 
ATOM     98  C   UNL A   1      43.994  35.044  27.737  1.00  0.00     0.198 A 
ATOM     99  C   UNL A   1      41.702  35.390  28.341  1.00  0.00     0.198 A 
ATOM    100  F   UNL A   1      40.826  34.387  30.281  1.00  0.00    -0.203 F 
ATOM    101  F   UNL A   1      45.014  35.237  26.886  1.00  0.00    -0.200 F 
ATOM    102  C   UNL A   1      42.760  35.613  27.473  1.00  0.00     0.200 A 
ATOM    103  F   UNL A   1      40.493  35.894  28.062  1.00  0.00    -0.200 F 
ATOM    104  F   UNL A   1      42.579  36.346  26.366  1.00  0.00    -0.200 F 
ENDBRANCH  71  94
ENDBRANCH  45  46
ENDBRANCH  38  40
ENDBRANCH  37  38
ENDBRANCH  36  37
ENDBRANCH  35  36
ENDBRANCH  34  35
ENDBRANCH  33  34
ENDBRANCH  32  33
ENDBRANCH  31  32
ENDBRANCH   1  31
TORSDOF 23
ENDMDL
MODEL 2
REMARK VINA RESULT:     -11.1      1.810      2.472
REMARK SMILES C/C(=N\NC(N)=O)c1nnn(-c2ccc(C(=O)OCCOCCOCCOCCOC(=O)c3ccc(-c4c5nc(c(-c6c(F)c(F)c(F)c(F)c6F)c6ccc([nH]6)c(-c6c(F)c(F)c(F)c(F)c6F)c6nc(c(-c7c(F)c(F)c(F)c(F)c7F)c7ccc4[nH]7)C=C6)C=C5)cc3)cc2)c1C
REMARK SMILES IDX 23 1 22 2 21 3 20 4 19 5 18 6 16 7 17 8 15 9 12 10 13 11
REMARK SMILES IDX 97 12 14 13 96 14 11 15 8 16 9 17 98 18 10 19 99 20 2 21
REMARK SMILES IDX 1 22 3 23 4 24 5 25 6 27 7 28 24 31 25 32 26 33 27 34 28 35
REMARK SMILES IDX 29 36 30 37 31 38 32 39 33 40 34 41 95 42 35 43 94 44 36 45
REMARK SMILES IDX 37 46 38 47 88 48 39 49 93 50 87 51 89 52 40 53 92 54 86 55
REMARK SMILES IDX 85 56 41 58 73 59 53 60 72 61 54 62 57 63 71 64 90 65 55 66
REMARK SMILES IDX 56 67 70 69 91 70 58 71 42 72 43 73 51 74 44 75 45 76 49 77
REMARK SMILES IDX 52 78 46 79 47 80 50 81 48 82 74 83 75 84 83 85 76 86 77 87
REMARK SMILES IDX 81 88 84 89 78 90 79 91 82 92 80 93 59 94 60 95 68 96 61 97
REMARK SMILES IDX 62 98 66 99 69 100 63 101 64 102 67 103 65 104
REMARK H PARENT 4 26 6 29 6 30 89 57 57 68
REMARK Flexibility Score: inf
ROOT
ATOM      1  C   UNL A   1      32.339  29.344  27.260  1.00  0.00     0.188 C 
ENDROOT
BRANCH   1   2
ATOM      2  C   UNL A   1      31.678  28.374  26.254  1.00  0.00     0.188 C 
BRANCH   2   3
ATOM      3  O   UNL A   1      31.976  28.663  24.902  1.00  0.00    -0.376 OA
BRANCH   3   4
ATOM      4  C   UNL A   1      30.959  28.774  23.934  1.00  0.00     0.202 C 
BRANCH   4   5
ATOM      5  C   UNL A   1      31.284  28.655  22.442  1.00  0.00     0.261 C 
BRANCH   5   6
ATOM      6  O   UNL A   1      31.758  27.384  21.997  1.00  0.00    -0.460 OA
BRANCH   6   7
ATOM      7  C   UNL A   1      33.091  27.174  22.052  1.00  0.00     0.338 C 
ATOM      8  O   UNL A   1      33.968  27.904  21.628  1.00  0.00    -0.246 OA
BRANCH   7   9
ATOM      9  C   UNL A   1      33.320  25.972  22.887  1.00  0.00     0.060 A 
ATOM     10  C   UNL A   1      34.008  23.745  24.368  1.00  0.00     0.067 A 
ATOM     11  C   UNL A   1      34.119  25.004  24.964  1.00  0.00     0.029 A 
ATOM     12  C   UNL A   1      33.404  23.580  23.115  1.00  0.00     0.029 A 
ATOM     13  C   UNL A   1      33.794  26.127  24.201  1.00  0.00     0.018 A 
ATOM     14  C   UNL A   1      33.056  24.698  22.372  1.00  0.00     0.018 A 
BRANCH  10  15
ATOM     15  N   UNL A   1      34.801  22.692  24.859  1.00  0.00    -0.217 N 
ATOM     16  C   UNL A   1      36.504  21.402  25.264  1.00  0.00     0.132 A 
ATOM     17  N   UNL A   1      35.547  21.189  26.224  1.00  0.00    -0.128 NA
ATOM     18  C   UNL A   1      36.071  22.384  24.399  1.00  0.00     0.071 A 
ATOM     19  N   UNL A   1      34.557  22.053  26.021  1.00  0.00    -0.061 NA
ATOM     20  C   UNL A   1      36.771  23.116  23.313  1.00  0.00     0.069 C 
BRANCH  16  21
ATOM     21  C   UNL A   1      37.822  20.792  25.289  1.00  0.00     0.087 C 
ATOM     22  C   UNL A   1      37.900  19.342  24.879  1.00  0.00     0.071 C 
ATOM     23  N   UNL A   1      38.792  21.576  25.658  1.00  0.00    -0.174 NA
BRANCH  23  24
ATOM     24  N   UNL A   1      40.068  21.115  25.826  1.00  0.00    -0.229 N 
ATOM     25  C   UNL A   1      40.826  21.219  26.974  1.00  0.00     0.332 C 
ATOM     26  H   UNL A   1      40.485  20.667  25.055  1.00  0.00     0.195 HD
ATOM     27  N   UNL A   1      42.077  20.702  26.819  1.00  0.00    -0.350 N 
ATOM     28  O   UNL A   1      40.485  21.693  28.049  1.00  0.00    -0.247 OA
ATOM     29  H   UNL A   1      42.349  20.321  25.952  1.00  0.00     0.161 HD
ATOM     30  H   UNL A   1      42.709  20.709  27.573  1.00  0.00     0.161 HD
ENDBRANCH  23  24
ENDBRANCH  16  21
ENDBRANCH  10  15
ENDBRANCH   7   9
ENDBRANCH   6   7
ENDBRANCH   5   6
ENDBRANCH   4   5
ENDBRANCH   3   4
ENDBRANCH   2   3
ENDBRANCH   1   2
BRANCH   1  31
ATOM     31  O   UNL A   1      33.129  30.425  26.784  1.00  0.00    -0.377 OA
BRANCH  31  32
ATOM     32  C   UNL A   1      34.354  30.755  27.433  1.00  0.00     0.188 C 
BRANCH  32  33
ATOM     33  C   UNL A   1      34.551  32.063  28.257  1.00  0.00     0.188 C 
BRANCH  33  34
ATOM     34  O   UNL A   1      34.195  33.268  27.602  1.00  0.00    -0.376 OA
BRANCH  34  35
ATOM     35  C   UNL A   1      34.497  34.558  28.091  1.00  0.00     0.202 C 
BRANCH  35  36
ATOM     36  C   UNL A   1      33.849  35.014  29.393  1.00  0.00     0.261 C 
BRANCH  36  37
ATOM     37  O   UNL A   1      34.618  34.677  30.525  1.00  0.00    -0.460 OA
BRANCH  37  38
ATOM     38  C   UNL A   1      33.920  34.664  31.677  1.00  0.00     0.338 C 
ATOM     39  O   UNL A   1      32.792  35.066  31.867  1.00  0.00    -0.246 OA
BRANCH  38  40
ATOM     40  C   UNL A   1      34.805  34.118  32.715  1.00  0.00     0.060 A 
ATOM     41  C   UNL A   1      35.862  34.958  33.064  1.00  0.00     0.016 A 
ATOM     42  C   UNL A   1      34.872  32.722  32.791  1.00  0.00     0.016 A 
ATOM     43  C   UNL A   1      37.111  34.401  33.058  1.00  0.00     0.010 A 
ATOM     44  C   UNL A   1      36.115  32.177  32.714  1.00  0.00     0.010 A 
ATOM     45  C   UNL A   1      37.204  33.048  32.733  1.00  0.00    -0.014 A 
BRANCH  45  46
ATOM     46  C   UNL A   1      38.493  32.517  32.386  1.00  0.00     0.031 A 
ATOM     47  C   UNL A   1      39.385  32.433  33.557  1.00  0.00     0.074 A 
ATOM     48  C   UNL A   1      38.700  32.038  31.144  1.00  0.00     0.049 A 
ATOM     49  N   UNL A   1      40.509  33.035  33.747  1.00  0.00    -0.248 NA
ATOM     50  C   UNL A   1      38.853  31.754  34.753  1.00  0.00     0.031 C 
ATOM     51  C   UNL A   1      37.725  31.876  30.056  1.00  0.00     0.029 A 
ATOM     52  N   UNL A   1      39.822  31.472  30.634  1.00  0.00    -0.354 N 
ATOM     53  C   UNL A   1      40.918  32.633  35.013  1.00  0.00     0.074 A 
ATOM     54  C   UNL A   1      39.769  32.071  35.663  1.00  0.00     0.031 C 
ATOM     55  C   UNL A   1      38.241  31.051  29.116  1.00  0.00     0.029 A 
ATOM     56  C   UNL A   1      39.605  30.725  29.482  1.00  0.00     0.049 A 
ATOM     57  H   UNL A   1      40.710  31.579  31.044  1.00  0.00     0.167 HD
ATOM     58  C   UNL A   1      42.236  32.486  35.302  1.00  0.00     0.037 A 
ATOM     59  C   UNL A   1      40.476  29.811  28.985  1.00  0.00     0.037 A 
ATOM     60  C   UNL A   1      43.048  33.264  34.403  1.00  0.00     0.049 A 
ATOM     61  C   UNL A   1      41.801  30.095  29.608  1.00  0.00     0.074 A 
ATOM     62  C   UNL A   1      43.147  34.614  34.124  1.00  0.00     0.029 A 
ATOM     63  N   UNL A   1      43.647  32.618  33.349  1.00  0.00    -0.354 N 
ATOM     64  N   UNL A   1      42.490  31.181  29.376  1.00  0.00    -0.248 NA
ATOM     65  C   UNL A   1      42.114  29.414  30.858  1.00  0.00     0.031 C 
ATOM     66  C   UNL A   1      43.381  34.688  32.719  1.00  0.00     0.029 A 
ATOM     67  C   UNL A   1      43.466  33.385  32.227  1.00  0.00     0.049 A 
ATOM     68  H   UNL A   1      44.123  31.757  33.393  1.00  0.00     0.167 HD
ATOM     69  C   UNL A   1      43.023  31.539  30.610  1.00  0.00     0.074 A 
ATOM     70  C   UNL A   1      42.806  30.380  31.470  1.00  0.00     0.031 C 
ATOM     71  C   UNL A   1      43.320  32.840  30.897  1.00  0.00     0.037 A 
BRANCH  58  72
ATOM     72  C   UNL A   1      42.773  31.328  36.110  1.00  0.00     0.064 A 
ATOM     73  C   UNL A   1      43.631  31.609  37.188  1.00  0.00     0.173 A 
ATOM     74  C   UNL A   1      42.728  29.971  35.710  1.00  0.00     0.173 A 
ATOM     75  F   UNL A   1      43.759  32.861  37.651  1.00  0.00    -0.203 F 
ATOM     76  C   UNL A   1      44.449  30.627  37.753  1.00  0.00     0.198 A 
ATOM     77  C   UNL A   1      43.502  28.985  36.314  1.00  0.00     0.198 A 
ATOM     78  F   UNL A   1      42.026  29.545  34.655  1.00  0.00    -0.203 F 
ATOM     79  F   UNL A   1      45.346  30.971  38.686  1.00  0.00    -0.200 F 
ATOM     80  C   UNL A   1      44.391  29.320  37.309  1.00  0.00     0.200 A 
ATOM     81  F   UNL A   1      43.437  27.726  35.857  1.00  0.00    -0.200 F 
ATOM     82  F   UNL A   1      45.221  28.392  37.803  1.00  0.00    -0.200 F 
ENDBRANCH  58  72
BRANCH  59  83
ATOM     83  C   UNL A   1      40.142  28.510  28.355  1.00  0.00     0.064 A 
ATOM     84  C   UNL A   1      40.670  28.151  27.105  1.00  0.00     0.173 A 
ATOM     85  C   UNL A   1      39.499  27.483  29.077  1.00  0.00     0.173 A 
ATOM     86  F   UNL A   1      41.346  29.052  26.377  1.00  0.00    -0.203 F 
ATOM     87  C   UNL A   1      40.567  26.844  26.612  1.00  0.00     0.198 A 
ATOM     88  C   UNL A   1      39.389  26.183  28.581  1.00  0.00     0.198 A 
ATOM     89  F   UNL A   1      39.047  27.693  30.322  1.00  0.00    -0.203 F 
ATOM     90  F   UNL A   1      41.130  26.526  25.438  1.00  0.00    -0.200 F 
ATOM     91  C   UNL A   1      39.931  25.861  27.352  1.00  0.00     0.200 A 
ATOM     92  F   UNL A   1      38.806  25.235  29.328  1.00  0.00    -0.200 F 
ATOM     93  F   UNL A   1      39.878  24.599  26.905  1.00  0.00    -0.200 F 
ENDBRANCH  59  83
BRANCH  71  94
ATOM     94  C   UNL A   1      43.253  33.837  29.772  1.00  0.00     0.064 A 
ATOM     95  C   UNL A   1      44.282  34.012  28.830  1.00  0.00     0.173 A 
ATOM     96  C   UNL A   1      42.044  34.501  29.536  1.00  0.00     0.173 A 
ATOM     97  F   UNL A   1      45.430  33.333  28.933  1.00  0.00    -0.203 F 
ATOM     98  C   UNL A   1      44.116  34.841  27.721  1.00  0.00     0.198 A 
ATOM     99  C   UNL A   1      41.867  35.299  28.408  1.00  0.00     0.198 A 
ATOM    100  F   UNL A   1      41.008  34.322  30.369  1.00  0.00    -0.203 F 
ATOM    101  F   UNL A   1      45.114  34.990  26.837  1.00  0.00    -0.200 F 
ATOM    102  C   UNL A   1      42.905  35.475  27.506  1.00  0.00     0.200 A 
ATOM    103  F   UNL A   1      40.677  35.868  28.176  1.00  0.00    -0.200 F 
ATOM    104  F   UNL A   1      42.725  36.229  26.412  1.00  0.00    -0.200 F 
ENDBRANCH  71  94
ENDBRANCH  45  46
ENDBRANCH  38  40
ENDBRANCH  37  38
ENDBRANCH  36  37
ENDBRANCH  35  36
ENDBRANCH  34  35
ENDBRANCH  33  34
ENDBRANCH  32  33
ENDBRANCH  31  32
ENDBRANCH   1  31
TORSDOF 23
ENDMDL
MODEL 3
REMARK VINA RESULT:     -10.7      4.890      7.390
REMARK SMILES C/C(=N\NC(N)=O)c1nnn(-c2ccc(C(=O)OCCOCCOCCOCCOC(=O)c3ccc(-c4c5nc(c(-c6c(F)c(F)c(F)c(F)c6F)c6ccc([nH]6)c(-c6c(F)c(F)c(F)c(F)c6F)c6nc(c(-c7c(F)c(F)c(F)c(F)c7F)c7ccc4[nH]7)C=C6)C=C5)cc3)cc2)c1C
REMARK SMILES IDX 23 1 22 2 21 3 20 4 19 5 18 6 16 7 17 8 15 9 12 10 13 11
REMARK SMILES IDX 97 12 14 13 96 14 11 15 8 16 9 17 98 18 10 19 99 20 2 21
REMARK SMILES IDX 1 22 3 23 4 24 5 25 6 27 7 28 24 31 25 32 26 33 27 34 28 35
REMARK SMILES IDX 29 36 30 37 31 38 32 39 33 40 34 41 95 42 35 43 94 44 36 45
REMARK SMILES IDX 37 46 38 47 88 48 39 49 93 50 87 51 89 52 40 53 92 54 86 55
REMARK SMILES IDX 85 56 41 58 73 59 53 60 72 61 54 62 57 63 71 64 90 65 55 66
REMARK SMILES IDX 56 67 70 69 91 70 58 71 42 72 43 73 51 74 44 75 45 76 49 77
REMARK SMILES IDX 52 78 46 79 47 80 50 81 48 82 74 83 75 84 83 85 76 86 77 87
REMARK SMILES IDX 81 88 84 89 78 90 79 91 82 92 80 93 59 94 60 95 68 96 61 97
REMARK SMILES IDX 62 98 66 99 69 100 63 101 64 102 67 103 65 104
REMARK H PARENT 4 26 6 29 6 30 89 57 57 68
REMARK Flexibility Score: inf
ROOT
ATOM      1  C   UNL A   1      33.137  36.276  29.392  1.00  0.00     0.188 C 
ENDROOT
BRANCH   1   2
ATOM      2  C   UNL A   1      33.125  34.859  28.773  1.00  0.00     0.188 C 
BRANCH   2   3
ATOM      3  O   UNL A   1      33.740  33.877  29.585  1.00  0.00    -0.376 OA
BRANCH   3   4
ATOM      4  C   UNL A   1      34.749  33.034  29.079  1.00  0.00     0.202 C 
BRANCH   4   5
ATOM      5  C   UNL A   1      34.424  31.978  28.017  1.00  0.00     0.261 C 
BRANCH   5   6
ATOM      6  O   UNL A   1      35.486  31.094  27.658  1.00  0.00    -0.460 OA
BRANCH   6   7
ATOM      7  C   UNL A   1      35.372  29.808  28.056  1.00  0.00     0.338 C 
ATOM      8  O   UNL A   1      35.872  29.297  29.041  1.00  0.00    -0.246 OA
BRANCH   7   9
ATOM      9  C   UNL A   1      34.377  29.153  27.176  1.00  0.00     0.060 A 
ATOM     10  C   UNL A   1      32.449  28.183  25.454  1.00  0.00     0.067 A 
ATOM     11  C   UNL A   1      33.737  28.404  24.958  1.00  0.00     0.029 A 
ATOM     12  C   UNL A   1      32.165  28.279  26.822  1.00  0.00     0.029 A 
ATOM     13  C   UNL A   1      34.699  28.919  25.828  1.00  0.00     0.018 A 
ATOM     14  C   UNL A   1      33.134  28.764  27.687  1.00  0.00     0.018 A 
BRANCH  10  15
ATOM     15  N   UNL A   1      31.366  28.200  24.556  1.00  0.00    -0.217 N 
ATOM     16  C   UNL A   1      29.779  28.899  23.244  1.00  0.00     0.132 A 
ATOM     17  N   UNL A   1      30.097  27.607  22.907  1.00  0.00    -0.128 NA
ATOM     18  C   UNL A   1      30.599  29.317  24.270  1.00  0.00     0.071 A 
ATOM     19  N   UNL A   1      31.134  27.229  23.649  1.00  0.00    -0.061 NA
ATOM     20  C   UNL A   1      30.805  30.655  24.881  1.00  0.00     0.069 C 
BRANCH  16  21
ATOM     21  C   UNL A   1      28.839  29.719  22.500  1.00  0.00     0.087 C 
ATOM     22  C   UNL A   1      27.376  29.498  22.793  1.00  0.00     0.071 C 
ATOM     23  N   UNL A   1      29.373  30.561  21.665  1.00  0.00    -0.174 NA
BRANCH  23  24
ATOM     24  N   UNL A   1      28.612  31.325  20.825  1.00  0.00    -0.229 N 
ATOM     25  C   UNL A   1      28.111  32.581  21.098  1.00  0.00     0.332 C 
ATOM     26  H   UNL A   1      28.401  30.943  19.942  1.00  0.00     0.195 HD
ATOM     27  N   UNL A   1      27.351  33.070  20.078  1.00  0.00    -0.350 N 
ATOM     28  O   UNL A   1      28.290  33.249  22.106  1.00  0.00    -0.247 OA
ATOM     29  H   UNL A   1      27.209  32.530  19.267  1.00  0.00     0.161 HD
ATOM     30  H   UNL A   1      26.947  33.965  20.151  1.00  0.00     0.161 HD
ENDBRANCH  23  24
ENDBRANCH  16  21
ENDBRANCH  10  15
ENDBRANCH   7   9
ENDBRANCH   6   7
ENDBRANCH   5   6
ENDBRANCH   4   5
ENDBRANCH   3   4
ENDBRANCH   2   3
ENDBRANCH   1   2
BRANCH   1  31
ATOM     31  O   UNL A   1      32.606  36.484  30.694  1.00  0.00    -0.377 OA
BRANCH  31  32
ATOM     32  C   UNL A   1      33.458  36.907  31.754  1.00  0.00     0.188 C 
BRANCH  32  33
ATOM     33  C   UNL A   1      33.742  36.034  33.014  1.00  0.00     0.188 C 
BRANCH  33  34
ATOM     34  O   UNL A   1      33.760  34.633  32.805  1.00  0.00    -0.376 OA
BRANCH  34  35
ATOM     35  C   UNL A   1      34.645  33.743  33.453  1.00  0.00     0.202 C 
BRANCH  35  36
ATOM     36  C   UNL A   1      35.257  32.606  32.642  1.00  0.00     0.261 C 
BRANCH  36  37
ATOM     37  O   UNL A   1      36.536  32.241  33.103  1.00  0.00    -0.460 OA
BRANCH  37  38
ATOM     38  C   UNL A   1      37.194  31.397  32.284  1.00  0.00     0.338 C 
ATOM     39  O   UNL A   1      37.272  31.446  31.076  1.00  0.00    -0.246 OA
BRANCH  38  40
ATOM     40  C   UNL A   1      37.771  30.338  33.123  1.00  0.00     0.060 A 
ATOM     41  C   UNL A   1      38.829  30.758  33.927  1.00  0.00     0.016 A 
ATOM     42  C   UNL A   1      37.644  29.033  32.634  1.00  0.00     0.016 A 
ATOM     43  C   UNL A   1      39.973  30.010  33.870  1.00  0.00     0.010 A 
ATOM     44  C   UNL A   1      38.798  28.322  32.518  1.00  0.00     0.010 A 
ATOM     45  C   UNL A   1      39.960  28.890  33.040  1.00  0.00    -0.014 A 
BRANCH  45  46
ATOM     46  C   UNL A   1      41.216  28.285  32.691  1.00  0.00     0.031 A 
ATOM     47  C   UNL A   1      41.835  27.603  33.842  1.00  0.00     0.074 A 
ATOM     48  C   UNL A   1      41.607  28.268  31.403  1.00  0.00     0.049 A 
ATOM     49  N   UNL A   1      42.964  27.862  34.409  1.00  0.00    -0.248 NA
ATOM     50  C   UNL A   1      40.992  26.648  34.585  1.00  0.00     0.031 C 
ATOM     51  C   UNL A   1      40.860  28.711  30.218  1.00  0.00     0.029 A 
ATOM     52  N   UNL A   1      42.729  27.723  30.869  1.00  0.00    -0.354 N 
ATOM     53  C   UNL A   1      43.055  26.950  35.454  1.00  0.00     0.074 A 
ATOM     54  C   UNL A   1      41.737  26.422  35.662  1.00  0.00     0.031 C 
ATOM     55  C   UNL A   1      41.447  28.208  29.107  1.00  0.00     0.029 A 
ATOM     56  C   UNL A   1      42.658  27.513  29.497  1.00  0.00     0.049 A 
ATOM     57  H   UNL A   1      43.523  27.498  31.405  1.00  0.00     0.167 HD
ATOM     58  C   UNL A   1      44.259  26.454  35.839  1.00  0.00     0.037 A 
ATOM     59  C   UNL A   1      43.490  26.696  28.802  1.00  0.00     0.037 A 
ATOM     60  C   UNL A   1      45.327  27.336  35.444  1.00  0.00     0.049 A 
ATOM     61  C   UNL A   1      44.687  26.468  29.662  1.00  0.00     0.074 A 
ATOM     62  C   UNL A   1      45.648  28.647  35.741  1.00  0.00     0.029 A 
ATOM     63  N   UNL A   1      46.041  27.022  34.313  1.00  0.00    -0.354 N 
ATOM     64  N   UNL A   1      45.539  27.407  29.978  1.00  0.00    -0.248 NA
ATOM     65  C   UNL A   1      44.653  25.327  30.569  1.00  0.00     0.031 C 
ATOM     66  C   UNL A   1      46.168  29.187  34.529  1.00  0.00     0.029 A 
ATOM     67  C   UNL A   1      46.187  28.169  33.576  1.00  0.00     0.049 A 
ATOM     68  H   UNL A   1      46.386  26.131  34.076  1.00  0.00     0.167 HD
ATOM     69  C   UNL A   1      45.852  27.173  31.313  1.00  0.00     0.074 A 
ATOM     70  C   UNL A   1      45.323  25.844  31.603  1.00  0.00     0.031 C 
ATOM     71  C   UNL A   1      46.246  28.192  32.132  1.00  0.00     0.037 A 
BRANCH  58  72
ATOM     72  C   UNL A   1      44.472  24.999  36.185  1.00  0.00     0.064 A 
ATOM     73  C   UNL A   1      45.188  24.691  37.355  1.00  0.00     0.173 A 
ATOM     74  C   UNL A   1      44.273  23.917  35.295  1.00  0.00     0.173 A 
ATOM     75  F   UNL A   1      45.443  25.639  38.269  1.00  0.00    -0.203 F 
ATOM     76  C   UNL A   1      45.741  23.426  37.568  1.00  0.00     0.198 A 
ATOM     77  C   UNL A   1      44.776  22.644  35.538  1.00  0.00     0.198 A 
ATOM     78  F   UNL A   1      43.681  24.053  34.103  1.00  0.00    -0.203 F 
ATOM     79  F   UNL A   1      46.528  23.219  38.632  1.00  0.00    -0.200 F 
ATOM     80  C   UNL A   1      45.543  22.407  36.655  1.00  0.00     0.200 A 
ATOM     81  F   UNL A   1      44.581  21.675  34.632  1.00  0.00    -0.200 F 
ATOM     82  F   UNL A   1      46.128  21.215  36.824  1.00  0.00    -0.200 F 
ENDBRANCH  58  72
BRANCH  59  83
ATOM     83  C   UNL A   1      43.130  25.811  27.667  1.00  0.00     0.064 A 
ATOM     84  C   UNL A   1      43.932  25.743  26.517  1.00  0.00     0.173 A 
ATOM     85  C   UNL A   1      42.129  24.824  27.789  1.00  0.00     0.173 A 
ATOM     86  F   UNL A   1      44.942  26.608  26.349  1.00  0.00    -0.203 F 
ATOM     87  C   UNL A   1      43.746  24.744  25.551  1.00  0.00     0.198 A 
ATOM     88  C   UNL A   1      41.940  23.836  26.822  1.00  0.00     0.198 A 
ATOM     89  F   UNL A   1      41.374  24.739  28.893  1.00  0.00    -0.203 F 
ATOM     90  F   UNL A   1      44.565  24.679  24.492  1.00  0.00    -0.200 F 
ATOM     91  C   UNL A   1      42.755  23.790  25.708  1.00  0.00     0.200 A 
ATOM     92  F   UNL A   1      41.001  22.897  27.008  1.00  0.00    -0.200 F 
ATOM     93  F   UNL A   1      42.611  22.804  24.811  1.00  0.00    -0.200 F 
ENDBRANCH  59  83
BRANCH  71  94
ATOM     94  C   UNL A   1      46.533  29.527  31.499  1.00  0.00     0.064 A 
ATOM     95  C   UNL A   1      45.562  30.530  31.332  1.00  0.00     0.173 A 
ATOM     96  C   UNL A   1      47.862  29.865  31.220  1.00  0.00     0.173 A 
ATOM     97  F   UNL A   1      44.286  30.314  31.672  1.00  0.00    -0.203 F 
ATOM     98  C   UNL A   1      45.905  31.802  30.876  1.00  0.00     0.198 A 
ATOM     99  C   UNL A   1      48.207  31.146  30.800  1.00  0.00     0.198 A 
ATOM    100  F   UNL A   1      48.837  28.966  31.420  1.00  0.00    -0.203 F 
ATOM    101  F   UNL A   1      44.959  32.741  30.726  1.00  0.00    -0.200 F 
ATOM    102  C   UNL A   1      47.229  32.112  30.620  1.00  0.00     0.200 A 
ATOM    103  F   UNL A   1      49.496  31.457  30.605  1.00  0.00    -0.200 F 
ATOM    104  F   UNL A   1      47.568  33.350  30.233  1.00  0.00    -0.200 F 
ENDBRANCH  71  94
ENDBRANCH  45  46
ENDBRANCH  38  40
ENDBRANCH  37  38
ENDBRANCH  36  37
ENDBRANCH  35  36
ENDBRANCH  34  35
ENDBRANCH  33  34
ENDBRANCH  32  33
ENDBRANCH  31  32
ENDBRANCH   1  31
TORSDOF 23
ENDMDL
