MODEL 1
REMARK VINA RESULT:     -10.7      0.000      0.000
REMARK SMILES C[C@@H](C(=O)OCCOCCOCCOCCOC(=O)c1ccc(-c2c3nc(c(-c4c(F)c(F)c(F)c(F)c4F)c4ccc([nH]4)c(-c4c(F)c(F)c(F)c(F)c4F)c4nc(c(-c5c(F)c(F)c(F)c(F)c5F)c5ccc2[nH]5)C=C4)C=C3)cc1)c1ccccc1-c1ccn(C(F)F)c(=O)c1
REMARK SMILES IDX 10 1 9 2 8 3 7 4 6 5 5 6 3 7 4 8 2 9 1 10 83 11 84 12 88 13
REMARK SMILES IDX 85 14 87 15 86 16 89 17 90 18 98 19 91 20 96 21 92 22 97 23
REMARK SMILES IDX 93 24 94 25 95 26 11 27 12 28 13 29 14 30 15 31 16 32 17 33
REMARK SMILES IDX 18 34 19 35 20 36 21 37 82 38 22 39 81 40 23 41 24 42 25 43
REMARK SMILES IDX 75 44 26 45 80 46 74 47 76 48 27 49 79 50 73 51 72 52 28 54
REMARK SMILES IDX 60 55 40 56 59 57 41 58 44 59 58 60 77 61 42 62 43 63 57 65
REMARK SMILES IDX 78 66 45 67 29 68 30 69 38 70 31 71 32 72 36 73 39 74 33 75
REMARK SMILES IDX 34 76 37 77 35 78 61 79 62 80 70 81 63 82 64 83 68 84 71 85
REMARK SMILES IDX 65 86 66 87 69 88 67 89 46 90 47 91 55 92 48 93 49 94 53 95
REMARK SMILES IDX 56 96 50 97 51 98 54 99 52 100
REMARK H PARENT 76 53 44 64
REMARK Flexibility Score: inf
ROOT
ATOM      1  C   UNL A   1      39.788  22.211  26.948  1.00  0.00     0.188 C 
ENDROOT
BRANCH   1   2
ATOM      2  C   UNL A   1      39.297  21.551  25.653  1.00  0.00     0.188 C 
BRANCH   2   3
ATOM      3  O   UNL A   1      38.058  20.880  25.809  1.00  0.00    -0.376 OA
BRANCH   3   4
ATOM      4  C   UNL A   1      37.034  21.043  24.847  1.00  0.00     0.202 C 
BRANCH   4   5
ATOM      5  C   UNL A   1      36.957  22.299  23.941  1.00  0.00     0.261 C 
BRANCH   5   6
ATOM      6  O   UNL A   1      35.956  23.302  24.198  1.00  0.00    -0.463 OA
BRANCH   6   7
ATOM      7  C   UNL A   1      35.818  23.636  25.498  1.00  0.00     0.313 C 
ATOM      8  O   UNL A   1      36.776  24.049  26.137  1.00  0.00    -0.252 OA
BRANCH   7   9
ATOM      9  C   UNL A   1      34.404  23.443  26.083  1.00  0.00     0.127 C 
ATOM     10  C   UNL A   1      34.347  22.666  27.411  1.00  0.00     0.025 C 
BRANCH   9  11
ATOM     11  C   UNL A   1      33.432  22.957  24.980  1.00  0.00    -0.026 A 
ATOM     12  C   UNL A   1      33.258  21.583  24.711  1.00  0.00     0.005 A 
ATOM     13  C   UNL A   1      32.772  23.886  24.121  1.00  0.00    -0.014 A 
ATOM     14  C   UNL A   1      32.524  21.145  23.606  1.00  0.00     0.000 A 
ATOM     15  C   UNL A   1      32.055  23.429  23.006  1.00  0.00     0.009 A 
ATOM     16  C   UNL A   1      31.940  22.065  22.745  1.00  0.00     0.001 A 
BRANCH  13  17
ATOM     17  C   UNL A   1      32.831  25.348  24.360  1.00  0.00    -0.011 A 
ATOM     18  C   UNL A   1      32.577  25.950  25.653  1.00  0.00     0.027 A 
ATOM     19  C   UNL A   1      32.956  26.144  23.287  1.00  0.00     0.080 A 
ATOM     20  C   UNL A   1      32.105  27.199  25.722  1.00  0.00     0.095 A 
ATOM     21  C   UNL A   1      32.639  27.597  23.397  1.00  0.00     0.255 A 
ATOM     22  N   UNL A   1      32.055  27.990  24.591  1.00  0.00    -0.258 N 
ATOM     23  O   UNL A   1      32.828  28.313  22.420  1.00  0.00    -0.269 OA
BRANCH  22  24
ATOM     24  C   UNL A   1      31.485  29.309  24.658  1.00  0.00     0.451 C 
ATOM     25  F   UNL A   1      30.221  29.316  24.172  1.00  0.00    -0.185 F 
ATOM     26  F   UNL A   1      31.450  29.773  25.932  1.00  0.00    -0.185 F 
ENDBRANCH  22  24
ENDBRANCH  13  17
ENDBRANCH   9  11
ENDBRANCH   7   9
ENDBRANCH   6   7
ENDBRANCH   5   6
ENDBRANCH   4   5
ENDBRANCH   3   4
ENDBRANCH   2   3
ENDBRANCH   1   2
BRANCH   1  27
ATOM     27  O   UNL A   1      40.935  21.647  27.556  1.00  0.00    -0.377 OA
BRANCH  27  28
ATOM     28  C   UNL A   1      41.146  20.240  27.470  1.00  0.00     0.188 C 
BRANCH  28  29
ATOM     29  C   UNL A   1      42.286  19.627  26.619  1.00  0.00     0.188 C 
BRANCH  29  30
ATOM     30  O   UNL A   1      42.648  20.372  25.470  1.00  0.00    -0.376 OA
BRANCH  30  31
ATOM     31  C   UNL A   1      43.802  21.188  25.530  1.00  0.00     0.202 C 
BRANCH  31  32
ATOM     32  C   UNL A   1      43.966  22.247  24.429  1.00  0.00     0.261 C 
BRANCH  32  33
ATOM     33  O   UNL A   1      43.352  23.520  24.679  1.00  0.00    -0.460 OA
BRANCH  33  34
ATOM     34  C   UNL A   1      44.151  24.537  25.063  1.00  0.00     0.338 C 
ATOM     35  O   UNL A   1      45.249  24.824  24.616  1.00  0.00    -0.246 OA
BRANCH  34  36
ATOM     36  C   UNL A   1      43.379  25.390  25.990  1.00  0.00     0.060 A 
ATOM     37  C   UNL A   1      43.582  26.777  25.969  1.00  0.00     0.016 A 
ATOM     38  C   UNL A   1      42.439  24.825  26.856  1.00  0.00     0.016 A 
ATOM     39  C   UNL A   1      42.875  27.601  26.843  1.00  0.00     0.010 A 
ATOM     40  C   UNL A   1      41.755  25.647  27.753  1.00  0.00     0.010 A 
ATOM     41  C   UNL A   1      41.999  27.032  27.776  1.00  0.00    -0.014 A 
BRANCH  41  42
ATOM     42  C   UNL A   1      41.534  27.845  28.924  1.00  0.00     0.031 A 
ATOM     43  C   UNL A   1      42.301  27.744  30.214  1.00  0.00     0.074 A 
ATOM     44  C   UNL A   1      40.480  28.672  28.823  1.00  0.00     0.049 A 
ATOM     45  N   UNL A   1      42.064  28.301  31.372  1.00  0.00    -0.248 NA
ATOM     46  C   UNL A   1      43.500  26.890  30.190  1.00  0.00     0.031 C 
ATOM     47  C   UNL A   1      39.691  28.895  27.615  1.00  0.00     0.029 A 
ATOM     48  N   UNL A   1      39.887  29.474  29.767  1.00  0.00    -0.354 N 
ATOM     49  C   UNL A   1      43.079  27.863  32.212  1.00  0.00     0.074 A 
ATOM     50  C   UNL A   1      43.912  26.965  31.445  1.00  0.00     0.031 C 
ATOM     51  C   UNL A   1      38.704  29.764  27.894  1.00  0.00     0.029 A 
ATOM     52  C   UNL A   1      38.770  30.128  29.309  1.00  0.00     0.049 A 
ATOM     53  H   UNL A   1      40.232  29.571  30.685  1.00  0.00     0.167 HD
ATOM     54  C   UNL A   1      43.301  28.187  33.508  1.00  0.00     0.037 A 
ATOM     55  C   UNL A   1      37.890  30.905  29.971  1.00  0.00     0.037 A 
ATOM     56  C   UNL A   1      42.463  29.074  34.271  1.00  0.00     0.049 A 
ATOM     57  C   UNL A   1      38.108  31.182  31.438  1.00  0.00     0.074 A 
ATOM     58  C   UNL A   1      42.601  29.472  35.587  1.00  0.00     0.029 A 
ATOM     59  N   UNL A   1      41.319  29.690  33.783  1.00  0.00    -0.354 N 
ATOM     60  N   UNL A   1      39.078  30.780  32.225  1.00  0.00    -0.248 NA
ATOM     61  C   UNL A   1      37.108  32.025  32.109  1.00  0.00     0.031 C 
ATOM     62  C   UNL A   1      41.508  30.280  35.915  1.00  0.00     0.029 A 
ATOM     63  C   UNL A   1      40.726  30.444  34.782  1.00  0.00     0.049 A 
ATOM     64  H   UNL A   1      40.980  29.606  32.862  1.00  0.00     0.167 HD
ATOM     65  C   UNL A   1      38.823  31.346  33.469  1.00  0.00     0.074 A 
ATOM     66  C   UNL A   1      37.616  32.131  33.329  1.00  0.00     0.031 C 
ATOM     67  C   UNL A   1      39.528  31.229  34.623  1.00  0.00     0.037 A 
BRANCH  54  68
ATOM     68  C   UNL A   1      44.477  27.550  34.188  1.00  0.00     0.064 A 
ATOM     69  C   UNL A   1      45.727  28.184  34.257  1.00  0.00     0.173 A 
ATOM     70  C   UNL A   1      44.348  26.292  34.798  1.00  0.00     0.173 A 
ATOM     71  F   UNL A   1      45.912  29.379  33.676  1.00  0.00    -0.203 F 
ATOM     72  C   UNL A   1      46.810  27.571  34.882  1.00  0.00     0.198 A 
ATOM     73  C   UNL A   1      45.422  25.698  35.453  1.00  0.00     0.198 A 
ATOM     74  F   UNL A   1      43.175  25.641  34.763  1.00  0.00    -0.203 F 
ATOM     75  F   UNL A   1      48.008  28.170  34.886  1.00  0.00    -0.200 F 
ATOM     76  C   UNL A   1      46.654  26.332  35.488  1.00  0.00     0.200 A 
ATOM     77  F   UNL A   1      45.267  24.507  36.048  1.00  0.00    -0.200 F 
ATOM     78  F   UNL A   1      47.695  25.747  36.096  1.00  0.00    -0.200 F 
ENDBRANCH  54  68
BRANCH  55  79
ATOM     79  C   UNL A   1      36.708  31.462  29.260  1.00  0.00     0.064 A 
ATOM     80  C   UNL A   1      35.609  30.655  28.932  1.00  0.00     0.173 A 
ATOM     81  C   UNL A   1      36.664  32.809  28.870  1.00  0.00     0.173 A 
ATOM     82  F   UNL A   1      35.612  29.354  29.260  1.00  0.00    -0.203 F 
ATOM     83  C   UNL A   1      34.523  31.168  28.225  1.00  0.00     0.198 A 
ATOM     84  C   UNL A   1      35.563  33.329  28.191  1.00  0.00     0.198 A 
ATOM     85  F   UNL A   1      37.689  33.625  29.154  1.00  0.00    -0.203 F 
ATOM     86  F   UNL A   1      33.511  30.361  27.879  1.00  0.00    -0.200 F 
ATOM     87  C   UNL A   1      34.499  32.506  27.861  1.00  0.00     0.200 A 
ATOM     88  F   UNL A   1      35.538  34.625  27.854  1.00  0.00    -0.200 F 
ATOM     89  F   UNL A   1      33.452  32.999  27.183  1.00  0.00    -0.200 F 
ENDBRANCH  55  79
BRANCH  67  90
ATOM     90  C   UNL A   1      39.040  32.002  35.817  1.00  0.00     0.064 A 
ATOM     91  C   UNL A   1      38.226  31.418  36.798  1.00  0.00     0.173 A 
ATOM     92  C   UNL A   1      39.434  33.337  36.002  1.00  0.00     0.173 A 
ATOM     93  F   UNL A   1      37.812  30.149  36.665  1.00  0.00    -0.203 F 
ATOM     94  C   UNL A   1      37.801  32.149  37.905  1.00  0.00     0.198 A 
ATOM     95  C   UNL A   1      39.037  34.054  37.128  1.00  0.00     0.198 A 
ATOM     96  F   UNL A   1      40.221  33.943  35.101  1.00  0.00    -0.203 F 
ATOM     97  F   UNL A   1      36.980  31.586  38.802  1.00  0.00    -0.200 F 
ATOM     98  C   UNL A   1      38.214  33.462  38.074  1.00  0.00     0.200 A 
ATOM     99  F   UNL A   1      39.454  35.316  37.298  1.00  0.00    -0.200 F 
ATOM    100  F   UNL A   1      37.811  34.161  39.144  1.00  0.00    -0.200 F 
ENDBRANCH  67  90
ENDBRANCH  41  42
ENDBRANCH  34  36
ENDBRANCH  33  34
ENDBRANCH  32  33
ENDBRANCH  31  32
ENDBRANCH  30  31
ENDBRANCH  29  30
ENDBRANCH  28  29
ENDBRANCH  27  28
ENDBRANCH   1  27
TORSDOF 23
ENDMDL
MODEL 2
REMARK VINA RESULT:     -10.7      1.016      2.023
REMARK SMILES C[C@@H](C(=O)OCCOCCOCCOCCOC(=O)c1ccc(-c2c3nc(c(-c4c(F)c(F)c(F)c(F)c4F)c4ccc([nH]4)c(-c4c(F)c(F)c(F)c(F)c4F)c4nc(c(-c5c(F)c(F)c(F)c(F)c5F)c5ccc2[nH]5)C=C4)C=C3)cc1)c1ccccc1-c1ccn(C(F)F)c(=O)c1
REMARK SMILES IDX 10 1 9 2 8 3 7 4 6 5 5 6 3 7 4 8 2 9 1 10 83 11 84 12 88 13
REMARK SMILES IDX 85 14 87 15 86 16 89 17 90 18 98 19 91 20 96 21 92 22 97 23
REMARK SMILES IDX 93 24 94 25 95 26 11 27 12 28 13 29 14 30 15 31 16 32 17 33
REMARK SMILES IDX 18 34 19 35 20 36 21 37 82 38 22 39 81 40 23 41 24 42 25 43
REMARK SMILES IDX 75 44 26 45 80 46 74 47 76 48 27 49 79 50 73 51 72 52 28 54
REMARK SMILES IDX 60 55 40 56 59 57 41 58 44 59 58 60 77 61 42 62 43 63 57 65
REMARK SMILES IDX 78 66 45 67 29 68 30 69 38 70 31 71 32 72 36 73 39 74 33 75
REMARK SMILES IDX 34 76 37 77 35 78 61 79 62 80 70 81 63 82 64 83 68 84 71 85
REMARK SMILES IDX 65 86 66 87 69 88 67 89 46 90 47 91 55 92 48 93 49 94 53 95
REMARK SMILES IDX 56 96 50 97 51 98 54 99 52 100
REMARK H PARENT 76 53 44 64
REMARK Flexibility Score: inf
ROOT
ATOM      1  C   UNL A   1      39.706  22.475  26.792  1.00  0.00     0.188 C 
ENDROOT
BRANCH   1   2
ATOM      2  C   UNL A   1      39.047  21.442  25.870  1.00  0.00     0.188 C 
BRANCH   2   3
ATOM      3  O   UNL A   1      37.695  21.747  25.572  1.00  0.00    -0.376 OA
BRANCH   3   4
ATOM      4  C   UNL A   1      37.236  21.714  24.234  1.00  0.00     0.202 C 
BRANCH   4   5
ATOM      5  C   UNL A   1      36.485  22.913  23.599  1.00  0.00     0.261 C 
BRANCH   5   6
ATOM      6  O   UNL A   1      35.134  23.203  24.008  1.00  0.00    -0.463 OA
BRANCH   6   7
ATOM      7  C   UNL A   1      35.013  23.623  25.284  1.00  0.00     0.313 C 
ATOM      8  O   UNL A   1      35.694  24.552  25.698  1.00  0.00    -0.252 OA
BRANCH   7   9
ATOM      9  C   UNL A   1      33.990  22.849  26.140  1.00  0.00     0.127 C 
ATOM     10  C   UNL A   1      34.408  22.614  27.603  1.00  0.00     0.025 C 
BRANCH   9  11
ATOM     11  C   UNL A   1      33.493  21.597  25.376  1.00  0.00    -0.026 A 
ATOM     12  C   UNL A   1      34.193  20.375  25.440  1.00  0.00     0.005 A 
ATOM     13  C   UNL A   1      32.378  21.674  24.489  1.00  0.00    -0.014 A 
ATOM     14  C   UNL A   1      33.855  19.298  24.617  1.00  0.00     0.000 A 
ATOM     15  C   UNL A   1      32.063  20.590  23.656  1.00  0.00     0.009 A 
ATOM     16  C   UNL A   1      32.804  19.411  23.714  1.00  0.00     0.001 A 
BRANCH  13  17
ATOM     17  C   UNL A   1      31.532  22.888  24.400  1.00  0.00    -0.011 A 
ATOM     18  C   UNL A   1      31.323  23.621  23.168  1.00  0.00     0.027 A 
ATOM     19  C   UNL A   1      31.087  23.415  25.552  1.00  0.00     0.080 A 
ATOM     20  C   UNL A   1      31.051  24.929  23.212  1.00  0.00     0.095 A 
ATOM     21  C   UNL A   1      30.573  24.815  25.580  1.00  0.00     0.255 A 
ATOM     22  N   UNL A   1      30.762  25.542  24.415  1.00  0.00    -0.258 N 
ATOM     23  O   UNL A   1      30.110  25.248  26.629  1.00  0.00    -0.269 OA
BRANCH  22  24
ATOM     24  C   UNL A   1      30.536  26.962  24.466  1.00  0.00     0.451 C 
ATOM     25  F   UNL A   1      31.676  27.623  24.774  1.00  0.00    -0.185 F 
ATOM     26  F   UNL A   1      30.080  27.436  23.279  1.00  0.00    -0.185 F 
ENDBRANCH  22  24
ENDBRANCH  13  17
ENDBRANCH   9  11
ENDBRANCH   7   9
ENDBRANCH   6   7
ENDBRANCH   5   6
ENDBRANCH   4   5
ENDBRANCH   3   4
ENDBRANCH   2   3
ENDBRANCH   1   2
BRANCH   1  27
ATOM     27  O   UNL A   1      40.842  22.048  27.520  1.00  0.00    -0.377 OA
BRANCH  27  28
ATOM     28  C   UNL A   1      41.142  20.656  27.587  1.00  0.00     0.188 C 
BRANCH  28  29
ATOM     29  C   UNL A   1      42.308  20.023  26.790  1.00  0.00     0.188 C 
BRANCH  29  30
ATOM     30  O   UNL A   1      42.653  20.694  25.590  1.00  0.00    -0.376 OA
BRANCH  30  31
ATOM     31  C   UNL A   1      43.859  21.434  25.552  1.00  0.00     0.202 C 
BRANCH  31  32
ATOM     32  C   UNL A   1      44.063  22.374  24.355  1.00  0.00     0.261 C 
BRANCH  32  33
ATOM     33  O   UNL A   1      43.535  23.701  24.495  1.00  0.00    -0.460 OA
BRANCH  33  34
ATOM     34  C   UNL A   1      44.348  24.648  25.008  1.00  0.00     0.338 C 
ATOM     35  O   UNL A   1      45.488  24.911  24.663  1.00  0.00    -0.246 OA
BRANCH  34  36
ATOM     36  C   UNL A   1      43.546  25.473  25.936  1.00  0.00     0.060 A 
ATOM     37  C   UNL A   1      43.671  26.869  25.888  1.00  0.00     0.016 A 
ATOM     38  C   UNL A   1      42.655  24.872  26.829  1.00  0.00     0.016 A 
ATOM     39  C   UNL A   1      42.936  27.667  26.763  1.00  0.00     0.010 A 
ATOM     40  C   UNL A   1      41.943  25.670  27.726  1.00  0.00     0.010 A 
ATOM     41  C   UNL A   1      42.111  27.067  27.722  1.00  0.00    -0.014 A 
BRANCH  41  42
ATOM     42  C   UNL A   1      41.622  27.872  28.865  1.00  0.00     0.031 A 
ATOM     43  C   UNL A   1      42.383  27.790  30.159  1.00  0.00     0.074 A 
ATOM     44  C   UNL A   1      40.552  28.678  28.756  1.00  0.00     0.049 A 
ATOM     45  N   UNL A   1      42.129  28.345  31.315  1.00  0.00    -0.248 NA
ATOM     46  C   UNL A   1      43.600  26.961  30.144  1.00  0.00     0.031 C 
ATOM     47  C   UNL A   1      39.766  28.881  27.543  1.00  0.00     0.029 A 
ATOM     48  N   UNL A   1      39.937  29.469  29.695  1.00  0.00    -0.354 N 
ATOM     49  C   UNL A   1      43.147  27.929  32.162  1.00  0.00     0.074 A 
ATOM     50  C   UNL A   1      44.003  27.047  31.401  1.00  0.00     0.031 C 
ATOM     51  C   UNL A   1      38.759  29.730  27.815  1.00  0.00     0.029 A 
ATOM     52  C   UNL A   1      38.810  30.099  29.230  1.00  0.00     0.049 A 
ATOM     53  H   UNL A   1      40.274  29.575  30.614  1.00  0.00     0.167 HD
ATOM     54  C   UNL A   1      43.355  28.261  33.458  1.00  0.00     0.037 A 
ATOM     55  C   UNL A   1      37.910  30.859  29.884  1.00  0.00     0.037 A 
ATOM     56  C   UNL A   1      42.495  29.132  34.214  1.00  0.00     0.049 A 
ATOM     57  C   UNL A   1      38.114  31.144  31.352  1.00  0.00     0.074 A 
ATOM     58  C   UNL A   1      42.617  29.536  35.530  1.00  0.00     0.029 A 
ATOM     59  N   UNL A   1      41.341  29.723  33.718  1.00  0.00    -0.354 N 
ATOM     60  N   UNL A   1      39.087  30.764  32.145  1.00  0.00    -0.248 NA
ATOM     61  C   UNL A   1      37.093  31.967  32.016  1.00  0.00     0.031 C 
ATOM     62  C   UNL A   1      41.506  30.321  35.850  1.00  0.00     0.029 A 
ATOM     63  C   UNL A   1      40.727  30.467  34.712  1.00  0.00     0.049 A 
ATOM     64  H   UNL A   1      41.009  29.630  32.796  1.00  0.00     0.167 HD
ATOM     65  C   UNL A   1      38.814  31.327  33.387  1.00  0.00     0.074 A 
ATOM     66  C   UNL A   1      37.591  32.087  33.238  1.00  0.00     0.031 C 
ATOM     67  C   UNL A   1      39.514  31.226  34.544  1.00  0.00     0.037 A 
BRANCH  54  68
ATOM     68  C   UNL A   1      44.541  27.649  34.146  1.00  0.00     0.064 A 
ATOM     69  C   UNL A   1      44.423  26.506  34.952  1.00  0.00     0.173 A 
ATOM     70  C   UNL A   1      45.819  28.205  33.983  1.00  0.00     0.173 A 
ATOM     71  F   UNL A   1      43.221  25.945  35.156  1.00  0.00    -0.203 F 
ATOM     72  C   UNL A   1      45.533  25.961  35.592  1.00  0.00     0.198 A 
ATOM     73  C   UNL A   1      46.932  27.637  34.596  1.00  0.00     0.198 A 
ATOM     74  F   UNL A   1      45.990  29.298  33.224  1.00  0.00    -0.203 F 
ATOM     75  F   UNL A   1      45.387  24.904  36.401  1.00  0.00    -0.200 F 
ATOM     76  C   UNL A   1      46.788  26.522  35.406  1.00  0.00     0.200 A 
ATOM     77  F   UNL A   1      48.146  28.173  34.405  1.00  0.00    -0.200 F 
ATOM     78  F   UNL A   1      47.857  25.993  36.017  1.00  0.00    -0.200 F 
ENDBRANCH  54  68
BRANCH  55  79
ATOM     79  C   UNL A   1      36.720  31.390  29.166  1.00  0.00     0.064 A 
ATOM     80  C   UNL A   1      36.619  32.747  28.829  1.00  0.00     0.173 A 
ATOM     81  C   UNL A   1      35.646  30.553  28.825  1.00  0.00     0.173 A 
ATOM     82  F   UNL A   1      37.606  33.593  29.155  1.00  0.00    -0.203 F 
ATOM     83  C   UNL A   1      35.482  33.250  28.198  1.00  0.00     0.198 A 
ATOM     84  C   UNL A   1      34.524  31.051  28.165  1.00  0.00     0.198 A 
ATOM     85  F   UNL A   1      35.688  29.248  29.127  1.00  0.00    -0.203 F 
ATOM     86  F   UNL A   1      35.390  34.560  27.935  1.00  0.00    -0.200 F 
ATOM     87  C   UNL A   1      34.439  32.401  27.862  1.00  0.00     0.200 A 
ATOM     88  F   UNL A   1      33.525  30.224  27.829  1.00  0.00    -0.200 F 
ATOM     89  F   UNL A   1      33.347  32.885  27.252  1.00  0.00    -0.200 F 
ENDBRANCH  55  79
BRANCH  67  90
ATOM     90  C   UNL A   1      39.004  31.992  35.734  1.00  0.00     0.064 A 
ATOM     91  C   UNL A   1      38.223  31.386  36.729  1.00  0.00     0.173 A 
ATOM     92  C   UNL A   1      39.343  33.345  35.902  1.00  0.00     0.173 A 
ATOM     93  F   UNL A   1      37.861  30.099  36.612  1.00  0.00    -0.203 F 
ATOM     94  C   UNL A   1      37.776  32.111  37.831  1.00  0.00     0.198 A 
ATOM     95  C   UNL A   1      38.925  34.057  37.022  1.00  0.00     0.198 A 
ATOM     96  F   UNL A   1      40.096  33.972  34.987  1.00  0.00    -0.203 F 
ATOM     97  F   UNL A   1      36.987  31.524  38.741  1.00  0.00    -0.200 F 
ATOM     98  C   UNL A   1      38.134  33.442  37.981  1.00  0.00     0.200 A 
ATOM     99  F   UNL A   1      39.290  35.337  37.175  1.00  0.00    -0.200 F 
ATOM    100  F   UNL A   1      37.711  34.135  39.047  1.00  0.00    -0.200 F 
ENDBRANCH  67  90
ENDBRANCH  41  42
ENDBRANCH  34  36
ENDBRANCH  33  34
ENDBRANCH  32  33
ENDBRANCH  31  32
ENDBRANCH  30  31
ENDBRANCH  29  30
ENDBRANCH  28  29
ENDBRANCH  27  28
ENDBRANCH   1  27
TORSDOF 23
ENDMDL
MODEL 3
REMARK VINA RESULT:     -10.1      1.155      7.088
REMARK SMILES C[C@@H](C(=O)OCCOCCOCCOCCOC(=O)c1ccc(-c2c3nc(c(-c4c(F)c(F)c(F)c(F)c4F)c4ccc([nH]4)c(-c4c(F)c(F)c(F)c(F)c4F)c4nc(c(-c5c(F)c(F)c(F)c(F)c5F)c5ccc2[nH]5)C=C4)C=C3)cc1)c1ccccc1-c1ccn(C(F)F)c(=O)c1
REMARK SMILES IDX 10 1 9 2 8 3 7 4 6 5 5 6 3 7 4 8 2 9 1 10 83 11 84 12 88 13
REMARK SMILES IDX 85 14 87 15 86 16 89 17 90 18 98 19 91 20 96 21 92 22 97 23
REMARK SMILES IDX 93 24 94 25 95 26 11 27 12 28 13 29 14 30 15 31 16 32 17 33
REMARK SMILES IDX 18 34 19 35 20 36 21 37 82 38 22 39 81 40 23 41 24 42 25 43
REMARK SMILES IDX 75 44 26 45 80 46 74 47 76 48 27 49 79 50 73 51 72 52 28 54
REMARK SMILES IDX 60 55 40 56 59 57 41 58 44 59 58 60 77 61 42 62 43 63 57 65
REMARK SMILES IDX 78 66 45 67 29 68 30 69 38 70 31 71 32 72 36 73 39 74 33 75
REMARK SMILES IDX 34 76 37 77 35 78 61 79 62 80 70 81 63 82 64 83 68 84 71 85
REMARK SMILES IDX 65 86 66 87 69 88 67 89 46 90 47 91 55 92 48 93 49 94 53 95
REMARK SMILES IDX 56 96 50 97 51 98 54 99 52 100
REMARK H PARENT 76 53 44 64
REMARK Flexibility Score: inf
ROOT
ATOM      1  C   UNL A   1      39.506  22.656  26.758  1.00  0.00     0.188 C 
ENDROOT
BRANCH   1   2
ATOM      2  C   UNL A   1      38.864  21.486  26.003  1.00  0.00     0.188 C 
BRANCH   2   3
ATOM      3  O   UNL A   1      37.538  21.758  25.584  1.00  0.00    -0.376 OA
BRANCH   3   4
ATOM      4  C   UNL A   1      37.227  21.826  24.205  1.00  0.00     0.202 C 
BRANCH   4   5
ATOM      5  C   UNL A   1      36.533  23.067  23.585  1.00  0.00     0.261 C 
BRANCH   5   6
ATOM      6  O   UNL A   1      35.173  23.375  23.947  1.00  0.00    -0.463 OA
BRANCH   6   7
ATOM      7  C   UNL A   1      35.015  23.822  25.209  1.00  0.00     0.313 C 
ATOM      8  O   UNL A   1      35.691  24.754  25.625  1.00  0.00    -0.252 OA
BRANCH   7   9
ATOM      9  C   UNL A   1      33.960  23.075  26.049  1.00  0.00     0.127 C 
ATOM     10  C   UNL A   1      34.373  22.779  27.502  1.00  0.00     0.025 C 
BRANCH   9  11
ATOM     11  C   UNL A   1      33.401  21.870  25.252  1.00  0.00    -0.026 A 
ATOM     12  C   UNL A   1      34.003  20.597  25.332  1.00  0.00     0.005 A 
ATOM     13  C   UNL A   1      32.332  22.038  24.322  1.00  0.00    -0.014 A 
ATOM     14  C   UNL A   1      33.617  19.555  24.485  1.00  0.00     0.000 A 
ATOM     15  C   UNL A   1      31.970  20.987  23.467  1.00  0.00     0.009 A 
ATOM     16  C   UNL A   1      32.616  19.755  23.542  1.00  0.00     0.001 A 
BRANCH  13  17
ATOM     17  C   UNL A   1      31.586  23.314  24.212  1.00  0.00    -0.011 A 
ATOM     18  C   UNL A   1      31.798  24.267  23.141  1.00  0.00     0.027 A 
ATOM     19  C   UNL A   1      30.808  23.665  25.248  1.00  0.00     0.080 A 
ATOM     20  C   UNL A   1      31.555  25.564  23.350  1.00  0.00     0.095 A 
ATOM     21  C   UNL A   1      30.343  25.075  25.385  1.00  0.00     0.255 A 
ATOM     22  N   UNL A   1      30.910  25.978  24.499  1.00  0.00    -0.258 N 
ATOM     23  O   UNL A   1      29.578  25.353  26.302  1.00  0.00    -0.269 OA
BRANCH  22  24
ATOM     24  C   UNL A   1      30.711  27.380  24.750  1.00  0.00     0.451 C 
ATOM     25  F   UNL A   1      31.849  27.958  25.202  1.00  0.00    -0.185 F 
ATOM     26  F   UNL A   1      30.320  28.037  23.629  1.00  0.00    -0.185 F 
ENDBRANCH  22  24
ENDBRANCH  13  17
ENDBRANCH   9  11
ENDBRANCH   7   9
ENDBRANCH   6   7
ENDBRANCH   5   6
ENDBRANCH   4   5
ENDBRANCH   3   4
ENDBRANCH   2   3
ENDBRANCH   1   2
BRANCH   1  27
ATOM     27  O   UNL A   1      40.756  22.409  27.375  1.00  0.00    -0.377 OA
BRANCH  27  28
ATOM     28  C   UNL A   1      41.209  21.065  27.513  1.00  0.00     0.188 C 
BRANCH  28  29
ATOM     29  C   UNL A   1      42.381  20.499  26.675  1.00  0.00     0.188 C 
BRANCH  29  30
ATOM     30  O   UNL A   1      42.672  21.212  25.486  1.00  0.00    -0.376 OA
BRANCH  30  31
ATOM     31  C   UNL A   1      43.949  21.806  25.349  1.00  0.00     0.202 C 
BRANCH  31  32
ATOM     32  C   UNL A   1      44.127  22.824  24.213  1.00  0.00     0.261 C 
BRANCH  32  33
ATOM     33  O   UNL A   1      43.899  24.200  24.555  1.00  0.00    -0.460 OA
BRANCH  33  34
ATOM     34  C   UNL A   1      44.780  24.793  25.387  1.00  0.00     0.338 C 
ATOM     35  O   UNL A   1      45.992  24.852  25.262  1.00  0.00    -0.246 OA
BRANCH  34  36
ATOM     36  C   UNL A   1      44.008  25.555  26.390  1.00  0.00     0.060 A 
ATOM     37  C   UNL A   1      44.209  26.939  26.498  1.00  0.00     0.016 A 
ATOM     38  C   UNL A   1      43.068  24.911  27.199  1.00  0.00     0.016 A 
ATOM     39  C   UNL A   1      43.502  27.676  27.446  1.00  0.00     0.010 A 
ATOM     40  C   UNL A   1      42.383  25.645  28.169  1.00  0.00     0.010 A 
ATOM     41  C   UNL A   1      42.627  27.023  28.322  1.00  0.00    -0.014 A 
BRANCH  41  42
ATOM     42  C   UNL A   1      42.161  27.724  29.540  1.00  0.00     0.031 A 
ATOM     43  C   UNL A   1      40.880  28.508  29.453  1.00  0.00     0.074 A 
ATOM     44  C   UNL A   1      42.834  27.649  30.701  1.00  0.00     0.049 A 
ATOM     45  N   UNL A   1      40.294  29.253  30.353  1.00  0.00    -0.248 NA
ATOM     46  C   UNL A   1      40.166  28.442  28.167  1.00  0.00     0.031 C 
ATOM     47  C   UNL A   1      44.056  26.881  30.922  1.00  0.00     0.029 A 
ATOM     48  N   UNL A   1      42.582  28.242  31.913  1.00  0.00    -0.354 N 
ATOM     49  C   UNL A   1      39.149  29.747  29.742  1.00  0.00     0.074 A 
ATOM     50  C   UNL A   1      39.140  29.248  28.385  1.00  0.00     0.031 C 
ATOM     51  C   UNL A   1      44.459  27.063  32.192  1.00  0.00     0.029 A 
ATOM     52  C   UNL A   1      43.544  27.990  32.859  1.00  0.00     0.049 A 
ATOM     53  H   UNL A   1      41.786  28.796  32.087  1.00  0.00     0.167 HD
ATOM     54  C   UNL A   1      38.186  30.539  30.269  1.00  0.00     0.037 A 
ATOM     55  C   UNL A   1      43.681  28.479  34.107  1.00  0.00     0.037 A 
ATOM     56  C   UNL A   1      38.205  31.040  31.617  1.00  0.00     0.049 A 
ATOM     57  C   UNL A   1      42.641  29.431  34.645  1.00  0.00     0.074 A 
ATOM     58  C   UNL A   1      37.277  31.845  32.251  1.00  0.00     0.029 A 
ATOM     59  N   UNL A   1      39.215  30.791  32.536  1.00  0.00    -0.354 N 
ATOM     60  N   UNL A   1      41.551  29.881  34.070  1.00  0.00    -0.248 NA
ATOM     61  C   UNL A   1      42.851  29.942  36.007  1.00  0.00     0.031 C 
ATOM     62  C   UNL A   1      37.755  32.135  33.533  1.00  0.00     0.029 A 
ATOM     63  C   UNL A   1      38.946  31.451  33.723  1.00  0.00     0.049 A 
ATOM     64  H   UNL A   1      40.005  30.228  32.369  1.00  0.00     0.167 HD
ATOM     65  C   UNL A   1      40.930  30.698  35.009  1.00  0.00     0.074 A 
ATOM     66  C   UNL A   1      41.758  30.669  36.196  1.00  0.00     0.031 C 
ATOM     67  C   UNL A   1      39.778  31.404  34.900  1.00  0.00     0.037 A 
BRANCH  54  68
ATOM     68  C   UNL A   1      37.051  30.938  29.371  1.00  0.00     0.064 A 
ATOM     69  C   UNL A   1      36.975  32.216  28.796  1.00  0.00     0.173 A 
ATOM     70  C   UNL A   1      36.033  30.022  29.065  1.00  0.00     0.173 A 
ATOM     71  F   UNL A   1      37.912  33.137  29.068  1.00  0.00    -0.203 F 
ATOM     72  C   UNL A   1      35.908  32.571  27.975  1.00  0.00     0.198 A 
ATOM     73  C   UNL A   1      34.986  30.369  28.217  1.00  0.00     0.198 A 
ATOM     74  F   UNL A   1      36.056  28.786  29.588  1.00  0.00    -0.203 F 
ATOM     75  F   UNL A   1      35.826  33.814  27.483  1.00  0.00    -0.200 F 
ATOM     76  C   UNL A   1      34.919  31.644  27.679  1.00  0.00     0.200 A 
ATOM     77  F   UNL A   1      34.038  29.467  27.922  1.00  0.00    -0.200 F 
ATOM     78  F   UNL A   1      33.896  31.984  26.883  1.00  0.00    -0.200 F 
ENDBRANCH  54  68
BRANCH  55  79
ATOM     79  C   UNL A   1      44.858  28.096  34.932  1.00  0.00     0.064 A 
ATOM     80  C   UNL A   1      44.807  27.006  35.812  1.00  0.00     0.173 A 
ATOM     81  C   UNL A   1      46.052  28.831  34.877  1.00  0.00     0.173 A 
ATOM     82  F   UNL A   1      43.681  26.287  35.922  1.00  0.00    -0.203 F 
ATOM     83  C   UNL A   1      45.896  26.679  36.619  1.00  0.00     0.198 A 
ATOM     84  C   UNL A   1      47.152  28.483  35.660  1.00  0.00     0.198 A 
ATOM     85  F   UNL A   1      46.155  29.886  34.056  1.00  0.00    -0.203 F 
ATOM     86  F   UNL A   1      45.800  25.664  37.489  1.00  0.00    -0.200 F 
ATOM     87  C   UNL A   1      47.069  27.414  36.537  1.00  0.00     0.200 A 
ATOM     88  F   UNL A   1      48.288  29.188  35.567  1.00  0.00    -0.200 F 
ATOM     89  F   UNL A   1      48.117  27.096  37.311  1.00  0.00    -0.200 F 
ENDBRANCH  55  79
BRANCH  67  90
ATOM     90  C   UNL A   1      39.314  32.170  36.109  1.00  0.00     0.064 A 
ATOM     91  C   UNL A   1      39.758  33.474  36.377  1.00  0.00     0.173 A 
ATOM     92  C   UNL A   1      38.375  31.604  36.986  1.00  0.00     0.173 A 
ATOM     93  F   UNL A   1      40.663  34.057  35.577  1.00  0.00    -0.203 F 
ATOM     94  C   UNL A   1      39.302  34.170  37.493  1.00  0.00     0.198 A 
ATOM     95  C   UNL A   1      37.894  32.317  38.081  1.00  0.00     0.198 A 
ATOM     96  F   UNL A   1      37.909  30.366  36.772  1.00  0.00    -0.203 F 
ATOM     97  F   UNL A   1      39.780  35.393  37.759  1.00  0.00    -0.200 F 
ATOM     98  C   UNL A   1      38.364  33.596  38.339  1.00  0.00     0.200 A 
ATOM     99  F   UNL A   1      36.974  31.767  38.884  1.00  0.00    -0.200 F 
ATOM    100  F   UNL A   1      37.920  34.271  39.407  1.00  0.00    -0.200 F 
ENDBRANCH  67  90
ENDBRANCH  41  42
ENDBRANCH  34  36
ENDBRANCH  33  34
ENDBRANCH  32  33
ENDBRANCH  31  32
ENDBRANCH  30  31
ENDBRANCH  29  30
ENDBRANCH  28  29
ENDBRANCH  27  28
ENDBRANCH   1  27
TORSDOF 23
ENDMDL
