MODEL 1
REMARK VINA RESULT:     -10.5      0.000      0.000
REMARK SMILES COCCCC(=O)N[C@H]1CC[C@@H](C(=O)OCCOCCOCCOCCOC(=O)c2ccc(-c3c4nc(c(-c5c(F)c(F)c(F)c(F)c5F)c5ccc([nH]5)c(-c5c(F)c(F)c(F)c(F)c5F)c5nc(c(-c6c(F)c(F)c(F)c(F)c6F)c6ccc3[nH]6)C=C5)C=C4)cc2)CC1
REMARK SMILES IDX 19 1 18 2 17 3 16 4 15 5 13 6 14 7 12 8 9 9 10 10 94 11
REMARK SMILES IDX 11 12 93 13 8 14 6 15 7 16 5 18 4 19 3 20 2 21 1 22 20 23
REMARK SMILES IDX 21 24 22 25 23 26 24 27 25 28 26 29 27 30 28 31 29 32 30 33
REMARK SMILES IDX 31 34 92 35 32 36 91 37 33 38 34 39 35 40 85 41 36 42 90 43
REMARK SMILES IDX 84 44 86 45 37 46 89 47 83 48 82 49 38 51 70 52 50 53 69 54
REMARK SMILES IDX 51 55 54 56 68 57 87 58 52 59 53 60 67 62 88 63 55 64 39 65
REMARK SMILES IDX 40 66 48 67 41 68 42 69 46 70 49 71 43 72 44 73 47 74 45 75
REMARK SMILES IDX 71 76 72 77 80 78 73 79 74 80 78 81 81 82 75 83 76 84 79 85
REMARK SMILES IDX 77 86 56 87 57 88 65 89 58 90 59 91 63 92 66 93 60 94 61 95
REMARK SMILES IDX 64 96 62 97
REMARK H PARENT 8 17 86 50 54 61
REMARK Flexibility Score: inf
ROOT
ATOM      1  C   UNL A   1      40.758  21.061  26.354  1.00  0.00     0.188 C 
ENDROOT
BRANCH   1   2
ATOM      2  O   UNL A   1      39.491  21.679  26.311  1.00  0.00    -0.376 OA
BRANCH   2   3
ATOM      3  C   UNL A   1      39.375  23.070  26.566  1.00  0.00     0.202 C 
BRANCH   3   4
ATOM      4  C   UNL A   1      38.114  23.889  26.229  1.00  0.00     0.261 C 
BRANCH   4   5
ATOM      5  O   UNL A   1      36.898  23.167  25.909  1.00  0.00    -0.463 OA
BRANCH   5   6
ATOM      6  C   UNL A   1      36.355  23.382  24.685  1.00  0.00     0.309 C 
ATOM      7  O   UNL A   1      36.889  23.019  23.639  1.00  0.00    -0.252 OA
BRANCH   6   8
ATOM      8  C   UNL A   1      35.023  24.156  24.652  1.00  0.00     0.099 C 
ATOM      9  C   UNL A   1      32.626  22.343  24.946  1.00  0.00     0.082 C 
ATOM     10  C   UNL A   1      33.353  22.891  26.171  1.00  0.00     0.026 C 
ATOM     11  C   UNL A   1      33.322  22.600  23.608  1.00  0.00     0.026 C 
ATOM     12  C   UNL A   1      34.296  24.088  25.996  1.00  0.00     0.017 C 
ATOM     13  C   UNL A   1      33.988  23.957  23.551  1.00  0.00     0.017 C 
BRANCH   9  14
ATOM     14  N   UNL A   1      32.225  20.924  24.987  1.00  0.00    -0.353 N 
ATOM     15  C   UNL A   1      32.774  19.752  24.567  1.00  0.00     0.220 C 
ATOM     16  O   UNL A   1      31.991  18.880  24.174  1.00  0.00    -0.275 OA
ATOM     17  H   UNL A   1      31.352  20.793  25.424  1.00  0.00     0.163 HD
BRANCH  15  18
ATOM     18  C   UNL A   1      34.255  19.433  24.678  1.00  0.00     0.102 C 
BRANCH  18  19
ATOM     19  C   UNL A   1      34.600  17.941  24.638  1.00  0.00     0.038 C 
BRANCH  19  20
ATOM     20  C   UNL A   1      34.080  17.133  23.446  1.00  0.00     0.160 C 
BRANCH  20  21
ATOM     21  O   UNL A   1      33.415  15.929  23.802  1.00  0.00    -0.385 OA
ATOM     22  C   UNL A   1      33.504  15.566  25.170  1.00  0.00     0.194 C 
ENDBRANCH  20  21
ENDBRANCH  19  20
ENDBRANCH  18  19
ENDBRANCH  15  18
ENDBRANCH   9  14
ENDBRANCH   6   8
ENDBRANCH   5   6
ENDBRANCH   4   5
ENDBRANCH   3   4
ENDBRANCH   2   3
ENDBRANCH   1   2
BRANCH   1  23
ATOM     23  C   UNL A   1      40.824  19.535  26.442  1.00  0.00     0.188 C 
BRANCH  23  24
ATOM     24  O   UNL A   1      41.758  18.878  25.605  1.00  0.00    -0.377 OA
BRANCH  24  25
ATOM     25  C   UNL A   1      43.100  18.677  26.026  1.00  0.00     0.188 C 
BRANCH  25  26
ATOM     26  C   UNL A   1      44.269  18.988  25.079  1.00  0.00     0.188 C 
BRANCH  26  27
ATOM     27  O   UNL A   1      44.131  20.193  24.346  1.00  0.00    -0.376 OA
BRANCH  27  28
ATOM     28  C   UNL A   1      44.214  21.432  25.035  1.00  0.00     0.202 C 
BRANCH  28  29
ATOM     29  C   UNL A   1      44.607  22.687  24.234  1.00  0.00     0.261 C 
BRANCH  29  30
ATOM     30  O   UNL A   1      43.871  23.888  24.524  1.00  0.00    -0.460 OA
BRANCH  30  31
ATOM     31  C   UNL A   1      44.559  24.944  25.002  1.00  0.00     0.338 C 
ATOM     32  O   UNL A   1      45.654  25.334  24.652  1.00  0.00    -0.246 OA
BRANCH  31  33
ATOM     33  C   UNL A   1      43.675  25.692  25.919  1.00  0.00     0.060 A 
ATOM     34  C   UNL A   1      43.993  27.025  26.202  1.00  0.00     0.016 A 
ATOM     35  C   UNL A   1      42.582  25.075  26.534  1.00  0.00     0.016 A 
ATOM     36  C   UNL A   1      43.257  27.727  27.152  1.00  0.00     0.010 A 
ATOM     37  C   UNL A   1      41.853  25.777  27.500  1.00  0.00     0.010 A 
ATOM     38  C   UNL A   1      42.219  27.089  27.846  1.00  0.00    -0.014 A 
BRANCH  38  39
ATOM     39  C   UNL A   1      41.673  27.753  29.055  1.00  0.00     0.031 A 
ATOM     40  C   UNL A   1      42.405  27.593  30.360  1.00  0.00     0.074 A 
ATOM     41  C   UNL A   1      40.606  28.564  28.971  1.00  0.00     0.049 A 
ATOM     42  N   UNL A   1      42.169  28.147  31.522  1.00  0.00    -0.248 NA
ATOM     43  C   UNL A   1      43.568  26.691  30.351  1.00  0.00     0.031 C 
ATOM     44  C   UNL A   1      39.835  28.821  27.757  1.00  0.00     0.029 A 
ATOM     45  N   UNL A   1      39.995  29.333  29.930  1.00  0.00    -0.354 N 
ATOM     46  C   UNL A   1      43.150  27.663  32.378  1.00  0.00     0.074 A 
ATOM     47  C   UNL A   1      43.961  26.742  31.614  1.00  0.00     0.031 C 
ATOM     48  C   UNL A   1      38.855  29.696  28.041  1.00  0.00     0.029 A 
ATOM     49  C   UNL A   1      38.915  30.040  29.460  1.00  0.00     0.049 A 
ATOM     50  H   UNL A   1      40.301  29.375  30.864  1.00  0.00     0.167 HD
ATOM     51  C   UNL A   1      43.361  27.968  33.680  1.00  0.00     0.037 A 
ATOM     52  C   UNL A   1      38.069  30.862  30.109  1.00  0.00     0.037 A 
ATOM     53  C   UNL A   1      42.546  28.883  34.438  1.00  0.00     0.049 A 
ATOM     54  C   UNL A   1      38.295  31.144  31.573  1.00  0.00     0.074 A 
ATOM     55  C   UNL A   1      42.682  29.270  35.760  1.00  0.00     0.029 A 
ATOM     56  N   UNL A   1      41.433  29.546  33.942  1.00  0.00    -0.354 N 
ATOM     57  N   UNL A   1      39.241  30.706  32.368  1.00  0.00    -0.248 NA
ATOM     58  C   UNL A   1      37.337  32.047  32.225  1.00  0.00     0.031 C 
ATOM     59  C   UNL A   1      41.616  30.117  36.080  1.00  0.00     0.029 A 
ATOM     60  C   UNL A   1      40.856  30.317  34.939  1.00  0.00     0.049 A 
ATOM     61  H   UNL A   1      41.102  29.479  33.017  1.00  0.00     0.167 HD
ATOM     62  C   UNL A   1      39.009  31.299  33.603  1.00  0.00     0.074 A 
ATOM     63  C   UNL A   1      37.848  32.149  33.442  1.00  0.00     0.031 C 
ATOM     64  C   UNL A   1      39.694  31.153  34.767  1.00  0.00     0.037 A 
BRANCH  51  65
ATOM     65  C   UNL A   1      44.498  27.277  34.379  1.00  0.00     0.064 A 
ATOM     66  C   UNL A   1      45.782  27.840  34.446  1.00  0.00     0.173 A 
ATOM     67  C   UNL A   1      44.292  26.041  35.013  1.00  0.00     0.173 A 
ATOM     68  F   UNL A   1      46.040  29.010  33.843  1.00  0.00    -0.203 F 
ATOM     69  C   UNL A   1      46.823  27.178  35.095  1.00  0.00     0.198 A 
ATOM     70  C   UNL A   1      45.325  25.399  35.689  1.00  0.00     0.198 A 
ATOM     71  F   UNL A   1      43.084  25.459  34.983  1.00  0.00    -0.203 F 
ATOM     72  F   UNL A   1      48.054  27.708  35.099  1.00  0.00    -0.200 F 
ATOM     73  C   UNL A   1      46.592  25.962  35.723  1.00  0.00     0.200 A 
ATOM     74  F   UNL A   1      45.097  24.231  36.305  1.00  0.00    -0.200 F 
ATOM     75  F   UNL A   1      47.592  25.330  36.352  1.00  0.00    -0.200 F 
ENDBRANCH  51  65
BRANCH  52  76
ATOM     76  C   UNL A   1      36.927  31.478  29.381  1.00  0.00     0.064 A 
ATOM     77  C   UNL A   1      36.905  32.846  29.079  1.00  0.00     0.173 A 
ATOM     78  C   UNL A   1      35.819  30.709  28.994  1.00  0.00     0.173 A 
ATOM     79  F   UNL A   1      37.926  33.632  29.454  1.00  0.00    -0.203 F 
ATOM     80  C   UNL A   1      35.812  33.425  28.438  1.00  0.00     0.198 A 
ATOM     81  C   UNL A   1      34.741  31.281  28.323  1.00  0.00     0.198 A 
ATOM     82  F   UNL A   1      35.784  29.396  29.268  1.00  0.00    -0.203 F 
ATOM     83  F   UNL A   1      35.791  34.747  28.214  1.00  0.00    -0.200 F 
ATOM     84  C   UNL A   1      34.734  32.641  28.053  1.00  0.00     0.200 A 
ATOM     85  F   UNL A   1      33.706  30.519  27.946  1.00  0.00    -0.200 F 
ATOM     86  F   UNL A   1      33.684  33.199  27.436  1.00  0.00    -0.200 F 
ENDBRANCH  52  76
BRANCH  64  87
ATOM     87  C   UNL A   1      39.218  31.959  35.945  1.00  0.00     0.064 A 
ATOM     88  C   UNL A   1      38.276  31.456  36.856  1.00  0.00     0.173 A 
ATOM     89  C   UNL A   1      39.709  33.256  36.162  1.00  0.00     0.173 A 
ATOM     90  F   UNL A   1      37.767  30.227  36.692  1.00  0.00    -0.203 F 
ATOM     91  C   UNL A   1      37.805  32.241  37.906  1.00  0.00     0.198 A 
ATOM     92  C   UNL A   1      39.265  34.022  37.237  1.00  0.00     0.198 A 
ATOM     93  F   UNL A   1      40.621  33.783  35.332  1.00  0.00    -0.203 F 
ATOM     94  F   UNL A   1      36.847  31.767  38.716  1.00  0.00    -0.200 F 
ATOM     95  C   UNL A   1      38.302  33.521  38.097  1.00  0.00     0.200 A 
ATOM     96  F   UNL A   1      39.762  35.252  37.431  1.00  0.00    -0.200 F 
ATOM     97  F   UNL A   1      37.843  34.276  39.104  1.00  0.00    -0.200 F 
ENDBRANCH  64  87
ENDBRANCH  38  39
ENDBRANCH  31  33
ENDBRANCH  30  31
ENDBRANCH  29  30
ENDBRANCH  28  29
ENDBRANCH  27  28
ENDBRANCH  26  27
ENDBRANCH  25  26
ENDBRANCH  24  25
ENDBRANCH  23  24
ENDBRANCH   1  23
TORSDOF 25
ENDMDL
MODEL 2
REMARK VINA RESULT:      -9.7      3.324      8.748
REMARK SMILES COCCCC(=O)N[C@H]1CC[C@@H](C(=O)OCCOCCOCCOCCOC(=O)c2ccc(-c3c4nc(c(-c5c(F)c(F)c(F)c(F)c5F)c5ccc([nH]5)c(-c5c(F)c(F)c(F)c(F)c5F)c5nc(c(-c6c(F)c(F)c(F)c(F)c6F)c6ccc3[nH]6)C=C5)C=C4)cc2)CC1
REMARK SMILES IDX 19 1 18 2 17 3 16 4 15 5 13 6 14 7 12 8 9 9 10 10 94 11
REMARK SMILES IDX 11 12 93 13 8 14 6 15 7 16 5 18 4 19 3 20 2 21 1 22 20 23
REMARK SMILES IDX 21 24 22 25 23 26 24 27 25 28 26 29 27 30 28 31 29 32 30 33
REMARK SMILES IDX 31 34 92 35 32 36 91 37 33 38 34 39 35 40 85 41 36 42 90 43
REMARK SMILES IDX 84 44 86 45 37 46 89 47 83 48 82 49 38 51 70 52 50 53 69 54
REMARK SMILES IDX 51 55 54 56 68 57 87 58 52 59 53 60 67 62 88 63 55 64 39 65
REMARK SMILES IDX 40 66 48 67 41 68 42 69 46 70 49 71 43 72 44 73 47 74 45 75
REMARK SMILES IDX 71 76 72 77 80 78 73 79 74 80 78 81 81 82 75 83 76 84 79 85
REMARK SMILES IDX 77 86 56 87 57 88 65 89 58 90 59 91 63 92 66 93 60 94 61 95
REMARK SMILES IDX 64 96 62 97
REMARK H PARENT 8 17 86 50 54 61
REMARK Flexibility Score: inf
ROOT
ATOM      1  C   UNL A   1      30.987  27.297  22.650  1.00  0.00     0.188 C 
ENDROOT
BRANCH   1   2
ATOM      2  O   UNL A   1      31.402  26.435  21.614  1.00  0.00    -0.376 OA
BRANCH   2   3
ATOM      3  C   UNL A   1      32.742  25.967  21.578  1.00  0.00     0.202 C 
BRANCH   3   4
ATOM      4  C   UNL A   1      33.295  24.911  22.555  1.00  0.00     0.261 C 
BRANCH   4   5
ATOM      5  O   UNL A   1      33.522  25.309  23.930  1.00  0.00    -0.463 OA
BRANCH   5   6
ATOM      6  C   UNL A   1      34.406  24.572  24.649  1.00  0.00     0.309 C 
ATOM      7  O   UNL A   1      35.503  24.229  24.217  1.00  0.00    -0.252 OA
BRANCH   6   8
ATOM      8  C   UNL A   1      33.952  24.137  26.055  1.00  0.00     0.099 C 
ATOM      9  C   UNL A   1      32.696  21.391  26.066  1.00  0.00     0.082 C 
ATOM     10  C   UNL A   1      34.207  21.565  26.192  1.00  0.00     0.026 C 
ATOM     11  C   UNL A   1      31.921  22.664  25.723  1.00  0.00     0.026 C 
ATOM     12  C   UNL A   1      34.762  22.945  26.567  1.00  0.00     0.017 C 
ATOM     13  C   UNL A   1      32.489  23.890  26.404  1.00  0.00     0.017 C 
BRANCH   9  14
ATOM     14  N   UNL A   1      32.220  20.314  25.177  1.00  0.00    -0.353 N 
ATOM     15  C   UNL A   1      32.810  19.437  24.319  1.00  0.00     0.220 C 
ATOM     16  O   UNL A   1      32.168  19.130  23.309  1.00  0.00    -0.275 OA
ATOM     17  H   UNL A   1      31.243  20.201  25.213  1.00  0.00     0.163 HD
BRANCH  15  18
ATOM     18  C   UNL A   1      34.130  18.743  24.607  1.00  0.00     0.102 C 
BRANCH  18  19
ATOM     19  C   UNL A   1      34.276  17.350  23.989  1.00  0.00     0.038 C 
BRANCH  19  20
ATOM     20  C   UNL A   1      33.664  16.175  24.758  1.00  0.00     0.160 C 
BRANCH  20  21
ATOM     21  O   UNL A   1      34.615  15.239  25.248  1.00  0.00    -0.385 OA
ATOM     22  C   UNL A   1      35.908  15.763  25.508  1.00  0.00     0.194 C 
ENDBRANCH  20  21
ENDBRANCH  19  20
ENDBRANCH  18  19
ENDBRANCH  15  18
ENDBRANCH   9  14
ENDBRANCH   6   8
ENDBRANCH   5   6
ENDBRANCH   4   5
ENDBRANCH   3   4
ENDBRANCH   2   3
ENDBRANCH   1   2
BRANCH   1  23
ATOM     23  C   UNL A   1      31.476  28.747  22.634  1.00  0.00     0.188 C 
BRANCH  23  24
ATOM     24  O   UNL A   1      32.666  29.037  23.343  1.00  0.00    -0.377 OA
BRANCH  24  25
ATOM     25  C   UNL A   1      32.643  29.261  24.747  1.00  0.00     0.188 C 
BRANCH  25  26
ATOM     26  C   UNL A   1      31.452  29.974  25.403  1.00  0.00     0.188 C 
BRANCH  26  27
ATOM     27  O   UNL A   1      31.806  30.980  26.335  1.00  0.00    -0.376 OA
BRANCH  27  28
ATOM     28  C   UNL A   1      32.941  30.782  27.166  1.00  0.00     0.202 C 
BRANCH  28  29
ATOM     29  C   UNL A   1      33.659  32.022  27.729  1.00  0.00     0.261 C 
BRANCH  29  30
ATOM     30  O   UNL A   1      33.006  33.287  27.525  1.00  0.00    -0.460 OA
BRANCH  30  31
ATOM     31  C   UNL A   1      33.220  34.256  28.438  1.00  0.00     0.338 C 
ATOM     32  O   UNL A   1      32.519  35.219  28.673  1.00  0.00    -0.246 OA
BRANCH  31  33
ATOM     33  C   UNL A   1      34.379  33.863  29.264  1.00  0.00     0.060 A 
ATOM     34  C   UNL A   1      35.655  34.252  28.838  1.00  0.00     0.016 A 
ATOM     35  C   UNL A   1      34.220  33.078  30.408  1.00  0.00     0.016 A 
ATOM     36  C   UNL A   1      36.780  33.802  29.521  1.00  0.00     0.010 A 
ATOM     37  C   UNL A   1      35.353  32.612  31.084  1.00  0.00     0.010 A 
ATOM     38  C   UNL A   1      36.638  32.934  30.613  1.00  0.00    -0.014 A 
BRANCH  38  39
ATOM     39  C   UNL A   1      37.844  32.230  31.112  1.00  0.00     0.031 A 
ATOM     40  C   UNL A   1      38.340  32.539  32.499  1.00  0.00     0.074 A 
ATOM     41  C   UNL A   1      38.427  31.263  30.384  1.00  0.00     0.049 A 
ATOM     42  N   UNL A   1      39.314  31.990  33.178  1.00  0.00    -0.248 NA
ATOM     43  C   UNL A   1      37.632  33.608  33.222  1.00  0.00     0.031 C 
ATOM     44  C   UNL A   1      38.017  30.855  29.042  1.00  0.00     0.029 A 
ATOM     45  N   UNL A   1      39.483  30.438  30.682  1.00  0.00    -0.354 N 
ATOM     46  C   UNL A   1      39.337  32.644  34.403  1.00  0.00     0.074 A 
ATOM     47  C   UNL A   1      38.304  33.656  34.363  1.00  0.00     0.031 C 
ATOM     48  C   UNL A   1      38.809  29.850  28.633  1.00  0.00     0.029 A 
ATOM     49  C   UNL A   1      39.795  29.562  29.672  1.00  0.00     0.049 A 
ATOM     50  H   UNL A   1      39.969  30.472  31.537  1.00  0.00     0.167 HD
ATOM     51  C   UNL A   1      40.138  32.414  35.470  1.00  0.00     0.037 A 
ATOM     52  C   UNL A   1      40.773  28.639  29.598  1.00  0.00     0.037 A 
ATOM     53  C   UNL A   1      41.170  31.408  35.504  1.00  0.00     0.049 A 
ATOM     54  C   UNL A   1      41.687  28.439  30.780  1.00  0.00     0.074 A 
ATOM     55  C   UNL A   1      42.029  31.086  36.540  1.00  0.00     0.029 A 
ATOM     56  N   UNL A   1      41.488  30.568  34.447  1.00  0.00    -0.354 N 
ATOM     57  N   UNL A   1      41.683  29.040  31.946  1.00  0.00    -0.248 NA
ATOM     58  C   UNL A   1      42.735  27.419  30.637  1.00  0.00     0.031 C 
ATOM     59  C   UNL A   1      42.907  30.095  36.088  1.00  0.00     0.029 A 
ATOM     60  C   UNL A   1      42.550  29.748  34.795  1.00  0.00     0.049 A 
ATOM     61  H   UNL A   1      41.027  30.556  33.577  1.00  0.00     0.167 HD
ATOM     62  C   UNL A   1      42.706  28.455  32.682  1.00  0.00     0.074 A 
ATOM     63  C   UNL A   1      43.291  27.433  31.840  1.00  0.00     0.031 C 
ATOM     64  C   UNL A   1      43.127  28.739  33.942  1.00  0.00     0.037 A 
BRANCH  51  65
ATOM     65  C   UNL A   1      39.956  33.292  36.677  1.00  0.00     0.064 A 
ATOM     66  C   UNL A   1      40.695  34.471  36.856  1.00  0.00     0.173 A 
ATOM     67  C   UNL A   1      39.009  32.959  37.657  1.00  0.00     0.173 A 
ATOM     68  F   UNL A   1      41.627  34.829  35.960  1.00  0.00    -0.203 F 
ATOM     69  C   UNL A   1      40.513  35.267  37.986  1.00  0.00     0.198 A 
ATOM     70  C   UNL A   1      38.806  33.773  38.767  1.00  0.00     0.198 A 
ATOM     71  F   UNL A   1      38.273  31.844  37.534  1.00  0.00    -0.203 F 
ATOM     72  F   UNL A   1      41.269  36.359  38.164  1.00  0.00    -0.200 F 
ATOM     73  C   UNL A   1      39.563  34.922  38.936  1.00  0.00     0.200 A 
ATOM     74  F   UNL A   1      37.878  33.444  39.677  1.00  0.00    -0.200 F 
ATOM     75  F   UNL A   1      39.385  35.692  40.018  1.00  0.00    -0.200 F 
ENDBRANCH  51  65
BRANCH  52  76
ATOM     76  C   UNL A   1      40.943  27.834  28.359  1.00  0.00     0.064 A 
ATOM     77  C   UNL A   1      40.308  26.595  28.199  1.00  0.00     0.173 A 
ATOM     78  C   UNL A   1      41.768  28.282  27.315  1.00  0.00     0.173 A 
ATOM     79  F   UNL A   1      39.533  26.108  29.179  1.00  0.00    -0.203 F 
ATOM     80  C   UNL A   1      40.508  25.826  27.055  1.00  0.00     0.198 A 
ATOM     81  C   UNL A   1      41.940  27.528  26.157  1.00  0.00     0.198 A 
ATOM     82  F   UNL A   1      42.407  29.456  27.422  1.00  0.00    -0.203 F 
ATOM     83  F   UNL A   1      39.935  24.618  26.953  1.00  0.00    -0.200 F 
ATOM     84  C   UNL A   1      41.317  26.295  26.030  1.00  0.00     0.200 A 
ATOM     85  F   UNL A   1      42.717  27.989  25.167  1.00  0.00    -0.200 F 
ATOM     86  F   UNL A   1      41.508  25.555  24.930  1.00  0.00    -0.200 F 
ENDBRANCH  52  76
BRANCH  64  87
ATOM     87  C   UNL A   1      44.253  27.905  34.490  1.00  0.00     0.064 A 
ATOM     88  C   UNL A   1      45.595  28.297  34.366  1.00  0.00     0.173 A 
ATOM     89  C   UNL A   1      43.984  26.693  35.146  1.00  0.00     0.173 A 
ATOM     90  F   UNL A   1      45.910  29.441  33.741  1.00  0.00    -0.203 F 
ATOM     91  C   UNL A   1      46.626  27.481  34.828  1.00  0.00     0.198 A 
ATOM     92  C   UNL A   1      45.016  25.900  35.643  1.00  0.00     0.198 A 
ATOM     93  F   UNL A   1      42.720  26.275  35.306  1.00  0.00    -0.203 F 
ATOM     94  F   UNL A   1      47.902  27.840  34.627  1.00  0.00    -0.200 F 
ATOM     95  C   UNL A   1      46.335  26.287  35.469  1.00  0.00     0.200 A 
ATOM     96  F   UNL A   1      44.731  24.755  36.279  1.00  0.00    -0.200 F 
ATOM     97  F   UNL A   1      47.328  25.501  35.907  1.00  0.00    -0.200 F 
ENDBRANCH  64  87
ENDBRANCH  38  39
ENDBRANCH  31  33
ENDBRANCH  30  31
ENDBRANCH  29  30
ENDBRANCH  28  29
ENDBRANCH  27  28
ENDBRANCH  26  27
ENDBRANCH  25  26
ENDBRANCH  24  25
ENDBRANCH  23  24
ENDBRANCH   1  23
TORSDOF 25
ENDMDL
MODEL 3
REMARK VINA RESULT:      -9.6      3.841      9.396
REMARK SMILES COCCCC(=O)N[C@H]1CC[C@@H](C(=O)OCCOCCOCCOCCOC(=O)c2ccc(-c3c4nc(c(-c5c(F)c(F)c(F)c(F)c5F)c5ccc([nH]5)c(-c5c(F)c(F)c(F)c(F)c5F)c5nc(c(-c6c(F)c(F)c(F)c(F)c6F)c6ccc3[nH]6)C=C5)C=C4)cc2)CC1
REMARK SMILES IDX 19 1 18 2 17 3 16 4 15 5 13 6 14 7 12 8 9 9 10 10 94 11
REMARK SMILES IDX 11 12 93 13 8 14 6 15 7 16 5 18 4 19 3 20 2 21 1 22 20 23
REMARK SMILES IDX 21 24 22 25 23 26 24 27 25 28 26 29 27 30 28 31 29 32 30 33
REMARK SMILES IDX 31 34 92 35 32 36 91 37 33 38 34 39 35 40 85 41 36 42 90 43
REMARK SMILES IDX 84 44 86 45 37 46 89 47 83 48 82 49 38 51 70 52 50 53 69 54
REMARK SMILES IDX 51 55 54 56 68 57 87 58 52 59 53 60 67 62 88 63 55 64 39 65
REMARK SMILES IDX 40 66 48 67 41 68 42 69 46 70 49 71 43 72 44 73 47 74 45 75
REMARK SMILES IDX 71 76 72 77 80 78 73 79 74 80 78 81 81 82 75 83 76 84 79 85
REMARK SMILES IDX 77 86 56 87 57 88 65 89 58 90 59 91 63 92 66 93 60 94 61 95
REMARK SMILES IDX 64 96 62 97
REMARK H PARENT 8 17 86 50 54 61
REMARK Flexibility Score: inf
ROOT
ATOM      1  C   UNL A   1      30.872  27.534  22.582  1.00  0.00     0.188 C 
ENDROOT
BRANCH   1   2
ATOM      2  O   UNL A   1      31.113  26.698  21.472  1.00  0.00    -0.376 OA
BRANCH   2   3
ATOM      3  C   UNL A   1      32.213  25.801  21.488  1.00  0.00     0.202 C 
BRANCH   3   4
ATOM      4  C   UNL A   1      33.243  25.747  22.633  1.00  0.00     0.261 C 
BRANCH   4   5
ATOM      5  O   UNL A   1      34.429  24.935  22.444  1.00  0.00    -0.463 OA
BRANCH   5   6
ATOM      6  C   UNL A   1      34.357  23.636  22.828  1.00  0.00     0.309 C 
ATOM      7  O   UNL A   1      33.599  22.822  22.305  1.00  0.00    -0.252 OA
BRANCH   6   8
ATOM      8  C   UNL A   1      35.261  23.217  24.002  1.00  0.00     0.099 C 
ATOM      9  C   UNL A   1      33.679  22.327  26.416  1.00  0.00     0.082 C 
ATOM     10  C   UNL A   1      34.029  21.346  25.299  1.00  0.00     0.026 C 
ATOM     11  C   UNL A   1      33.993  23.793  26.116  1.00  0.00     0.026 C 
ATOM     12  C   UNL A   1      35.136  21.723  24.306  1.00  0.00     0.017 C 
ATOM     13  C   UNL A   1      35.275  23.963  25.331  1.00  0.00     0.017 C 
BRANCH   9  14
ATOM     14  N   UNL A   1      32.310  22.255  26.962  1.00  0.00    -0.353 N 
ATOM     15  C   UNL A   1      31.123  22.857  26.676  1.00  0.00     0.220 C 
ATOM     16  O   UNL A   1      30.371  23.082  27.630  1.00  0.00    -0.275 OA
ATOM     17  H   UNL A   1      32.238  21.620  27.710  1.00  0.00     0.163 HD
BRANCH  15  18
ATOM     18  C   UNL A   1      30.644  23.136  25.262  1.00  0.00     0.102 C 
BRANCH  18  19
ATOM     19  C   UNL A   1      30.758  24.597  24.818  1.00  0.00     0.038 C 
BRANCH  19  20
ATOM     20  C   UNL A   1      29.832  25.611  25.497  1.00  0.00     0.160 C 
BRANCH  20  21
ATOM     21  O   UNL A   1      30.410  26.273  26.614  1.00  0.00    -0.385 OA
ATOM     22  C   UNL A   1      31.811  26.482  26.540  1.00  0.00     0.194 C 
ENDBRANCH  20  21
ENDBRANCH  19  20
ENDBRANCH  18  19
ENDBRANCH  15  18
ENDBRANCH   9  14
ENDBRANCH   6   8
ENDBRANCH   5   6
ENDBRANCH   4   5
ENDBRANCH   3   4
ENDBRANCH   2   3
ENDBRANCH   1   2
BRANCH   1  23
ATOM     23  C   UNL A   1      31.288  29.003  22.494  1.00  0.00     0.188 C 
BRANCH  23  24
ATOM     24  O   UNL A   1      32.467  29.384  23.178  1.00  0.00    -0.377 OA
BRANCH  24  25
ATOM     25  C   UNL A   1      32.566  29.255  24.590  1.00  0.00     0.188 C 
BRANCH  25  26
ATOM     26  C   UNL A   1      31.519  29.904  25.507  1.00  0.00     0.188 C 
BRANCH  26  27
ATOM     27  O   UNL A   1      31.938  31.110  26.121  1.00  0.00    -0.376 OA
BRANCH  27  28
ATOM     28  C   UNL A   1      32.627  31.049  27.362  1.00  0.00     0.202 C 
BRANCH  28  29
ATOM     29  C   UNL A   1      33.743  32.075  27.628  1.00  0.00     0.261 C 
BRANCH  29  30
ATOM     30  O   UNL A   1      33.434  33.448  27.332  1.00  0.00    -0.460 OA
BRANCH  30  31
ATOM     31  C   UNL A   1      33.370  34.313  28.365  1.00  0.00     0.338 C 
ATOM     32  O   UNL A   1      32.530  35.166  28.565  1.00  0.00    -0.246 OA
BRANCH  31  33
ATOM     33  C   UNL A   1      34.406  33.934  29.346  1.00  0.00     0.060 A 
ATOM     34  C   UNL A   1      35.745  34.175  29.018  1.00  0.00     0.016 A 
ATOM     35  C   UNL A   1      34.070  33.301  30.546  1.00  0.00     0.016 A 
ATOM     36  C   UNL A   1      36.757  33.726  29.861  1.00  0.00     0.010 A 
ATOM     37  C   UNL A   1      35.089  32.836  31.384  1.00  0.00     0.010 A 
ATOM     38  C   UNL A   1      36.436  33.004  31.020  1.00  0.00    -0.014 A 
BRANCH  38  39
ATOM     39  C   UNL A   1      37.524  32.277  31.716  1.00  0.00     0.031 A 
ATOM     40  C   UNL A   1      38.241  31.174  30.984  1.00  0.00     0.074 A 
ATOM     41  C   UNL A   1      37.936  32.657  32.937  1.00  0.00     0.049 A 
ATOM     42  N   UNL A   1      39.274  30.461  31.353  1.00  0.00    -0.248 NA
ATOM     43  C   UNL A   1      37.723  30.834  29.648  1.00  0.00     0.031 C 
ATOM     44  C   UNL A   1      37.341  33.730  33.730  1.00  0.00     0.029 A 
ATOM     45  N   UNL A   1      38.963  32.188  33.717  1.00  0.00    -0.354 N 
ATOM     46  C   UNL A   1      39.531  29.593  30.299  1.00  0.00     0.074 A 
ATOM     47  C   UNL A   1      38.523  29.840  29.292  1.00  0.00     0.031 C 
ATOM     48  C   UNL A   1      38.019  33.845  34.884  1.00  0.00     0.029 A 
ATOM     49  C   UNL A   1      39.077  32.837  34.922  1.00  0.00     0.049 A 
ATOM     50  H   UNL A   1      39.561  31.457  33.440  1.00  0.00     0.167 HD
ATOM     51  C   UNL A   1      40.524  28.680  30.178  1.00  0.00     0.037 A 
ATOM     52  C   UNL A   1      39.935  32.631  35.939  1.00  0.00     0.037 A 
ATOM     53  C   UNL A   1      41.523  28.435  31.188  1.00  0.00     0.049 A 
ATOM     54  C   UNL A   1      40.999  31.572  35.800  1.00  0.00     0.074 A 
ATOM     55  C   UNL A   1      42.579  27.541  31.158  1.00  0.00     0.029 A 
ATOM     56  N   UNL A   1      41.581  29.080  32.415  1.00  0.00    -0.354 N 
ATOM     57  N   UNL A   1      41.254  30.776  34.790  1.00  0.00    -0.248 NA
ATOM     58  C   UNL A   1      41.904  31.394  36.945  1.00  0.00     0.031 C 
ATOM     59  C   UNL A   1      43.237  27.601  32.391  1.00  0.00     0.029 A 
ATOM     60  C   UNL A   1      42.637  28.583  33.162  1.00  0.00     0.049 A 
ATOM     61  H   UNL A   1      40.963  29.787  32.710  1.00  0.00     0.167 HD
ATOM     62  C   UNL A   1      42.360  30.023  35.165  1.00  0.00     0.074 A 
ATOM     63  C   UNL A   1      42.743  30.478  36.484  1.00  0.00     0.031 C 
ATOM     64  C   UNL A   1      43.002  29.041  34.480  1.00  0.00     0.037 A 
BRANCH  51  65
ATOM     65  C   UNL A   1      40.556  27.853  28.924  1.00  0.00     0.064 A 
ATOM     66  C   UNL A   1      39.830  26.658  28.802  1.00  0.00     0.173 A 
ATOM     67  C   UNL A   1      41.308  28.276  27.817  1.00  0.00     0.173 A 
ATOM     68  F   UNL A   1      39.108  26.197  29.835  1.00  0.00    -0.203 F 
ATOM     69  C   UNL A   1      39.880  25.905  27.631  1.00  0.00     0.198 A 
ATOM     70  C   UNL A   1      41.329  27.539  26.637  1.00  0.00     0.198 A 
ATOM     71  F   UNL A   1      42.019  29.412  27.877  1.00  0.00    -0.203 F 
ATOM     72  F   UNL A   1      39.222  24.739  27.557  1.00  0.00    -0.200 F 
ATOM     73  C   UNL A   1      40.622  26.349  26.547  1.00  0.00     0.200 A 
ATOM     74  F   UNL A   1      42.036  27.977  25.586  1.00  0.00    -0.200 F 
ATOM     75  F   UNL A   1      40.663  25.626  25.419  1.00  0.00    -0.200 F 
ENDBRANCH  51  65
BRANCH  52  76
ATOM     76  C   UNL A   1      39.825  33.443  37.180  1.00  0.00     0.064 A 
ATOM     77  C   UNL A   1      38.916  33.108  38.194  1.00  0.00     0.173 A 
ATOM     78  C   UNL A   1      40.613  34.589  37.366  1.00  0.00     0.173 A 
ATOM     79  F   UNL A   1      38.118  32.039  38.052  1.00  0.00    -0.203 F 
ATOM     80  C   UNL A   1      38.786  33.899  39.334  1.00  0.00     0.198 A 
ATOM     81  C   UNL A   1      40.506  35.360  38.521  1.00  0.00     0.198 A 
ATOM     82  F   UNL A   1      41.490  34.960  36.422  1.00  0.00    -0.203 F 
ATOM     83  F   UNL A   1      37.868  33.588  40.261  1.00  0.00    -0.200 F 
ATOM     84  C   UNL A   1      39.586  35.019  39.501  1.00  0.00     0.200 A 
ATOM     85  F   UNL A   1      41.285  36.437  38.682  1.00  0.00    -0.200 F 
ATOM     86  F   UNL A   1      39.460  35.778  40.598  1.00  0.00    -0.200 F 
ENDBRANCH  52  76
BRANCH  64  87
ATOM     87  C   UNL A   1      44.204  28.422  35.139  1.00  0.00     0.064 A 
ATOM     88  C   UNL A   1      45.498  28.933  34.953  1.00  0.00     0.173 A 
ATOM     89  C   UNL A   1      44.059  27.296  35.966  1.00  0.00     0.173 A 
ATOM     90  F   UNL A   1      45.695  30.000  34.165  1.00  0.00    -0.203 F 
ATOM     91  C   UNL A   1      46.605  28.309  35.525  1.00  0.00     0.198 A 
ATOM     92  C   UNL A   1      45.164  26.701  36.569  1.00  0.00     0.198 A 
ATOM     93  F   UNL A   1      42.846  26.773  36.192  1.00  0.00    -0.203 F 
ATOM     94  F   UNL A   1      47.837  28.770  35.268  1.00  0.00    -0.200 F 
ATOM     95  C   UNL A   1      46.436  27.197  36.335  1.00  0.00     0.200 A 
ATOM     96  F   UNL A   1      44.997  25.637  37.368  1.00  0.00    -0.200 F 
ATOM     97  F   UNL A   1      47.503  26.595  36.879  1.00  0.00    -0.200 F 
ENDBRANCH  64  87
ENDBRANCH  38  39
ENDBRANCH  31  33
ENDBRANCH  30  31
ENDBRANCH  29  30
ENDBRANCH  28  29
ENDBRANCH  27  28
ENDBRANCH  26  27
ENDBRANCH  25  26
ENDBRANCH  24  25
ENDBRANCH  23  24
ENDBRANCH   1  23
TORSDOF 25
ENDMDL
