MODEL 1
REMARK VINA RESULT:     -11.2      0.000      0.000
REMARK SMILES O=C(OCCOCCOCCOCCOC(=O)[C@@H]1CC2(CC[NH2+]CC2)C[N@H+]1Cc1cccc2nonc12)c1ccc(-c2c3nc(c(-c4c(F)c(F)c(F)c(F)c4F)c4ccc([nH]4)c(-c4c(F)c(F)c(F)c(F)c4F)c4nc(c(-c5c(F)c(F)c(F)c(F)c5F)c5ccc2[nH]5)C=C4)C=C3)cc1
REMARK SMILES IDX 9 1 8 2 7 3 6 4 5 5 4 6 3 7 2 8 1 9 38 10 39 11 100 12 40 13
REMARK SMILES IDX 99 14 41 15 42 16 43 17 93 18 44 19 98 20 92 21 94 22 45 23
REMARK SMILES IDX 97 24 91 25 90 26 46 28 78 29 58 30 77 31 59 32 62 33 76 34
REMARK SMILES IDX 95 35 60 36 61 37 75 39 96 40 63 41 47 42 48 43 56 44 49 45
REMARK SMILES IDX 50 46 54 47 57 48 51 49 52 50 55 51 53 52 79 53 80 54 88 55
REMARK SMILES IDX 81 56 82 57 86 58 89 59 83 60 84 61 87 62 85 63 64 64 65 65
REMARK SMILES IDX 73 66 66 67 67 68 71 69 74 70 68 71 69 72 72 73 70 74 10 75
REMARK SMILES IDX 11 76 12 77 13 78 14 79 15 80 16 81 17 82 18 83 19 84 27 85
REMARK SMILES IDX 20 86 26 87 21 89 25 90 22 91 24 92 23 93 28 96 29 97 30 98
REMARK SMILES IDX 37 99 31 100 33 101 36 102 32 103 34 104 35 105
REMARK H PARENT 94 27 62 38 27 88 23 94 23 95
REMARK Flexibility Score: inf
ROOT
ATOM      1  O   UNL A   1      32.792  22.517  24.885  1.00  0.00    -0.377 OA
ENDROOT
BRANCH   1   2
ATOM      2  C   UNL A   1      32.805  21.380  24.023  1.00  0.00     0.188 C 
BRANCH   2   3
ATOM      3  C   UNL A   1      33.066  20.055  24.733  1.00  0.00     0.188 C 
BRANCH   3   4
ATOM      4  O   UNL A   1      34.441  19.847  25.040  1.00  0.00    -0.376 OA
BRANCH   4   5
ATOM      5  C   UNL A   1      35.373  20.822  24.595  1.00  0.00     0.202 C 
BRANCH   5   6
ATOM      6  C   UNL A   1      36.700  20.776  25.353  1.00  0.00     0.261 C 
BRANCH   6   7
ATOM      7  O   UNL A   1      37.403  22.002  25.105  1.00  0.00    -0.460 OA
BRANCH   7   8
ATOM      8  C   UNL A   1      37.210  22.956  26.052  1.00  0.00     0.338 C 
ATOM      9  O   UNL A   1      36.134  23.347  26.469  1.00  0.00    -0.246 OA
BRANCH   8  10
ATOM     10  C   UNL A   1      38.511  23.556  26.437  1.00  0.00     0.060 A 
ATOM     11  C   UNL A   1      39.671  22.774  26.421  1.00  0.00     0.016 A 
ATOM     12  C   UNL A   1      38.573  24.865  26.916  1.00  0.00     0.016 A 
ATOM     13  C   UNL A   1      40.900  23.335  26.790  1.00  0.00     0.010 A 
ATOM     14  C   UNL A   1      39.780  25.398  27.340  1.00  0.00     0.010 A 
ATOM     15  C   UNL A   1      40.969  24.669  27.216  1.00  0.00    -0.014 A 
BRANCH  15  16
ATOM     16  C   UNL A   1      42.267  25.375  27.311  1.00  0.00     0.031 A 
ATOM     17  C   UNL A   1      42.195  26.799  27.753  1.00  0.00     0.074 A 
ATOM     18  C   UNL A   1      43.470  24.816  27.546  1.00  0.00     0.049 A 
ATOM     19  N   UNL A   1      42.300  27.127  29.010  1.00  0.00    -0.248 NA
ATOM     20  C   UNL A   1      41.721  27.878  26.891  1.00  0.00     0.031 C 
ATOM     21  C   UNL A   1      43.686  23.589  28.310  1.00  0.00     0.029 A 
ATOM     22  N   UNL A   1      44.724  25.366  27.405  1.00  0.00    -0.354 N 
ATOM     23  C   UNL A   1      41.826  28.415  29.131  1.00  0.00     0.074 A 
ATOM     24  C   UNL A   1      41.512  28.856  27.786  1.00  0.00     0.031 C 
ATOM     25  C   UNL A   1      44.969  23.574  28.735  1.00  0.00     0.029 A 
ATOM     26  C   UNL A   1      45.688  24.681  28.119  1.00  0.00     0.049 A 
ATOM     27  H   UNL A   1      44.913  26.162  26.856  1.00  0.00     0.167 HD
ATOM     28  C   UNL A   1      41.678  29.039  30.329  1.00  0.00     0.037 A 
ATOM     29  C   UNL A   1      46.909  25.147  28.479  1.00  0.00     0.037 A 
ATOM     30  C   UNL A   1      42.070  28.374  31.552  1.00  0.00     0.049 A 
ATOM     31  C   UNL A   1      46.584  26.036  29.650  1.00  0.00     0.074 A 
ATOM     32  C   UNL A   1      41.870  28.568  32.910  1.00  0.00     0.029 A 
ATOM     33  N   UNL A   1      42.916  27.297  31.484  1.00  0.00    -0.354 N 
ATOM     34  N   UNL A   1      46.457  25.655  30.895  1.00  0.00    -0.248 NA
ATOM     35  C   UNL A   1      46.133  27.414  29.375  1.00  0.00     0.031 C 
ATOM     36  C   UNL A   1      42.880  27.821  33.601  1.00  0.00     0.029 A 
ATOM     37  C   UNL A   1      43.665  27.219  32.638  1.00  0.00     0.049 A 
ATOM     38  H   UNL A   1      42.979  26.673  30.726  1.00  0.00     0.167 HD
ATOM     39  C   UNL A   1      45.686  26.650  31.478  1.00  0.00     0.074 A 
ATOM     40  C   UNL A   1      45.620  27.755  30.548  1.00  0.00     0.031 C 
ATOM     41  C   UNL A   1      44.884  26.468  32.559  1.00  0.00     0.037 A 
BRANCH  28  42
ATOM     42  C   UNL A   1      41.337  30.477  30.401  1.00  0.00     0.064 A 
ATOM     43  C   UNL A   1      39.985  30.822  30.555  1.00  0.00     0.173 A 
ATOM     44  C   UNL A   1      42.261  31.496  30.161  1.00  0.00     0.173 A 
ATOM     45  F   UNL A   1      39.071  29.866  30.789  1.00  0.00    -0.203 F 
ATOM     46  C   UNL A   1      39.563  32.139  30.439  1.00  0.00     0.198 A 
ATOM     47  C   UNL A   1      41.836  32.820  30.054  1.00  0.00     0.198 A 
ATOM     48  F   UNL A   1      43.560  31.209  30.002  1.00  0.00    -0.203 F 
ATOM     49  F   UNL A   1      38.262  32.436  30.557  1.00  0.00    -0.200 F 
ATOM     50  C   UNL A   1      40.488  33.138  30.180  1.00  0.00     0.200 A 
ATOM     51  F   UNL A   1      42.726  33.790  29.806  1.00  0.00    -0.200 F 
ATOM     52  F   UNL A   1      40.080  34.408  30.047  1.00  0.00    -0.200 F 
ENDBRANCH  28  42
BRANCH  29  53
ATOM     53  C   UNL A   1      47.802  25.569  27.352  1.00  0.00     0.064 A 
ATOM     54  C   UNL A   1      49.140  25.110  27.347  1.00  0.00     0.173 A 
ATOM     55  C   UNL A   1      47.444  26.423  26.300  1.00  0.00     0.173 A 
ATOM     56  F   UNL A   1      49.608  24.381  28.372  1.00  0.00    -0.203 F 
ATOM     57  C   UNL A   1      50.017  25.391  26.300  1.00  0.00     0.198 A 
ATOM     58  C   UNL A   1      48.315  26.687  25.240  1.00  0.00     0.198 A 
ATOM     59  F   UNL A   1      46.245  27.018  26.270  1.00  0.00    -0.203 F 
ATOM     60  F   UNL A   1      51.267  24.908  26.327  1.00  0.00    -0.200 F 
ATOM     61  C   UNL A   1      49.595  26.159  25.233  1.00  0.00     0.200 A 
ATOM     62  F   UNL A   1      47.902  27.446  24.217  1.00  0.00    -0.200 F 
ATOM     63  F   UNL A   1      50.419  26.400  24.204  1.00  0.00    -0.200 F 
ENDBRANCH  29  53
BRANCH  41  64
ATOM     64  C   UNL A   1      45.217  25.390  33.507  1.00  0.00     0.064 A 
ATOM     65  C   UNL A   1      44.679  24.107  33.331  1.00  0.00     0.173 A 
ATOM     66  C   UNL A   1      46.132  25.588  34.543  1.00  0.00     0.173 A 
ATOM     67  F   UNL A   1      43.827  23.859  32.324  1.00  0.00    -0.203 F 
ATOM     68  C   UNL A   1      45.049  23.059  34.166  1.00  0.00     0.198 A 
ATOM     69  C   UNL A   1      46.519  24.532  35.359  1.00  0.00     0.198 A 
ATOM     70  F   UNL A   1      46.654  26.801  34.761  1.00  0.00    -0.203 F 
ATOM     71  F   UNL A   1      44.534  21.836  33.977  1.00  0.00    -0.200 F 
ATOM     72  C   UNL A   1      45.974  23.270  35.175  1.00  0.00     0.200 A 
ATOM     73  F   UNL A   1      47.438  24.722  36.312  1.00  0.00    -0.200 F 
ATOM     74  F   UNL A   1      46.357  22.255  35.962  1.00  0.00    -0.200 F 
ENDBRANCH  41  64
ENDBRANCH  15  16
ENDBRANCH   8  10
ENDBRANCH   7   8
ENDBRANCH   6   7
ENDBRANCH   5   6
ENDBRANCH   4   5
ENDBRANCH   3   4
ENDBRANCH   2   3
ENDBRANCH   1   2
BRANCH   1  75
ATOM     75  C   UNL A   1      32.164  22.313  26.141  1.00  0.00     0.188 C 
BRANCH  75  76
ATOM     76  C   UNL A   1      30.654  22.612  26.187  1.00  0.00     0.188 C 
BRANCH  76  77
ATOM     77  O   UNL A   1      30.250  23.492  27.231  1.00  0.00    -0.376 OA
BRANCH  77  78
ATOM     78  C   UNL A   1      29.381  24.534  26.779  1.00  0.00     0.202 C 
BRANCH  78  79
ATOM     79  C   UNL A   1      30.145  25.548  25.922  1.00  0.00     0.261 C 
BRANCH  79  80
ATOM     80  O   UNL A   1      31.329  26.051  26.554  1.00  0.00    -0.459 OA
BRANCH  80  81
ATOM     81  C   UNL A   1      31.374  27.368  26.845  1.00  0.00     0.365 C 
ATOM     82  O   UNL A   1      31.394  27.818  27.987  1.00  0.00    -0.245 OA
BRANCH  81  83
ATOM     83  C   UNL A   1      31.470  28.243  25.583  1.00  0.00     0.296 C 
ATOM     84  C   UNL A   1      31.611  27.325  24.354  1.00  0.00     0.091 C 
ATOM     85  N   UNL A   1      32.694  29.077  25.519  1.00  0.00    -0.319 N 
ATOM     86  C   UNL A   1      33.076  27.504  23.916  1.00  0.00     0.036 C 
ATOM     87  C   UNL A   1      33.228  29.006  24.168  1.00  0.00     0.270 C 
ATOM     88  H   UNL A   1      33.376  28.669  26.158  1.00  0.00     0.349 HD
ATOM     89  C   UNL A   1      33.304  27.093  22.457  1.00  0.00     0.074 C 
ATOM     90  C   UNL A   1      34.067  26.704  24.812  1.00  0.00     0.074 C 
ATOM     91  C   UNL A   1      33.268  25.569  22.292  1.00  0.00     0.261 C 
ATOM     92  C   UNL A   1      33.985  25.203  24.569  1.00  0.00     0.261 C 
ATOM     93  N   UNL A   1      34.229  24.888  23.162  1.00  0.00    -0.346 N 
ATOM     94  H   UNL A   1      35.173  25.186  22.913  1.00  0.00     0.346 HD
ATOM     95  H   UNL A   1      34.124  23.881  23.034  1.00  0.00     0.346 HD
BRANCH  85  96
ATOM     96  C   UNL A   1      32.667  30.385  26.160  1.00  0.00     0.302 C 
BRANCH  96  97
ATOM     97  C   UNL A   1      33.832  30.530  27.107  1.00  0.00     0.038 A 
ATOM     98  C   UNL A   1      34.756  29.472  27.316  1.00  0.00     0.012 A 
ATOM     99  C   UNL A   1      34.091  31.649  27.935  1.00  0.00     0.144 A 
ATOM    100  C   UNL A   1      35.801  29.499  28.277  1.00  0.00     0.003 A 
ATOM    101  C   UNL A   1      35.148  31.663  28.941  1.00  0.00     0.135 A 
ATOM    102  N   UNL A   1      33.486  32.840  27.985  1.00  0.00    -0.049 NA
ATOM    103  C   UNL A   1      36.024  30.586  29.135  1.00  0.00     0.034 A 
ATOM    104  N   UNL A   1      35.104  32.830  29.596  1.00  0.00    -0.050 NA
ATOM    105  O   UNL A   1      34.055  33.531  29.032  1.00  0.00    -0.243 OA
ENDBRANCH  96  97
ENDBRANCH  85  96
ENDBRANCH  81  83
ENDBRANCH  80  81
ENDBRANCH  79  80
ENDBRANCH  78  79
ENDBRANCH  77  78
ENDBRANCH  76  77
ENDBRANCH  75  76
ENDBRANCH   1  75
TORSDOF 22
ENDMDL
MODEL 2
REMARK VINA RESULT:     -11.1      3.978      9.625
REMARK SMILES O=C(OCCOCCOCCOCCOC(=O)[C@@H]1CC2(CC[NH2+]CC2)C[N@H+]1Cc1cccc2nonc12)c1ccc(-c2c3nc(c(-c4c(F)c(F)c(F)c(F)c4F)c4ccc([nH]4)c(-c4c(F)c(F)c(F)c(F)c4F)c4nc(c(-c5c(F)c(F)c(F)c(F)c5F)c5ccc2[nH]5)C=C4)C=C3)cc1
REMARK SMILES IDX 9 1 8 2 7 3 6 4 5 5 4 6 3 7 2 8 1 9 38 10 39 11 100 12 40 13
REMARK SMILES IDX 99 14 41 15 42 16 43 17 93 18 44 19 98 20 92 21 94 22 45 23
REMARK SMILES IDX 97 24 91 25 90 26 46 28 78 29 58 30 77 31 59 32 62 33 76 34
REMARK SMILES IDX 95 35 60 36 61 37 75 39 96 40 63 41 47 42 48 43 56 44 49 45
REMARK SMILES IDX 50 46 54 47 57 48 51 49 52 50 55 51 53 52 79 53 80 54 88 55
REMARK SMILES IDX 81 56 82 57 86 58 89 59 83 60 84 61 87 62 85 63 64 64 65 65
REMARK SMILES IDX 73 66 66 67 67 68 71 69 74 70 68 71 69 72 72 73 70 74 10 75
REMARK SMILES IDX 11 76 12 77 13 78 14 79 15 80 16 81 17 82 18 83 19 84 27 85
REMARK SMILES IDX 20 86 26 87 21 89 25 90 22 91 24 92 23 93 28 96 29 97 30 98
REMARK SMILES IDX 37 99 31 100 33 101 36 102 32 103 34 104 35 105
REMARK H PARENT 94 27 62 38 27 88 23 94 23 95
REMARK Flexibility Score: inf
ROOT
ATOM      1  O   UNL A   1      34.275  35.498  28.199  1.00  0.00    -0.377 OA
ENDROOT
BRANCH   1   2
ATOM      2  C   UNL A   1      33.720  36.655  28.822  1.00  0.00     0.188 C 
BRANCH   2   3
ATOM      3  C   UNL A   1      32.793  36.354  29.996  1.00  0.00     0.188 C 
BRANCH   3   4
ATOM      4  O   UNL A   1      32.916  37.293  31.061  1.00  0.00    -0.376 OA
BRANCH   4   5
ATOM      5  C   UNL A   1      34.015  37.145  31.949  1.00  0.00     0.202 C 
BRANCH   5   6
ATOM      6  C   UNL A   1      33.982  35.834  32.734  1.00  0.00     0.261 C 
BRANCH   6   7
ATOM      7  O   UNL A   1      35.137  35.063  32.372  1.00  0.00    -0.460 OA
BRANCH   7   8
ATOM      8  C   UNL A   1      34.886  33.743  32.176  1.00  0.00     0.338 C 
ATOM      9  O   UNL A   1      33.786  33.228  32.075  1.00  0.00    -0.246 OA
BRANCH   8  10
ATOM     10  C   UNL A   1      36.155  32.976  32.220  1.00  0.00     0.060 A 
ATOM     11  C   UNL A   1      37.164  33.246  31.289  1.00  0.00     0.016 A 
ATOM     12  C   UNL A   1      36.311  31.915  33.112  1.00  0.00     0.016 A 
ATOM     13  C   UNL A   1      38.361  32.518  31.321  1.00  0.00     0.010 A 
ATOM     14  C   UNL A   1      37.471  31.158  33.103  1.00  0.00     0.010 A 
ATOM     15  C   UNL A   1      38.539  31.491  32.259  1.00  0.00    -0.014 A 
BRANCH  15  16
ATOM     16  C   UNL A   1      39.880  30.924  32.526  1.00  0.00     0.031 A 
ATOM     17  C   UNL A   1      40.180  29.632  31.841  1.00  0.00     0.074 A 
ATOM     18  C   UNL A   1      40.991  31.609  32.857  1.00  0.00     0.049 A 
ATOM     19  N   UNL A   1      40.762  29.600  30.675  1.00  0.00    -0.248 NA
ATOM     20  C   UNL A   1      39.605  28.356  32.258  1.00  0.00     0.031 C 
ATOM     21  C   UNL A   1      41.271  32.988  32.461  1.00  0.00     0.029 A 
ATOM     22  N   UNL A   1      42.186  31.137  33.351  1.00  0.00    -0.354 N 
ATOM     23  C   UNL A   1      40.558  28.338  30.158  1.00  0.00     0.074 A 
ATOM     24  C   UNL A   1      39.869  27.588  31.189  1.00  0.00     0.031 C 
ATOM     25  C   UNL A   1      42.604  33.192  32.550  1.00  0.00     0.029 A 
ATOM     26  C   UNL A   1      43.223  32.033  33.180  1.00  0.00     0.049 A 
ATOM     27  H   UNL A   1      42.291  30.256  33.778  1.00  0.00     0.167 HD
ATOM     28  C   UNL A   1      40.929  27.987  28.899  1.00  0.00     0.037 A 
ATOM     29  C   UNL A   1      44.549  31.752  33.220  1.00  0.00     0.037 A 
ATOM     30  C   UNL A   1      41.617  28.934  28.049  1.00  0.00     0.049 A 
ATOM     31  C   UNL A   1      44.786  31.123  31.873  1.00  0.00     0.074 A 
ATOM     32  C   UNL A   1      41.930  29.031  26.702  1.00  0.00     0.029 A 
ATOM     33  N   UNL A   1      42.215  30.030  28.617  1.00  0.00    -0.354 N 
ATOM     34  N   UNL A   1      45.042  31.760  30.759  1.00  0.00    -0.248 NA
ATOM     35  C   UNL A   1      44.481  29.689  31.709  1.00  0.00     0.031 C 
ATOM     36  C   UNL A   1      42.992  29.987  26.580  1.00  0.00     0.029 A 
ATOM     37  C   UNL A   1      43.296  30.417  27.856  1.00  0.00     0.049 A 
ATOM     38  H   UNL A   1      41.917  30.473  29.443  1.00  0.00     0.167 HD
ATOM     39  C   UNL A   1      44.680  30.864  29.763  1.00  0.00     0.074 A 
ATOM     40  C   UNL A   1      44.463  29.579  30.388  1.00  0.00     0.031 C 
ATOM     41  C   UNL A   1      44.284  31.221  28.514  1.00  0.00     0.037 A 
BRANCH  28  42
ATOM     42  C   UNL A   1      40.855  26.579  28.449  1.00  0.00     0.064 A 
ATOM     43  C   UNL A   1      39.643  26.131  27.900  1.00  0.00     0.173 A 
ATOM     44  C   UNL A   1      41.863  25.643  28.692  1.00  0.00     0.173 A 
ATOM     45  F   UNL A   1      38.655  27.006  27.653  1.00  0.00    -0.203 F 
ATOM     46  C   UNL A   1      39.431  24.785  27.634  1.00  0.00     0.198 A 
ATOM     47  C   UNL A   1      41.650  24.293  28.415  1.00  0.00     0.198 A 
ATOM     48  F   UNL A   1      43.032  26.029  29.221  1.00  0.00    -0.203 F 
ATOM     49  F   UNL A   1      38.252  24.380  27.142  1.00  0.00    -0.200 F 
ATOM     50  C   UNL A   1      40.432  23.865  27.899  1.00  0.00     0.200 A 
ATOM     51  F   UNL A   1      42.615  23.398  28.667  1.00  0.00    -0.200 F 
ATOM     52  F   UNL A   1      40.222  22.562  27.661  1.00  0.00    -0.200 F 
ENDBRANCH  28  42
BRANCH  29  53
ATOM     53  C   UNL A   1      45.049  31.159  34.501  1.00  0.00     0.064 A 
ATOM     54  C   UNL A   1      46.165  31.759  35.128  1.00  0.00     0.173 A 
ATOM     55  C   UNL A   1      44.530  30.020  35.133  1.00  0.00     0.173 A 
ATOM     56  F   UNL A   1      46.801  32.784  34.540  1.00  0.00    -0.203 F 
ATOM     57  C   UNL A   1      46.650  31.319  36.360  1.00  0.00     0.198 A 
ATOM     58  C   UNL A   1      45.001  29.593  36.377  1.00  0.00     0.198 A 
ATOM     59  F   UNL A   1      43.556  29.298  34.566  1.00  0.00    -0.203 F 
ATOM     60  F   UNL A   1      47.693  31.940  36.928  1.00  0.00    -0.200 F 
ATOM     61  C   UNL A   1      46.050  30.251  36.997  1.00  0.00     0.200 A 
ATOM     62  F   UNL A   1      44.423  28.546  36.981  1.00  0.00    -0.200 F 
ATOM     63  F   UNL A   1      46.483  29.849  38.199  1.00  0.00    -0.200 F 
ENDBRANCH  29  53
BRANCH  41  64
ATOM     64  C   UNL A   1      44.758  32.505  27.967  1.00  0.00     0.064 A 
ATOM     65  C   UNL A   1      45.934  32.553  27.203  1.00  0.00     0.173 A 
ATOM     66  C   UNL A   1      44.018  33.679  28.117  1.00  0.00     0.173 A 
ATOM     67  F   UNL A   1      46.656  31.441  26.996  1.00  0.00    -0.203 F 
ATOM     68  C   UNL A   1      46.348  33.740  26.609  1.00  0.00     0.198 A 
ATOM     69  C   UNL A   1      44.423  34.856  27.501  1.00  0.00     0.198 A 
ATOM     70  F   UNL A   1      42.901  33.683  28.856  1.00  0.00    -0.203 F 
ATOM     71  F   UNL A   1      47.469  33.765  25.873  1.00  0.00    -0.200 F 
ATOM     72  C   UNL A   1      45.589  34.889  26.753  1.00  0.00     0.200 A 
ATOM     73  F   UNL A   1      43.675  35.961  27.608  1.00  0.00    -0.200 F 
ATOM     74  F   UNL A   1      45.970  36.028  26.157  1.00  0.00    -0.200 F 
ENDBRANCH  41  64
ENDBRANCH  15  16
ENDBRANCH   8  10
ENDBRANCH   7   8
ENDBRANCH   6   7
ENDBRANCH   5   6
ENDBRANCH   4   5
ENDBRANCH   3   4
ENDBRANCH   2   3
ENDBRANCH   1   2
BRANCH   1  75
ATOM     75  C   UNL A   1      33.779  34.259  28.680  1.00  0.00     0.188 C 
BRANCH  75  76
ATOM     76  C   UNL A   1      32.953  33.436  27.673  1.00  0.00     0.188 C 
BRANCH  76  77
ATOM     77  O   UNL A   1      33.321  32.064  27.577  1.00  0.00    -0.376 OA
BRANCH  77  78
ATOM     78  C   UNL A   1      32.238  31.222  27.175  1.00  0.00     0.202 C 
BRANCH  78  79
ATOM     79  C   UNL A   1      32.680  29.757  27.108  1.00  0.00     0.261 C 
BRANCH  79  80
ATOM     80  O   UNL A   1      31.586  28.832  27.069  1.00  0.00    -0.459 OA
BRANCH  80  81
ATOM     81  C   UNL A   1      31.343  28.196  25.904  1.00  0.00     0.365 C 
ATOM     82  O   UNL A   1      30.832  27.083  25.825  1.00  0.00    -0.245 OA
BRANCH  81  83
ATOM     83  C   UNL A   1      31.712  29.053  24.682  1.00  0.00     0.296 C 
ATOM     84  C   UNL A   1      30.444  29.762  24.173  1.00  0.00     0.091 C 
ATOM     85  N   UNL A   1      32.151  28.267  23.504  1.00  0.00    -0.319 N 
ATOM     86  C   UNL A   1      30.103  29.031  22.862  1.00  0.00     0.036 C 
ATOM     87  C   UNL A   1      31.519  28.824  22.318  1.00  0.00     0.270 C 
ATOM     88  H   UNL A   1      31.815  27.313  23.631  1.00  0.00     0.349 HD
ATOM     89  C   UNL A   1      29.201  29.864  21.945  1.00  0.00     0.074 C 
ATOM     90  C   UNL A   1      29.415  27.656  23.109  1.00  0.00     0.074 C 
ATOM     91  C   UNL A   1      27.765  29.926  22.477  1.00  0.00     0.261 C 
ATOM     92  C   UNL A   1      27.985  27.806  23.611  1.00  0.00     0.261 C 
ATOM     93  N   UNL A   1      27.184  28.597  22.679  1.00  0.00    -0.346 N 
ATOM     94  H   UNL A   1      27.143  28.113  21.782  1.00  0.00     0.346 HD
ATOM     95  H   UNL A   1      26.249  28.709  23.071  1.00  0.00     0.346 HD
BRANCH  85  96
ATOM     96  C   UNL A   1      33.559  27.906  23.405  1.00  0.00     0.302 C 
BRANCH  96  97
ATOM     97  C   UNL A   1      33.737  26.421  23.601  1.00  0.00     0.038 A 
ATOM     98  C   UNL A   1      34.165  25.882  24.843  1.00  0.00     0.012 A 
ATOM     99  C   UNL A   1      33.592  25.432  22.599  1.00  0.00     0.144 A 
ATOM    100  C   UNL A   1      34.464  24.511  25.061  1.00  0.00     0.003 A 
ATOM    101  C   UNL A   1      33.928  24.028  22.817  1.00  0.00     0.135 A 
ATOM    102  N   UNL A   1      33.158  25.540  21.340  1.00  0.00    -0.049 NA
ATOM    103  C   UNL A   1      34.374  23.539  24.053  1.00  0.00     0.034 A 
ATOM    104  N   UNL A   1      33.742  23.358  21.674  1.00  0.00    -0.050 NA
ATOM    105  O   UNL A   1      33.309  24.300  20.759  1.00  0.00    -0.243 OA
ENDBRANCH  96  97
ENDBRANCH  85  96
ENDBRANCH  81  83
ENDBRANCH  80  81
ENDBRANCH  79  80
ENDBRANCH  78  79
ENDBRANCH  77  78
ENDBRANCH  76  77
ENDBRANCH  75  76
ENDBRANCH   1  75
TORSDOF 22
ENDMDL
MODEL 3
REMARK VINA RESULT:     -11.0      3.387      6.141
REMARK SMILES O=C(OCCOCCOCCOCCOC(=O)[C@@H]1CC2(CC[NH2+]CC2)C[N@H+]1Cc1cccc2nonc12)c1ccc(-c2c3nc(c(-c4c(F)c(F)c(F)c(F)c4F)c4ccc([nH]4)c(-c4c(F)c(F)c(F)c(F)c4F)c4nc(c(-c5c(F)c(F)c(F)c(F)c5F)c5ccc2[nH]5)C=C4)C=C3)cc1
REMARK SMILES IDX 9 1 8 2 7 3 6 4 5 5 4 6 3 7 2 8 1 9 38 10 39 11 100 12 40 13
REMARK SMILES IDX 99 14 41 15 42 16 43 17 93 18 44 19 98 20 92 21 94 22 45 23
REMARK SMILES IDX 97 24 91 25 90 26 46 28 78 29 58 30 77 31 59 32 62 33 76 34
REMARK SMILES IDX 95 35 60 36 61 37 75 39 96 40 63 41 47 42 48 43 56 44 49 45
REMARK SMILES IDX 50 46 54 47 57 48 51 49 52 50 55 51 53 52 79 53 80 54 88 55
REMARK SMILES IDX 81 56 82 57 86 58 89 59 83 60 84 61 87 62 85 63 64 64 65 65
REMARK SMILES IDX 73 66 66 67 67 68 71 69 74 70 68 71 69 72 72 73 70 74 10 75
REMARK SMILES IDX 11 76 12 77 13 78 14 79 15 80 16 81 17 82 18 83 19 84 27 85
REMARK SMILES IDX 20 86 26 87 21 89 25 90 22 91 24 92 23 93 28 96 29 97 30 98
REMARK SMILES IDX 37 99 31 100 33 101 36 102 32 103 34 104 35 105
REMARK H PARENT 94 27 62 38 27 88 23 94 23 95
REMARK Flexibility Score: inf
ROOT
ATOM      1  O   UNL A   1      39.387  21.827  25.783  1.00  0.00    -0.377 OA
ENDROOT
BRANCH   1   2
ATOM      2  C   UNL A   1      39.929  22.217  27.043  1.00  0.00     0.188 C 
BRANCH   2   3
ATOM      3  C   UNL A   1      40.955  21.243  27.615  1.00  0.00     0.188 C 
BRANCH   3   4
ATOM      4  O   UNL A   1      41.109  20.067  26.827  1.00  0.00    -0.376 OA
BRANCH   4   5
ATOM      5  C   UNL A   1      42.332  19.899  26.122  1.00  0.00     0.202 C 
BRANCH   5   6
ATOM      6  C   UNL A   1      43.169  21.176  26.059  1.00  0.00     0.261 C 
BRANCH   6   7
ATOM      7  O   UNL A   1      42.652  22.001  25.005  1.00  0.00    -0.460 OA
BRANCH   7   8
ATOM      8  C   UNL A   1      43.600  22.695  24.324  1.00  0.00     0.338 C 
ATOM      9  O   UNL A   1      44.286  22.268  23.411  1.00  0.00    -0.246 OA
BRANCH   8  10
ATOM     10  C   UNL A   1      43.776  24.038  24.930  1.00  0.00     0.060 A 
ATOM     11  C   UNL A   1      45.059  24.582  25.056  1.00  0.00     0.016 A 
ATOM     12  C   UNL A   1      42.686  24.719  25.471  1.00  0.00     0.016 A 
ATOM     13  C   UNL A   1      45.230  25.847  25.634  1.00  0.00     0.010 A 
ATOM     14  C   UNL A   1      42.865  25.942  26.097  1.00  0.00     0.010 A 
ATOM     15  C   UNL A   1      44.124  26.556  26.124  1.00  0.00    -0.014 A 
BRANCH  15  16
ATOM     16  C   UNL A   1      44.223  27.997  26.448  1.00  0.00     0.031 A 
ATOM     17  C   UNL A   1      42.931  28.676  26.764  1.00  0.00     0.074 A 
ATOM     18  C   UNL A   1      45.288  28.631  26.974  1.00  0.00     0.049 A 
ATOM     19  N   UNL A   1      42.494  28.769  27.988  1.00  0.00    -0.248 NA
ATOM     20  C   UNL A   1      41.939  29.016  25.747  1.00  0.00     0.031 C 
ATOM     21  C   UNL A   1      46.280  28.011  27.851  1.00  0.00     0.029 A 
ATOM     22  N   UNL A   1      45.533  29.982  27.070  1.00  0.00    -0.354 N 
ATOM     23  C   UNL A   1      41.155  29.089  27.914  1.00  0.00     0.074 A 
ATOM     24  C   UNL A   1      40.862  29.270  26.506  1.00  0.00     0.031 C 
ATOM     25  C   UNL A   1      46.905  28.989  28.542  1.00  0.00     0.029 A 
ATOM     26  C   UNL A   1      46.489  30.284  28.020  1.00  0.00     0.049 A 
ATOM     27  H   UNL A   1      45.076  30.660  26.521  1.00  0.00     0.167 HD
ATOM     28  C   UNL A   1      40.348  29.150  29.005  1.00  0.00     0.037 A 
ATOM     29  C   UNL A   1      46.696  31.491  28.602  1.00  0.00     0.037 A 
ATOM     30  C   UNL A   1      40.890  28.925  30.328  1.00  0.00     0.049 A 
ATOM     31  C   UNL A   1      45.581  31.560  29.610  1.00  0.00     0.074 A 
ATOM     32  C   UNL A   1      40.381  28.680  31.594  1.00  0.00     0.029 A 
ATOM     33  N   UNL A   1      42.245  29.020  30.519  1.00  0.00    -0.354 N 
ATOM     34  N   UNL A   1      45.605  31.068  30.822  1.00  0.00    -0.248 NA
ATOM     35  C   UNL A   1      44.251  32.005  29.150  1.00  0.00     0.031 C 
ATOM     36  C   UNL A   1      41.417  28.987  32.536  1.00  0.00     0.029 A 
ATOM     37  C   UNL A   1      42.506  29.425  31.809  1.00  0.00     0.049 A 
ATOM     38  H   UNL A   1      42.928  28.827  29.837  1.00  0.00     0.167 HD
ATOM     39  C   UNL A   1      44.267  30.916  31.155  1.00  0.00     0.074 A 
ATOM     40  C   UNL A   1      43.486  31.612  30.158  1.00  0.00     0.031 C 
ATOM     41  C   UNL A   1      43.794  30.007  32.048  1.00  0.00     0.037 A 
BRANCH  28  42
ATOM     42  C   UNL A   1      38.967  29.670  28.903  1.00  0.00     0.064 A 
ATOM     43  C   UNL A   1      38.001  28.844  28.307  1.00  0.00     0.173 A 
ATOM     44  C   UNL A   1      38.618  30.985  29.214  1.00  0.00     0.173 A 
ATOM     45  F   UNL A   1      38.303  27.573  27.997  1.00  0.00    -0.203 F 
ATOM     46  C   UNL A   1      36.736  29.327  28.000  1.00  0.00     0.198 A 
ATOM     47  C   UNL A   1      37.344  31.465  28.913  1.00  0.00     0.198 A 
ATOM     48  F   UNL A   1      39.514  31.808  29.777  1.00  0.00    -0.203 F 
ATOM     49  F   UNL A   1      35.843  28.527  27.401  1.00  0.00    -0.200 F 
ATOM     50  C   UNL A   1      36.410  30.641  28.296  1.00  0.00     0.200 A 
ATOM     51  F   UNL A   1      37.023  32.735  29.198  1.00  0.00    -0.200 F 
ATOM     52  F   UNL A   1      35.196  31.115  27.982  1.00  0.00    -0.200 F 
ENDBRANCH  28  42
BRANCH  29  53
ATOM     53  C   UNL A   1      47.029  32.614  27.668  1.00  0.00     0.064 A 
ATOM     54  C   UNL A   1      48.338  33.148  27.698  1.00  0.00     0.173 A 
ATOM     55  C   UNL A   1      46.139  33.225  26.774  1.00  0.00     0.173 A 
ATOM     56  F   UNL A   1      49.228  32.705  28.599  1.00  0.00    -0.203 F 
ATOM     57  C   UNL A   1      48.755  34.142  26.813  1.00  0.00     0.198 A 
ATOM     58  C   UNL A   1      46.562  34.205  25.872  1.00  0.00     0.198 A 
ATOM     59  F   UNL A   1      44.843  32.888  26.749  1.00  0.00    -0.203 F 
ATOM     60  F   UNL A   1      50.015  34.594  26.861  1.00  0.00    -0.200 F 
ATOM     61  C   UNL A   1      47.872  34.652  25.881  1.00  0.00     0.200 A 
ATOM     62  F   UNL A   1      45.693  34.706  24.983  1.00  0.00    -0.200 F 
ATOM     63  F   UNL A   1      48.276  35.577  25.001  1.00  0.00    -0.200 F 
ENDBRANCH  29  53
BRANCH  41  64
ATOM     64  C   UNL A   1      44.694  29.540  33.117  1.00  0.00     0.064 A 
ATOM     65  C   UNL A   1      45.442  28.366  32.946  1.00  0.00     0.173 A 
ATOM     66  C   UNL A   1      44.891  30.287  34.281  1.00  0.00     0.173 A 
ATOM     67  F   UNL A   1      45.316  27.638  31.825  1.00  0.00    -0.203 F 
ATOM     68  C   UNL A   1      46.357  27.959  33.910  1.00  0.00     0.198 A 
ATOM     69  C   UNL A   1      45.825  29.889  35.229  1.00  0.00     0.198 A 
ATOM     70  F   UNL A   1      44.183  31.403  34.496  1.00  0.00    -0.203 F 
ATOM     71  F   UNL A   1      47.072  26.839  33.724  1.00  0.00    -0.200 F 
ATOM     72  C   UNL A   1      46.553  28.724  35.047  1.00  0.00     0.200 A 
ATOM     73  F   UNL A   1      46.044  30.643  36.313  1.00  0.00    -0.200 F 
ATOM     74  F   UNL A   1      47.457  28.350  35.963  1.00  0.00    -0.200 F 
ENDBRANCH  41  64
ENDBRANCH  15  16
ENDBRANCH   8  10
ENDBRANCH   7   8
ENDBRANCH   6   7
ENDBRANCH   5   6
ENDBRANCH   4   5
ENDBRANCH   3   4
ENDBRANCH   2   3
ENDBRANCH   1   2
BRANCH   1  75
ATOM     75  C   UNL A   1      37.975  21.689  25.750  1.00  0.00     0.188 C 
BRANCH  75  76
ATOM     76  C   UNL A   1      37.290  22.154  24.452  1.00  0.00     0.188 C 
BRANCH  76  77
ATOM     77  O   UNL A   1      36.016  22.764  24.634  1.00  0.00    -0.376 OA
BRANCH  77  78
ATOM     78  C   UNL A   1      35.348  23.042  23.400  1.00  0.00     0.202 C 
BRANCH  78  79
ATOM     79  C   UNL A   1      34.543  24.341  23.494  1.00  0.00     0.261 C 
BRANCH  79  80
ATOM     80  O   UNL A   1      33.626  24.524  22.408  1.00  0.00    -0.459 OA
BRANCH  80  81
ATOM     81  C   UNL A   1      33.078  25.747  22.249  1.00  0.00     0.365 C 
ATOM     82  O   UNL A   1      33.729  26.779  22.122  1.00  0.00    -0.245 OA
BRANCH  81  83
ATOM     83  C   UNL A   1      31.542  25.694  22.172  1.00  0.00     0.296 C 
ATOM     84  C   UNL A   1      30.999  27.133  22.113  1.00  0.00     0.091 C 
ATOM     85  N   UNL A   1      30.895  25.142  23.387  1.00  0.00    -0.319 N 
ATOM     86  C   UNL A   1      30.369  27.356  23.500  1.00  0.00     0.036 C 
ATOM     87  C   UNL A   1      29.747  25.973  23.713  1.00  0.00     0.270 C 
ATOM     88  H   UNL A   1      31.570  25.209  24.149  1.00  0.00     0.349 HD
ATOM     89  C   UNL A   1      29.350  28.501  23.502  1.00  0.00     0.074 C 
ATOM     90  C   UNL A   1      31.433  27.644  24.599  1.00  0.00     0.074 C 
ATOM     91  C   UNL A   1      30.042  29.866  23.415  1.00  0.00     0.261 C 
ATOM     92  C   UNL A   1      32.053  29.028  24.456  1.00  0.00     0.261 C 
ATOM     93  N   UNL A   1      31.024  30.065  24.484  1.00  0.00    -0.346 N 
ATOM     94  H   UNL A   1      30.546  30.037  25.384  1.00  0.00     0.346 HD
ATOM     95  H   UNL A   1      31.475  30.971  24.344  1.00  0.00     0.346 HD
BRANCH  85  96
ATOM     96  C   UNL A   1      30.724  23.698  23.478  1.00  0.00     0.302 C 
BRANCH  96  97
ATOM     97  C   UNL A   1      31.432  23.161  24.697  1.00  0.00     0.038 A 
ATOM     98  C   UNL A   1      31.494  23.901  25.907  1.00  0.00     0.012 A 
ATOM     99  C   UNL A   1      32.166  21.951  24.761  1.00  0.00     0.144 A 
ATOM    100  C   UNL A   1      32.241  23.509  27.049  1.00  0.00     0.003 A 
ATOM    101  C   UNL A   1      32.955  21.565  25.926  1.00  0.00     0.135 A 
ATOM    102  N   UNL A   1      32.295  20.976  23.857  1.00  0.00    -0.049 NA
ATOM    103  C   UNL A   1      33.012  22.338  27.094  1.00  0.00     0.034 A 
ATOM    104  N   UNL A   1      33.575  20.408  25.661  1.00  0.00    -0.050 NA
ATOM    105  O   UNL A   1      33.198  20.072  24.374  1.00  0.00    -0.243 OA
ENDBRANCH  96  97
ENDBRANCH  85  96
ENDBRANCH  81  83
ENDBRANCH  80  81
ENDBRANCH  79  80
ENDBRANCH  78  79
ENDBRANCH  77  78
ENDBRANCH  76  77
ENDBRANCH  75  76
ENDBRANCH   1  75
TORSDOF 22
ENDMDL
