MODEL 1
REMARK VINA RESULT:     -10.6      0.000      0.000
REMARK SMILES [NH3+]Cc1c(-c2ccccc2)c(C(=O)OCCOCCOCCOCCOC(=O)c2ccc(-c3c4nc(c(-c5c(F)c(F)c(F)c(F)c5F)c5ccc([nH]5)c(-c5c(F)c(F)c(F)c(F)c5F)c5nc(c(-c6c(F)c(F)c(F)c(F)c6F)c6ccc3[nH]6)C=C5)C=C4)cc2)c2ccccn12
REMARK SMILES IDX 20 1 19 2 18 3 17 4 16 5 15 6 14 7 12 8 13 9 11 10 3 11 4 12
REMARK SMILES IDX 97 13 92 14 96 15 93 16 95 17 94 18 2 19 1 20 5 24 6 25
REMARK SMILES IDX 10 26 7 27 9 28 8 29 21 30 22 31 23 32 24 33 25 34 26 35
REMARK SMILES IDX 27 36 28 37 29 38 30 39 91 40 31 41 90 42 32 43 33 44 34 45
REMARK SMILES IDX 84 46 35 47 89 48 83 49 85 50 36 51 88 52 82 53 81 54 37 56
REMARK SMILES IDX 69 57 49 58 68 59 50 60 53 61 67 62 86 63 51 64 52 65 66 67
REMARK SMILES IDX 87 68 54 69 38 70 39 71 47 72 40 73 41 74 45 75 48 76 42 77
REMARK SMILES IDX 43 78 46 79 44 80 70 81 71 82 79 83 72 84 73 85 77 86 80 87
REMARK SMILES IDX 74 88 75 89 78 90 76 91 55 92 56 93 64 94 57 95 58 96 62 97
REMARK SMILES IDX 65 98 59 99 60 100 63 101 61 102
REMARK H PARENT 1 21 1 22 1 23 85 55 53 66
REMARK Flexibility Score: inf
ROOT
ATOM      1  O   UNL A   1      31.119  27.098  27.390  1.00  0.00    -0.377 OA
ENDROOT
BRANCH   1   2
ATOM      2  C   UNL A   1      30.636  26.732  26.106  1.00  0.00     0.188 C 
BRANCH   2   3
ATOM      3  C   UNL A   1      30.421  25.253  25.744  1.00  0.00     0.188 C 
BRANCH   3   4
ATOM      4  O   UNL A   1      29.928  24.457  26.820  1.00  0.00    -0.376 OA
BRANCH   4   5
ATOM      5  C   UNL A   1      30.297  23.083  26.767  1.00  0.00     0.202 C 
BRANCH   5   6
ATOM      6  C   UNL A   1      30.629  22.649  25.340  1.00  0.00     0.261 C 
BRANCH   6   7
ATOM      7  O   UNL A   1      31.705  21.703  25.259  1.00  0.00    -0.460 OA
BRANCH   7   8
ATOM      8  C   UNL A   1      32.379  21.631  24.077  1.00  0.00     0.341 C 
ATOM      9  O   UNL A   1      31.839  21.673  22.979  1.00  0.00    -0.246 OA
BRANCH   8  10
ATOM     10  C   UNL A   1      33.823  21.589  24.271  1.00  0.00     0.093 A 
ATOM     11  C   UNL A   1      36.004  22.225  24.547  1.00  0.00     0.086 A 
ATOM     12  C   UNL A   1      34.712  22.706  24.378  1.00  0.00     0.024 A 
ATOM     13  N   UNL A   1      35.928  20.844  24.640  1.00  0.00    -0.314 N 
ATOM     14  C   UNL A   1      34.597  20.457  24.492  1.00  0.00     0.061 A 
ATOM     15  C   UNL A   1      36.956  19.920  24.863  1.00  0.00     0.092 A 
ATOM     16  C   UNL A   1      34.306  19.061  24.610  1.00  0.00     0.027 A 
ATOM     17  C   UNL A   1      36.675  18.611  24.960  1.00  0.00     0.018 A 
ATOM     18  C   UNL A   1      35.296  18.181  24.842  1.00  0.00     0.004 A 
BRANCH  11  19
ATOM     19  C   UNL A   1      37.291  22.971  24.671  1.00  0.00     0.315 C 
BRANCH  19  20
ATOM     20  N   UNL A   1      37.650  23.109  26.076  1.00  0.00    -0.353 N 
ATOM     21  H   UNL A   1      38.589  22.739  26.225  1.00  0.00     0.344 HD
ATOM     22  H   UNL A   1      36.986  22.589  26.649  1.00  0.00     0.344 HD
ATOM     23  H   UNL A   1      37.627  24.095  26.338  1.00  0.00     0.344 HD
ENDBRANCH  19  20
ENDBRANCH  11  19
BRANCH  12  24
ATOM     24  C   UNL A   1      34.375  24.116  24.483  1.00  0.00    -0.015 A 
ATOM     25  C   UNL A   1      34.030  24.825  23.322  1.00  0.00     0.009 A 
ATOM     26  C   UNL A   1      34.413  24.779  25.709  1.00  0.00     0.009 A 
ATOM     27  C   UNL A   1      33.750  26.189  23.383  1.00  0.00     0.001 A 
ATOM     28  C   UNL A   1      34.116  26.143  25.771  1.00  0.00     0.001 A 
ATOM     29  C   UNL A   1      33.792  26.848  24.610  1.00  0.00     0.000 A 
ENDBRANCH  12  24
ENDBRANCH   8  10
ENDBRANCH   7   8
ENDBRANCH   6   7
ENDBRANCH   5   6
ENDBRANCH   4   5
ENDBRANCH   3   4
ENDBRANCH   2   3
ENDBRANCH   1   2
BRANCH   1  30
ATOM     30  C   UNL A   1      31.781  28.340  27.558  1.00  0.00     0.188 C 
BRANCH  30  31
ATOM     31  C   UNL A   1      31.817  29.316  26.371  1.00  0.00     0.188 C 
BRANCH  31  32
ATOM     32  O   UNL A   1      32.289  30.621  26.698  1.00  0.00    -0.376 OA
BRANCH  32  33
ATOM     33  C   UNL A   1      31.364  31.682  26.494  1.00  0.00     0.202 C 
BRANCH  33  34
ATOM     34  C   UNL A   1      31.850  33.029  27.038  1.00  0.00     0.261 C 
BRANCH  34  35
ATOM     35  O   UNL A   1      33.280  33.178  27.056  1.00  0.00    -0.460 OA
BRANCH  35  36
ATOM     36  C   UNL A   1      33.819  33.744  28.156  1.00  0.00     0.338 C 
ATOM     37  O   UNL A   1      33.347  34.629  28.847  1.00  0.00    -0.246 OA
BRANCH  36  38
ATOM     38  C   UNL A   1      35.029  32.978  28.504  1.00  0.00     0.060 A 
ATOM     39  C   UNL A   1      34.882  31.645  28.902  1.00  0.00     0.016 A 
ATOM     40  C   UNL A   1      36.293  33.569  28.432  1.00  0.00     0.016 A 
ATOM     41  C   UNL A   1      36.004  30.907  29.272  1.00  0.00     0.010 A 
ATOM     42  C   UNL A   1      37.414  32.837  28.821  1.00  0.00     0.010 A 
ATOM     43  C   UNL A   1      37.267  31.517  29.277  1.00  0.00    -0.014 A 
BRANCH  43  44
ATOM     44  C   UNL A   1      38.388  30.846  29.974  1.00  0.00     0.031 A 
ATOM     45  C   UNL A   1      38.636  31.202  31.412  1.00  0.00     0.074 A 
ATOM     46  C   UNL A   1      39.149  29.928  29.356  1.00  0.00     0.049 A 
ATOM     47  N   UNL A   1      39.518  30.722  32.249  1.00  0.00    -0.248 NA
ATOM     48  C   UNL A   1      37.766  32.244  31.984  1.00  0.00     0.031 C 
ATOM     49  C   UNL A   1      38.999  29.495  27.970  1.00  0.00     0.029 A 
ATOM     50  N   UNL A   1      40.208  29.196  29.830  1.00  0.00    -0.354 N 
ATOM     51  C   UNL A   1      39.299  31.388  33.446  1.00  0.00     0.074 A 
ATOM     52  C   UNL A   1      38.229  32.335  33.221  1.00  0.00     0.031 C 
ATOM     53  C   UNL A   1      39.941  28.573  27.700  1.00  0.00     0.029 A 
ATOM     54  C   UNL A   1      40.762  28.362  28.892  1.00  0.00     0.049 A 
ATOM     55  H   UNL A   1      40.540  29.263  30.754  1.00  0.00     0.167 HD
ATOM     56  C   UNL A   1      39.924  31.217  34.634  1.00  0.00     0.037 A 
ATOM     57  C   UNL A   1      41.815  27.527  28.992  1.00  0.00     0.037 A 
ATOM     58  C   UNL A   1      41.003  30.296  34.855  1.00  0.00     0.049 A 
ATOM     59  C   UNL A   1      42.534  27.398  30.311  1.00  0.00     0.074 A 
ATOM     60  C   UNL A   1      41.697  30.041  36.024  1.00  0.00     0.029 A 
ATOM     61  N   UNL A   1      41.553  29.485  33.874  1.00  0.00    -0.354 N 
ATOM     62  N   UNL A   1      42.285  27.990  31.454  1.00  0.00    -0.248 NA
ATOM     63  C   UNL A   1      43.676  26.473  30.353  1.00  0.00     0.031 C 
ATOM     64  C   UNL A   1      42.697  29.103  35.740  1.00  0.00     0.029 A 
ATOM     65  C   UNL A   1      42.596  28.744  34.405  1.00  0.00     0.049 A 
ATOM     66  H   UNL A   1      41.248  29.442  32.939  1.00  0.00     0.167 HD
ATOM     67  C   UNL A   1      43.220  27.494  32.354  1.00  0.00     0.074 A 
ATOM     68  C   UNL A   1      44.033  26.541  31.628  1.00  0.00     0.031 C 
ATOM     69  C   UNL A   1      43.391  27.799  33.664  1.00  0.00     0.037 A 
BRANCH  56  70
ATOM     70  C   UNL A   1      39.457  32.066  35.777  1.00  0.00     0.064 A 
ATOM     71  C   UNL A   1      40.005  33.336  36.014  1.00  0.00     0.173 A 
ATOM     72  C   UNL A   1      38.454  31.607  36.642  1.00  0.00     0.173 A 
ATOM     73  F   UNL A   1      40.982  33.807  35.226  1.00  0.00    -0.203 F 
ATOM     74  C   UNL A   1      39.578  34.108  37.091  1.00  0.00     0.198 A 
ATOM     75  C   UNL A   1      38.015  32.391  37.705  1.00  0.00     0.198 A 
ATOM     76  F   UNL A   1      37.904  30.397  36.459  1.00  0.00    -0.203 F 
ATOM     77  F   UNL A   1      40.146  35.298  37.327  1.00  0.00    -0.200 F 
ATOM     78  C   UNL A   1      38.581  33.637  37.933  1.00  0.00     0.200 A 
ATOM     79  F   UNL A   1      37.048  31.938  38.515  1.00  0.00    -0.200 F 
ATOM     80  F   UNL A   1      38.172  34.380  38.970  1.00  0.00    -0.200 F 
ENDBRANCH  56  70
BRANCH  57  81
ATOM     81  C   UNL A   1      42.254  26.738  27.814  1.00  0.00     0.064 A 
ATOM     82  C   UNL A   1      43.235  27.227  26.942  1.00  0.00     0.173 A 
ATOM     83  C   UNL A   1      41.680  25.493  27.520  1.00  0.00     0.173 A 
ATOM     84  F   UNL A   1      43.793  28.426  27.166  1.00  0.00    -0.203 F 
ATOM     85  C   UNL A   1      43.613  26.509  25.808  1.00  0.00     0.198 A 
ATOM     86  C   UNL A   1      42.074  24.765  26.400  1.00  0.00     0.198 A 
ATOM     87  F   UNL A   1      40.733  24.984  28.323  1.00  0.00    -0.203 F 
ATOM     88  F   UNL A   1      44.520  27.020  24.966  1.00  0.00    -0.200 F 
ATOM     89  C   UNL A   1      43.034  25.277  25.541  1.00  0.00     0.200 A 
ATOM     90  F   UNL A   1      41.518  23.573  26.148  1.00  0.00    -0.200 F 
ATOM     91  F   UNL A   1      43.396  24.588  24.449  1.00  0.00    -0.200 F 
ENDBRANCH  57  81
BRANCH  69  92
ATOM     92  C   UNL A   1      44.482  27.078  34.400  1.00  0.00     0.064 A 
ATOM     93  C   UNL A   1      44.258  25.835  35.009  1.00  0.00     0.173 A 
ATOM     94  C   UNL A   1      45.774  27.620  34.466  1.00  0.00     0.173 A 
ATOM     95  F   UNL A   1      43.035  25.282  34.986  1.00  0.00    -0.203 F 
ATOM     96  C   UNL A   1      45.282  25.172  35.681  1.00  0.00     0.198 A 
ATOM     97  C   UNL A   1      46.802  26.943  35.114  1.00  0.00     0.198 A 
ATOM     98  F   UNL A   1      46.041  28.802  33.892  1.00  0.00    -0.203 F 
ATOM     99  F   UNL A   1      45.035  24.007  36.294  1.00  0.00    -0.200 F 
ATOM    100  C   UNL A   1      46.554  25.725  35.728  1.00  0.00     0.200 A 
ATOM    101  F   UNL A   1      48.033  27.471  35.149  1.00  0.00    -0.200 F 
ATOM    102  F   UNL A   1      47.539  25.084  36.371  1.00  0.00    -0.200 F 
ENDBRANCH  69  92
ENDBRANCH  43  44
ENDBRANCH  36  38
ENDBRANCH  35  36
ENDBRANCH  34  35
ENDBRANCH  33  34
ENDBRANCH  32  33
ENDBRANCH  31  32
ENDBRANCH  30  31
ENDBRANCH   1  30
TORSDOF 23
ENDMDL
MODEL 2
REMARK VINA RESULT:     -10.6      4.424      7.147
REMARK SMILES [NH3+]Cc1c(-c2ccccc2)c(C(=O)OCCOCCOCCOCCOC(=O)c2ccc(-c3c4nc(c(-c5c(F)c(F)c(F)c(F)c5F)c5ccc([nH]5)c(-c5c(F)c(F)c(F)c(F)c5F)c5nc(c(-c6c(F)c(F)c(F)c(F)c6F)c6ccc3[nH]6)C=C5)C=C4)cc2)c2ccccn12
REMARK SMILES IDX 20 1 19 2 18 3 17 4 16 5 15 6 14 7 12 8 13 9 11 10 3 11 4 12
REMARK SMILES IDX 97 13 92 14 96 15 93 16 95 17 94 18 2 19 1 20 5 24 6 25
REMARK SMILES IDX 10 26 7 27 9 28 8 29 21 30 22 31 23 32 24 33 25 34 26 35
REMARK SMILES IDX 27 36 28 37 29 38 30 39 91 40 31 41 90 42 32 43 33 44 34 45
REMARK SMILES IDX 84 46 35 47 89 48 83 49 85 50 36 51 88 52 82 53 81 54 37 56
REMARK SMILES IDX 69 57 49 58 68 59 50 60 53 61 67 62 86 63 51 64 52 65 66 67
REMARK SMILES IDX 87 68 54 69 38 70 39 71 47 72 40 73 41 74 45 75 48 76 42 77
REMARK SMILES IDX 43 78 46 79 44 80 70 81 71 82 79 83 72 84 73 85 77 86 80 87
REMARK SMILES IDX 74 88 75 89 78 90 76 91 55 92 56 93 64 94 57 95 58 96 62 97
REMARK SMILES IDX 65 98 59 99 60 100 63 101 61 102
REMARK H PARENT 1 21 1 22 1 23 85 55 53 66
REMARK Flexibility Score: inf
ROOT
ATOM      1  O   UNL A   1      34.196  34.646  28.450  1.00  0.00    -0.377 OA
ENDROOT
BRANCH   1   2
ATOM      2  C   UNL A   1      33.681  33.349  28.710  1.00  0.00     0.188 C 
BRANCH   2   3
ATOM      3  C   UNL A   1      34.066  32.161  27.813  1.00  0.00     0.188 C 
BRANCH   3   4
ATOM      4  O   UNL A   1      32.952  31.471  27.251  1.00  0.00    -0.376 OA
BRANCH   4   5
ATOM      5  C   UNL A   1      33.265  30.222  26.643  1.00  0.00     0.202 C 
BRANCH   5   6
ATOM      6  C   UNL A   1      32.184  29.178  26.921  1.00  0.00     0.261 C 
BRANCH   6   7
ATOM      7  O   UNL A   1      32.653  27.824  26.841  1.00  0.00    -0.460 OA
BRANCH   7   8
ATOM      8  C   UNL A   1      31.749  26.876  26.468  1.00  0.00     0.341 C 
ATOM      9  O   UNL A   1      30.712  26.644  27.076  1.00  0.00    -0.246 OA
BRANCH   8  10
ATOM     10  C   UNL A   1      32.115  26.233  25.211  1.00  0.00     0.093 A 
ATOM     11  C   UNL A   1      32.149  25.619  23.007  1.00  0.00     0.086 A 
ATOM     12  C   UNL A   1      31.503  26.429  23.932  1.00  0.00     0.024 A 
ATOM     13  N   UNL A   1      33.203  24.998  23.659  1.00  0.00    -0.314 N 
ATOM     14  C   UNL A   1      33.196  25.388  24.997  1.00  0.00     0.061 A 
ATOM     15  C   UNL A   1      34.170  24.130  23.137  1.00  0.00     0.092 A 
ATOM     16  C   UNL A   1      34.248  24.888  25.829  1.00  0.00     0.027 A 
ATOM     17  C   UNL A   1      35.146  23.657  23.928  1.00  0.00     0.018 A 
ATOM     18  C   UNL A   1      35.183  24.069  25.316  1.00  0.00     0.004 A 
BRANCH  11  19
ATOM     19  C   UNL A   1      31.873  25.424  21.553  1.00  0.00     0.315 C 
BRANCH  19  20
ATOM     20  N   UNL A   1      32.700  26.328  20.766  1.00  0.00    -0.353 N 
ATOM     21  H   UNL A   1      32.612  26.097  19.777  1.00  0.00     0.344 HD
ATOM     22  H   UNL A   1      33.675  26.232  21.051  1.00  0.00     0.344 HD
ATOM     23  H   UNL A   1      32.394  27.289  20.920  1.00  0.00     0.344 HD
ENDBRANCH  19  20
ENDBRANCH  11  19
BRANCH  12  24
ATOM     24  C   UNL A   1      30.502  27.413  23.556  1.00  0.00    -0.015 A 
ATOM     25  C   UNL A   1      30.907  28.725  23.268  1.00  0.00     0.009 A 
ATOM     26  C   UNL A   1      29.148  27.083  23.502  1.00  0.00     0.009 A 
ATOM     27  C   UNL A   1      29.965  29.704  22.952  1.00  0.00     0.001 A 
ATOM     28  C   UNL A   1      28.207  28.061  23.169  1.00  0.00     0.001 A 
ATOM     29  C   UNL A   1      28.613  29.370  22.901  1.00  0.00     0.000 A 
ENDBRANCH  12  24
ENDBRANCH   8  10
ENDBRANCH   7   8
ENDBRANCH   6   7
ENDBRANCH   5   6
ENDBRANCH   4   5
ENDBRANCH   3   4
ENDBRANCH   2   3
ENDBRANCH   1   2
BRANCH   1  30
ATOM     30  C   UNL A   1      33.672  35.758  29.154  1.00  0.00     0.188 C 
BRANCH  30  31
ATOM     31  C   UNL A   1      33.074  35.524  30.551  1.00  0.00     0.188 C 
BRANCH  31  32
ATOM     32  O   UNL A   1      33.659  36.318  31.581  1.00  0.00    -0.376 OA
BRANCH  32  33
ATOM     33  C   UNL A   1      34.418  35.608  32.552  1.00  0.00     0.202 C 
BRANCH  33  34
ATOM     34  C   UNL A   1      34.272  34.086  32.448  1.00  0.00     0.261 C 
BRANCH  34  35
ATOM     35  O   UNL A   1      35.443  33.412  31.959  1.00  0.00    -0.460 OA
BRANCH  35  36
ATOM     36  C   UNL A   1      36.086  32.603  32.825  1.00  0.00     0.338 C 
ATOM     37  O   UNL A   1      35.842  32.430  34.006  1.00  0.00    -0.246 OA
BRANCH  36  38
ATOM     38  C   UNL A   1      37.053  31.801  32.055  1.00  0.00     0.060 A 
ATOM     39  C   UNL A   1      38.062  31.125  32.750  1.00  0.00     0.016 A 
ATOM     40  C   UNL A   1      36.958  31.713  30.663  1.00  0.00     0.016 A 
ATOM     41  C   UNL A   1      39.012  30.389  32.044  1.00  0.00     0.010 A 
ATOM     42  C   UNL A   1      37.920  30.992  29.956  1.00  0.00     0.010 A 
ATOM     43  C   UNL A   1      38.969  30.360  30.643  1.00  0.00    -0.014 A 
BRANCH  43  44
ATOM     44  C   UNL A   1      40.148  29.863  29.897  1.00  0.00     0.031 A 
ATOM     45  C   UNL A   1      41.299  30.806  29.691  1.00  0.00     0.074 A 
ATOM     46  C   UNL A   1      40.206  28.602  29.436  1.00  0.00     0.049 A 
ATOM     47  N   UNL A   1      42.455  30.596  29.118  1.00  0.00    -0.248 NA
ATOM     48  C   UNL A   1      41.120  32.174  30.206  1.00  0.00     0.031 C 
ATOM     49  C   UNL A   1      39.158  27.596  29.583  1.00  0.00     0.029 A 
ATOM     50  N   UNL A   1      41.203  27.960  28.747  1.00  0.00    -0.354 N 
ATOM     51  C   UNL A   1      43.145  31.796  29.218  1.00  0.00     0.074 A 
ATOM     52  C   UNL A   1      42.267  32.743  29.870  1.00  0.00     0.031 C 
ATOM     53  C   UNL A   1      39.565  26.459  28.991  1.00  0.00     0.029 A 
ATOM     54  C   UNL A   1      40.896  26.663  28.418  1.00  0.00     0.049 A 
ATOM     55  H   UNL A   1      42.057  28.387  28.509  1.00  0.00     0.167 HD
ATOM     56  C   UNL A   1      44.404  32.082  28.815  1.00  0.00     0.037 A 
ATOM     57  C   UNL A   1      41.612  25.753  27.731  1.00  0.00     0.037 A 
ATOM     58  C   UNL A   1      45.270  31.152  28.145  1.00  0.00     0.049 A 
ATOM     59  C   UNL A   1      42.991  26.115  27.239  1.00  0.00     0.074 A 
ATOM     60  C   UNL A   1      46.567  31.341  27.703  1.00  0.00     0.029 A 
ATOM     61  N   UNL A   1      44.914  29.855  27.807  1.00  0.00    -0.354 N 
ATOM     62  N   UNL A   1      43.658  27.234  27.387  1.00  0.00    -0.248 NA
ATOM     63  C   UNL A   1      43.719  25.078  26.493  1.00  0.00     0.031 C 
ATOM     64  C   UNL A   1      46.983  30.169  27.061  1.00  0.00     0.029 A 
ATOM     65  C   UNL A   1      45.960  29.237  27.142  1.00  0.00     0.049 A 
ATOM     66  H   UNL A   1      44.047  29.435  28.010  1.00  0.00     0.167 HD
ATOM     67  C   UNL A   1      44.889  27.029  26.776  1.00  0.00     0.074 A 
ATOM     68  C   UNL A   1      44.882  25.673  26.268  1.00  0.00     0.031 C 
ATOM     69  C   UNL A   1      45.932  27.885  26.646  1.00  0.00     0.037 A 
BRANCH  56  70
ATOM     70  C   UNL A   1      44.905  33.469  29.077  1.00  0.00     0.064 A 
ATOM     71  C   UNL A   1      44.672  34.513  28.169  1.00  0.00     0.173 A 
ATOM     72  C   UNL A   1      45.622  33.759  30.246  1.00  0.00     0.173 A 
ATOM     73  F   UNL A   1      44.010  34.278  27.027  1.00  0.00    -0.203 F 
ATOM     74  C   UNL A   1      45.159  35.795  28.414  1.00  0.00     0.198 A 
ATOM     75  C   UNL A   1      46.088  35.046  30.498  1.00  0.00     0.198 A 
ATOM     76  F   UNL A   1      45.874  32.792  31.143  1.00  0.00    -0.203 F 
ATOM     77  F   UNL A   1      44.965  36.766  27.512  1.00  0.00    -0.200 F 
ATOM     78  C   UNL A   1      45.862  36.061  29.579  1.00  0.00     0.200 A 
ATOM     79  F   UNL A   1      46.764  35.303  31.626  1.00  0.00    -0.200 F 
ATOM     80  F   UNL A   1      46.332  37.294  29.813  1.00  0.00    -0.200 F 
ENDBRANCH  56  70
BRANCH  57  81
ATOM     81  C   UNL A   1      41.048  24.405  27.470  1.00  0.00     0.064 A 
ATOM     82  C   UNL A   1      41.582  23.267  28.088  1.00  0.00     0.173 A 
ATOM     83  C   UNL A   1      39.984  24.225  26.575  1.00  0.00     0.173 A 
ATOM     84  F   UNL A   1      42.618  23.386  28.931  1.00  0.00    -0.203 F 
ATOM     85  C   UNL A   1      41.085  21.995  27.807  1.00  0.00     0.198 A 
ATOM     86  C   UNL A   1      39.473  22.956  26.311  1.00  0.00     0.198 A 
ATOM     87  F   UNL A   1      39.442  25.284  25.954  1.00  0.00    -0.203 F 
ATOM     88  F   UNL A   1      41.643  20.919  28.376  1.00  0.00    -0.200 F 
ATOM     89  C   UNL A   1      40.028  21.842  26.921  1.00  0.00     0.200 A 
ATOM     90  F   UNL A   1      38.448  22.813  25.460  1.00  0.00    -0.200 F 
ATOM     91  F   UNL A   1      39.552  20.619  26.648  1.00  0.00    -0.200 F 
ENDBRANCH  57  81
BRANCH  69  92
ATOM     92  C   UNL A   1      47.158  27.373  25.950  1.00  0.00     0.064 A 
ATOM     93  C   UNL A   1      47.349  27.555  24.572  1.00  0.00     0.173 A 
ATOM     94  C   UNL A   1      48.170  26.726  26.675  1.00  0.00     0.173 A 
ATOM     95  F   UNL A   1      46.403  28.156  23.833  1.00  0.00    -0.203 F 
ATOM     96  C   UNL A   1      48.496  27.083  23.940  1.00  0.00     0.198 A 
ATOM     97  C   UNL A   1      49.328  26.280  26.045  1.00  0.00     0.198 A 
ATOM     98  F   UNL A   1      48.038  26.535  27.996  1.00  0.00    -0.203 F 
ATOM     99  F   UNL A   1      48.638  27.228  22.616  1.00  0.00    -0.200 F 
ATOM    100  C   UNL A   1      49.487  26.451  24.679  1.00  0.00     0.200 A 
ATOM    101  F   UNL A   1      50.289  25.680  26.760  1.00  0.00    -0.200 F 
ATOM    102  F   UNL A   1      50.592  26.001  24.069  1.00  0.00    -0.200 F 
ENDBRANCH  69  92
ENDBRANCH  43  44
ENDBRANCH  36  38
ENDBRANCH  35  36
ENDBRANCH  34  35
ENDBRANCH  33  34
ENDBRANCH  32  33
ENDBRANCH  31  32
ENDBRANCH  30  31
ENDBRANCH   1  30
TORSDOF 23
ENDMDL
MODEL 3
REMARK VINA RESULT:     -10.5      1.394      3.269
REMARK SMILES [NH3+]Cc1c(-c2ccccc2)c(C(=O)OCCOCCOCCOCCOC(=O)c2ccc(-c3c4nc(c(-c5c(F)c(F)c(F)c(F)c5F)c5ccc([nH]5)c(-c5c(F)c(F)c(F)c(F)c5F)c5nc(c(-c6c(F)c(F)c(F)c(F)c6F)c6ccc3[nH]6)C=C5)C=C4)cc2)c2ccccn12
REMARK SMILES IDX 20 1 19 2 18 3 17 4 16 5 15 6 14 7 12 8 13 9 11 10 3 11 4 12
REMARK SMILES IDX 97 13 92 14 96 15 93 16 95 17 94 18 2 19 1 20 5 24 6 25
REMARK SMILES IDX 10 26 7 27 9 28 8 29 21 30 22 31 23 32 24 33 25 34 26 35
REMARK SMILES IDX 27 36 28 37 29 38 30 39 91 40 31 41 90 42 32 43 33 44 34 45
REMARK SMILES IDX 84 46 35 47 89 48 83 49 85 50 36 51 88 52 82 53 81 54 37 56
REMARK SMILES IDX 69 57 49 58 68 59 50 60 53 61 67 62 86 63 51 64 52 65 66 67
REMARK SMILES IDX 87 68 54 69 38 70 39 71 47 72 40 73 41 74 45 75 48 76 42 77
REMARK SMILES IDX 43 78 46 79 44 80 70 81 71 82 79 83 72 84 73 85 77 86 80 87
REMARK SMILES IDX 74 88 75 89 78 90 76 91 55 92 56 93 64 94 57 95 58 96 62 97
REMARK SMILES IDX 65 98 59 99 60 100 63 101 61 102
REMARK H PARENT 1 21 1 22 1 23 85 55 53 66
REMARK Flexibility Score: inf
ROOT
ATOM      1  O   UNL A   1      31.637  28.326  25.448  1.00  0.00    -0.377 OA
ENDROOT
BRANCH   1   2
ATOM      2  C   UNL A   1      31.397  29.160  24.323  1.00  0.00     0.188 C 
BRANCH   2   3
ATOM      3  C   UNL A   1      31.952  28.784  22.939  1.00  0.00     0.188 C 
BRANCH   3   4
ATOM      4  O   UNL A   1      33.362  28.957  22.811  1.00  0.00    -0.376 OA
BRANCH   4   5
ATOM      5  C   UNL A   1      34.025  27.941  22.066  1.00  0.00     0.202 C 
BRANCH   5   6
ATOM      6  C   UNL A   1      33.829  26.564  22.700  1.00  0.00     0.261 C 
BRANCH   6   7
ATOM      7  O   UNL A   1      33.331  25.574  21.788  1.00  0.00    -0.460 OA
BRANCH   7   8
ATOM      8  C   UNL A   1      33.278  24.289  22.238  1.00  0.00     0.341 C 
ATOM      9  O   UNL A   1      33.684  23.325  21.601  1.00  0.00    -0.246 OA
BRANCH   8  10
ATOM     10  C   UNL A   1      32.766  24.205  23.600  1.00  0.00     0.093 A 
ATOM     11  C   UNL A   1      32.589  23.757  25.837  1.00  0.00     0.086 A 
ATOM     12  C   UNL A   1      33.428  23.642  24.737  1.00  0.00     0.024 A 
ATOM     13  N   UNL A   1      31.464  24.459  25.433  1.00  0.00    -0.314 N 
ATOM     14  C   UNL A   1      31.580  24.750  24.075  1.00  0.00     0.061 A 
ATOM     15  C   UNL A   1      30.361  24.866  26.195  1.00  0.00     0.092 A 
ATOM     16  C   UNL A   1      30.532  25.521  23.480  1.00  0.00     0.027 A 
ATOM     17  C   UNL A   1      29.377  25.579  25.625  1.00  0.00     0.018 A 
ATOM     18  C   UNL A   1      29.485  25.924  24.222  1.00  0.00     0.004 A 
BRANCH  11  19
ATOM     19  C   UNL A   1      32.789  23.296  27.243  1.00  0.00     0.315 C 
BRANCH  19  20
ATOM     20  N   UNL A   1      32.441  21.887  27.357  1.00  0.00    -0.353 N 
ATOM     21  H   UNL A   1      32.400  21.470  26.426  1.00  0.00     0.344 HD
ATOM     22  H   UNL A   1      31.532  21.796  27.810  1.00  0.00     0.344 HD
ATOM     23  H   UNL A   1      33.148  21.405  27.913  1.00  0.00     0.344 HD
ENDBRANCH  19  20
ENDBRANCH  11  19
BRANCH  12  24
ATOM     24  C   UNL A   1      34.803  23.179  24.838  1.00  0.00    -0.015 A 
ATOM     25  C   UNL A   1      35.805  24.088  25.209  1.00  0.00     0.009 A 
ATOM     26  C   UNL A   1      35.143  21.858  24.549  1.00  0.00     0.009 A 
ATOM     27  C   UNL A   1      37.139  23.686  25.267  1.00  0.00     0.001 A 
ATOM     28  C   UNL A   1      36.479  21.453  24.624  1.00  0.00     0.001 A 
ATOM     29  C   UNL A   1      37.475  22.366  24.975  1.00  0.00     0.000 A 
ENDBRANCH  12  24
ENDBRANCH   8  10
ENDBRANCH   7   8
ENDBRANCH   6   7
ENDBRANCH   5   6
ENDBRANCH   4   5
ENDBRANCH   3   4
ENDBRANCH   2   3
ENDBRANCH   1   2
BRANCH   1  30
ATOM     30  C   UNL A   1      32.745  28.594  26.289  1.00  0.00     0.188 C 
BRANCH  30  31
ATOM     31  C   UNL A   1      33.262  30.038  26.381  1.00  0.00     0.188 C 
BRANCH  31  32
ATOM     32  O   UNL A   1      32.504  30.879  27.248  1.00  0.00    -0.376 OA
BRANCH  32  33
ATOM     33  C   UNL A   1      31.766  31.916  26.612  1.00  0.00     0.202 C 
BRANCH  33  34
ATOM     34  C   UNL A   1      31.971  33.293  27.252  1.00  0.00     0.261 C 
BRANCH  34  35
ATOM     35  O   UNL A   1      33.346  33.698  27.351  1.00  0.00    -0.460 OA
BRANCH  35  36
ATOM     36  C   UNL A   1      33.785  34.068  28.572  1.00  0.00     0.338 C 
ATOM     37  O   UNL A   1      33.245  34.823  29.361  1.00  0.00    -0.246 OA
BRANCH  36  38
ATOM     38  C   UNL A   1      34.971  33.253  28.887  1.00  0.00     0.060 A 
ATOM     39  C   UNL A   1      34.779  31.942  29.337  1.00  0.00     0.016 A 
ATOM     40  C   UNL A   1      36.258  33.776  28.731  1.00  0.00     0.016 A 
ATOM     41  C   UNL A   1      35.881  31.161  29.677  1.00  0.00     0.010 A 
ATOM     42  C   UNL A   1      37.360  33.000  29.090  1.00  0.00     0.010 A 
ATOM     43  C   UNL A   1      37.171  31.705  29.598  1.00  0.00    -0.014 A 
BRANCH  43  44
ATOM     44  C   UNL A   1      38.291  31.000  30.261  1.00  0.00     0.031 A 
ATOM     45  C   UNL A   1      38.559  31.309  31.706  1.00  0.00     0.074 A 
ATOM     46  C   UNL A   1      39.035  30.092  29.607  1.00  0.00     0.049 A 
ATOM     47  N   UNL A   1      39.445  30.793  32.519  1.00  0.00    -0.248 NA
ATOM     48  C   UNL A   1      37.708  32.343  32.320  1.00  0.00     0.031 C 
ATOM     49  C   UNL A   1      38.864  29.703  28.210  1.00  0.00     0.029 A 
ATOM     50  N   UNL A   1      40.090  29.333  30.046  1.00  0.00    -0.354 N 
ATOM     51  C   UNL A   1      39.247  31.425  33.738  1.00  0.00     0.074 A 
ATOM     52  C   UNL A   1      38.186  32.391  33.553  1.00  0.00     0.031 C 
ATOM     53  C   UNL A   1      39.792  28.779  27.902  1.00  0.00     0.029 A 
ATOM     54  C   UNL A   1      40.624  28.522  29.078  1.00  0.00     0.049 A 
ATOM     55  H   UNL A   1      40.432  29.368  30.968  1.00  0.00     0.167 HD
ATOM     56  C   UNL A   1      39.883  31.210  34.913  1.00  0.00     0.037 A 
ATOM     57  C   UNL A   1      41.668  27.673  29.141  1.00  0.00     0.037 A 
ATOM     58  C   UNL A   1      40.953  30.270  35.093  1.00  0.00     0.049 A 
ATOM     59  C   UNL A   1      42.399  27.495  30.447  1.00  0.00     0.074 A 
ATOM     60  C   UNL A   1      41.657  29.972  36.246  1.00  0.00     0.029 A 
ATOM     61  N   UNL A   1      41.483  29.483  34.082  1.00  0.00    -0.354 N 
ATOM     62  N   UNL A   1      42.170  28.054  31.610  1.00  0.00    -0.248 NA
ATOM     63  C   UNL A   1      43.531  26.556  30.447  1.00  0.00     0.031 C 
ATOM     64  C   UNL A   1      42.642  29.032  35.922  1.00  0.00     0.029 A 
ATOM     65  C   UNL A   1      42.522  28.714  34.578  1.00  0.00     0.049 A 
ATOM     66  H   UNL A   1      41.167  29.473  33.149  1.00  0.00     0.167 HD
ATOM     67  C   UNL A   1      43.109  27.521  32.484  1.00  0.00     0.074 A 
ATOM     68  C   UNL A   1      43.902  26.581  31.719  1.00  0.00     0.031 C 
ATOM     69  C   UNL A   1      43.298  27.783  33.800  1.00  0.00     0.037 A 
BRANCH  56  70
ATOM     70  C   UNL A   1      39.439  32.029  36.086  1.00  0.00     0.064 A 
ATOM     71  C   UNL A   1      40.052  33.253  36.396  1.00  0.00     0.173 A 
ATOM     72  C   UNL A   1      38.392  31.589  36.907  1.00  0.00     0.173 A 
ATOM     73  F   UNL A   1      41.072  33.703  35.651  1.00  0.00    -0.203 F 
ATOM     74  C   UNL A   1      39.645  33.996  37.501  1.00  0.00     0.198 A 
ATOM     75  C   UNL A   1      37.974  32.345  37.998  1.00  0.00     0.198 A 
ATOM     76  F   UNL A   1      37.778  30.423  36.655  1.00  0.00    -0.203 F 
ATOM     77  F   UNL A   1      40.274  35.139  37.805  1.00  0.00    -0.200 F 
ATOM     78  C   UNL A   1      38.604  33.544  38.298  1.00  0.00     0.200 A 
ATOM     79  F   UNL A   1      36.964  31.910  38.766  1.00  0.00    -0.200 F 
ATOM     80  F   UNL A   1      38.214  34.260  39.361  1.00  0.00    -0.200 F 
ENDBRANCH  56  70
BRANCH  57  81
ATOM     81  C   UNL A   1      42.084  26.915  27.933  1.00  0.00     0.064 A 
ATOM     82  C   UNL A   1      41.550  25.650  27.654  1.00  0.00     0.173 A 
ATOM     83  C   UNL A   1      43.046  27.427  27.052  1.00  0.00     0.173 A 
ATOM     84  F   UNL A   1      40.646  25.107  28.484  1.00  0.00    -0.203 F 
ATOM     85  C   UNL A   1      41.975  24.917  26.548  1.00  0.00     0.198 A 
ATOM     86  C   UNL A   1      43.455  26.703  25.934  1.00  0.00     0.198 A 
ATOM     87  F   UNL A   1      43.592  28.632  27.279  1.00  0.00    -0.203 F 
ATOM     88  F   UNL A   1      41.482  23.691  26.329  1.00  0.00    -0.200 F 
ATOM     89  C   UNL A   1      42.926  25.447  25.687  1.00  0.00     0.200 A 
ATOM     90  F   UNL A   1      44.368  27.220  25.101  1.00  0.00    -0.200 F 
ATOM     91  F   UNL A   1      43.337  24.740  24.625  1.00  0.00    -0.200 F 
ENDBRANCH  57  81
BRANCH  69  92
ATOM     92  C   UNL A   1      44.388  27.028  34.501  1.00  0.00     0.064 A 
ATOM     93  C   UNL A   1      45.692  27.536  34.592  1.00  0.00     0.173 A 
ATOM     94  C   UNL A   1      44.117  25.798  35.120  1.00  0.00     0.173 A 
ATOM     95  F   UNL A   1      46.004  28.702  34.005  1.00  0.00    -0.203 F 
ATOM     96  C   UNL A   1      46.691  26.829  35.255  1.00  0.00     0.198 A 
ATOM     97  C   UNL A   1      45.111  25.107  35.804  1.00  0.00     0.198 A 
ATOM     98  F   UNL A   1      42.884  25.273  35.068  1.00  0.00    -0.203 F 
ATOM     99  F   UNL A   1      47.940  27.312  35.291  1.00  0.00    -0.200 F 
ATOM    100  C   UNL A   1      46.399  25.618  35.864  1.00  0.00     0.200 A 
ATOM    101  F   UNL A   1      44.825  23.942  36.403  1.00  0.00    -0.200 F 
ATOM    102  F   UNL A   1      47.361  24.940  36.505  1.00  0.00    -0.200 F 
ENDBRANCH  69  92
ENDBRANCH  43  44
ENDBRANCH  36  38
ENDBRANCH  35  36
ENDBRANCH  34  35
ENDBRANCH  33  34
ENDBRANCH  32  33
ENDBRANCH  31  32
ENDBRANCH  30  31
ENDBRANCH   1  30
TORSDOF 23
ENDMDL
