MODEL 1
REMARK VINA RESULT:     -11.0      0.000      0.000
REMARK SMILES Cc1ccc(S(=O)(=O)n2cc(C(=O)C(=O)NCC(=O)OCCOCCOCCOCCOC(=O)c3ccc(-c4c5nc(c(-c6c(F)c(F)c(F)c(F)c6F)c6ccc([nH]6)c(-c6c(F)c(F)c(F)c(F)c6F)c6nc(c(-c7c(F)c(F)c(F)c(F)c7F)c7ccc4[nH]7)C=C6)C=C5)cc3)c3ccccc32)cc1
REMARK SMILES IDX 24 1 23 2 22 3 21 4 20 5 18 6 19 7 17 8 16 9 14 10 15 11
REMARK SMILES IDX 12 13 13 14 11 15 9 16 10 17 103 18 98 19 102 20 99 21
REMARK SMILES IDX 101 22 100 23 6 24 7 25 8 26 5 27 1 28 2 29 3 30 105 31 4 32
REMARK SMILES IDX 104 33 25 34 26 35 27 36 28 37 29 38 30 39 31 40 32 41 33 42
REMARK SMILES IDX 34 43 35 44 36 45 97 46 37 47 96 48 38 49 39 50 40 51 90 52
REMARK SMILES IDX 41 53 95 54 89 55 91 56 42 57 94 58 88 59 87 60 43 62 75 63
REMARK SMILES IDX 55 64 74 65 56 66 59 67 73 68 92 69 57 70 58 71 72 73 93 74
REMARK SMILES IDX 60 75 44 76 45 77 53 78 46 79 47 80 51 81 54 82 48 83 49 84
REMARK SMILES IDX 52 85 50 86 76 87 77 88 85 89 78 90 79 91 83 92 86 93 80 94
REMARK SMILES IDX 81 95 84 96 82 97 61 98 62 99 70 100 63 101 64 102 68 103
REMARK SMILES IDX 71 104 65 105 66 106 69 107 67 108
REMARK H PARENT 16 12 91 61 59 72
REMARK Flexibility Score: inf
ROOT
ATOM      1  C   UNL A   1      31.128  26.984  22.373  1.00  0.00     0.188 C 
ENDROOT
BRANCH   1   2
ATOM      2  O   UNL A   1      32.311  26.585  21.691  1.00  0.00    -0.376 OA
BRANCH   2   3
ATOM      3  C   UNL A   1      32.569  25.182  21.657  1.00  0.00     0.202 C 
BRANCH   3   4
ATOM      4  C   UNL A   1      33.627  24.680  22.636  1.00  0.00     0.261 C 
BRANCH   4   5
ATOM      5  O   UNL A   1      33.011  24.400  23.903  1.00  0.00    -0.462 OA
BRANCH   5   6
ATOM      6  C   UNL A   1      33.241  25.296  24.889  1.00  0.00     0.325 C 
ATOM      7  O   UNL A   1      34.208  26.049  24.944  1.00  0.00    -0.250 OA
BRANCH   6   8
ATOM      8  C   UNL A   1      32.122  25.297  25.936  1.00  0.00     0.239 C 
BRANCH   8   9
ATOM      9  N   UNL A   1      31.190  24.169  25.882  1.00  0.00    -0.338 N 
ATOM     10  C   UNL A   1      31.284  22.864  26.295  1.00  0.00     0.292 C 
ATOM     11  O   UNL A   1      30.334  22.102  26.146  1.00  0.00    -0.265 OA
ATOM     12  H   UNL A   1      30.324  24.391  25.468  1.00  0.00     0.164 HD
BRANCH  10  13
ATOM     13  C   UNL A   1      32.546  22.380  27.008  1.00  0.00     0.252 C 
ATOM     14  O   UNL A   1      32.599  22.542  28.226  1.00  0.00    -0.283 OA
BRANCH  13  15
ATOM     15  C   UNL A   1      33.633  21.711  26.278  1.00  0.00     0.054 A 
ATOM     16  N   UNL A   1      35.579  21.220  25.285  1.00  0.00    -0.240 N 
ATOM     17  C   UNL A   1      34.894  22.201  25.966  1.00  0.00     0.117 A 
ATOM     18  C   UNL A   1      34.796  20.098  25.111  1.00  0.00     0.065 A 
ATOM     19  C   UNL A   1      33.568  20.389  25.719  1.00  0.00     0.012 A 
ATOM     20  C   UNL A   1      35.024  18.875  24.455  1.00  0.00     0.028 A 
ATOM     21  C   UNL A   1      32.542  19.422  25.666  1.00  0.00     0.011 A 
ATOM     22  C   UNL A   1      33.977  17.951  24.398  1.00  0.00     0.002 A 
ATOM     23  C   UNL A   1      32.751  18.217  24.996  1.00  0.00     0.001 A 
BRANCH  16  24
ATOM     24  S   UNL A   1      37.141  21.437  24.629  1.00  0.00     0.268 S 
ATOM     25  O   UNL A   1      36.930  22.201  23.403  1.00  0.00    -0.201 OA
ATOM     26  O   UNL A   1      37.762  20.136  24.625  1.00  0.00    -0.201 OA
BRANCH  24  27
ATOM     27  C   UNL A   1      38.064  22.467  25.744  1.00  0.00     0.088 A 
ATOM     28  C   UNL A   1      40.587  24.887  28.258  1.00  0.00     0.044 C 
ATOM     29  C   UNL A   1      39.692  24.038  27.400  1.00  0.00    -0.051 A 
ATOM     30  C   UNL A   1      40.032  22.706  27.136  1.00  0.00     0.005 A 
ATOM     31  C   UNL A   1      38.514  24.563  26.856  1.00  0.00     0.005 A 
ATOM     32  C   UNL A   1      39.226  21.923  26.305  1.00  0.00     0.022 A 
ATOM     33  C   UNL A   1      37.693  23.780  26.040  1.00  0.00     0.022 A 
ENDBRANCH  24  27
ENDBRANCH  16  24
ENDBRANCH  13  15
ENDBRANCH  10  13
ENDBRANCH   8   9
ENDBRANCH   6   8
ENDBRANCH   5   6
ENDBRANCH   4   5
ENDBRANCH   3   4
ENDBRANCH   2   3
ENDBRANCH   1   2
BRANCH   1  34
ATOM     34  C   UNL A   1      31.191  28.211  23.297  1.00  0.00     0.188 C 
BRANCH  34  35
ATOM     35  O   UNL A   1      32.494  28.606  23.676  1.00  0.00    -0.377 OA
BRANCH  35  36
ATOM     36  C   UNL A   1      32.647  29.362  24.880  1.00  0.00     0.188 C 
BRANCH  36  37
ATOM     37  C   UNL A   1      31.422  29.773  25.690  1.00  0.00     0.188 C 
BRANCH  37  38
ATOM     38  O   UNL A   1      31.412  31.196  25.777  1.00  0.00    -0.376 OA
BRANCH  38  39
ATOM     39  C   UNL A   1      31.613  31.745  27.075  1.00  0.00     0.202 C 
BRANCH  39  40
ATOM     40  C   UNL A   1      32.424  33.040  27.059  1.00  0.00     0.261 C 
BRANCH  40  41
ATOM     41  O   UNL A   1      33.374  33.014  28.146  1.00  0.00    -0.460 OA
BRANCH  41  42
ATOM     42  C   UNL A   1      34.436  32.184  27.961  1.00  0.00     0.338 C 
ATOM     43  O   UNL A   1      34.432  31.195  27.245  1.00  0.00    -0.246 OA
BRANCH  42  44
ATOM     44  C   UNL A   1      35.504  32.472  28.969  1.00  0.00     0.060 A 
ATOM     45  C   UNL A   1      36.695  33.101  28.571  1.00  0.00     0.016 A 
ATOM     46  C   UNL A   1      35.472  31.787  30.174  1.00  0.00     0.016 A 
ATOM     47  C   UNL A   1      37.896  32.866  29.268  1.00  0.00     0.010 A 
ATOM     48  C   UNL A   1      36.675  31.447  30.760  1.00  0.00     0.010 A 
ATOM     49  C   UNL A   1      37.914  31.942  30.309  1.00  0.00    -0.014 A 
BRANCH  49  50
ATOM     50  C   UNL A   1      39.104  31.308  30.932  1.00  0.00     0.031 A 
ATOM     51  C   UNL A   1      39.683  30.094  30.247  1.00  0.00     0.074 A 
ATOM     52  C   UNL A   1      39.863  31.998  31.830  1.00  0.00     0.049 A 
ATOM     53  N   UNL A   1      40.853  29.596  30.457  1.00  0.00    -0.248 NA
ATOM     54  C   UNL A   1      38.968  29.342  29.214  1.00  0.00     0.031 C 
ATOM     55  C   UNL A   1      41.326  31.955  31.930  1.00  0.00     0.029 A 
ATOM     56  N   UNL A   1      39.530  32.963  32.790  1.00  0.00    -0.354 N 
ATOM     57  C   UNL A   1      41.143  28.654  29.485  1.00  0.00     0.074 A 
ATOM     58  C   UNL A   1      39.917  28.522  28.746  1.00  0.00     0.031 C 
ATOM     59  C   UNL A   1      41.775  32.731  32.922  1.00  0.00     0.029 A 
ATOM     60  C   UNL A   1      40.620  33.075  33.695  1.00  0.00     0.049 A 
ATOM     61  H   UNL A   1      38.690  33.474  32.832  1.00  0.00     0.167 HD
ATOM     62  C   UNL A   1      42.422  28.168  29.406  1.00  0.00     0.037 A 
ATOM     63  C   UNL A   1      40.491  32.710  35.005  1.00  0.00     0.037 A 
ATOM     64  C   UNL A   1      43.185  28.561  30.602  1.00  0.00     0.049 A 
ATOM     65  C   UNL A   1      41.277  31.443  35.322  1.00  0.00     0.074 A 
ATOM     66  C   UNL A   1      44.349  29.273  30.843  1.00  0.00     0.029 A 
ATOM     67  N   UNL A   1      42.612  28.337  31.853  1.00  0.00    -0.354 N 
ATOM     68  N   UNL A   1      41.626  30.559  34.414  1.00  0.00    -0.248 NA
ATOM     69  C   UNL A   1      41.843  31.128  36.631  1.00  0.00     0.031 C 
ATOM     70  C   UNL A   1      44.422  29.539  32.240  1.00  0.00     0.029 A 
ATOM     71  C   UNL A   1      43.350  28.914  32.857  1.00  0.00     0.049 A 
ATOM     72  H   UNL A   1      41.780  27.829  31.999  1.00  0.00     0.167 HD
ATOM     73  C   UNL A   1      42.462  29.623  34.967  1.00  0.00     0.074 A 
ATOM     74  C   UNL A   1      42.552  30.016  36.359  1.00  0.00     0.031 C 
ATOM     75  C   UNL A   1      43.047  28.617  34.247  1.00  0.00     0.037 A 
BRANCH  62  76
ATOM     76  C   UNL A   1      43.081  27.427  28.232  1.00  0.00     0.064 A 
ATOM     77  C   UNL A   1      42.913  27.894  26.900  1.00  0.00     0.173 A 
ATOM     78  C   UNL A   1      43.801  26.216  28.311  1.00  0.00     0.173 A 
ATOM     79  F   UNL A   1      42.313  29.061  26.636  1.00  0.00    -0.203 F 
ATOM     80  C   UNL A   1      43.360  27.189  25.771  1.00  0.00     0.198 A 
ATOM     81  C   UNL A   1      44.288  25.534  27.182  1.00  0.00     0.198 A 
ATOM     82  F   UNL A   1      44.055  25.614  29.472  1.00  0.00    -0.203 F 
ATOM     83  F   UNL A   1      43.109  27.669  24.545  1.00  0.00    -0.200 F 
ATOM     84  C   UNL A   1      44.050  26.009  25.912  1.00  0.00     0.200 A 
ATOM     85  F   UNL A   1      44.983  24.397  27.344  1.00  0.00    -0.200 F 
ATOM     86  F   UNL A   1      44.486  25.336  24.838  1.00  0.00    -0.200 F 
ENDBRANCH  62  76
BRANCH  63  87
ATOM     87  C   UNL A   1      39.213  33.272  35.556  1.00  0.00     0.064 A 
ATOM     88  C   UNL A   1      38.336  32.253  36.010  1.00  0.00     0.173 A 
ATOM     89  C   UNL A   1      39.268  34.451  36.315  1.00  0.00     0.173 A 
ATOM     90  F   UNL A   1      38.214  31.119  35.299  1.00  0.00    -0.203 F 
ATOM     91  C   UNL A   1      37.855  32.260  37.319  1.00  0.00     0.198 A 
ATOM     92  C   UNL A   1      38.732  34.475  37.610  1.00  0.00     0.198 A 
ATOM     93  F   UNL A   1      40.039  35.472  35.918  1.00  0.00    -0.203 F 
ATOM     94  F   UNL A   1      37.308  31.150  37.836  1.00  0.00    -0.200 F 
ATOM     95  C   UNL A   1      38.105  33.350  38.135  1.00  0.00     0.200 A 
ATOM     96  F   UNL A   1      38.964  35.526  38.409  1.00  0.00    -0.200 F 
ATOM     97  F   UNL A   1      37.835  33.279  39.448  1.00  0.00    -0.200 F 
ENDBRANCH  63  87
BRANCH  75  98
ATOM     98  C   UNL A   1      43.456  27.243  34.768  1.00  0.00     0.064 A 
ATOM     99  C   UNL A   1      42.577  26.160  34.909  1.00  0.00     0.173 A 
ATOM    100  C   UNL A   1      44.832  26.913  34.950  1.00  0.00     0.173 A 
ATOM    101  F   UNL A   1      41.267  26.278  34.667  1.00  0.00    -0.203 F 
ATOM    102  C   UNL A   1      43.020  24.877  35.246  1.00  0.00     0.198 A 
ATOM    103  C   UNL A   1      45.275  25.619  35.219  1.00  0.00     0.198 A 
ATOM    104  F   UNL A   1      45.812  27.818  34.830  1.00  0.00    -0.203 F 
ATOM    105  F   UNL A   1      42.126  23.891  35.398  1.00  0.00    -0.200 F 
ATOM    106  C   UNL A   1      44.367  24.601  35.381  1.00  0.00     0.200 A 
ATOM    107  F   UNL A   1      46.591  25.367  35.283  1.00  0.00    -0.200 F 
ATOM    108  F   UNL A   1      44.786  23.358  35.643  1.00  0.00    -0.200 F 
ENDBRANCH  75  98
ENDBRANCH  49  50
ENDBRANCH  42  44
ENDBRANCH  41  42
ENDBRANCH  40  41
ENDBRANCH  39  40
ENDBRANCH  38  39
ENDBRANCH  37  38
ENDBRANCH  36  37
ENDBRANCH  35  36
ENDBRANCH  34  35
ENDBRANCH   1  34
TORSDOF 25
ENDMDL
MODEL 2
REMARK VINA RESULT:      -9.7      3.492      8.191
REMARK SMILES Cc1ccc(S(=O)(=O)n2cc(C(=O)C(=O)NCC(=O)OCCOCCOCCOCCOC(=O)c3ccc(-c4c5nc(c(-c6c(F)c(F)c(F)c(F)c6F)c6ccc([nH]6)c(-c6c(F)c(F)c(F)c(F)c6F)c6nc(c(-c7c(F)c(F)c(F)c(F)c7F)c7ccc4[nH]7)C=C6)C=C5)cc3)c3ccccc32)cc1
REMARK SMILES IDX 24 1 23 2 22 3 21 4 20 5 18 6 19 7 17 8 16 9 14 10 15 11
REMARK SMILES IDX 12 13 13 14 11 15 9 16 10 17 103 18 98 19 102 20 99 21
REMARK SMILES IDX 101 22 100 23 6 24 7 25 8 26 5 27 1 28 2 29 3 30 105 31 4 32
REMARK SMILES IDX 104 33 25 34 26 35 27 36 28 37 29 38 30 39 31 40 32 41 33 42
REMARK SMILES IDX 34 43 35 44 36 45 97 46 37 47 96 48 38 49 39 50 40 51 90 52
REMARK SMILES IDX 41 53 95 54 89 55 91 56 42 57 94 58 88 59 87 60 43 62 75 63
REMARK SMILES IDX 55 64 74 65 56 66 59 67 73 68 92 69 57 70 58 71 72 73 93 74
REMARK SMILES IDX 60 75 44 76 45 77 53 78 46 79 47 80 51 81 54 82 48 83 49 84
REMARK SMILES IDX 52 85 50 86 76 87 77 88 85 89 78 90 79 91 83 92 86 93 80 94
REMARK SMILES IDX 81 95 84 96 82 97 61 98 62 99 70 100 63 101 64 102 68 103
REMARK SMILES IDX 71 104 65 105 66 106 69 107 67 108
REMARK H PARENT 16 12 91 61 59 72
REMARK Flexibility Score: inf
ROOT
ATOM      1  C   UNL A   1      36.330  30.868  29.733  1.00  0.00     0.188 C 
ENDROOT
BRANCH   1   2
ATOM      2  O   UNL A   1      35.327  31.428  28.894  1.00  0.00    -0.376 OA
BRANCH   2   3
ATOM      3  C   UNL A   1      35.100  30.755  27.657  1.00  0.00     0.202 C 
BRANCH   3   4
ATOM      4  C   UNL A   1      33.640  30.630  27.229  1.00  0.00     0.261 C 
BRANCH   4   5
ATOM      5  O   UNL A   1      33.537  29.683  26.154  1.00  0.00    -0.462 OA
BRANCH   5   6
ATOM      6  C   UNL A   1      32.435  29.781  25.376  1.00  0.00     0.325 C 
ATOM      7  O   UNL A   1      31.431  30.426  25.657  1.00  0.00    -0.250 OA
BRANCH   6   8
ATOM      8  C   UNL A   1      32.592  29.011  24.060  1.00  0.00     0.239 C 
BRANCH   8   9
ATOM      9  N   UNL A   1      31.728  29.439  22.958  1.00  0.00    -0.338 N 
ATOM     10  C   UNL A   1      30.516  28.989  22.498  1.00  0.00     0.292 C 
ATOM     11  O   UNL A   1      29.980  29.540  21.542  1.00  0.00    -0.265 OA
ATOM     12  H   UNL A   1      32.089  30.199  22.445  1.00  0.00     0.164 HD
BRANCH  10  13
ATOM     13  C   UNL A   1      29.800  27.852  23.224  1.00  0.00     0.252 C 
ATOM     14  O   UNL A   1      28.604  28.005  23.464  1.00  0.00    -0.283 OA
BRANCH  13  15
ATOM     15  C   UNL A   1      30.498  26.609  23.583  1.00  0.00     0.054 A 
ATOM     16  N   UNL A   1      31.284  24.815  24.669  1.00  0.00    -0.240 N 
ATOM     17  C   UNL A   1      30.503  25.940  24.800  1.00  0.00     0.117 A 
ATOM     18  C   UNL A   1      31.824  24.731  23.403  1.00  0.00     0.065 A 
ATOM     19  C   UNL A   1      31.351  25.852  22.708  1.00  0.00     0.012 A 
ATOM     20  C   UNL A   1      32.704  23.810  22.806  1.00  0.00     0.028 A 
ATOM     21  C   UNL A   1      31.774  26.050  21.377  1.00  0.00     0.011 A 
ATOM     22  C   UNL A   1      33.124  24.052  21.494  1.00  0.00     0.002 A 
ATOM     23  C   UNL A   1      32.665  25.156  20.786  1.00  0.00     0.001 A 
BRANCH  16  24
ATOM     24  S   UNL A   1      31.639  23.752  25.958  1.00  0.00     0.268 S 
ATOM     25  O   UNL A   1      30.973  22.501  25.606  1.00  0.00    -0.201 OA
ATOM     26  O   UNL A   1      31.332  24.470  27.170  1.00  0.00    -0.201 OA
BRANCH  24  27
ATOM     27  C   UNL A   1      33.389  23.444  25.947  1.00  0.00     0.088 A 
ATOM     28  C   UNL A   1      37.570  22.457  25.667  1.00  0.00     0.044 C 
ATOM     29  C   UNL A   1      36.114  22.807  25.788  1.00  0.00    -0.051 A 
ATOM     30  C   UNL A   1      35.164  21.796  25.973  1.00  0.00     0.005 A 
ATOM     31  C   UNL A   1      35.689  24.139  25.718  1.00  0.00     0.005 A 
ATOM     32  C   UNL A   1      33.804  22.110  26.046  1.00  0.00     0.022 A 
ATOM     33  C   UNL A   1      34.333  24.462  25.809  1.00  0.00     0.022 A 
ENDBRANCH  24  27
ENDBRANCH  16  24
ENDBRANCH  13  15
ENDBRANCH  10  13
ENDBRANCH   8   9
ENDBRANCH   6   8
ENDBRANCH   5   6
ENDBRANCH   4   5
ENDBRANCH   3   4
ENDBRANCH   2   3
ENDBRANCH   1   2
BRANCH   1  34
ATOM     34  C   UNL A   1      37.758  31.427  29.645  1.00  0.00     0.188 C 
BRANCH  34  35
ATOM     35  O   UNL A   1      38.784  30.457  29.715  1.00  0.00    -0.377 OA
BRANCH  35  36
ATOM     36  C   UNL A   1      39.053  29.675  28.549  1.00  0.00     0.188 C 
BRANCH  36  37
ATOM     37  C   UNL A   1      39.220  28.163  28.659  1.00  0.00     0.188 C 
BRANCH  37  38
ATOM     38  O   UNL A   1      39.849  27.704  27.465  1.00  0.00    -0.376 OA
BRANCH  38  39
ATOM     39  C   UNL A   1      40.435  26.408  27.524  1.00  0.00     0.202 C 
BRANCH  39  40
ATOM     40  C   UNL A   1      40.815  25.859  26.150  1.00  0.00     0.261 C 
BRANCH  40  41
ATOM     41  O   UNL A   1      41.500  26.888  25.405  1.00  0.00    -0.460 OA
BRANCH  41  42
ATOM     42  C   UNL A   1      42.856  26.768  25.373  1.00  0.00     0.338 C 
ATOM     43  O   UNL A   1      43.459  25.756  25.055  1.00  0.00    -0.246 OA
BRANCH  42  44
ATOM     44  C   UNL A   1      43.498  27.934  26.056  1.00  0.00     0.060 A 
ATOM     45  C   UNL A   1      44.658  27.745  26.827  1.00  0.00     0.016 A 
ATOM     46  C   UNL A   1      42.748  29.086  26.236  1.00  0.00     0.016 A 
ATOM     47  C   UNL A   1      44.942  28.597  27.911  1.00  0.00     0.010 A 
ATOM     48  C   UNL A   1      42.955  29.823  27.386  1.00  0.00     0.010 A 
ATOM     49  C   UNL A   1      44.026  29.582  28.268  1.00  0.00    -0.014 A 
BRANCH  49  50
ATOM     50  C   UNL A   1      43.966  30.339  29.545  1.00  0.00     0.031 A 
ATOM     51  C   UNL A   1      43.444  29.611  30.760  1.00  0.00     0.074 A 
ATOM     52  C   UNL A   1      44.697  31.478  29.706  1.00  0.00     0.049 A 
ATOM     53  N   UNL A   1      43.590  29.987  31.984  1.00  0.00    -0.248 NA
ATOM     54  C   UNL A   1      42.719  28.341  30.681  1.00  0.00     0.031 C 
ATOM     55  C   UNL A   1      45.392  31.886  30.932  1.00  0.00     0.029 A 
ATOM     56  N   UNL A   1      45.071  32.485  28.807  1.00  0.00    -0.354 N 
ATOM     57  C   UNL A   1      43.213  28.964  32.837  1.00  0.00     0.074 A 
ATOM     58  C   UNL A   1      42.657  27.965  31.965  1.00  0.00     0.031 C 
ATOM     59  C   UNL A   1      46.009  33.061  30.781  1.00  0.00     0.029 A 
ATOM     60  C   UNL A   1      45.499  33.610  29.562  1.00  0.00     0.049 A 
ATOM     61  H   UNL A   1      45.044  32.424  27.824  1.00  0.00     0.167 HD
ATOM     62  C   UNL A   1      43.498  29.088  34.172  1.00  0.00     0.037 A 
ATOM     63  C   UNL A   1      44.804  34.786  29.532  1.00  0.00     0.037 A 
ATOM     64  C   UNL A   1      43.912  30.468  34.473  1.00  0.00     0.049 A 
ATOM     65  C   UNL A   1      44.094  35.060  30.852  1.00  0.00     0.074 A 
ATOM     66  C   UNL A   1      45.035  31.066  35.020  1.00  0.00     0.029 A 
ATOM     67  N   UNL A   1      43.117  31.513  34.003  1.00  0.00    -0.354 N 
ATOM     68  N   UNL A   1      43.780  34.120  31.716  1.00  0.00    -0.248 NA
ATOM     69  C   UNL A   1      43.799  36.392  31.371  1.00  0.00     0.031 C 
ATOM     70  C   UNL A   1      44.939  32.470  34.802  1.00  0.00     0.029 A 
ATOM     71  C   UNL A   1      43.718  32.732  34.201  1.00  0.00     0.049 A 
ATOM     72  H   UNL A   1      42.235  31.391  33.582  1.00  0.00     0.167 HD
ATOM     73  C   UNL A   1      43.307  34.684  32.873  1.00  0.00     0.074 A 
ATOM     74  C   UNL A   1      43.324  36.107  32.599  1.00  0.00     0.031 C 
ATOM     75  C   UNL A   1      42.968  33.957  33.982  1.00  0.00     0.037 A 
BRANCH  62  76
ATOM     76  C   UNL A   1      43.527  27.982  35.238  1.00  0.00     0.064 A 
ATOM     77  C   UNL A   1      44.674  27.157  35.389  1.00  0.00     0.173 A 
ATOM     78  C   UNL A   1      42.456  27.605  36.077  1.00  0.00     0.173 A 
ATOM     79  F   UNL A   1      45.809  27.404  34.722  1.00  0.00    -0.203 F 
ATOM     80  C   UNL A   1      44.718  26.039  36.236  1.00  0.00     0.198 A 
ATOM     81  C   UNL A   1      42.517  26.512  36.960  1.00  0.00     0.198 A 
ATOM     82  F   UNL A   1      41.292  28.252  36.078  1.00  0.00    -0.203 F 
ATOM     83  F   UNL A   1      45.819  25.275  36.276  1.00  0.00    -0.200 F 
ATOM     84  C   UNL A   1      43.638  25.717  37.025  1.00  0.00     0.200 A 
ATOM     85  F   UNL A   1      41.461  26.232  37.740  1.00  0.00    -0.200 F 
ATOM     86  F   UNL A   1      43.678  24.655  37.842  1.00  0.00    -0.200 F 
ENDBRANCH  62  76
BRANCH  63  87
ATOM     87  C   UNL A   1      44.463  35.129  28.111  1.00  0.00     0.064 A 
ATOM     88  C   UNL A   1      43.080  34.966  27.841  1.00  0.00     0.173 A 
ATOM     89  C   UNL A   1      45.106  36.222  27.510  1.00  0.00     0.173 A 
ATOM     90  F   UNL A   1      42.424  33.913  28.358  1.00  0.00    -0.203 F 
ATOM     91  C   UNL A   1      42.325  36.024  27.334  1.00  0.00     0.198 A 
ATOM     92  C   UNL A   1      44.346  37.257  26.948  1.00  0.00     0.198 A 
ATOM     93  F   UNL A   1      46.421  36.409  27.684  1.00  0.00    -0.203 F 
ATOM     94  F   UNL A   1      40.985  35.976  27.389  1.00  0.00    -0.200 F 
ATOM     95  C   UNL A   1      42.957  37.191  26.942  1.00  0.00     0.200 A 
ATOM     96  F   UNL A   1      44.948  38.392  26.562  1.00  0.00    -0.200 F 
ATOM     97  F   UNL A   1      42.230  38.282  26.655  1.00  0.00    -0.200 F 
ENDBRANCH  63  87
BRANCH  75  98
ATOM     98  C   UNL A   1      41.924  34.329  35.030  1.00  0.00     0.064 A 
ATOM     99  C   UNL A   1      40.545  34.134  34.872  1.00  0.00     0.173 A 
ATOM    100  C   UNL A   1      42.319  34.713  36.346  1.00  0.00     0.173 A 
ATOM    101  F   UNL A   1      40.023  33.671  33.732  1.00  0.00    -0.203 F 
ATOM    102  C   UNL A   1      39.636  34.347  35.915  1.00  0.00     0.198 A 
ATOM    103  C   UNL A   1      41.417  34.858  37.400  1.00  0.00     0.198 A 
ATOM    104  F   UNL A   1      43.598  34.919  36.684  1.00  0.00    -0.203 F 
ATOM    105  F   UNL A   1      38.327  34.176  35.690  1.00  0.00    -0.200 F 
ATOM    106  C   UNL A   1      40.071  34.689  37.180  1.00  0.00     0.200 A 
ATOM    107  F   UNL A   1      41.871  35.128  38.632  1.00  0.00    -0.200 F 
ATOM    108  F   UNL A   1      39.200  34.831  38.186  1.00  0.00    -0.200 F 
ENDBRANCH  75  98
ENDBRANCH  49  50
ENDBRANCH  42  44
ENDBRANCH  41  42
ENDBRANCH  40  41
ENDBRANCH  39  40
ENDBRANCH  38  39
ENDBRANCH  37  38
ENDBRANCH  36  37
ENDBRANCH  35  36
ENDBRANCH  34  35
ENDBRANCH   1  34
TORSDOF 25
ENDMDL
MODEL 3
REMARK VINA RESULT:      -9.5      1.459      2.149
REMARK SMILES Cc1ccc(S(=O)(=O)n2cc(C(=O)C(=O)NCC(=O)OCCOCCOCCOCCOC(=O)c3ccc(-c4c5nc(c(-c6c(F)c(F)c(F)c(F)c6F)c6ccc([nH]6)c(-c6c(F)c(F)c(F)c(F)c6F)c6nc(c(-c7c(F)c(F)c(F)c(F)c7F)c7ccc4[nH]7)C=C6)C=C5)cc3)c3ccccc32)cc1
REMARK SMILES IDX 24 1 23 2 22 3 21 4 20 5 18 6 19 7 17 8 16 9 14 10 15 11
REMARK SMILES IDX 12 13 13 14 11 15 9 16 10 17 103 18 98 19 102 20 99 21
REMARK SMILES IDX 101 22 100 23 6 24 7 25 8 26 5 27 1 28 2 29 3 30 105 31 4 32
REMARK SMILES IDX 104 33 25 34 26 35 27 36 28 37 29 38 30 39 31 40 32 41 33 42
REMARK SMILES IDX 34 43 35 44 36 45 97 46 37 47 96 48 38 49 39 50 40 51 90 52
REMARK SMILES IDX 41 53 95 54 89 55 91 56 42 57 94 58 88 59 87 60 43 62 75 63
REMARK SMILES IDX 55 64 74 65 56 66 59 67 73 68 92 69 57 70 58 71 72 73 93 74
REMARK SMILES IDX 60 75 44 76 45 77 53 78 46 79 47 80 51 81 54 82 48 83 49 84
REMARK SMILES IDX 52 85 50 86 76 87 77 88 85 89 78 90 79 91 83 92 86 93 80 94
REMARK SMILES IDX 81 95 84 96 82 97 61 98 62 99 70 100 63 101 64 102 68 103
REMARK SMILES IDX 71 104 65 105 66 106 69 107 67 108
REMARK H PARENT 16 12 91 61 59 72
REMARK Flexibility Score: inf
ROOT
ATOM      1  C   UNL A   1      31.799  28.948  22.722  1.00  0.00     0.188 C 
ENDROOT
BRANCH   1   2
ATOM      2  O   UNL A   1      33.143  28.609  23.046  1.00  0.00    -0.376 OA
BRANCH   2   3
ATOM      3  C   UNL A   1      33.530  27.264  22.771  1.00  0.00     0.202 C 
BRANCH   3   4
ATOM      4  C   UNL A   1      33.296  26.264  23.899  1.00  0.00     0.261 C 
BRANCH   4   5
ATOM      5  O   UNL A   1      32.841  25.018  23.346  1.00  0.00    -0.462 OA
BRANCH   5   6
ATOM      6  C   UNL A   1      31.550  24.695  23.588  1.00  0.00     0.325 C 
ATOM      7  O   UNL A   1      30.596  25.454  23.449  1.00  0.00    -0.250 OA
BRANCH   6   8
ATOM      8  C   UNL A   1      31.398  23.237  24.033  1.00  0.00     0.239 C 
BRANCH   8   9
ATOM      9  N   UNL A   1      30.558  23.007  25.211  1.00  0.00    -0.338 N 
ATOM     10  C   UNL A   1      30.848  22.850  26.542  1.00  0.00     0.292 C 
ATOM     11  O   UNL A   1      29.942  22.680  27.352  1.00  0.00    -0.265 OA
ATOM     12  H   UNL A   1      29.596  22.956  25.006  1.00  0.00     0.164 HD
BRANCH  10  13
ATOM     13  C   UNL A   1      32.293  22.960  27.026  1.00  0.00     0.252 C 
ATOM     14  O   UNL A   1      32.484  23.542  28.093  1.00  0.00    -0.283 OA
BRANCH  13  15
ATOM     15  C   UNL A   1      33.405  22.363  26.272  1.00  0.00     0.054 A 
ATOM     16  N   UNL A   1      35.323  22.022  25.168  1.00  0.00    -0.240 N 
ATOM     17  C   UNL A   1      34.564  22.973  25.813  1.00  0.00     0.117 A 
ATOM     18  C   UNL A   1      34.686  20.800  25.163  1.00  0.00     0.065 A 
ATOM     19  C   UNL A   1      33.476  20.994  25.842  1.00  0.00     0.012 A 
ATOM     20  C   UNL A   1      35.027  19.555  24.604  1.00  0.00     0.028 A 
ATOM     21  C   UNL A   1      32.587  19.905  25.963  1.00  0.00     0.011 A 
ATOM     22  C   UNL A   1      34.110  18.505  24.718  1.00  0.00     0.002 A 
ATOM     23  C   UNL A   1      32.906  18.675  25.390  1.00  0.00     0.001 A 
BRANCH  16  24
ATOM     24  S   UNL A   1      36.792  22.366  24.367  1.00  0.00     0.268 S 
ATOM     25  O   UNL A   1      36.534  23.594  23.620  1.00  0.00    -0.201 OA
ATOM     26  O   UNL A   1      37.194  21.143  23.717  1.00  0.00    -0.201 OA
BRANCH  24  27
ATOM     27  C   UNL A   1      38.013  22.743  25.601  1.00  0.00     0.088 A 
ATOM     28  C   UNL A   1      41.213  23.532  28.371  1.00  0.00     0.044 C 
ATOM     29  C   UNL A   1      40.081  23.254  27.424  1.00  0.00    -0.051 A 
ATOM     30  C   UNL A   1      39.937  21.981  26.858  1.00  0.00     0.005 A 
ATOM     31  C   UNL A   1      39.160  24.255  27.094  1.00  0.00     0.005 A 
ATOM     32  C   UNL A   1      38.912  21.726  25.945  1.00  0.00     0.022 A 
ATOM     33  C   UNL A   1      38.120  24.001  26.196  1.00  0.00     0.022 A 
ENDBRANCH  24  27
ENDBRANCH  16  24
ENDBRANCH  13  15
ENDBRANCH  10  13
ENDBRANCH   8   9
ENDBRANCH   6   8
ENDBRANCH   5   6
ENDBRANCH   4   5
ENDBRANCH   3   4
ENDBRANCH   2   3
ENDBRANCH   1   2
BRANCH   1  34
ATOM     34  C   UNL A   1      30.735  28.870  23.828  1.00  0.00     0.188 C 
BRANCH  34  35
ATOM     35  O   UNL A   1      30.675  29.998  24.678  1.00  0.00    -0.377 OA
BRANCH  35  36
ATOM     36  C   UNL A   1      31.424  29.966  25.895  1.00  0.00     0.188 C 
BRANCH  36  37
ATOM     37  C   UNL A   1      32.667  30.836  26.056  1.00  0.00     0.188 C 
BRANCH  37  38
ATOM     38  O   UNL A   1      33.616  30.105  26.828  1.00  0.00    -0.376 OA
BRANCH  38  39
ATOM     39  C   UNL A   1      34.509  30.882  27.620  1.00  0.00     0.202 C 
BRANCH  39  40
ATOM     40  C   UNL A   1      33.939  32.247  28.001  1.00  0.00     0.261 C 
BRANCH  40  41
ATOM     41  O   UNL A   1      35.029  33.150  28.283  1.00  0.00    -0.460 OA
BRANCH  41  42
ATOM     42  C   UNL A   1      35.580  33.017  29.521  1.00  0.00     0.338 C 
ATOM     43  O   UNL A   1      35.575  33.882  30.383  1.00  0.00    -0.246 OA
BRANCH  42  44
ATOM     44  C   UNL A   1      36.441  31.796  29.580  1.00  0.00     0.060 A 
ATOM     45  C   UNL A   1      36.218  30.826  30.572  1.00  0.00     0.016 A 
ATOM     46  C   UNL A   1      37.659  31.817  28.919  1.00  0.00     0.016 A 
ATOM     47  C   UNL A   1      37.278  30.027  31.042  1.00  0.00     0.010 A 
ATOM     48  C   UNL A   1      38.719  31.137  29.486  1.00  0.00     0.010 A 
ATOM     49  C   UNL A   1      38.569  30.257  30.576  1.00  0.00    -0.014 A 
BRANCH  49  50
ATOM     50  C   UNL A   1      39.843  29.779  31.172  1.00  0.00     0.031 A 
ATOM     51  C   UNL A   1      40.514  28.595  30.519  1.00  0.00     0.074 A 
ATOM     52  C   UNL A   1      40.564  30.588  31.998  1.00  0.00     0.049 A 
ATOM     53  N   UNL A   1      41.737  28.229  30.696  1.00  0.00    -0.248 NA
ATOM     54  C   UNL A   1      39.837  27.722  29.558  1.00  0.00     0.031 C 
ATOM     55  C   UNL A   1      42.027  30.697  32.032  1.00  0.00     0.029 A 
ATOM     56  N   UNL A   1      40.175  31.564  32.927  1.00  0.00    -0.354 N 
ATOM     57  C   UNL A   1      42.081  27.271  29.758  1.00  0.00     0.074 A 
ATOM     58  C   UNL A   1      40.844  26.978  29.085  1.00  0.00     0.031 C 
ATOM     59  C   UNL A   1      42.435  31.566  32.962  1.00  0.00     0.029 A 
ATOM     60  C   UNL A   1      41.285  31.832  33.772  1.00  0.00     0.049 A 
ATOM     61  H   UNL A   1      39.288  31.989  32.983  1.00  0.00     0.167 HD
ATOM     62  C   UNL A   1      43.399  26.913  29.642  1.00  0.00     0.037 A 
ATOM     63  C   UNL A   1      41.249  31.525  35.103  1.00  0.00     0.037 A 
ATOM     64  C   UNL A   1      44.167  27.442  30.781  1.00  0.00     0.049 A 
ATOM     65  C   UNL A   1      42.173  30.362  35.442  1.00  0.00     0.074 A 
ATOM     66  C   UNL A   1      45.260  28.279  30.933  1.00  0.00     0.029 A 
ATOM     67  N   UNL A   1      43.672  27.228  32.067  1.00  0.00    -0.354 N 
ATOM     68  N   UNL A   1      42.573  29.471  34.562  1.00  0.00    -0.248 NA
ATOM     69  C   UNL A   1      42.824  30.174  36.736  1.00  0.00     0.031 C 
ATOM     70  C   UNL A   1      45.365  28.624  32.310  1.00  0.00     0.029 A 
ATOM     71  C   UNL A   1      44.390  27.927  33.006  1.00  0.00     0.049 A 
ATOM     72  H   UNL A   1      42.904  26.647  32.276  1.00  0.00     0.167 HD
ATOM     73  C   UNL A   1      43.523  28.653  35.119  1.00  0.00     0.074 A 
ATOM     74  C   UNL A   1      43.631  29.126  36.485  1.00  0.00     0.031 C 
ATOM     75  C   UNL A   1      44.178  27.675  34.422  1.00  0.00     0.037 A 
BRANCH  62  76
ATOM     76  C   UNL A   1      44.079  26.180  28.475  1.00  0.00     0.064 A 
ATOM     77  C   UNL A   1      44.003  26.702  27.156  1.00  0.00     0.173 A 
ATOM     78  C   UNL A   1      44.735  24.933  28.545  1.00  0.00     0.173 A 
ATOM     79  F   UNL A   1      43.474  27.906  26.906  1.00  0.00    -0.203 F 
ATOM     80  C   UNL A   1      44.473  26.016  26.024  1.00  0.00     0.198 A 
ATOM     81  C   UNL A   1      45.246  24.267  27.417  1.00  0.00     0.198 A 
ATOM     82  F   UNL A   1      44.900  24.279  29.694  1.00  0.00    -0.203 F 
ATOM     83  F   UNL A   1      44.309  26.549  24.806  1.00  0.00    -0.200 F 
ATOM     84  C   UNL A   1      45.097  24.797  26.155  1.00  0.00     0.200 A 
ATOM     85  F   UNL A   1      45.875  23.091  27.570  1.00  0.00    -0.200 F 
ATOM     86  F   UNL A   1      45.554  24.142  25.079  1.00  0.00    -0.200 F 
ENDBRANCH  62  76
BRANCH  63  87
ATOM     87  C   UNL A   1      39.945  31.983  35.686  1.00  0.00     0.064 A 
ATOM     88  C   UNL A   1      39.945  33.375  35.964  1.00  0.00     0.173 A 
ATOM     89  C   UNL A   1      38.754  31.433  35.185  1.00  0.00     0.173 A 
ATOM     90  F   UNL A   1      41.045  33.946  36.482  1.00  0.00    -0.203 F 
ATOM     91  C   UNL A   1      38.967  34.209  35.419  1.00  0.00     0.198 A 
ATOM     92  C   UNL A   1      37.748  32.274  34.692  1.00  0.00     0.198 A 
ATOM     93  F   UNL A   1      38.669  30.117  34.946  1.00  0.00    -0.203 F 
ATOM     94  F   UNL A   1      39.153  35.537  35.409  1.00  0.00    -0.200 F 
ATOM     95  C   UNL A   1      37.900  33.656  34.734  1.00  0.00     0.200 A 
ATOM     96  F   UNL A   1      36.706  31.751  34.029  1.00  0.00    -0.200 F 
ATOM     97  F   UNL A   1      37.075  34.447  34.030  1.00  0.00    -0.200 F 
ENDBRANCH  63  87
BRANCH  75  98
ATOM     98  C   UNL A   1      44.747  26.379  34.988  1.00  0.00     0.064 A 
ATOM     99  C   UNL A   1      44.000  25.208  35.179  1.00  0.00     0.173 A 
ATOM    100  C   UNL A   1      46.153  26.217  35.165  1.00  0.00     0.173 A 
ATOM    101  F   UNL A   1      42.684  25.164  34.949  1.00  0.00    -0.203 F 
ATOM    102  C   UNL A   1      44.592  23.998  35.558  1.00  0.00     0.198 A 
ATOM    103  C   UNL A   1      46.746  24.994  35.476  1.00  0.00     0.198 A 
ATOM    104  F   UNL A   1      47.021  27.224  34.999  1.00  0.00    -0.203 F 
ATOM    105  F   UNL A   1      43.819  22.922  35.758  1.00  0.00    -0.200 F 
ATOM    106  C   UNL A   1      45.963  23.885  35.687  1.00  0.00     0.200 A 
ATOM    107  F   UNL A   1      48.082  24.898  35.533  1.00  0.00    -0.200 F 
ATOM    108  F   UNL A   1      46.525  22.709  35.989  1.00  0.00    -0.200 F 
ENDBRANCH  75  98
ENDBRANCH  49  50
ENDBRANCH  42  44
ENDBRANCH  41  42
ENDBRANCH  40  41
ENDBRANCH  39  40
ENDBRANCH  38  39
ENDBRANCH  37  38
ENDBRANCH  36  37
ENDBRANCH  35  36
ENDBRANCH  34  35
ENDBRANCH   1  34
TORSDOF 25
ENDMDL
