MODEL 1
REMARK VINA RESULT:     -10.6      0.000      0.000
REMARK SMILES CCn1ccc2cc(S(=O)(=O)N3CCC[C@@H](C(=O)OCCOCCOCCOCCOC(=O)c4ccc(-c5c6nc(c(-c7c(F)c(F)c(F)c(F)c7F)c7ccc([nH]7)c(-c7c(F)c(F)c(F)c(F)c7F)c7nc(c(-c8c(F)c(F)c(F)c(F)c8F)c8ccc5[nH]8)C=C7)C=C6)cc4)C3)ccc21
REMARK SMILES IDX 24 1 23 2 22 3 21 4 20 5 19 6 17 7 18 8 16 9 12 10 13 11
REMARK SMILES IDX 97 12 14 13 15 14 9 15 10 16 11 17 8 18 3 19 4 20 100 21
REMARK SMILES IDX 5 22 6 23 99 24 7 25 98 26 2 27 1 28 25 29 26 30 27 31 28 32
REMARK SMILES IDX 29 33 30 34 31 35 32 36 33 37 34 38 35 39 96 40 36 41 95 42
REMARK SMILES IDX 37 43 38 44 39 45 89 46 40 47 94 48 88 49 90 50 41 51 93 52
REMARK SMILES IDX 87 53 86 54 42 56 74 57 54 58 73 59 55 60 58 61 72 62 91 63
REMARK SMILES IDX 56 64 57 65 71 67 92 68 59 69 43 70 44 71 52 72 45 73 46 74
REMARK SMILES IDX 50 75 53 76 47 77 48 78 51 79 49 80 75 81 76 82 84 83 77 84
REMARK SMILES IDX 78 85 82 86 85 87 79 88 80 89 83 90 81 91 60 92 61 93 69 94
REMARK SMILES IDX 62 95 63 96 67 97 70 98 64 99 65 100 68 101 66 102
REMARK H PARENT 90 55 58 66
REMARK Flexibility Score: inf
ROOT
ATOM      1  C   UNL A   1      36.922  22.419  24.321  1.00  0.00     0.188 C 
ENDROOT
BRANCH   1   2
ATOM      2  C   UNL A   1      36.316  23.699  24.919  1.00  0.00     0.188 C 
BRANCH   2   3
ATOM      3  O   UNL A   1      35.229  23.667  25.835  1.00  0.00    -0.376 OA
BRANCH   3   4
ATOM      4  C   UNL A   1      35.054  22.613  26.775  1.00  0.00     0.202 C 
BRANCH   4   5
ATOM      5  C   UNL A   1      34.125  21.417  26.530  1.00  0.00     0.261 C 
BRANCH   5   6
ATOM      6  O   UNL A   1      33.885  21.179  25.143  1.00  0.00    -0.463 OA
BRANCH   6   7
ATOM      7  C   UNL A   1      32.586  21.046  24.785  1.00  0.00     0.310 C 
ATOM      8  O   UNL A   1      31.824  20.174  25.177  1.00  0.00    -0.252 OA
BRANCH   7   9
ATOM      9  C   UNL A   1      32.179  22.189  23.879  1.00  0.00     0.114 C 
ATOM     10  N   UNL A   1      31.966  24.680  24.352  1.00  0.00    -0.197 NA
ATOM     11  C   UNL A   1      33.051  24.946  23.387  1.00  0.00     0.102 C 
ATOM     12  C   UNL A   1      31.587  23.296  24.729  1.00  0.00     0.117 C 
ATOM     13  C   UNL A   1      33.116  23.885  22.311  1.00  0.00     0.018 C 
ATOM     14  C   UNL A   1      33.352  22.548  22.969  1.00  0.00     0.018 C 
BRANCH  10  15
ATOM     15  S   UNL A   1      31.795  25.824  25.605  1.00  0.00     0.243 S 
ATOM     16  O   UNL A   1      33.133  26.201  26.015  1.00  0.00    -0.207 OA
ATOM     17  O   UNL A   1      30.829  25.306  26.550  1.00  0.00    -0.207 OA
BRANCH  15  18
ATOM     18  C   UNL A   1      31.067  27.272  24.861  1.00  0.00     0.083 A 
ATOM     19  N   UNL A   1      28.991  30.310  22.975  1.00  0.00    -0.348 N 
ATOM     20  C   UNL A   1      27.965  29.615  22.385  1.00  0.00     0.087 A 
ATOM     21  C   UNL A   1      29.799  29.442  23.683  1.00  0.00     0.048 A 
ATOM     22  C   UNL A   1      28.086  28.292  22.735  1.00  0.00     0.028 A 
ATOM     23  C   UNL A   1      29.249  28.164  23.537  1.00  0.00     0.001 A 
ATOM     24  C   UNL A   1      30.966  29.662  24.427  1.00  0.00     0.028 A 
ATOM     25  C   UNL A   1      29.883  27.065  24.144  1.00  0.00     0.032 A 
ATOM     26  C   UNL A   1      31.599  28.555  24.996  1.00  0.00     0.024 A 
BRANCH  19  27
ATOM     27  C   UNL A   1      29.224  31.732  22.786  1.00  0.00     0.119 C 
ATOM     28  C   UNL A   1      28.199  32.400  21.885  1.00  0.00     0.027 C 
ENDBRANCH  19  27
ENDBRANCH  15  18
ENDBRANCH  10  15
ENDBRANCH   7   9
ENDBRANCH   6   7
ENDBRANCH   5   6
ENDBRANCH   4   5
ENDBRANCH   3   4
ENDBRANCH   2   3
ENDBRANCH   1   2
BRANCH   1  29
ATOM     29  O   UNL A   1      37.875  21.805  25.158  1.00  0.00    -0.377 OA
BRANCH  29  30
ATOM     30  C   UNL A   1      38.794  22.675  25.811  1.00  0.00     0.188 C 
BRANCH  30  31
ATOM     31  C   UNL A   1      39.706  22.077  26.900  1.00  0.00     0.188 C 
BRANCH  31  32
ATOM     32  O   UNL A   1      41.035  21.844  26.436  1.00  0.00    -0.376 OA
BRANCH  32  33
ATOM     33  C   UNL A   1      41.401  20.485  26.201  1.00  0.00     0.202 C 
BRANCH  33  34
ATOM     34  C   UNL A   1      42.910  20.241  26.047  1.00  0.00     0.261 C 
BRANCH  34  35
ATOM     35  O   UNL A   1      43.423  20.737  24.799  1.00  0.00    -0.460 OA
BRANCH  35  36
ATOM     36  C   UNL A   1      44.729  21.088  24.768  1.00  0.00     0.338 C 
ATOM     37  O   UNL A   1      45.610  20.570  24.104  1.00  0.00    -0.246 OA
BRANCH  36  38
ATOM     38  C   UNL A   1      44.789  22.448  25.353  1.00  0.00     0.060 A 
ATOM     39  C   UNL A   1      45.557  22.721  26.492  1.00  0.00     0.016 A 
ATOM     40  C   UNL A   1      43.824  23.361  24.909  1.00  0.00     0.016 A 
ATOM     41  C   UNL A   1      45.277  23.859  27.247  1.00  0.00     0.010 A 
ATOM     42  C   UNL A   1      43.533  24.484  25.678  1.00  0.00     0.010 A 
ATOM     43  C   UNL A   1      44.226  24.711  26.872  1.00  0.00    -0.014 A 
BRANCH  43  44
ATOM     44  C   UNL A   1      43.967  25.907  27.689  1.00  0.00     0.031 A 
ATOM     45  C   UNL A   1      44.978  26.999  27.563  1.00  0.00     0.074 A 
ATOM     46  C   UNL A   1      42.808  26.145  28.340  1.00  0.00     0.049 A 
ATOM     47  N   UNL A   1      45.505  27.750  28.479  1.00  0.00    -0.248 NA
ATOM     48  C   UNL A   1      45.470  27.272  26.200  1.00  0.00     0.031 C 
ATOM     49  C   UNL A   1      41.584  25.347  28.272  1.00  0.00     0.029 A 
ATOM     50  N   UNL A   1      42.436  27.223  29.105  1.00  0.00    -0.354 N 
ATOM     51  C   UNL A   1      46.289  28.676  27.796  1.00  0.00     0.074 A 
ATOM     52  C   UNL A   1      46.294  28.294  26.407  1.00  0.00     0.031 C 
ATOM     53  C   UNL A   1      40.564  26.045  28.814  1.00  0.00     0.029 A 
ATOM     54  C   UNL A   1      41.066  27.313  29.316  1.00  0.00     0.049 A 
ATOM     55  H   UNL A   1      43.080  27.871  29.470  1.00  0.00     0.167 HD
ATOM     56  C   UNL A   1      46.780  29.814  28.352  1.00  0.00     0.037 A 
ATOM     57  C   UNL A   1      40.362  28.379  29.771  1.00  0.00     0.037 A 
ATOM     58  C   UNL A   1      46.853  29.769  29.778  1.00  0.00     0.049 A 
ATOM     59  C   UNL A   1      41.302  29.338  30.398  1.00  0.00     0.074 A 
ATOM     60  C   UNL A   1      47.574  29.020  30.685  1.00  0.00     0.029 A 
ATOM     61  N   UNL A   1      45.895  30.420  30.507  1.00  0.00    -0.354 N 
ATOM     62  N   UNL A   1      41.910  29.163  31.536  1.00  0.00    -0.248 NA
ATOM     63  C   UNL A   1      41.811  30.428  29.580  1.00  0.00     0.031 C 
ATOM     64  C   UNL A   1      46.752  28.925  31.843  1.00  0.00     0.029 A 
ATOM     65  C   UNL A   1      45.570  29.614  31.569  1.00  0.00     0.049 A 
ATOM     66  H   UNL A   1      45.511  31.305  30.307  1.00  0.00     0.167 HD
ATOM     67  C   UNL A   1      43.107  29.847  31.405  1.00  0.00     0.074 A 
ATOM     68  C   UNL A   1      42.928  30.714  30.250  1.00  0.00     0.031 C 
ATOM     69  C   UNL A   1      44.226  29.444  32.072  1.00  0.00     0.037 A 
BRANCH  56  70
ATOM     70  C   UNL A   1      46.986  31.059  27.548  1.00  0.00     0.064 A 
ATOM     71  C   UNL A   1      48.269  31.570  27.305  1.00  0.00     0.173 A 
ATOM     72  C   UNL A   1      45.902  31.883  27.171  1.00  0.00     0.173 A 
ATOM     73  F   UNL A   1      49.357  30.888  27.689  1.00  0.00    -0.203 F 
ATOM     74  C   UNL A   1      48.453  32.818  26.703  1.00  0.00     0.198 A 
ATOM     75  C   UNL A   1      46.086  33.103  26.528  1.00  0.00     0.198 A 
ATOM     76  F   UNL A   1      44.640  31.555  27.487  1.00  0.00    -0.203 F 
ATOM     77  F   UNL A   1      49.691  33.304  26.541  1.00  0.00    -0.200 F 
ATOM     78  C   UNL A   1      47.363  33.576  26.303  1.00  0.00     0.200 A 
ATOM     79  F   UNL A   1      45.020  33.832  26.173  1.00  0.00    -0.200 F 
ATOM     80  F   UNL A   1      47.541  34.779  25.740  1.00  0.00    -0.200 F 
ENDBRANCH  56  70
BRANCH  57  81
ATOM     81  C   UNL A   1      38.951  28.741  29.480  1.00  0.00     0.064 A 
ATOM     82  C   UNL A   1      38.014  28.934  30.510  1.00  0.00     0.173 A 
ATOM     83  C   UNL A   1      38.539  29.128  28.188  1.00  0.00     0.173 A 
ATOM     84  F   UNL A   1      38.337  28.652  31.780  1.00  0.00    -0.203 F 
ATOM     85  C   UNL A   1      36.747  29.477  30.260  1.00  0.00     0.198 A 
ATOM     86  C   UNL A   1      37.269  29.646  27.936  1.00  0.00     0.198 A 
ATOM     87  F   UNL A   1      39.391  29.097  27.154  1.00  0.00    -0.203 F 
ATOM     88  F   UNL A   1      35.902  29.700  31.276  1.00  0.00    -0.200 F 
ATOM     89  C   UNL A   1      36.376  29.830  28.973  1.00  0.00     0.200 A 
ATOM     90  F   UNL A   1      36.940  30.014  26.690  1.00  0.00    -0.200 F 
ATOM     91  F   UNL A   1      35.180  30.386  28.738  1.00  0.00    -0.200 F 
ENDBRANCH  57  81
BRANCH  69  92
ATOM     92  C   UNL A   1      44.043  28.511  33.234  1.00  0.00     0.064 A 
ATOM     93  C   UNL A   1      43.825  28.940  34.554  1.00  0.00     0.173 A 
ATOM     94  C   UNL A   1      43.962  27.134  32.978  1.00  0.00     0.173 A 
ATOM     95  F   UNL A   1      43.789  30.246  34.858  1.00  0.00    -0.203 F 
ATOM     96  C   UNL A   1      43.587  28.026  35.579  1.00  0.00     0.198 A 
ATOM     97  C   UNL A   1      43.685  26.226  33.997  1.00  0.00     0.198 A 
ATOM     98  F   UNL A   1      44.105  26.672  31.726  1.00  0.00    -0.203 F 
ATOM     99  F   UNL A   1      43.401  28.460  36.834  1.00  0.00    -0.200 F 
ATOM    100  C   UNL A   1      43.512  26.670  35.298  1.00  0.00     0.200 A 
ATOM    101  F   UNL A   1      43.568  24.921  33.713  1.00  0.00    -0.200 F 
ATOM    102  F   UNL A   1      43.251  25.795  36.278  1.00  0.00    -0.200 F 
ENDBRANCH  69  92
ENDBRANCH  43  44
ENDBRANCH  36  38
ENDBRANCH  35  36
ENDBRANCH  34  35
ENDBRANCH  33  34
ENDBRANCH  32  33
ENDBRANCH  31  32
ENDBRANCH  30  31
ENDBRANCH  29  30
ENDBRANCH   1  29
TORSDOF 23
ENDMDL
MODEL 2
REMARK VINA RESULT:     -10.3      3.151      7.947
REMARK SMILES CCn1ccc2cc(S(=O)(=O)N3CCC[C@@H](C(=O)OCCOCCOCCOCCOC(=O)c4ccc(-c5c6nc(c(-c7c(F)c(F)c(F)c(F)c7F)c7ccc([nH]7)c(-c7c(F)c(F)c(F)c(F)c7F)c7nc(c(-c8c(F)c(F)c(F)c(F)c8F)c8ccc5[nH]8)C=C7)C=C6)cc4)C3)ccc21
REMARK SMILES IDX 24 1 23 2 22 3 21 4 20 5 19 6 17 7 18 8 16 9 12 10 13 11
REMARK SMILES IDX 97 12 14 13 15 14 9 15 10 16 11 17 8 18 3 19 4 20 100 21
REMARK SMILES IDX 5 22 6 23 99 24 7 25 98 26 2 27 1 28 25 29 26 30 27 31 28 32
REMARK SMILES IDX 29 33 30 34 31 35 32 36 33 37 34 38 35 39 96 40 36 41 95 42
REMARK SMILES IDX 37 43 38 44 39 45 89 46 40 47 94 48 88 49 90 50 41 51 93 52
REMARK SMILES IDX 87 53 86 54 42 56 74 57 54 58 73 59 55 60 58 61 72 62 91 63
REMARK SMILES IDX 56 64 57 65 71 67 92 68 59 69 43 70 44 71 52 72 45 73 46 74
REMARK SMILES IDX 50 75 53 76 47 77 48 78 51 79 49 80 75 81 76 82 84 83 77 84
REMARK SMILES IDX 78 85 82 86 85 87 79 88 80 89 83 90 81 91 60 92 61 93 69 94
REMARK SMILES IDX 62 95 63 96 67 97 70 98 64 99 65 100 68 101 66 102
REMARK H PARENT 90 55 58 66
REMARK Flexibility Score: inf
ROOT
ATOM      1  C   UNL A   1      33.633  29.563  27.206  1.00  0.00     0.188 C 
ENDROOT
BRANCH   1   2
ATOM      2  C   UNL A   1      32.106  29.457  27.062  1.00  0.00     0.188 C 
BRANCH   2   3
ATOM      3  O   UNL A   1      31.408  28.234  27.260  1.00  0.00    -0.376 OA
BRANCH   3   4
ATOM      4  C   UNL A   1      31.300  27.243  26.242  1.00  0.00     0.202 C 
BRANCH   4   5
ATOM      5  C   UNL A   1      31.760  25.793  26.434  1.00  0.00     0.261 C 
BRANCH   5   6
ATOM      6  O   UNL A   1      30.848  24.846  25.879  1.00  0.00    -0.463 OA
BRANCH   6   7
ATOM      7  C   UNL A   1      30.593  23.758  26.642  1.00  0.00     0.310 C 
ATOM      8  O   UNL A   1      29.669  23.643  27.435  1.00  0.00    -0.252 OA
BRANCH   7   9
ATOM      9  C   UNL A   1      31.579  22.655  26.319  1.00  0.00     0.114 C 
ATOM     10  N   UNL A   1      33.240  22.429  24.405  1.00  0.00    -0.197 NA
ATOM     11  C   UNL A   1      34.351  22.470  25.377  1.00  0.00     0.102 C 
ATOM     12  C   UNL A   1      31.835  22.654  24.826  1.00  0.00     0.117 C 
ATOM     13  C   UNL A   1      33.931  21.938  26.730  1.00  0.00     0.018 C 
ATOM     14  C   UNL A   1      32.789  22.781  27.243  1.00  0.00     0.018 C 
BRANCH  10  15
ATOM     15  S   UNL A   1      33.608  22.998  22.840  1.00  0.00     0.243 S 
ATOM     16  O   UNL A   1      32.806  22.227  21.913  1.00  0.00    -0.207 OA
ATOM     17  O   UNL A   1      35.048  23.068  22.721  1.00  0.00    -0.207 OA
BRANCH  15  18
ATOM     18  C   UNL A   1      32.999  24.672  22.764  1.00  0.00     0.083 A 
ATOM     19  N   UNL A   1      32.045  28.695  22.812  1.00  0.00    -0.348 N 
ATOM     20  C   UNL A   1      33.115  29.223  23.491  1.00  0.00     0.087 A 
ATOM     21  C   UNL A   1      32.200  27.330  22.680  1.00  0.00     0.048 A 
ATOM     22  C   UNL A   1      33.988  28.201  23.774  1.00  0.00     0.028 A 
ATOM     23  C   UNL A   1      33.416  26.998  23.286  1.00  0.00     0.001 A 
ATOM     24  C   UNL A   1      31.379  26.357  22.093  1.00  0.00     0.028 A 
ATOM     25  C   UNL A   1      33.829  25.654  23.318  1.00  0.00     0.032 A 
ATOM     26  C   UNL A   1      31.791  25.024  22.162  1.00  0.00     0.024 A 
BRANCH  19  27
ATOM     27  C   UNL A   1      30.886  29.468  22.395  1.00  0.00     0.119 C 
ATOM     28  C   UNL A   1      29.854  29.655  23.494  1.00  0.00     0.027 C 
ENDBRANCH  19  27
ENDBRANCH  15  18
ENDBRANCH  10  15
ENDBRANCH   7   9
ENDBRANCH   6   7
ENDBRANCH   5   6
ENDBRANCH   4   5
ENDBRANCH   3   4
ENDBRANCH   2   3
ENDBRANCH   1   2
BRANCH   1  29
ATOM     29  O   UNL A   1      34.042  30.516  28.158  1.00  0.00    -0.377 OA
BRANCH  29  30
ATOM     30  C   UNL A   1      34.737  31.652  27.654  1.00  0.00     0.188 C 
BRANCH  30  31
ATOM     31  C   UNL A   1      34.386  33.033  28.241  1.00  0.00     0.188 C 
BRANCH  31  32
ATOM     32  O   UNL A   1      34.313  33.023  29.666  1.00  0.00    -0.376 OA
BRANCH  32  33
ATOM     33  C   UNL A   1      34.492  34.276  30.325  1.00  0.00     0.202 C 
BRANCH  33  34
ATOM     34  C   UNL A   1      34.481  34.204  31.860  1.00  0.00     0.261 C 
BRANCH  34  35
ATOM     35  O   UNL A   1      35.778  34.443  32.431  1.00  0.00    -0.460 OA
BRANCH  35  36
ATOM     36  C   UNL A   1      36.268  33.494  33.261  1.00  0.00     0.338 C 
ATOM     37  O   UNL A   1      35.673  32.937  34.168  1.00  0.00    -0.246 OA
BRANCH  36  38
ATOM     38  C   UNL A   1      37.490  32.979  32.600  1.00  0.00     0.060 A 
ATOM     39  C   UNL A   1      37.423  32.242  31.411  1.00  0.00     0.016 A 
ATOM     40  C   UNL A   1      38.666  32.998  33.361  1.00  0.00     0.016 A 
ATOM     41  C   UNL A   1      38.501  31.437  31.046  1.00  0.00     0.010 A 
ATOM     42  C   UNL A   1      39.731  32.176  33.004  1.00  0.00     0.010 A 
ATOM     43  C   UNL A   1      39.633  31.359  31.872  1.00  0.00    -0.014 A 
BRANCH  43  44
ATOM     44  C   UNL A   1      40.753  30.505  31.449  1.00  0.00     0.031 A 
ATOM     45  C   UNL A   1      41.658  31.100  30.420  1.00  0.00     0.074 A 
ATOM     46  C   UNL A   1      41.114  29.362  32.071  1.00  0.00     0.049 A 
ATOM     47  N   UNL A   1      42.194  30.556  29.373  1.00  0.00    -0.248 NA
ATOM     48  C   UNL A   1      41.996  32.524  30.601  1.00  0.00     0.031 C 
ATOM     49  C   UNL A   1      40.556  28.826  33.312  1.00  0.00     0.029 A 
ATOM     50  N   UNL A   1      42.145  28.498  31.794  1.00  0.00    -0.354 N 
ATOM     51  C   UNL A   1      43.040  31.524  28.842  1.00  0.00     0.074 A 
ATOM     52  C   UNL A   1      42.826  32.738  29.586  1.00  0.00     0.031 C 
ATOM     53  C   UNL A   1      41.356  27.841  33.773  1.00  0.00     0.029 A 
ATOM     54  C   UNL A   1      42.450  27.636  32.838  1.00  0.00     0.049 A 
ATOM     55  H   UNL A   1      42.624  28.492  30.933  1.00  0.00     0.167 HD
ATOM     56  C   UNL A   1      44.002  31.269  27.917  1.00  0.00     0.037 A 
ATOM     57  C   UNL A   1      43.563  26.877  32.995  1.00  0.00     0.037 A 
ATOM     58  C   UNL A   1      43.782  30.067  27.178  1.00  0.00     0.049 A 
ATOM     59  C   UNL A   1      44.263  26.786  31.692  1.00  0.00     0.074 A 
ATOM     60  C   UNL A   1      42.818  29.646  26.284  1.00  0.00     0.029 A 
ATOM     61  N   UNL A   1      44.503  28.950  27.505  1.00  0.00    -0.354 N 
ATOM     62  N   UNL A   1      43.854  26.100  30.663  1.00  0.00    -0.248 NA
ATOM     63  C   UNL A   1      45.334  27.733  31.425  1.00  0.00     0.031 C 
ATOM     64  C   UNL A   1      42.737  28.234  26.446  1.00  0.00     0.029 A 
ATOM     65  C   UNL A   1      43.649  27.878  27.439  1.00  0.00     0.049 A 
ATOM     66  H   UNL A   1      45.458  28.922  27.743  1.00  0.00     0.167 HD
ATOM     67  C   UNL A   1      44.329  26.798  29.565  1.00  0.00     0.074 A 
ATOM     68  C   UNL A   1      45.341  27.700  30.092  1.00  0.00     0.031 C 
ATOM     69  C   UNL A   1      43.661  26.777  28.376  1.00  0.00     0.037 A 
BRANCH  56  70
ATOM     70  C   UNL A   1      45.276  32.053  27.868  1.00  0.00     0.064 A 
ATOM     71  C   UNL A   1      45.570  32.907  26.796  1.00  0.00     0.173 A 
ATOM     72  C   UNL A   1      46.324  31.819  28.788  1.00  0.00     0.173 A 
ATOM     73  F   UNL A   1      44.660  33.135  25.839  1.00  0.00    -0.203 F 
ATOM     74  C   UNL A   1      46.827  33.506  26.666  1.00  0.00     0.198 A 
ATOM     75  C   UNL A   1      47.557  32.453  28.683  1.00  0.00     0.198 A 
ATOM     76  F   UNL A   1      46.196  30.910  29.767  1.00  0.00    -0.203 F 
ATOM     77  F   UNL A   1      47.095  34.267  25.597  1.00  0.00    -0.200 F 
ATOM     78  C   UNL A   1      47.813  33.289  27.616  1.00  0.00     0.200 A 
ATOM     79  F   UNL A   1      48.507  32.211  29.598  1.00  0.00    -0.200 F 
ATOM     80  F   UNL A   1      49.022  33.851  27.481  1.00  0.00    -0.200 F 
ENDBRANCH  56  70
BRANCH  57  81
ATOM     81  C   UNL A   1      44.198  26.427  34.260  1.00  0.00     0.064 A 
ATOM     82  C   UNL A   1      44.780  27.341  35.157  1.00  0.00     0.173 A 
ATOM     83  C   UNL A   1      44.050  25.107  34.732  1.00  0.00     0.173 A 
ATOM     84  F   UNL A   1      44.906  28.632  34.819  1.00  0.00    -0.203 F 
ATOM     85  C   UNL A   1      45.188  26.954  36.439  1.00  0.00     0.198 A 
ATOM     86  C   UNL A   1      44.479  24.717  36.000  1.00  0.00     0.198 A 
ATOM     87  F   UNL A   1      43.404  24.183  34.006  1.00  0.00    -0.203 F 
ATOM     88  F   UNL A   1      45.685  27.866  37.287  1.00  0.00    -0.200 F 
ATOM     89  C   UNL A   1      45.038  25.643  36.859  1.00  0.00     0.200 A 
ATOM     90  F   UNL A   1      44.295  23.452  36.402  1.00  0.00    -0.200 F 
ATOM     91  F   UNL A   1      45.392  25.281  38.099  1.00  0.00    -0.200 F 
ENDBRANCH  57  81
BRANCH  69  92
ATOM     92  C   UNL A   1      42.647  25.691  28.167  1.00  0.00     0.064 A 
ATOM     93  C   UNL A   1      41.285  25.821  28.488  1.00  0.00     0.173 A 
ATOM     94  C   UNL A   1      43.047  24.523  27.500  1.00  0.00     0.173 A 
ATOM     95  F   UNL A   1      40.810  26.948  29.036  1.00  0.00    -0.203 F 
ATOM     96  C   UNL A   1      40.377  24.803  28.200  1.00  0.00     0.198 A 
ATOM     97  C   UNL A   1      42.130  23.525  27.179  1.00  0.00     0.198 A 
ATOM     98  F   UNL A   1      44.325  24.370  27.117  1.00  0.00    -0.203 F 
ATOM     99  F   UNL A   1      39.086  24.943  28.535  1.00  0.00    -0.200 F 
ATOM    100  C   UNL A   1      40.799  23.659  27.541  1.00  0.00     0.200 A 
ATOM    101  F   UNL A   1      42.535  22.441  26.501  1.00  0.00    -0.200 F 
ATOM    102  F   UNL A   1      39.920  22.695  27.235  1.00  0.00    -0.200 F 
ENDBRANCH  69  92
ENDBRANCH  43  44
ENDBRANCH  36  38
ENDBRANCH  35  36
ENDBRANCH  34  35
ENDBRANCH  33  34
ENDBRANCH  32  33
ENDBRANCH  31  32
ENDBRANCH  30  31
ENDBRANCH  29  30
ENDBRANCH   1  29
TORSDOF 23
ENDMDL
MODEL 3
REMARK VINA RESULT:     -10.0      3.606      9.314
REMARK SMILES CCn1ccc2cc(S(=O)(=O)N3CCC[C@@H](C(=O)OCCOCCOCCOCCOC(=O)c4ccc(-c5c6nc(c(-c7c(F)c(F)c(F)c(F)c7F)c7ccc([nH]7)c(-c7c(F)c(F)c(F)c(F)c7F)c7nc(c(-c8c(F)c(F)c(F)c(F)c8F)c8ccc5[nH]8)C=C7)C=C6)cc4)C3)ccc21
REMARK SMILES IDX 24 1 23 2 22 3 21 4 20 5 19 6 17 7 18 8 16 9 12 10 13 11
REMARK SMILES IDX 97 12 14 13 15 14 9 15 10 16 11 17 8 18 3 19 4 20 100 21
REMARK SMILES IDX 5 22 6 23 99 24 7 25 98 26 2 27 1 28 25 29 26 30 27 31 28 32
REMARK SMILES IDX 29 33 30 34 31 35 32 36 33 37 34 38 35 39 96 40 36 41 95 42
REMARK SMILES IDX 37 43 38 44 39 45 89 46 40 47 94 48 88 49 90 50 41 51 93 52
REMARK SMILES IDX 87 53 86 54 42 56 74 57 54 58 73 59 55 60 58 61 72 62 91 63
REMARK SMILES IDX 56 64 57 65 71 67 92 68 59 69 43 70 44 71 52 72 45 73 46 74
REMARK SMILES IDX 50 75 53 76 47 77 48 78 51 79 49 80 75 81 76 82 84 83 77 84
REMARK SMILES IDX 78 85 82 86 85 87 79 88 80 89 83 90 81 91 60 92 61 93 69 94
REMARK SMILES IDX 62 95 63 96 67 97 70 98 64 99 65 100 68 101 66 102
REMARK H PARENT 90 55 58 66
REMARK Flexibility Score: inf
ROOT
ATOM      1  C   UNL A   1      33.155  31.205  27.221  1.00  0.00     0.188 C 
ENDROOT
BRANCH   1   2
ATOM      2  C   UNL A   1      33.490  29.726  26.972  1.00  0.00     0.188 C 
BRANCH   2   3
ATOM      3  O   UNL A   1      32.866  28.970  25.942  1.00  0.00    -0.376 OA
BRANCH   3   4
ATOM      4  C   UNL A   1      31.832  29.505  25.123  1.00  0.00     0.202 C 
BRANCH   4   5
ATOM      5  C   UNL A   1      31.434  28.896  23.772  1.00  0.00     0.261 C 
BRANCH   5   6
ATOM      6  O   UNL A   1      30.633  27.723  23.909  1.00  0.00    -0.463 OA
BRANCH   6   7
ATOM      7  C   UNL A   1      31.279  26.546  23.738  1.00  0.00     0.310 C 
ATOM      8  O   UNL A   1      32.378  26.404  23.221  1.00  0.00    -0.252 OA
BRANCH   7   9
ATOM      9  C   UNL A   1      30.476  25.420  24.354  1.00  0.00     0.114 C 
ATOM     10  N   UNL A   1      31.088  22.984  24.764  1.00  0.00    -0.197 NA
ATOM     11  C   UNL A   1      30.970  23.209  26.218  1.00  0.00     0.102 C 
ATOM     12  C   UNL A   1      30.979  24.103  23.795  1.00  0.00     0.117 C 
ATOM     13  C   UNL A   1      29.989  24.316  26.535  1.00  0.00     0.018 C 
ATOM     14  C   UNL A   1      30.466  25.585  25.872  1.00  0.00     0.018 C 
BRANCH  10  15
ATOM     15  S   UNL A   1      32.164  21.747  24.293  1.00  0.00     0.243 S 
ATOM     16  O   UNL A   1      32.148  21.704  22.845  1.00  0.00    -0.207 OA
ATOM     17  O   UNL A   1      31.868  20.576  25.090  1.00  0.00    -0.207 OA
BRANCH  15  18
ATOM     18  C   UNL A   1      33.792  22.298  24.765  1.00  0.00     0.083 A 
ATOM     19  N   UNL A   1      37.733  23.092  25.733  1.00  0.00    -0.348 N 
ATOM     20  C   UNL A   1      38.311  21.859  25.560  1.00  0.00     0.087 A 
ATOM     21  C   UNL A   1      36.388  23.025  25.431  1.00  0.00     0.048 A 
ATOM     22  C   UNL A   1      37.345  20.992  25.112  1.00  0.00     0.028 A 
ATOM     23  C   UNL A   1      36.122  21.707  25.045  1.00  0.00     0.001 A 
ATOM     24  C   UNL A   1      35.381  23.999  25.472  1.00  0.00     0.028 A 
ATOM     25  C   UNL A   1      34.810  21.340  24.694  1.00  0.00     0.032 A 
ATOM     26  C   UNL A   1      34.078  23.608  25.151  1.00  0.00     0.024 A 
BRANCH  19  27
ATOM     27  C   UNL A   1      38.436  24.254  26.253  1.00  0.00     0.119 C 
ATOM     28  C   UNL A   1      39.283  23.951  27.477  1.00  0.00     0.027 C 
ENDBRANCH  19  27
ENDBRANCH  15  18
ENDBRANCH  10  15
ENDBRANCH   7   9
ENDBRANCH   6   7
ENDBRANCH   5   6
ENDBRANCH   4   5
ENDBRANCH   3   4
ENDBRANCH   2   3
ENDBRANCH   1   2
BRANCH   1  29
ATOM     29  O   UNL A   1      34.231  31.944  27.751  1.00  0.00    -0.377 OA
BRANCH  29  30
ATOM     30  C   UNL A   1      34.043  33.352  27.847  1.00  0.00     0.188 C 
BRANCH  30  31
ATOM     31  C   UNL A   1      33.679  33.940  29.224  1.00  0.00     0.188 C 
BRANCH  31  32
ATOM     32  O   UNL A   1      34.807  34.496  29.899  1.00  0.00    -0.376 OA
BRANCH  32  33
ATOM     33  C   UNL A   1      34.901  34.245  31.301  1.00  0.00     0.202 C 
BRANCH  33  34
ATOM     34  C   UNL A   1      36.257  33.692  31.766  1.00  0.00     0.261 C 
BRANCH  34  35
ATOM     35  O   UNL A   1      36.158  32.354  32.282  1.00  0.00    -0.460 OA
BRANCH  35  36
ATOM     36  C   UNL A   1      36.224  31.343  31.384  1.00  0.00     0.338 C 
ATOM     37  O   UNL A   1      35.588  31.241  30.350  1.00  0.00    -0.246 OA
BRANCH  36  38
ATOM     38  C   UNL A   1      37.487  30.627  31.684  1.00  0.00     0.060 A 
ATOM     39  C   UNL A   1      38.711  31.303  31.758  1.00  0.00     0.016 A 
ATOM     40  C   UNL A   1      37.448  29.230  31.589  1.00  0.00     0.016 A 
ATOM     41  C   UNL A   1      39.896  30.583  31.625  1.00  0.00     0.010 A 
ATOM     42  C   UNL A   1      38.634  28.518  31.434  1.00  0.00     0.010 A 
ATOM     43  C   UNL A   1      39.857  29.197  31.405  1.00  0.00    -0.014 A 
BRANCH  43  44
ATOM     44  C   UNL A   1      41.129  28.469  31.278  1.00  0.00     0.031 A 
ATOM     45  C   UNL A   1      41.846  28.206  32.562  1.00  0.00     0.074 A 
ATOM     46  C   UNL A   1      41.550  27.866  30.146  1.00  0.00     0.049 A 
ATOM     47  N   UNL A   1      43.110  28.293  32.838  1.00  0.00    -0.248 NA
ATOM     48  C   UNL A   1      41.005  27.792  33.700  1.00  0.00     0.031 C 
ATOM     49  C   UNL A   1      40.799  27.721  28.898  1.00  0.00     0.029 A 
ATOM     50  N   UNL A   1      42.691  27.141  29.907  1.00  0.00    -0.354 N 
ATOM     51  C   UNL A   1      43.240  27.817  34.140  1.00  0.00     0.074 A 
ATOM     52  C   UNL A   1      41.912  27.594  34.651  1.00  0.00     0.031 C 
ATOM     53  C   UNL A   1      41.416  26.821  28.106  1.00  0.00     0.029 A 
ATOM     54  C   UNL A   1      42.632  26.364  28.758  1.00  0.00     0.049 A 
ATOM     55  H   UNL A   1      43.479  27.171  30.497  1.00  0.00     0.167 HD
ATOM     56  C   UNL A   1      44.424  27.470  34.708  1.00  0.00     0.037 A 
ATOM     57  C   UNL A   1      43.451  25.344  28.399  1.00  0.00     0.037 A 
ATOM     58  C   UNL A   1      45.558  28.064  34.076  1.00  0.00     0.049 A 
ATOM     59  C   UNL A   1      44.683  25.412  29.220  1.00  0.00     0.074 A 
ATOM     60  C   UNL A   1      46.015  29.358  33.928  1.00  0.00     0.029 A 
ATOM     61  N   UNL A   1      46.314  27.302  33.225  1.00  0.00    -0.354 N 
ATOM     62  N   UNL A   1      45.623  26.304  29.097  1.00  0.00    -0.248 NA
ATOM     63  C   UNL A   1      44.741  24.608  30.431  1.00  0.00     0.031 C 
ATOM     64  C   UNL A   1      46.724  29.376  32.694  1.00  0.00     0.029 A 
ATOM     65  C   UNL A   1      46.648  28.092  32.155  1.00  0.00     0.049 A 
ATOM     66  H   UNL A   1      46.570  26.360  33.359  1.00  0.00     0.167 HD
ATOM     67  C   UNL A   1      46.145  26.444  30.372  1.00  0.00     0.074 A 
ATOM     68  C   UNL A   1      45.667  25.285  31.111  1.00  0.00     0.031 C 
ATOM     69  C   UNL A   1      46.683  27.626  30.787  1.00  0.00     0.037 A 
BRANCH  56  70
ATOM     70  C   UNL A   1      44.517  26.384  35.733  1.00  0.00     0.064 A 
ATOM     71  C   UNL A   1      44.897  26.655  37.055  1.00  0.00     0.173 A 
ATOM     72  C   UNL A   1      44.427  25.020  35.375  1.00  0.00     0.173 A 
ATOM     73  F   UNL A   1      45.072  27.918  37.466  1.00  0.00    -0.203 F 
ATOM     74  C   UNL A   1      45.149  25.625  37.966  1.00  0.00     0.198 A 
ATOM     75  C   UNL A   1      44.631  23.996  36.295  1.00  0.00     0.198 A 
ATOM     76  F   UNL A   1      44.212  24.650  34.103  1.00  0.00    -0.203 F 
ATOM     77  F   UNL A   1      45.569  25.917  39.204  1.00  0.00    -0.200 F 
ATOM     78  C   UNL A   1      45.002  24.298  37.589  1.00  0.00     0.200 A 
ATOM     79  F   UNL A   1      44.509  22.720  35.905  1.00  0.00    -0.200 F 
ATOM     80  F   UNL A   1      45.259  23.312  38.459  1.00  0.00    -0.200 F 
ENDBRANCH  56  70
BRANCH  57  81
ATOM     81  C   UNL A   1      43.131  24.161  27.559  1.00  0.00     0.064 A 
ATOM     82  C   UNL A   1      43.532  24.085  26.214  1.00  0.00     0.173 A 
ATOM     83  C   UNL A   1      42.619  22.974  28.120  1.00  0.00     0.173 A 
ATOM     84  F   UNL A   1      44.088  25.147  25.612  1.00  0.00    -0.203 F 
ATOM     85  C   UNL A   1      43.423  22.898  25.480  1.00  0.00     0.198 A 
ATOM     86  C   UNL A   1      42.488  21.798  27.381  1.00  0.00     0.198 A 
ATOM     87  F   UNL A   1      42.316  22.901  29.424  1.00  0.00    -0.203 F 
ATOM     88  F   UNL A   1      43.869  22.848  24.217  1.00  0.00    -0.200 F 
ATOM     89  C   UNL A   1      42.899  21.756  26.064  1.00  0.00     0.200 A 
ATOM     90  F   UNL A   1      42.011  20.694  27.973  1.00  0.00    -0.200 F 
ATOM     91  F   UNL A   1      42.831  20.609  25.375  1.00  0.00    -0.200 F 
ENDBRANCH  57  81
BRANCH  69  92
ATOM     92  C   UNL A   1      47.056  28.627  29.733  1.00  0.00     0.064 A 
ATOM     93  C   UNL A   1      48.303  28.652  29.085  1.00  0.00     0.173 A 
ATOM     94  C   UNL A   1      46.070  29.514  29.275  1.00  0.00     0.173 A 
ATOM     95  F   UNL A   1      49.262  27.769  29.400  1.00  0.00    -0.203 F 
ATOM     96  C   UNL A   1      48.564  29.560  28.060  1.00  0.00     0.198 A 
ATOM     97  C   UNL A   1      46.322  30.394  28.225  1.00  0.00     0.198 A 
ATOM     98  F   UNL A   1      44.843  29.495  29.819  1.00  0.00    -0.203 F 
ATOM     99  F   UNL A   1      49.769  29.576  27.471  1.00  0.00    -0.200 F 
ATOM    100  C   UNL A   1      47.571  30.425  27.627  1.00  0.00     0.200 A 
ATOM    101  F   UNL A   1      45.345  31.196  27.779  1.00  0.00    -0.200 F 
ATOM    102  F   UNL A   1      47.812  31.275  26.620  1.00  0.00    -0.200 F 
ENDBRANCH  69  92
ENDBRANCH  43  44
ENDBRANCH  36  38
ENDBRANCH  35  36
ENDBRANCH  34  35
ENDBRANCH  33  34
ENDBRANCH  32  33
ENDBRANCH  31  32
ENDBRANCH  30  31
ENDBRANCH  29  30
ENDBRANCH   1  29
TORSDOF 23
ENDMDL
