MODEL 1
REMARK VINA RESULT:     -10.7      0.000      0.000
REMARK SMILES O=C(Cc1ccn[nH]1)Nc1sc2c(c1C(=O)OCCOCCOCCOCCOC(=O)c1ccc(-c3c4nc(c(-c5c(F)c(F)c(F)c(F)c5F)c5ccc([nH]5)c(-c5c(F)c(F)c(F)c(F)c5F)c5nc(c(-c6c(F)c(F)c(F)c(F)c6F)c6ccc3[nH]6)C=C5)C=C4)cc1)CCC2
REMARK SMILES IDX 22 1 21 2 20 3 19 4 18 5 17 6 15 7 16 8 14 9 10 10 11 11
REMARK SMILES IDX 12 12 13 13 97 14 95 15 96 16 9 17 1 18 2 19 3 21 4 22 5 23
REMARK SMILES IDX 8 24 6 25 7 26 23 28 24 29 25 30 26 31 27 32 28 33 29 34
REMARK SMILES IDX 30 35 31 36 32 37 33 38 94 39 34 40 93 41 35 42 36 43 37 44
REMARK SMILES IDX 87 45 38 46 92 47 86 48 88 49 39 50 91 51 85 52 84 53 40 55
REMARK SMILES IDX 72 56 52 57 71 58 53 59 56 60 70 61 89 62 54 63 55 64 69 66
REMARK SMILES IDX 90 67 57 68 41 69 42 70 50 71 43 72 44 73 48 74 51 75 45 76
REMARK SMILES IDX 46 77 49 78 47 79 73 80 74 81 82 82 75 83 76 84 80 85 83 86
REMARK SMILES IDX 77 87 78 88 81 89 79 90 58 91 59 92 67 93 60 94 61 95 65 96
REMARK SMILES IDX 68 97 62 98 63 99 66 100 64 101
REMARK H PARENT 9 20 8 27 88 54 56 65
REMARK Flexibility Score: inf
ROOT
ATOM      1  C   UNL A   1      40.707  19.905  26.418  1.00  0.00     0.188 C 
ENDROOT
BRANCH   1   2
ATOM      2  C   UNL A   1      39.538  20.750  25.863  1.00  0.00     0.188 C 
BRANCH   2   3
ATOM      3  O   UNL A   1      39.649  22.138  26.149  1.00  0.00    -0.376 OA
BRANCH   3   4
ATOM      4  C   UNL A   1      38.430  22.853  26.190  1.00  0.00     0.202 C 
BRANCH   4   5
ATOM      5  C   UNL A   1      37.420  22.387  25.135  1.00  0.00     0.261 C 
BRANCH   5   6
ATOM      6  O   UNL A   1      36.536  23.401  24.619  1.00  0.00    -0.460 OA
BRANCH   6   7
ATOM      7  C   UNL A   1      35.230  23.367  24.995  1.00  0.00     0.341 C 
ATOM      8  O   UNL A   1      34.789  22.631  25.879  1.00  0.00    -0.246 OA
BRANCH   7   9
ATOM      9  C   UNL A   1      34.415  24.336  24.271  1.00  0.00     0.098 A 
ATOM     10  C   UNL A   1      33.744  24.085  23.076  1.00  0.00     0.110 A 
ATOM     11  S   UNL A   1      33.147  25.497  22.310  1.00  0.00    -0.122 S 
ATOM     12  C   UNL A   1      33.478  26.383  23.688  1.00  0.00     0.011 A 
ATOM     13  C   UNL A   1      34.132  25.679  24.662  1.00  0.00    -0.017 A 
ATOM     14  C   UNL A   1      33.202  27.793  24.042  1.00  0.00     0.047 C 
ATOM     15  C   UNL A   1      34.393  26.529  25.852  1.00  0.00     0.038 C 
ATOM     16  C   UNL A   1      33.502  27.781  25.571  1.00  0.00     0.010 C 
BRANCH  10  17
ATOM     17  N   UNL A   1      33.409  22.908  22.432  1.00  0.00    -0.317 N 
ATOM     18  O   UNL A   1      31.517  22.635  23.742  1.00  0.00    -0.274 OA
ATOM     19  C   UNL A   1      32.308  22.204  22.905  1.00  0.00     0.230 C 
ATOM     20  H   UNL A   1      33.934  22.579  21.666  1.00  0.00     0.170 HD
BRANCH  19  21
ATOM     21  C   UNL A   1      32.099  20.839  22.274  1.00  0.00     0.155 C 
BRANCH  21  22
ATOM     22  C   UNL A   1      32.281  19.756  23.277  1.00  0.00     0.044 A 
ATOM     23  C   UNL A   1      32.431  18.391  23.146  1.00  0.00     0.045 A 
ATOM     24  N   UNL A   1      32.280  19.994  24.624  1.00  0.00    -0.282 N 
ATOM     25  C   UNL A   1      32.545  17.912  24.464  1.00  0.00     0.135 A 
ATOM     26  N   UNL A   1      32.465  18.893  25.364  1.00  0.00    -0.184 NA
ATOM     27  H   UNL A   1      32.155  20.890  25.012  1.00  0.00     0.190 HD
ENDBRANCH  21  22
ENDBRANCH  19  21
ENDBRANCH  10  17
ENDBRANCH   7   9
ENDBRANCH   6   7
ENDBRANCH   5   6
ENDBRANCH   4   5
ENDBRANCH   3   4
ENDBRANCH   2   3
ENDBRANCH   1   2
BRANCH   1  28
ATOM     28  O   UNL A   1      41.524  19.087  25.584  1.00  0.00    -0.377 OA
BRANCH  28  29
ATOM     29  C   UNL A   1      42.880  18.873  25.931  1.00  0.00     0.188 C 
BRANCH  29  30
ATOM     30  C   UNL A   1      43.972  19.180  24.883  1.00  0.00     0.188 C 
BRANCH  30  31
ATOM     31  O   UNL A   1      45.191  19.689  25.400  1.00  0.00    -0.376 OA
BRANCH  31  32
ATOM     32  C   UNL A   1      45.621  20.998  25.081  1.00  0.00     0.202 C 
BRANCH  32  33
ATOM     33  C   UNL A   1      45.367  22.096  26.109  1.00  0.00     0.261 C 
BRANCH  33  34
ATOM     34  O   UNL A   1      44.583  23.178  25.632  1.00  0.00    -0.460 OA
BRANCH  34  35
ATOM     35  C   UNL A   1      43.275  22.932  25.505  1.00  0.00     0.338 C 
ATOM     36  O   UNL A   1      42.722  22.139  24.751  1.00  0.00    -0.246 OA
BRANCH  35  37
ATOM     37  C   UNL A   1      42.555  23.872  26.350  1.00  0.00     0.060 A 
ATOM     38  C   UNL A   1      41.839  24.884  25.709  1.00  0.00     0.016 A 
ATOM     39  C   UNL A   1      42.852  23.907  27.724  1.00  0.00     0.016 A 
ATOM     40  C   UNL A   1      41.598  26.039  26.411  1.00  0.00     0.010 A 
ATOM     41  C   UNL A   1      42.623  25.069  28.415  1.00  0.00     0.010 A 
ATOM     42  C   UNL A   1      42.077  26.143  27.722  1.00  0.00    -0.014 A 
BRANCH  42  43
ATOM     43  C   UNL A   1      41.971  27.434  28.357  1.00  0.00     0.031 A 
ATOM     44  C   UNL A   1      43.068  28.364  28.033  1.00  0.00     0.074 A 
ATOM     45  C   UNL A   1      40.922  27.764  29.130  1.00  0.00     0.049 A 
ATOM     46  N   UNL A   1      43.900  28.911  28.852  1.00  0.00    -0.248 NA
ATOM     47  C   UNL A   1      43.339  28.636  26.614  1.00  0.00     0.031 C 
ATOM     48  C   UNL A   1      39.657  27.051  29.298  1.00  0.00     0.029 A 
ATOM     49  N   UNL A   1      40.740  28.903  29.849  1.00  0.00    -0.354 N 
ATOM     50  C   UNL A   1      44.711  29.727  28.075  1.00  0.00     0.074 A 
ATOM     51  C   UNL A   1      44.410  29.423  26.700  1.00  0.00     0.031 C 
ATOM     52  C   UNL A   1      38.761  27.883  29.877  1.00  0.00     0.029 A 
ATOM     53  C   UNL A   1      39.424  29.136  30.207  1.00  0.00     0.049 A 
ATOM     54  H   UNL A   1      41.477  29.507  30.092  1.00  0.00     0.167 HD
ATOM     55  C   UNL A   1      45.409  30.750  28.634  1.00  0.00     0.037 A 
ATOM     56  C   UNL A   1      38.916  30.317  30.640  1.00  0.00     0.037 A 
ATOM     57  C   UNL A   1      45.608  30.540  30.047  1.00  0.00     0.049 A 
ATOM     58  C   UNL A   1      40.056  31.149  31.116  1.00  0.00     0.074 A 
ATOM     59  C   UNL A   1      46.168  29.518  30.793  1.00  0.00     0.029 A 
ATOM     60  N   UNL A   1      44.888  31.291  30.944  1.00  0.00    -0.354 N 
ATOM     61  N   UNL A   1      40.728  30.918  32.211  1.00  0.00    -0.248 NA
ATOM     62  C   UNL A   1      40.731  31.999  30.142  1.00  0.00     0.031 C 
ATOM     63  C   UNL A   1      45.353  29.418  31.958  1.00  0.00     0.029 A 
ATOM     64  C   UNL A   1      44.383  30.417  31.873  1.00  0.00     0.049 A 
ATOM     65  H   UNL A   1      44.758  32.267  30.923  1.00  0.00     0.167 HD
ATOM     66  C   UNL A   1      42.044  31.210  31.883  1.00  0.00     0.074 A 
ATOM     67  C   UNL A   1      41.971  31.967  30.637  1.00  0.00     0.031 C 
ATOM     68  C   UNL A   1      43.087  30.568  32.485  1.00  0.00     0.037 A 
BRANCH  55  69
ATOM     69  C   UNL A   1      45.580  32.090  27.970  1.00  0.00     0.064 A 
ATOM     70  C   UNL A   1      44.434  32.813  27.588  1.00  0.00     0.173 A 
ATOM     71  C   UNL A   1      46.800  32.545  27.420  1.00  0.00     0.173 A 
ATOM     72  F   UNL A   1      43.222  32.460  28.040  1.00  0.00    -0.203 F 
ATOM     73  C   UNL A   1      44.494  33.847  26.651  1.00  0.00     0.198 A 
ATOM     74  C   UNL A   1      46.863  33.614  26.529  1.00  0.00     0.198 A 
ATOM     75  F   UNL A   1      47.960  31.910  27.624  1.00  0.00    -0.203 F 
ATOM     76  F   UNL A   1      43.361  34.410  26.212  1.00  0.00    -0.200 F 
ATOM     77  C   UNL A   1      45.707  34.241  26.116  1.00  0.00     0.200 A 
ATOM     78  F   UNL A   1      48.047  33.969  26.012  1.00  0.00    -0.200 F 
ATOM     79  F   UNL A   1      45.760  35.183  25.168  1.00  0.00    -0.200 F 
ENDBRANCH  55  69
BRANCH  56  80
ATOM     80  C   UNL A   1      37.558  30.870  30.420  1.00  0.00     0.064 A 
ATOM     81  C   UNL A   1      36.736  31.205  31.508  1.00  0.00     0.173 A 
ATOM     82  C   UNL A   1      37.126  31.317  29.154  1.00  0.00     0.173 A 
ATOM     83  F   UNL A   1      37.092  30.866  32.756  1.00  0.00    -0.203 F 
ATOM     84  C   UNL A   1      35.567  31.956  31.343  1.00  0.00     0.198 A 
ATOM     85  C   UNL A   1      35.949  32.047  28.989  1.00  0.00     0.198 A 
ATOM     86  F   UNL A   1      37.877  31.140  28.060  1.00  0.00    -0.203 F 
ATOM     87  F   UNL A   1      34.846  32.313  32.415  1.00  0.00    -0.200 F 
ATOM     88  C   UNL A   1      35.178  32.380  30.085  1.00  0.00     0.200 A 
ATOM     89  F   UNL A   1      35.603  32.479  27.767  1.00  0.00    -0.200 F 
ATOM     90  F   UNL A   1      34.086  33.143  29.932  1.00  0.00    -0.200 F 
ENDBRANCH  56  80
BRANCH  68  91
ATOM     91  C   UNL A   1      42.815  29.747  33.713  1.00  0.00     0.064 A 
ATOM     92  C   UNL A   1      42.917  30.236  35.027  1.00  0.00     0.173 A 
ATOM     93  C   UNL A   1      42.291  28.456  33.546  1.00  0.00     0.173 A 
ATOM     94  F   UNL A   1      43.294  31.498  35.269  1.00  0.00    -0.203 F 
ATOM     95  C   UNL A   1      42.568  29.445  36.120  1.00  0.00     0.198 A 
ATOM     96  C   UNL A   1      41.902  27.685  34.637  1.00  0.00     0.198 A 
ATOM     97  F   UNL A   1      42.113  27.955  32.312  1.00  0.00    -0.203 F 
ATOM     98  F   UNL A   1      42.695  29.927  37.365  1.00  0.00    -0.200 F 
ATOM     99  C   UNL A   1      42.055  28.174  35.924  1.00  0.00     0.200 A 
ATOM    100  F   UNL A   1      41.356  26.477  34.440  1.00  0.00    -0.200 F 
ATOM    101  F   UNL A   1      41.680  27.430  36.974  1.00  0.00    -0.200 F 
ENDBRANCH  68  91
ENDBRANCH  42  43
ENDBRANCH  35  37
ENDBRANCH  34  35
ENDBRANCH  33  34
ENDBRANCH  32  33
ENDBRANCH  31  32
ENDBRANCH  30  31
ENDBRANCH  29  30
ENDBRANCH  28  29
ENDBRANCH   1  28
TORSDOF 23
ENDMDL
MODEL 2
REMARK VINA RESULT:     -10.4      2.631      7.334
REMARK SMILES O=C(Cc1ccn[nH]1)Nc1sc2c(c1C(=O)OCCOCCOCCOCCOC(=O)c1ccc(-c3c4nc(c(-c5c(F)c(F)c(F)c(F)c5F)c5ccc([nH]5)c(-c5c(F)c(F)c(F)c(F)c5F)c5nc(c(-c6c(F)c(F)c(F)c(F)c6F)c6ccc3[nH]6)C=C5)C=C4)cc1)CCC2
REMARK SMILES IDX 22 1 21 2 20 3 19 4 18 5 17 6 15 7 16 8 14 9 10 10 11 11
REMARK SMILES IDX 12 12 13 13 97 14 95 15 96 16 9 17 1 18 2 19 3 21 4 22 5 23
REMARK SMILES IDX 8 24 6 25 7 26 23 28 24 29 25 30 26 31 27 32 28 33 29 34
REMARK SMILES IDX 30 35 31 36 32 37 33 38 94 39 34 40 93 41 35 42 36 43 37 44
REMARK SMILES IDX 87 45 38 46 92 47 86 48 88 49 39 50 91 51 85 52 84 53 40 55
REMARK SMILES IDX 72 56 52 57 71 58 53 59 56 60 70 61 89 62 54 63 55 64 69 66
REMARK SMILES IDX 90 67 57 68 41 69 42 70 50 71 43 72 44 73 48 74 51 75 45 76
REMARK SMILES IDX 46 77 49 78 47 79 73 80 74 81 82 82 75 83 76 84 80 85 83 86
REMARK SMILES IDX 77 87 78 88 81 89 79 90 58 91 59 92 67 93 60 94 61 95 65 96
REMARK SMILES IDX 68 97 62 98 63 99 66 100 64 101
REMARK H PARENT 9 20 8 27 88 54 56 65
REMARK Flexibility Score: inf
ROOT
ATOM      1  C   UNL A   1      40.922  20.264  27.615  1.00  0.00     0.188 C 
ENDROOT
BRANCH   1   2
ATOM      2  C   UNL A   1      40.228  20.673  26.296  1.00  0.00     0.188 C 
BRANCH   2   3
ATOM      3  O   UNL A   1      39.385  21.810  26.421  1.00  0.00    -0.376 OA
BRANCH   3   4
ATOM      4  C   UNL A   1      38.405  21.959  25.412  1.00  0.00     0.202 C 
BRANCH   4   5
ATOM      5  C   UNL A   1      37.212  22.816  25.850  1.00  0.00     0.261 C 
BRANCH   5   6
ATOM      6  O   UNL A   1      36.734  23.770  24.883  1.00  0.00    -0.460 OA
BRANCH   6   7
ATOM      7  C   UNL A   1      36.144  23.298  23.752  1.00  0.00     0.341 C 
ATOM      8  O   UNL A   1      36.751  23.076  22.703  1.00  0.00    -0.246 OA
BRANCH   7   9
ATOM      9  C   UNL A   1      34.721  23.036  23.931  1.00  0.00     0.098 A 
ATOM     10  C   UNL A   1      33.700  23.953  23.689  1.00  0.00     0.110 A 
ATOM     11  S   UNL A   1      32.174  23.464  24.298  1.00  0.00    -0.122 S 
ATOM     12  C   UNL A   1      32.779  21.933  24.581  1.00  0.00     0.011 A 
ATOM     13  C   UNL A   1      34.121  21.809  24.346  1.00  0.00    -0.017 A 
ATOM     14  C   UNL A   1      32.130  20.689  25.051  1.00  0.00     0.047 C 
ATOM     15  C   UNL A   1      34.586  20.425  24.620  1.00  0.00     0.038 C 
ATOM     16  C   UNL A   1      33.243  19.639  24.752  1.00  0.00     0.010 C 
BRANCH  10  17
ATOM     17  N   UNL A   1      33.674  25.146  22.990  1.00  0.00    -0.317 N 
ATOM     18  O   UNL A   1      34.123  26.370  24.906  1.00  0.00    -0.274 OA
ATOM     19  C   UNL A   1      33.814  26.323  23.716  1.00  0.00     0.230 C 
ATOM     20  H   UNL A   1      33.560  25.161  22.012  1.00  0.00     0.170 HD
BRANCH  19  21
ATOM     21  C   UNL A   1      33.601  27.598  22.921  1.00  0.00     0.155 C 
BRANCH  21  22
ATOM     22  C   UNL A   1      32.172  28.010  22.948  1.00  0.00     0.044 A 
ATOM     23  C   UNL A   1      31.441  28.749  23.855  1.00  0.00     0.045 A 
ATOM     24  N   UNL A   1      31.279  27.628  21.985  1.00  0.00    -0.282 N 
ATOM     25  C   UNL A   1      30.137  28.779  23.328  1.00  0.00     0.135 A 
ATOM     26  N   UNL A   1      30.043  28.105  22.180  1.00  0.00    -0.184 NA
ATOM     27  H   UNL A   1      31.522  27.057  21.221  1.00  0.00     0.190 HD
ENDBRANCH  21  22
ENDBRANCH  19  21
ENDBRANCH  10  17
ENDBRANCH   7   9
ENDBRANCH   6   7
ENDBRANCH   5   6
ENDBRANCH   4   5
ENDBRANCH   3   4
ENDBRANCH   2   3
ENDBRANCH   1   2
BRANCH   1  28
ATOM     28  O   UNL A   1      42.223  19.683  27.648  1.00  0.00    -0.377 OA
BRANCH  28  29
ATOM     29  C   UNL A   1      42.444  18.432  27.024  1.00  0.00     0.188 C 
BRANCH  29  30
ATOM     30  C   UNL A   1      43.214  18.395  25.685  1.00  0.00     0.188 C 
BRANCH  30  31
ATOM     31  O   UNL A   1      44.557  17.944  25.763  1.00  0.00    -0.376 OA
BRANCH  31  32
ATOM     32  C   UNL A   1      45.613  18.729  25.246  1.00  0.00     0.202 C 
BRANCH  32  33
ATOM     33  C   UNL A   1      45.446  19.303  23.842  1.00  0.00     0.261 C 
BRANCH  33  34
ATOM     34  O   UNL A   1      44.775  20.553  23.796  1.00  0.00    -0.460 OA
BRANCH  34  35
ATOM     35  C   UNL A   1      45.485  21.605  24.217  1.00  0.00     0.338 C 
ATOM     36  O   UNL A   1      46.691  21.796  24.116  1.00  0.00    -0.246 OA
BRANCH  35  37
ATOM     37  C   UNL A   1      44.592  22.484  24.957  1.00  0.00     0.060 A 
ATOM     38  C   UNL A   1      44.708  23.854  24.719  1.00  0.00     0.016 A 
ATOM     39  C   UNL A   1      43.896  21.962  26.062  1.00  0.00     0.016 A 
ATOM     40  C   UNL A   1      44.297  24.711  25.710  1.00  0.00     0.010 A 
ATOM     41  C   UNL A   1      43.502  22.822  27.054  1.00  0.00     0.010 A 
ATOM     42  C   UNL A   1      43.787  24.174  26.898  1.00  0.00    -0.014 A 
BRANCH  42  43
ATOM     43  C   UNL A   1      43.546  25.093  27.981  1.00  0.00     0.031 A 
ATOM     44  C   UNL A   1      42.265  25.818  27.893  1.00  0.00     0.074 A 
ATOM     45  C   UNL A   1      44.402  25.223  29.010  1.00  0.00     0.049 A 
ATOM     46  N   UNL A   1      42.088  27.093  27.822  1.00  0.00    -0.248 NA
ATOM     47  C   UNL A   1      41.036  25.021  27.761  1.00  0.00     0.031 C 
ATOM     48  C   UNL A   1      45.543  24.377  29.355  1.00  0.00     0.029 A 
ATOM     49  N   UNL A   1      44.339  26.103  30.044  1.00  0.00    -0.354 N 
ATOM     50  C   UNL A   1      40.713  27.280  27.794  1.00  0.00     0.074 A 
ATOM     51  C   UNL A   1      40.119  25.979  27.628  1.00  0.00     0.031 C 
ATOM     52  C   UNL A   1      45.915  24.643  30.627  1.00  0.00     0.029 A 
ATOM     53  C   UNL A   1      45.107  25.741  31.137  1.00  0.00     0.049 A 
ATOM     54  H   UNL A   1      43.796  26.923  30.017  1.00  0.00     0.167 HD
ATOM     55  C   UNL A   1      40.167  28.477  28.134  1.00  0.00     0.037 A 
ATOM     56  C   UNL A   1      44.994  26.249  32.389  1.00  0.00     0.037 A 
ATOM     57  C   UNL A   1      41.121  29.549  27.996  1.00  0.00     0.049 A 
ATOM     58  C   UNL A   1      44.277  27.551  32.285  1.00  0.00     0.074 A 
ATOM     59  C   UNL A   1      41.903  30.005  26.949  1.00  0.00     0.029 A 
ATOM     60  N   UNL A   1      41.662  30.115  29.125  1.00  0.00    -0.354 N 
ATOM     61  N   UNL A   1      44.795  28.637  31.779  1.00  0.00    -0.248 NA
ATOM     62  C   UNL A   1      42.820  27.532  32.351  1.00  0.00     0.031 C 
ATOM     63  C   UNL A   1      43.141  30.384  27.547  1.00  0.00     0.029 A 
ATOM     64  C   UNL A   1      43.016  30.184  28.921  1.00  0.00     0.049 A 
ATOM     65  H   UNL A   1      41.172  30.412  29.926  1.00  0.00     0.167 HD
ATOM     66  C   UNL A   1      43.756  29.227  31.075  1.00  0.00     0.074 A 
ATOM     67  C   UNL A   1      42.545  28.562  31.547  1.00  0.00     0.031 C 
ATOM     68  C   UNL A   1      43.989  29.989  29.967  1.00  0.00     0.037 A 
BRANCH  55  69
ATOM     69  C   UNL A   1      38.897  28.606  28.932  1.00  0.00     0.064 A 
ATOM     70  C   UNL A   1      37.871  29.440  28.451  1.00  0.00     0.173 A 
ATOM     71  C   UNL A   1      38.771  28.199  30.280  1.00  0.00     0.173 A 
ATOM     72  F   UNL A   1      37.896  29.896  27.190  1.00  0.00    -0.203 F 
ATOM     73  C   UNL A   1      36.852  29.909  29.284  1.00  0.00     0.198 A 
ATOM     74  C   UNL A   1      37.723  28.624  31.092  1.00  0.00     0.198 A 
ATOM     75  F   UNL A   1      39.710  27.476  30.902  1.00  0.00    -0.203 F 
ATOM     76  F   UNL A   1      35.980  30.813  28.819  1.00  0.00    -0.200 F 
ATOM     77  C   UNL A   1      36.784  29.508  30.605  1.00  0.00     0.200 A 
ATOM     78  F   UNL A   1      37.684  28.234  32.374  1.00  0.00    -0.200 F 
ATOM     79  F   UNL A   1      35.851  30.010  31.423  1.00  0.00    -0.200 F 
ENDBRANCH  55  69
BRANCH  56  80
ATOM     80  C   UNL A   1      45.222  25.563  33.684  1.00  0.00     0.064 A 
ATOM     81  C   UNL A   1      46.014  26.157  34.680  1.00  0.00     0.173 A 
ATOM     82  C   UNL A   1      44.474  24.433  34.076  1.00  0.00     0.173 A 
ATOM     83  F   UNL A   1      46.719  27.265  34.413  1.00  0.00    -0.203 F 
ATOM     84  C   UNL A   1      46.041  25.664  35.989  1.00  0.00     0.198 A 
ATOM     85  C   UNL A   1      44.519  23.930  35.376  1.00  0.00     0.198 A 
ATOM     86  F   UNL A   1      43.612  23.844  33.238  1.00  0.00    -0.203 F 
ATOM     87  F   UNL A   1      46.756  26.300  36.927  1.00  0.00    -0.200 F 
ATOM     88  C   UNL A   1      45.290  24.554  36.336  1.00  0.00     0.200 A 
ATOM     89  F   UNL A   1      43.760  22.875  35.705  1.00  0.00    -0.200 F 
ATOM     90  F   UNL A   1      45.275  24.113  37.602  1.00  0.00    -0.200 F 
ENDBRANCH  56  80
BRANCH  68  91
ATOM     91  C   UNL A   1      45.396  30.427  29.677  1.00  0.00     0.064 A 
ATOM     92  C   UNL A   1      46.333  29.652  28.973  1.00  0.00     0.173 A 
ATOM     93  C   UNL A   1      45.762  31.742  30.002  1.00  0.00     0.173 A 
ATOM     94  F   UNL A   1      46.022  28.430  28.522  1.00  0.00    -0.203 F 
ATOM     95  C   UNL A   1      47.597  30.153  28.663  1.00  0.00     0.198 A 
ATOM     96  C   UNL A   1      47.009  32.254  29.653  1.00  0.00     0.198 A 
ATOM     97  F   UNL A   1      44.888  32.552  30.622  1.00  0.00    -0.203 F 
ATOM     98  F   UNL A   1      48.481  29.386  28.010  1.00  0.00    -0.200 F 
ATOM     99  C   UNL A   1      47.930  31.455  28.997  1.00  0.00     0.200 A 
ATOM    100  F   UNL A   1      47.306  33.531  29.931  1.00  0.00    -0.200 F 
ATOM    101  F   UNL A   1      49.130  31.949  28.663  1.00  0.00    -0.200 F 
ENDBRANCH  68  91
ENDBRANCH  42  43
ENDBRANCH  35  37
ENDBRANCH  34  35
ENDBRANCH  33  34
ENDBRANCH  32  33
ENDBRANCH  31  32
ENDBRANCH  30  31
ENDBRANCH  29  30
ENDBRANCH  28  29
ENDBRANCH   1  28
TORSDOF 23
ENDMDL
MODEL 3
REMARK VINA RESULT:     -10.3      2.106      3.063
REMARK SMILES O=C(Cc1ccn[nH]1)Nc1sc2c(c1C(=O)OCCOCCOCCOCCOC(=O)c1ccc(-c3c4nc(c(-c5c(F)c(F)c(F)c(F)c5F)c5ccc([nH]5)c(-c5c(F)c(F)c(F)c(F)c5F)c5nc(c(-c6c(F)c(F)c(F)c(F)c6F)c6ccc3[nH]6)C=C5)C=C4)cc1)CCC2
REMARK SMILES IDX 22 1 21 2 20 3 19 4 18 5 17 6 15 7 16 8 14 9 10 10 11 11
REMARK SMILES IDX 12 12 13 13 97 14 95 15 96 16 9 17 1 18 2 19 3 21 4 22 5 23
REMARK SMILES IDX 8 24 6 25 7 26 23 28 24 29 25 30 26 31 27 32 28 33 29 34
REMARK SMILES IDX 30 35 31 36 32 37 33 38 94 39 34 40 93 41 35 42 36 43 37 44
REMARK SMILES IDX 87 45 38 46 92 47 86 48 88 49 39 50 91 51 85 52 84 53 40 55
REMARK SMILES IDX 72 56 52 57 71 58 53 59 56 60 70 61 89 62 54 63 55 64 69 66
REMARK SMILES IDX 90 67 57 68 41 69 42 70 50 71 43 72 44 73 48 74 51 75 45 76
REMARK SMILES IDX 46 77 49 78 47 79 73 80 74 81 82 82 75 83 76 84 80 85 83 86
REMARK SMILES IDX 77 87 78 88 81 89 79 90 58 91 59 92 67 93 60 94 61 95 65 96
REMARK SMILES IDX 68 97 62 98 63 99 66 100 64 101
REMARK H PARENT 9 20 8 27 88 54 56 65
REMARK Flexibility Score: inf
ROOT
ATOM      1  C   UNL A   1      40.845  20.903  27.148  1.00  0.00     0.188 C 
ENDROOT
BRANCH   1   2
ATOM      2  C   UNL A   1      40.084  21.300  25.863  1.00  0.00     0.188 C 
BRANCH   2   3
ATOM      3  O   UNL A   1      38.712  21.598  26.078  1.00  0.00    -0.376 OA
BRANCH   3   4
ATOM      4  C   UNL A   1      37.813  21.065  25.126  1.00  0.00     0.202 C 
BRANCH   4   5
ATOM      5  C   UNL A   1      36.970  22.137  24.425  1.00  0.00     0.261 C 
BRANCH   5   6
ATOM      6  O   UNL A   1      35.647  22.343  24.957  1.00  0.00    -0.460 OA
BRANCH   6   7
ATOM      7  C   UNL A   1      35.414  23.469  25.682  1.00  0.00     0.341 C 
ATOM      8  O   UNL A   1      36.303  24.197  26.124  1.00  0.00    -0.246 OA
BRANCH   7   9
ATOM      9  C   UNL A   1      33.991  23.749  25.838  1.00  0.00     0.098 A 
ATOM     10  C   UNL A   1      32.994  22.785  25.974  1.00  0.00     0.110 A 
ATOM     11  S   UNL A   1      31.405  23.406  25.810  1.00  0.00    -0.122 S 
ATOM     12  C   UNL A   1      32.008  24.963  25.889  1.00  0.00     0.011 A 
ATOM     13  C   UNL A   1      33.374  25.034  25.913  1.00  0.00    -0.017 A 
ATOM     14  C   UNL A   1      31.333  26.279  25.926  1.00  0.00     0.047 C 
ATOM     15  C   UNL A   1      33.835  26.444  25.982  1.00  0.00     0.038 C 
ATOM     16  C   UNL A   1      32.518  27.212  26.322  1.00  0.00     0.010 C 
BRANCH  10  17
ATOM     17  N   UNL A   1      33.045  21.438  26.284  1.00  0.00    -0.317 N 
ATOM     18  O   UNL A   1      32.912  20.836  24.050  1.00  0.00    -0.274 OA
ATOM     19  C   UNL A   1      32.908  20.530  25.241  1.00  0.00     0.230 C 
ATOM     20  H   UNL A   1      33.173  21.133  27.212  1.00  0.00     0.170 HD
BRANCH  19  21
ATOM     21  C   UNL A   1      32.796  19.076  25.666  1.00  0.00     0.155 C 
BRANCH  21  22
ATOM     22  C   UNL A   1      33.244  18.168  24.577  1.00  0.00     0.044 A 
ATOM     23  C   UNL A   1      34.437  17.512  24.353  1.00  0.00     0.045 A 
ATOM     24  N   UNL A   1      32.453  17.861  23.504  1.00  0.00    -0.282 N 
ATOM     25  C   UNL A   1      34.245  16.818  23.145  1.00  0.00     0.135 A 
ATOM     26  N   UNL A   1      33.029  17.021  22.634  1.00  0.00    -0.184 NA
ATOM     27  H   UNL A   1      31.545  18.223  23.383  1.00  0.00     0.190 HD
ENDBRANCH  21  22
ENDBRANCH  19  21
ENDBRANCH  10  17
ENDBRANCH   7   9
ENDBRANCH   6   7
ENDBRANCH   5   6
ENDBRANCH   4   5
ENDBRANCH   3   4
ENDBRANCH   2   3
ENDBRANCH   1   2
BRANCH   1  28
ATOM     28  O   UNL A   1      42.237  20.596  27.151  1.00  0.00    -0.377 OA
BRANCH  28  29
ATOM     29  C   UNL A   1      42.847  20.110  25.970  1.00  0.00     0.188 C 
BRANCH  29  30
ATOM     30  C   UNL A   1      43.819  21.032  25.202  1.00  0.00     0.188 C 
BRANCH  30  31
ATOM     31  O   UNL A   1      44.928  21.510  25.948  1.00  0.00    -0.376 OA
BRANCH  31  32
ATOM     32  C   UNL A   1      44.900  22.795  26.538  1.00  0.00     0.202 C 
BRANCH  32  33
ATOM     33  C   UNL A   1      43.961  23.832  25.932  1.00  0.00     0.261 C 
BRANCH  33  34
ATOM     34  O   UNL A   1      42.680  23.891  26.540  1.00  0.00    -0.460 OA
BRANCH  34  35
ATOM     35  C   UNL A   1      42.654  24.375  27.786  1.00  0.00     0.338 C 
ATOM     36  O   UNL A   1      42.422  23.771  28.828  1.00  0.00    -0.246 OA
BRANCH  35  37
ATOM     37  C   UNL A   1      42.830  25.816  27.715  1.00  0.00     0.060 A 
ATOM     38  C   UNL A   1      43.672  26.401  28.663  1.00  0.00     0.016 A 
ATOM     39  C   UNL A   1      41.940  26.566  26.926  1.00  0.00     0.016 A 
ATOM     40  C   UNL A   1      43.471  27.725  28.964  1.00  0.00     0.010 A 
ATOM     41  C   UNL A   1      41.734  27.884  27.243  1.00  0.00     0.010 A 
ATOM     42  C   UNL A   1      42.443  28.417  28.313  1.00  0.00    -0.014 A 
BRANCH  42  43
ATOM     43  C   UNL A   1      42.141  29.743  28.791  1.00  0.00     0.031 A 
ATOM     44  C   UNL A   1      43.098  30.779  28.361  1.00  0.00     0.074 A 
ATOM     45  C   UNL A   1      41.041  30.005  29.519  1.00  0.00     0.049 A 
ATOM     46  N   UNL A   1      43.827  31.533  29.110  1.00  0.00    -0.248 NA
ATOM     47  C   UNL A   1      43.351  30.920  26.919  1.00  0.00     0.031 C 
ATOM     48  C   UNL A   1      39.889  29.140  29.769  1.00  0.00     0.029 A 
ATOM     49  N   UNL A   1      40.683  31.181  30.098  1.00  0.00    -0.354 N 
ATOM     50  C   UNL A   1      44.525  32.362  28.242  1.00  0.00     0.074 A 
ATOM     51  C   UNL A   1      44.296  31.859  26.913  1.00  0.00     0.031 C 
ATOM     52  C   UNL A   1      38.873  29.895  30.244  1.00  0.00     0.029 A 
ATOM     53  C   UNL A   1      39.341  31.261  30.425  1.00  0.00     0.049 A 
ATOM     54  H   UNL A   1      41.321  31.911  30.269  1.00  0.00     0.167 HD
ATOM     55  C   UNL A   1      45.058  33.534  28.677  1.00  0.00     0.037 A 
ATOM     56  C   UNL A   1      38.661  32.398  30.715  1.00  0.00     0.037 A 
ATOM     57  C   UNL A   1      45.260  33.522  30.105  1.00  0.00     0.049 A 
ATOM     58  C   UNL A   1      39.659  33.437  31.091  1.00  0.00     0.074 A 
ATOM     59  C   UNL A   1      45.948  32.686  30.967  1.00  0.00     0.029 A 
ATOM     60  N   UNL A   1      44.423  34.259  30.907  1.00  0.00    -0.354 N 
ATOM     61  N   UNL A   1      40.338  33.436  32.206  1.00  0.00    -0.248 NA
ATOM     62  C   UNL A   1      40.222  34.256  30.024  1.00  0.00     0.031 C 
ATOM     63  C   UNL A   1      45.135  32.606  32.136  1.00  0.00     0.029 A 
ATOM     64  C   UNL A   1      44.033  33.436  31.932  1.00  0.00     0.049 A 
ATOM     65  H   UNL A   1      44.153  35.196  30.771  1.00  0.00     0.167 HD
ATOM     66  C   UNL A   1      41.604  33.875  31.847  1.00  0.00     0.074 A 
ATOM     67  C   UNL A   1      41.445  34.463  30.520  1.00  0.00     0.031 C 
ATOM     68  C   UNL A   1      42.718  33.467  32.521  1.00  0.00     0.037 A 
BRANCH  55  69
ATOM     69  C   UNL A   1      45.045  34.798  27.860  1.00  0.00     0.064 A 
ATOM     70  C   UNL A   1      46.221  35.565  27.773  1.00  0.00     0.173 A 
ATOM     71  C   UNL A   1      43.864  35.441  27.425  1.00  0.00     0.173 A 
ATOM     72  F   UNL A   1      47.398  35.060  28.171  1.00  0.00    -0.203 F 
ATOM     73  C   UNL A   1      46.200  36.904  27.374  1.00  0.00     0.198 A 
ATOM     74  C   UNL A   1      43.855  36.758  26.974  1.00  0.00     0.198 A 
ATOM     75  F   UNL A   1      42.658  34.869  27.525  1.00  0.00    -0.203 F 
ATOM     76  F   UNL A   1      47.320  37.635  27.443  1.00  0.00    -0.200 F 
ATOM     77  C   UNL A   1      45.015  37.501  26.983  1.00  0.00     0.200 A 
ATOM     78  F   UNL A   1      42.694  37.321  26.613  1.00  0.00    -0.200 F 
ATOM     79  F   UNL A   1      44.979  38.801  26.667  1.00  0.00    -0.200 F 
ENDBRANCH  55  69
BRANCH  56  80
ATOM     80  C   UNL A   1      37.241  32.718  30.430  1.00  0.00     0.064 A 
ATOM     81  C   UNL A   1      36.285  32.713  31.459  1.00  0.00     0.173 A 
ATOM     82  C   UNL A   1      36.830  33.277  29.203  1.00  0.00     0.173 A 
ATOM     83  F   UNL A   1      36.602  32.247  32.676  1.00  0.00    -0.203 F 
ATOM     84  C   UNL A   1      35.006  33.251  31.277  1.00  0.00     0.198 A 
ATOM     85  C   UNL A   1      35.547  33.794  29.017  1.00  0.00     0.198 A 
ATOM     86  F   UNL A   1      37.685  33.423  28.183  1.00  0.00    -0.203 F 
ATOM     87  F   UNL A   1      34.146  33.288  32.305  1.00  0.00    -0.200 F 
ATOM     88  C   UNL A   1      34.641  33.794  30.059  1.00  0.00     0.200 A 
ATOM     89  F   UNL A   1      35.220  34.347  27.841  1.00  0.00    -0.200 F 
ATOM     90  F   UNL A   1      33.435  34.356  29.900  1.00  0.00    -0.200 F 
ENDBRANCH  56  80
BRANCH  68  91
ATOM     91  C   UNL A   1      42.545  32.764  33.837  1.00  0.00     0.064 A 
ATOM     92  C   UNL A   1      42.308  31.385  33.969  1.00  0.00     0.173 A 
ATOM     93  C   UNL A   1      42.772  33.493  35.014  1.00  0.00     0.173 A 
ATOM     94  F   UNL A   1      42.199  30.595  32.893  1.00  0.00    -0.203 F 
ATOM     95  C   UNL A   1      42.243  30.780  35.224  1.00  0.00     0.198 A 
ATOM     96  C   UNL A   1      42.750  32.878  36.263  1.00  0.00     0.198 A 
ATOM     97  F   UNL A   1      43.064  34.803  34.950  1.00  0.00    -0.203 F 
ATOM     98  F   UNL A   1      41.993  29.467  35.323  1.00  0.00    -0.200 F 
ATOM     99  C   UNL A   1      42.470  31.526  36.368  1.00  0.00     0.200 A 
ATOM    100  F   UNL A   1      43.024  33.594  37.363  1.00  0.00    -0.200 F 
ATOM    101  F   UNL A   1      42.449  30.936  37.571  1.00  0.00    -0.200 F 
ENDBRANCH  68  91
ENDBRANCH  42  43
ENDBRANCH  35  37
ENDBRANCH  34  35
ENDBRANCH  33  34
ENDBRANCH  32  33
ENDBRANCH  31  32
ENDBRANCH  30  31
ENDBRANCH  29  30
ENDBRANCH  28  29
ENDBRANCH   1  28
TORSDOF 23
ENDMDL
