MODEL 1
REMARK VINA RESULT:     -10.1      0.000      0.000
REMARK SMILES C[C@@H]([NH3+])CCC(=O)N1CC(n2cc(C(=O)OCCOCCOCCOCCOC(=O)c3ccc(-c4c5nc(c(-c6c(F)c(F)c(F)c(F)c6F)c6ccc([nH]6)c(-c6c(F)c(F)c(F)c(F)c6F)c6nc(c(-c7c(F)c(F)c(F)c(F)c7F)c7ccc4[nH]7)C=C6)C=C5)cc3)nn2)C1
REMARK SMILES IDX 20 1 19 2 18 3 17 4 16 5 14 6 15 7 13 8 11 9 12 10 95 11
REMARK SMILES IDX 94 12 10 13 6 14 7 15 8 16 9 17 96 18 5 19 4 20 2 21 1 22
REMARK SMILES IDX 3 23 21 27 22 28 23 29 24 30 25 31 26 32 27 33 28 34 29 35
REMARK SMILES IDX 30 36 31 37 32 38 93 39 33 40 92 41 34 42 35 43 36 44 86 45
REMARK SMILES IDX 37 46 91 47 85 48 87 49 38 50 90 51 84 52 83 53 39 55 71 56
REMARK SMILES IDX 51 57 70 58 52 59 55 60 69 61 88 62 53 63 54 64 68 66 89 67
REMARK SMILES IDX 56 68 40 69 41 70 49 71 42 72 43 73 47 74 50 75 44 76 45 77
REMARK SMILES IDX 48 78 46 79 72 80 73 81 81 82 74 83 75 84 79 85 82 86 76 87
REMARK SMILES IDX 77 88 80 89 78 90 57 91 58 92 66 93 59 94 60 95 64 96 67 97
REMARK SMILES IDX 61 98 62 99 65 100 63 101
REMARK H PARENT 3 24 3 25 3 26 87 54 55 65
REMARK Flexibility Score: inf
ROOT
ATOM      1  C   UNL A   1      34.529  32.045  28.230  1.00  0.00     0.188 C 
ENDROOT
BRANCH   1   2
ATOM      2  O   UNL A   1      34.798  30.937  27.399  1.00  0.00    -0.376 OA
BRANCH   2   3
ATOM      3  C   UNL A   1      33.890  29.877  27.214  1.00  0.00     0.202 C 
BRANCH   3   4
ATOM      4  C   UNL A   1      32.376  30.063  27.028  1.00  0.00     0.261 C 
BRANCH   4   5
ATOM      5  O   UNL A   1      31.700  29.142  26.172  1.00  0.00    -0.458 OA
BRANCH   5   6
ATOM      6  C   UNL A   1      31.127  29.648  25.051  1.00  0.00     0.360 C 
ATOM      7  O   UNL A   1      30.774  30.826  24.929  1.00  0.00    -0.244 OA
BRANCH   6   8
ATOM      8  C   UNL A   1      31.107  28.677  23.972  1.00  0.00     0.190 A 
ATOM      9  N   UNL A   1      31.456  26.990  22.649  1.00  0.00    -0.245 N 
ATOM     10  C   UNL A   1      31.866  27.527  23.839  1.00  0.00     0.147 A 
ATOM     11  N   UNL A   1      30.572  27.790  22.039  1.00  0.00    -0.066 NA
ATOM     12  N   UNL A   1      30.346  28.825  22.837  1.00  0.00    -0.123 NA
BRANCH   9  13
ATOM     13  C   UNL A   1      31.740  25.642  22.257  1.00  0.00     0.148 C 
ATOM     14  C   UNL A   1      33.195  22.854  23.182  1.00  0.00     0.222 C 
ATOM     15  O   UNL A   1      32.591  21.970  22.576  1.00  0.00    -0.275 OA
ATOM     16  N   UNL A   1      32.674  24.118  23.336  1.00  0.00    -0.338 N 
ATOM     17  C   UNL A   1      31.263  24.517  23.170  1.00  0.00     0.148 C 
ATOM     18  C   UNL A   1      33.168  25.310  22.666  1.00  0.00     0.148 C 
BRANCH  14  19
ATOM     19  C   UNL A   1      34.472  22.549  23.966  1.00  0.00     0.106 C 
BRANCH  19  20
ATOM     20  C   UNL A   1      34.611  21.225  24.731  1.00  0.00     0.074 C 
BRANCH  20  21
ATOM     21  C   UNL A   1      34.492  21.261  26.262  1.00  0.00     0.178 C 
ATOM     22  C   UNL A   1      34.308  22.652  26.859  1.00  0.00     0.075 C 
BRANCH  21  23
ATOM     23  N   UNL A   1      33.413  20.383  26.722  1.00  0.00    -0.355 N 
ATOM     24  H   UNL A   1      33.201  19.697  26.000  1.00  0.00     0.344 HD
ATOM     25  H   UNL A   1      32.581  20.941  26.918  1.00  0.00     0.344 HD
ATOM     26  H   UNL A   1      33.706  19.902  27.574  1.00  0.00     0.344 HD
ENDBRANCH  21  23
ENDBRANCH  20  21
ENDBRANCH  19  20
ENDBRANCH  14  19
ENDBRANCH   9  13
ENDBRANCH   6   8
ENDBRANCH   5   6
ENDBRANCH   4   5
ENDBRANCH   3   4
ENDBRANCH   2   3
ENDBRANCH   1   2
BRANCH   1  27
ATOM     27  C   UNL A   1      35.446  33.257  27.974  1.00  0.00     0.188 C 
BRANCH  27  28
ATOM     28  O   UNL A   1      35.201  34.437  28.719  1.00  0.00    -0.377 OA
BRANCH  28  29
ATOM     29  C   UNL A   1      34.041  35.227  28.447  1.00  0.00     0.188 C 
BRANCH  29  30
ATOM     30  C   UNL A   1      33.046  35.727  29.532  1.00  0.00     0.188 C 
BRANCH  30  31
ATOM     31  O   UNL A   1      33.079  37.111  29.821  1.00  0.00    -0.376 OA
BRANCH  31  32
ATOM     32  C   UNL A   1      33.340  37.642  31.102  1.00  0.00     0.202 C 
BRANCH  32  33
ATOM     33  C   UNL A   1      33.066  36.782  32.326  1.00  0.00     0.261 C 
BRANCH  33  34
ATOM     34  O   UNL A   1      34.193  36.066  32.787  1.00  0.00    -0.460 OA
BRANCH  34  35
ATOM     35  C   UNL A   1      33.989  34.746  32.913  1.00  0.00     0.338 C 
ATOM     36  O   UNL A   1      32.932  34.137  32.799  1.00  0.00    -0.246 OA
BRANCH  35  37
ATOM     37  C   UNL A   1      35.228  34.149  33.393  1.00  0.00     0.060 A 
ATOM     38  C   UNL A   1      36.387  34.903  33.215  1.00  0.00     0.016 A 
ATOM     39  C   UNL A   1      35.241  32.758  33.576  1.00  0.00     0.016 A 
ATOM     40  C   UNL A   1      37.545  34.221  32.944  1.00  0.00     0.010 A 
ATOM     41  C   UNL A   1      36.385  32.081  33.263  1.00  0.00     0.010 A 
ATOM     42  C   UNL A   1      37.492  32.824  32.864  1.00  0.00    -0.014 A 
BRANCH  42  43
ATOM     43  C   UNL A   1      38.689  32.121  32.480  1.00  0.00     0.031 A 
ATOM     44  C   UNL A   1      39.560  31.887  33.647  1.00  0.00     0.074 A 
ATOM     45  C   UNL A   1      38.888  31.672  31.229  1.00  0.00     0.049 A 
ATOM     46  N   UNL A   1      40.686  32.462  33.903  1.00  0.00    -0.248 NA
ATOM     47  C   UNL A   1      39.009  31.113  34.774  1.00  0.00     0.031 C 
ATOM     48  C   UNL A   1      37.942  31.647  30.111  1.00  0.00     0.029 A 
ATOM     49  N   UNL A   1      39.982  31.050  30.715  1.00  0.00    -0.354 N 
ATOM     50  C   UNL A   1      41.091  31.937  35.124  1.00  0.00     0.074 A 
ATOM     51  C   UNL A   1      39.931  31.329  35.710  1.00  0.00     0.031 C 
ATOM     52  C   UNL A   1      38.426  30.844  29.133  1.00  0.00     0.029 A 
ATOM     53  C   UNL A   1      39.762  30.408  29.500  1.00  0.00     0.049 A 
ATOM     54  H   UNL A   1      40.858  31.054  31.165  1.00  0.00     0.167 HD
ATOM     55  C   UNL A   1      42.414  31.764  35.379  1.00  0.00     0.037 A 
ATOM     56  C   UNL A   1      40.609  29.525  28.912  1.00  0.00     0.037 A 
ATOM     57  C   UNL A   1      43.206  32.592  34.500  1.00  0.00     0.049 A 
ATOM     58  C   UNL A   1      41.947  29.727  29.528  1.00  0.00     0.074 A 
ATOM     59  C   UNL A   1      43.320  33.951  34.282  1.00  0.00     0.029 A 
ATOM     60  N   UNL A   1      43.755  31.984  33.398  1.00  0.00    -0.354 N 
ATOM     61  N   UNL A   1      42.673  30.794  29.347  1.00  0.00    -0.248 NA
ATOM     62  C   UNL A   1      42.271  28.946  30.712  1.00  0.00     0.031 C 
ATOM     63  C   UNL A   1      43.539  34.092  32.880  1.00  0.00     0.029 A 
ATOM     64  C   UNL A   1      43.620  32.816  32.320  1.00  0.00     0.049 A 
ATOM     65  H   UNL A   1      44.175  31.093  33.384  1.00  0.00     0.167 HD
ATOM     66  C   UNL A   1      43.223  31.060  30.592  1.00  0.00     0.074 A 
ATOM     67  C   UNL A   1      43.018  29.838  31.366  1.00  0.00     0.031 C 
ATOM     68  C   UNL A   1      43.514  32.343  30.959  1.00  0.00     0.037 A 
BRANCH  55  69
ATOM     69  C   UNL A   1      42.978  30.534  36.060  1.00  0.00     0.064 A 
ATOM     70  C   UNL A   1      43.917  30.720  37.093  1.00  0.00     0.173 A 
ATOM     71  C   UNL A   1      42.889  29.213  35.561  1.00  0.00     0.173 A 
ATOM     72  F   UNL A   1      44.094  31.929  37.648  1.00  0.00    -0.203 F 
ATOM     73  C   UNL A   1      44.773  29.698  37.510  1.00  0.00     0.198 A 
ATOM     74  C   UNL A   1      43.710  28.184  36.016  1.00  0.00     0.198 A 
ATOM     75  F   UNL A   1      42.091  28.868  34.547  1.00  0.00    -0.203 F 
ATOM     76  F   UNL A   1      45.744  29.965  38.393  1.00  0.00    -0.200 F 
ATOM     77  C   UNL A   1      44.677  28.433  36.962  1.00  0.00     0.200 A 
ATOM     78  F   UNL A   1      43.606  26.968  35.458  1.00  0.00    -0.200 F 
ATOM     79  F   UNL A   1      45.539  27.470  37.308  1.00  0.00    -0.200 F 
ENDBRANCH  55  69
BRANCH  56  80
ATOM     80  C   UNL A   1      40.294  28.312  28.115  1.00  0.00     0.064 A 
ATOM     81  C   UNL A   1      40.924  28.079  26.879  1.00  0.00     0.173 A 
ATOM     82  C   UNL A   1      39.603  27.223  28.677  1.00  0.00     0.173 A 
ATOM     83  F   UNL A   1      41.642  29.049  26.295  1.00  0.00    -0.203 F 
ATOM     84  C   UNL A   1      40.893  26.823  26.263  1.00  0.00     0.198 A 
ATOM     85  C   UNL A   1      39.568  25.972  28.057  1.00  0.00     0.198 A 
ATOM     86  F   UNL A   1      39.034  27.317  29.887  1.00  0.00    -0.203 F 
ATOM     87  F   UNL A   1      41.565  26.622  25.120  1.00  0.00    -0.200 F 
ATOM     88  C   UNL A   1      40.225  25.768  26.858  1.00  0.00     0.200 A 
ATOM     89  F   UNL A   1      38.950  24.948  28.664  1.00  0.00    -0.200 F 
ATOM     90  F   UNL A   1      40.251  24.548  26.303  1.00  0.00    -0.200 F 
ENDBRANCH  56  80
BRANCH  68  91
ATOM     91  C   UNL A   1      43.530  33.389  29.878  1.00  0.00     0.064 A 
ATOM     92  C   UNL A   1      44.604  33.609  28.998  1.00  0.00     0.173 A 
ATOM     93  C   UNL A   1      42.348  34.106  29.647  1.00  0.00     0.173 A 
ATOM     94  F   UNL A   1      45.734  32.897  29.094  1.00  0.00    -0.203 F 
ATOM     95  C   UNL A   1      44.506  34.534  27.958  1.00  0.00     0.198 A 
ATOM     96  C   UNL A   1      42.239  34.997  28.584  1.00  0.00     0.198 A 
ATOM     97  F   UNL A   1      41.275  33.900  30.426  1.00  0.00    -0.203 F 
ATOM     98  F   UNL A   1      45.546  34.737  27.137  1.00  0.00    -0.200 F 
ATOM     99  C   UNL A   1      43.319  35.219  27.747  1.00  0.00     0.200 A 
ATOM    100  F   UNL A   1      41.074  35.617  28.355  1.00  0.00    -0.200 F 
ATOM    101  F   UNL A   1      43.208  36.073  26.720  1.00  0.00    -0.200 F 
ENDBRANCH  68  91
ENDBRANCH  42  43
ENDBRANCH  35  37
ENDBRANCH  34  35
ENDBRANCH  33  34
ENDBRANCH  32  33
ENDBRANCH  31  32
ENDBRANCH  30  31
ENDBRANCH  29  30
ENDBRANCH  28  29
ENDBRANCH  27  28
ENDBRANCH   1  27
TORSDOF 25
ENDMDL
MODEL 2
REMARK VINA RESULT:      -9.8      2.333      3.494
REMARK SMILES C[C@@H]([NH3+])CCC(=O)N1CC(n2cc(C(=O)OCCOCCOCCOCCOC(=O)c3ccc(-c4c5nc(c(-c6c(F)c(F)c(F)c(F)c6F)c6ccc([nH]6)c(-c6c(F)c(F)c(F)c(F)c6F)c6nc(c(-c7c(F)c(F)c(F)c(F)c7F)c7ccc4[nH]7)C=C6)C=C5)cc3)nn2)C1
REMARK SMILES IDX 20 1 19 2 18 3 17 4 16 5 14 6 15 7 13 8 11 9 12 10 95 11
REMARK SMILES IDX 94 12 10 13 6 14 7 15 8 16 9 17 96 18 5 19 4 20 2 21 1 22
REMARK SMILES IDX 3 23 21 27 22 28 23 29 24 30 25 31 26 32 27 33 28 34 29 35
REMARK SMILES IDX 30 36 31 37 32 38 93 39 33 40 92 41 34 42 35 43 36 44 86 45
REMARK SMILES IDX 37 46 91 47 85 48 87 49 38 50 90 51 84 52 83 53 39 55 71 56
REMARK SMILES IDX 51 57 70 58 52 59 55 60 69 61 88 62 53 63 54 64 68 66 89 67
REMARK SMILES IDX 56 68 40 69 41 70 49 71 42 72 43 73 47 74 50 75 44 76 45 77
REMARK SMILES IDX 48 78 46 79 72 80 73 81 81 82 74 83 75 84 79 85 82 86 76 87
REMARK SMILES IDX 77 88 80 89 78 90 57 91 58 92 66 93 59 94 60 95 64 96 67 97
REMARK SMILES IDX 61 98 62 99 65 100 63 101
REMARK H PARENT 3 24 3 25 3 26 87 54 55 65
REMARK Flexibility Score: inf
ROOT
ATOM      1  C   UNL A   1      34.402  33.621  28.099  1.00  0.00     0.188 C 
ENDROOT
BRANCH   1   2
ATOM      2  O   UNL A   1      33.797  32.346  28.097  1.00  0.00    -0.376 OA
BRANCH   2   3
ATOM      3  C   UNL A   1      34.484  31.171  27.736  1.00  0.00     0.202 C 
BRANCH   3   4
ATOM      4  C   UNL A   1      33.917  30.097  26.794  1.00  0.00     0.261 C 
BRANCH   4   5
ATOM      5  O   UNL A   1      32.520  29.816  26.881  1.00  0.00    -0.458 OA
BRANCH   5   6
ATOM      6  C   UNL A   1      31.714  30.406  25.962  1.00  0.00     0.360 C 
ATOM      7  O   UNL A   1      31.264  31.551  26.074  1.00  0.00    -0.244 OA
BRANCH   6   8
ATOM      8  C   UNL A   1      31.560  29.584  24.775  1.00  0.00     0.190 A 
ATOM      9  N   UNL A   1      31.845  28.257  23.080  1.00  0.00    -0.245 N 
ATOM     10  C   UNL A   1      32.516  28.813  24.136  1.00  0.00     0.147 A 
ATOM     11  N   UNL A   1      30.589  28.715  23.011  1.00  0.00    -0.066 NA
ATOM     12  N   UNL A   1      30.398  29.526  24.043  1.00  0.00    -0.123 NA
BRANCH   9  13
ATOM     13  C   UNL A   1      32.349  27.145  22.329  1.00  0.00     0.148 C 
ATOM     14  C   UNL A   1      33.654  24.148  22.567  1.00  0.00     0.222 C 
ATOM     15  O   UNL A   1      33.351  23.590  21.514  1.00  0.00    -0.275 OA
ATOM     16  N   UNL A   1      33.010  25.282  23.003  1.00  0.00    -0.338 N 
ATOM     17  C   UNL A   1      31.699  25.783  22.547  1.00  0.00     0.148 C 
ATOM     18  C   UNL A   1      33.593  26.614  23.027  1.00  0.00     0.148 C 
BRANCH  14  19
ATOM     19  C   UNL A   1      34.634  23.507  23.551  1.00  0.00     0.106 C 
BRANCH  19  20
ATOM     20  C   UNL A   1      34.123  22.549  24.637  1.00  0.00     0.074 C 
BRANCH  20  21
ATOM     21  C   UNL A   1      32.885  21.696  24.321  1.00  0.00     0.178 C 
ATOM     22  C   UNL A   1      32.946  20.261  24.835  1.00  0.00     0.075 C 
BRANCH  21  23
ATOM     23  N   UNL A   1      31.666  22.342  24.814  1.00  0.00    -0.355 N 
ATOM     24  H   UNL A   1      31.226  22.861  24.055  1.00  0.00     0.344 HD
ATOM     25  H   UNL A   1      31.904  22.983  25.572  1.00  0.00     0.344 HD
ATOM     26  H   UNL A   1      31.021  21.631  25.160  1.00  0.00     0.344 HD
ENDBRANCH  21  23
ENDBRANCH  20  21
ENDBRANCH  19  20
ENDBRANCH  14  19
ENDBRANCH   9  13
ENDBRANCH   6   8
ENDBRANCH   5   6
ENDBRANCH   4   5
ENDBRANCH   3   4
ENDBRANCH   2   3
ENDBRANCH   1   2
BRANCH   1  27
ATOM     27  C   UNL A   1      33.463  34.757  28.551  1.00  0.00     0.188 C 
BRANCH  27  28
ATOM     28  O   UNL A   1      32.982  34.724  29.884  1.00  0.00    -0.377 OA
BRANCH  28  29
ATOM     29  C   UNL A   1      33.372  35.741  30.810  1.00  0.00     0.188 C 
BRANCH  29  30
ATOM     30  C   UNL A   1      33.229  35.623  32.354  1.00  0.00     0.188 C 
BRANCH  30  31
ATOM     31  O   UNL A   1      34.167  34.791  33.007  1.00  0.00    -0.376 OA
BRANCH  31  32
ATOM     32  C   UNL A   1      35.548  35.066  33.079  1.00  0.00     0.202 C 
BRANCH  32  33
ATOM     33  C   UNL A   1      36.499  34.297  32.174  1.00  0.00     0.261 C 
BRANCH  33  34
ATOM     34  O   UNL A   1      36.430  32.895  32.330  1.00  0.00    -0.460 OA
BRANCH  34  35
ATOM     35  C   UNL A   1      35.670  32.279  31.411  1.00  0.00     0.338 C 
ATOM     36  O   UNL A   1      34.447  32.258  31.343  1.00  0.00    -0.246 OA
BRANCH  35  37
ATOM     37  C   UNL A   1      36.548  31.468  30.578  1.00  0.00     0.060 A 
ATOM     38  C   UNL A   1      36.467  30.088  30.755  1.00  0.00     0.016 A 
ATOM     39  C   UNL A   1      37.667  32.102  30.019  1.00  0.00     0.016 A 
ATOM     40  C   UNL A   1      37.626  29.367  30.623  1.00  0.00     0.010 A 
ATOM     41  C   UNL A   1      38.830  31.392  29.931  1.00  0.00     0.010 A 
ATOM     42  C   UNL A   1      38.807  30.056  30.322  1.00  0.00    -0.014 A 
BRANCH  42  43
ATOM     43  C   UNL A   1      40.037  29.309  30.284  1.00  0.00     0.031 A 
ATOM     44  C   UNL A   1      40.632  29.204  31.630  1.00  0.00     0.074 A 
ATOM     45  C   UNL A   1      40.488  28.721  29.161  1.00  0.00     0.049 A 
ATOM     46  N   UNL A   1      41.693  29.800  32.058  1.00  0.00    -0.248 NA
ATOM     47  C   UNL A   1      39.831  28.564  32.688  1.00  0.00     0.031 C 
ATOM     48  C   UNL A   1      39.802  28.575  27.875  1.00  0.00     0.029 A 
ATOM     49  N   UNL A   1      41.649  28.041  28.966  1.00  0.00    -0.354 N 
ATOM     50  C   UNL A   1      41.812  29.414  33.388  1.00  0.00     0.074 A 
ATOM     51  C   UNL A   1      40.537  28.880  33.772  1.00  0.00     0.031 C 
ATOM     52  C   UNL A   1      40.462  27.665  27.118  1.00  0.00     0.029 A 
ATOM     53  C   UNL A   1      41.675  27.268  27.811  1.00  0.00     0.049 A 
ATOM     54  H   UNL A   1      42.407  28.092  29.592  1.00  0.00     0.167 HD
ATOM     55  C   UNL A   1      43.045  29.265  33.939  1.00  0.00     0.037 A 
ATOM     56  C   UNL A   1      42.603  26.321  27.518  1.00  0.00     0.037 A 
ATOM     57  C   UNL A   1      44.030  29.986  33.167  1.00  0.00     0.049 A 
ATOM     58  C   UNL A   1      43.784  26.586  28.382  1.00  0.00     0.074 A 
ATOM     59  C   UNL A   1      44.225  31.311  32.833  1.00  0.00     0.029 A 
ATOM     60  N   UNL A   1      44.784  29.256  32.282  1.00  0.00    -0.354 N 
ATOM     61  N   UNL A   1      44.561  27.623  28.247  1.00  0.00    -0.248 NA
ATOM     62  C   UNL A   1      43.825  25.941  29.687  1.00  0.00     0.031 C 
ATOM     63  C   UNL A   1      44.743  31.293  31.504  1.00  0.00     0.029 A 
ATOM     64  C   UNL A   1      44.907  29.963  31.117  1.00  0.00     0.049 A 
ATOM     65  H   UNL A   1      45.172  28.368  32.457  1.00  0.00     0.167 HD
ATOM     66  C   UNL A   1      44.839  28.026  29.546  1.00  0.00     0.074 A 
ATOM     67  C   UNL A   1      44.439  26.899  30.386  1.00  0.00     0.031 C 
ATOM     68  C   UNL A   1      45.081  29.339  29.825  1.00  0.00     0.037 A 
BRANCH  55  69
ATOM     69  C   UNL A   1      43.415  28.117  34.856  1.00  0.00     0.064 A 
ATOM     70  C   UNL A   1      43.882  28.425  36.149  1.00  0.00     0.173 A 
ATOM     71  C   UNL A   1      43.630  26.782  34.443  1.00  0.00     0.173 A 
ATOM     72  F   UNL A   1      43.737  29.660  36.653  1.00  0.00    -0.203 F 
ATOM     73  C   UNL A   1      44.603  27.506  36.915  1.00  0.00     0.198 A 
ATOM     74  C   UNL A   1      44.306  25.853  35.232  1.00  0.00     0.198 A 
ATOM     75  F   UNL A   1      43.301  26.331  33.230  1.00  0.00    -0.203 F 
ATOM     76  F   UNL A   1      45.148  27.894  38.075  1.00  0.00    -0.200 F 
ATOM     77  C   UNL A   1      44.825  26.224  36.450  1.00  0.00     0.200 A 
ATOM     78  F   UNL A   1      44.520  24.619  34.752  1.00  0.00    -0.200 F 
ATOM     79  F   UNL A   1      45.573  25.363  37.149  1.00  0.00    -0.200 F 
ENDBRANCH  55  69
BRANCH  56  80
ATOM     80  C   UNL A   1      42.432  25.028  26.809  1.00  0.00     0.064 A 
ATOM     81  C   UNL A   1      43.117  24.769  25.608  1.00  0.00     0.173 A 
ATOM     82  C   UNL A   1      41.836  23.919  27.437  1.00  0.00     0.173 A 
ATOM     83  F   UNL A   1      43.753  25.761  24.968  1.00  0.00    -0.203 F 
ATOM     84  C   UNL A   1      43.228  23.474  25.088  1.00  0.00     0.198 A 
ATOM     85  C   UNL A   1      41.942  22.628  26.913  1.00  0.00     0.198 A 
ATOM     86  F   UNL A   1      41.226  24.044  28.624  1.00  0.00    -0.203 F 
ATOM     87  F   UNL A   1      43.949  23.259  23.979  1.00  0.00    -0.200 F 
ATOM     88  C   UNL A   1      42.650  22.404  25.748  1.00  0.00     0.200 A 
ATOM     89  F   UNL A   1      41.411  21.595  27.583  1.00  0.00    -0.200 F 
ATOM     90  F   UNL A   1      42.813  21.156  25.287  1.00  0.00    -0.200 F 
ENDBRANCH  56  80
BRANCH  68  91
ATOM     91  C   UNL A   1      45.357  30.258  28.666  1.00  0.00     0.064 A 
ATOM     92  C   UNL A   1      44.365  30.900  27.904  1.00  0.00     0.173 A 
ATOM     93  C   UNL A   1      46.692  30.603  28.410  1.00  0.00     0.173 A 
ATOM     94  F   UNL A   1      43.065  30.697  28.150  1.00  0.00    -0.203 F 
ATOM     95  C   UNL A   1      44.703  31.815  26.907  1.00  0.00     0.198 A 
ATOM     96  C   UNL A   1      47.023  31.546  27.444  1.00  0.00     0.198 A 
ATOM     97  F   UNL A   1      47.677  30.057  29.140  1.00  0.00    -0.203 F 
ATOM     98  F   UNL A   1      43.741  32.407  26.183  1.00  0.00    -0.200 F 
ATOM     99  C   UNL A   1      46.031  32.144  26.685  1.00  0.00     0.200 A 
ATOM    100  F   UNL A   1      48.304  31.896  27.269  1.00  0.00    -0.200 F 
ATOM    101  F   UNL A   1      46.353  33.057  25.758  1.00  0.00    -0.200 F 
ENDBRANCH  68  91
ENDBRANCH  42  43
ENDBRANCH  35  37
ENDBRANCH  34  35
ENDBRANCH  33  34
ENDBRANCH  32  33
ENDBRANCH  31  32
ENDBRANCH  30  31
ENDBRANCH  29  30
ENDBRANCH  28  29
ENDBRANCH  27  28
ENDBRANCH   1  27
TORSDOF 25
ENDMDL
MODEL 3
REMARK VINA RESULT:      -8.9      4.948     10.168
REMARK SMILES C[C@@H]([NH3+])CCC(=O)N1CC(n2cc(C(=O)OCCOCCOCCOCCOC(=O)c3ccc(-c4c5nc(c(-c6c(F)c(F)c(F)c(F)c6F)c6ccc([nH]6)c(-c6c(F)c(F)c(F)c(F)c6F)c6nc(c(-c7c(F)c(F)c(F)c(F)c7F)c7ccc4[nH]7)C=C6)C=C5)cc3)nn2)C1
REMARK SMILES IDX 20 1 19 2 18 3 17 4 16 5 14 6 15 7 13 8 11 9 12 10 95 11
REMARK SMILES IDX 94 12 10 13 6 14 7 15 8 16 9 17 96 18 5 19 4 20 2 21 1 22
REMARK SMILES IDX 3 23 21 27 22 28 23 29 24 30 25 31 26 32 27 33 28 34 29 35
REMARK SMILES IDX 30 36 31 37 32 38 93 39 33 40 92 41 34 42 35 43 36 44 86 45
REMARK SMILES IDX 37 46 91 47 85 48 87 49 38 50 90 51 84 52 83 53 39 55 71 56
REMARK SMILES IDX 51 57 70 58 52 59 55 60 69 61 88 62 53 63 54 64 68 66 89 67
REMARK SMILES IDX 56 68 40 69 41 70 49 71 42 72 43 73 47 74 50 75 44 76 45 77
REMARK SMILES IDX 48 78 46 79 72 80 73 81 81 82 74 83 75 84 79 85 82 86 76 87
REMARK SMILES IDX 77 88 80 89 78 90 57 91 58 92 66 93 59 94 60 95 64 96 67 97
REMARK SMILES IDX 61 98 62 99 65 100 63 101
REMARK H PARENT 3 24 3 25 3 26 87 54 55 65
REMARK Flexibility Score: inf
ROOT
ATOM      1  C   UNL A   1      43.638  19.018  26.043  1.00  0.00     0.188 C 
ENDROOT
BRANCH   1   2
ATOM      2  O   UNL A   1      42.452  18.324  25.725  1.00  0.00    -0.376 OA
BRANCH   2   3
ATOM      3  C   UNL A   1      41.169  18.812  26.039  1.00  0.00     0.202 C 
BRANCH   3   4
ATOM      4  C   UNL A   1      40.893  20.226  26.573  1.00  0.00     0.261 C 
BRANCH   4   5
ATOM      5  O   UNL A   1      39.903  21.003  25.898  1.00  0.00    -0.458 OA
BRANCH   5   6
ATOM      6  C   UNL A   1      39.713  22.273  26.336  1.00  0.00     0.360 C 
ATOM      7  O   UNL A   1      40.617  22.996  26.767  1.00  0.00    -0.244 OA
BRANCH   6   8
ATOM      8  C   UNL A   1      38.351  22.723  26.107  1.00  0.00     0.190 A 
ATOM      9  N   UNL A   1      36.264  22.917  25.538  1.00  0.00    -0.245 N 
ATOM     10  C   UNL A   1      37.315  22.040  25.492  1.00  0.00     0.147 A 
ATOM     11  N   UNL A   1      36.638  24.092  26.060  1.00  0.00    -0.066 NA
ATOM     12  N   UNL A   1      37.912  23.988  26.416  1.00  0.00    -0.123 NA
BRANCH   9  13
ATOM     13  C   UNL A   1      34.906  22.525  25.303  1.00  0.00     0.148 C 
ATOM     14  C   UNL A   1      32.912  19.956  24.897  1.00  0.00     0.222 C 
ATOM     15  O   UNL A   1      31.807  20.357  25.259  1.00  0.00    -0.275 OA
ATOM     16  N   UNL A   1      34.072  20.612  25.235  1.00  0.00    -0.338 N 
ATOM     17  C   UNL A   1      34.244  21.599  26.318  1.00  0.00     0.148 C 
ATOM     18  C   UNL A   1      34.900  21.371  24.311  1.00  0.00     0.148 C 
BRANCH  14  19
ATOM     19  C   UNL A   1      33.077  18.599  24.211  1.00  0.00     0.106 C 
BRANCH  19  20
ATOM     20  C   UNL A   1      34.342  17.762  24.450  1.00  0.00     0.074 C 
BRANCH  20  21
ATOM     21  C   UNL A   1      34.225  16.520  25.346  1.00  0.00     0.178 C 
ATOM     22  C   UNL A   1      33.059  15.595  25.014  1.00  0.00     0.075 C 
BRANCH  21  23
ATOM     23  N   UNL A   1      35.474  15.754  25.342  1.00  0.00    -0.355 N 
ATOM     24  H   UNL A   1      35.992  15.943  26.199  1.00  0.00     0.344 HD
ATOM     25  H   UNL A   1      36.038  16.028  24.536  1.00  0.00     0.344 HD
ATOM     26  H   UNL A   1      35.262  14.757  25.284  1.00  0.00     0.344 HD
ENDBRANCH  21  23
ENDBRANCH  20  21
ENDBRANCH  19  20
ENDBRANCH  14  19
ENDBRANCH   9  13
ENDBRANCH   6   8
ENDBRANCH   5   6
ENDBRANCH   4   5
ENDBRANCH   3   4
ENDBRANCH   2   3
ENDBRANCH   1   2
BRANCH   1  27
ATOM     27  C   UNL A   1      44.058  20.057  24.983  1.00  0.00     0.188 C 
BRANCH  27  28
ATOM     28  O   UNL A   1      44.271  21.389  25.416  1.00  0.00    -0.377 OA
BRANCH  28  29
ATOM     29  C   UNL A   1      43.820  22.483  24.613  1.00  0.00     0.188 C 
BRANCH  29  30
ATOM     30  C   UNL A   1      44.010  23.981  24.984  1.00  0.00     0.188 C 
BRANCH  30  31
ATOM     31  O   UNL A   1      45.192  24.598  24.512  1.00  0.00    -0.376 OA
BRANCH  31  32
ATOM     32  C   UNL A   1      46.417  24.590  25.211  1.00  0.00     0.202 C 
BRANCH  32  33
ATOM     33  C   UNL A   1      47.525  25.531  24.763  1.00  0.00     0.261 C 
BRANCH  33  34
ATOM     34  O   UNL A   1      47.525  26.775  25.431  1.00  0.00    -0.460 OA
BRANCH  34  35
ATOM     35  C   UNL A   1      46.549  27.608  25.035  1.00  0.00     0.338 C 
ATOM     36  O   UNL A   1      46.389  28.098  23.924  1.00  0.00    -0.246 OA
BRANCH  35  37
ATOM     37  C   UNL A   1      45.785  27.990  26.215  1.00  0.00     0.060 A 
ATOM     38  C   UNL A   1      44.403  28.077  26.055  1.00  0.00     0.016 A 
ATOM     39  C   UNL A   1      46.478  28.645  27.244  1.00  0.00     0.016 A 
ATOM     40  C   UNL A   1      43.747  29.047  26.767  1.00  0.00     0.010 A 
ATOM     41  C   UNL A   1      45.832  29.641  27.920  1.00  0.00     0.010 A 
ATOM     42  C   UNL A   1      44.498  29.883  27.602  1.00  0.00    -0.014 A 
BRANCH  42  43
ATOM     43  C   UNL A   1      43.820  30.964  28.269  1.00  0.00     0.031 A 
ATOM     44  C   UNL A   1      44.277  32.269  27.757  1.00  0.00     0.074 A 
ATOM     45  C   UNL A   1      42.836  30.754  29.161  1.00  0.00     0.049 A 
ATOM     46  N   UNL A   1      45.012  33.131  28.374  1.00  0.00    -0.248 NA
ATOM     47  C   UNL A   1      44.106  32.543  26.319  1.00  0.00     0.031 C 
ATOM     48  C   UNL A   1      42.171  29.493  29.500  1.00  0.00     0.029 A 
ATOM     49  N   UNL A   1      42.154  31.666  29.903  1.00  0.00    -0.354 N 
ATOM     50  C   UNL A   1      45.199  34.164  27.465  1.00  0.00     0.074 A 
ATOM     51  C   UNL A   1      44.845  33.642  26.176  1.00  0.00     0.031 C 
ATOM     52  C   UNL A   1      41.044  29.758  30.204  1.00  0.00     0.029 A 
ATOM     53  C   UNL A   1      40.980  31.184  30.472  1.00  0.00     0.049 A 
ATOM     54  H   UNL A   1      42.466  32.592  30.027  1.00  0.00     0.167 HD
ATOM     55  C   UNL A   1      45.306  35.443  27.909  1.00  0.00     0.037 A 
ATOM     56  C   UNL A   1      40.011  31.944  31.043  1.00  0.00     0.037 A 
ATOM     57  C   UNL A   1      45.669  35.459  29.307  1.00  0.00     0.049 A 
ATOM     58  C   UNL A   1      40.622  33.263  31.360  1.00  0.00     0.074 A 
ATOM     59  C   UNL A   1      46.749  35.005  30.037  1.00  0.00     0.029 A 
ATOM     60  N   UNL A   1      44.656  35.659  30.212  1.00  0.00    -0.354 N 
ATOM     61  N   UNL A   1      41.529  33.437  32.280  1.00  0.00    -0.248 NA
ATOM     62  C   UNL A   1      40.560  34.299  30.341  1.00  0.00     0.031 C 
ATOM     63  C   UNL A   1      46.204  34.549  31.274  1.00  0.00     0.029 A 
ATOM     64  C   UNL A   1      44.833  34.810  31.270  1.00  0.00     0.049 A 
ATOM     65  H   UNL A   1      43.920  36.307  30.115  1.00  0.00     0.167 HD
ATOM     66  C   UNL A   1      42.426  34.337  31.723  1.00  0.00     0.074 A 
ATOM     67  C   UNL A   1      41.728  34.904  30.571  1.00  0.00     0.031 C 
ATOM     68  C   UNL A   1      43.744  34.305  32.074  1.00  0.00     0.037 A 
BRANCH  55  69
ATOM     69  C   UNL A   1      44.632  36.620  27.234  1.00  0.00     0.064 A 
ATOM     70  C   UNL A   1      45.412  37.760  26.955  1.00  0.00     0.173 A 
ATOM     71  C   UNL A   1      43.234  36.810  27.131  1.00  0.00     0.173 A 
ATOM     72  F   UNL A   1      46.751  37.706  27.020  1.00  0.00    -0.203 F 
ATOM     73  C   UNL A   1      44.837  39.008  26.707  1.00  0.00     0.198 A 
ATOM     74  C   UNL A   1      42.666  38.047  26.834  1.00  0.00     0.198 A 
ATOM     75  F   UNL A   1      42.345  35.855  27.412  1.00  0.00    -0.203 F 
ATOM     76  F   UNL A   1      45.622  40.089  26.591  1.00  0.00    -0.200 F 
ATOM     77  C   UNL A   1      43.464  39.153  26.659  1.00  0.00     0.200 A 
ATOM     78  F   UNL A   1      41.330  38.164  26.806  1.00  0.00    -0.200 F 
ATOM     79  F   UNL A   1      42.909  40.359  26.491  1.00  0.00    -0.200 F 
ENDBRANCH  55  69
BRANCH  56  80
ATOM     80  C   UNL A   1      38.539  31.751  31.032  1.00  0.00     0.064 A 
ATOM     81  C   UNL A   1      37.786  31.892  32.211  1.00  0.00     0.173 A 
ATOM     82  C   UNL A   1      37.811  31.719  29.828  1.00  0.00     0.173 A 
ATOM     83  F   UNL A   1      38.402  31.978  33.399  1.00  0.00    -0.203 F 
ATOM     84  C   UNL A   1      36.393  32.028  32.183  1.00  0.00     0.198 A 
ATOM     85  C   UNL A   1      36.421  31.848  29.802  1.00  0.00     0.198 A 
ATOM     86  F   UNL A   1      38.438  31.664  28.645  1.00  0.00    -0.203 F 
ATOM     87  F   UNL A   1      35.718  32.232  33.323  1.00  0.00    -0.200 F 
ATOM     88  C   UNL A   1      35.714  32.018  30.977  1.00  0.00     0.200 A 
ATOM     89  F   UNL A   1      35.779  31.875  28.625  1.00  0.00    -0.200 F 
ATOM     90  F   UNL A   1      34.388  32.215  30.944  1.00  0.00    -0.200 F 
ENDBRANCH  56  80
BRANCH  68  91
ATOM     91  C   UNL A   1      44.121  33.509  33.294  1.00  0.00     0.064 A 
ATOM     92  C   UNL A   1      44.047  33.990  34.613  1.00  0.00     0.173 A 
ATOM     93  C   UNL A   1      44.441  32.156  33.117  1.00  0.00     0.173 A 
ATOM     94  F   UNL A   1      43.656  35.245  34.871  1.00  0.00    -0.203 F 
ATOM     95  C   UNL A   1      44.321  33.158  35.699  1.00  0.00     0.198 A 
ATOM     96  C   UNL A   1      44.672  31.319  34.203  1.00  0.00     0.198 A 
ATOM     97  F   UNL A   1      44.477  31.631  31.882  1.00  0.00    -0.203 F 
ATOM     98  F   UNL A   1      44.256  33.641  36.949  1.00  0.00    -0.200 F 
ATOM     99  C   UNL A   1      44.623  31.822  35.493  1.00  0.00     0.200 A 
ATOM    100  F   UNL A   1      44.914  30.018  33.999  1.00  0.00    -0.200 F 
ATOM    101  F   UNL A   1      44.841  31.011  36.538  1.00  0.00    -0.200 F 
ENDBRANCH  68  91
ENDBRANCH  42  43
ENDBRANCH  35  37
ENDBRANCH  34  35
ENDBRANCH  33  34
ENDBRANCH  32  33
ENDBRANCH  31  32
ENDBRANCH  30  31
ENDBRANCH  29  30
ENDBRANCH  28  29
ENDBRANCH  27  28
ENDBRANCH   1  27
TORSDOF 25
ENDMDL
