MODEL 1
REMARK VINA RESULT:     -10.5      0.000      0.000
REMARK SMILES CC1(C)CCC[C@H]1NS(=O)(=O)c1cccc(C(=O)OCCOCCOCCOCCOC(=O)c2ccc(-c3c4nc(c(-c5c(F)c(F)c(F)c(F)c5F)c5ccc([nH]5)c(-c5c(F)c(F)c(F)c(F)c5F)c5nc(c(-c6c(F)c(F)c(F)c(F)c6F)c6ccc3[nH]6)C=C5)C=C4)cc2)c1
REMARK SMILES IDX 24 1 23 2 22 3 21 4 20 5 19 6 17 7 18 8 16 9 12 10 13 11
REMARK SMILES IDX 97 12 14 13 15 14 9 15 10 16 11 17 8 18 7 20 1 21 2 22 3 23
REMARK SMILES IDX 4 24 5 25 6 26 25 27 26 28 27 29 28 30 29 31 30 32 31 33
REMARK SMILES IDX 32 34 33 35 34 36 35 37 96 38 36 39 95 40 37 41 38 42 39 43
REMARK SMILES IDX 89 44 40 45 94 46 88 47 90 48 41 49 93 50 87 51 86 52 42 54
REMARK SMILES IDX 74 55 54 56 73 57 55 58 58 59 72 60 91 61 56 62 57 63 71 65
REMARK SMILES IDX 92 66 59 67 43 68 44 69 52 70 45 71 46 72 50 73 53 74 47 75
REMARK SMILES IDX 48 76 51 77 49 78 75 79 76 80 84 81 77 82 78 83 82 84 85 85
REMARK SMILES IDX 79 86 80 87 83 88 81 89 60 90 61 91 69 92 62 93 63 94 67 95
REMARK SMILES IDX 70 96 64 97 65 98 68 99 66 100
REMARK H PARENT 8 19 90 53 58 64
REMARK Flexibility Score: inf
ROOT
ATOM      1  C   UNL A   1      41.513  19.230  26.050  1.00  0.00     0.188 C 
ENDROOT
BRANCH   1   2
ATOM      2  C   UNL A   1      41.054  20.567  26.654  1.00  0.00     0.188 C 
BRANCH   2   3
ATOM      3  O   UNL A   1      39.811  21.031  26.135  1.00  0.00    -0.376 OA
BRANCH   3   4
ATOM      4  C   UNL A   1      39.437  22.353  26.500  1.00  0.00     0.202 C 
BRANCH   4   5
ATOM      5  C   UNL A   1      38.018  22.753  26.077  1.00  0.00     0.261 C 
BRANCH   5   6
ATOM      6  O   UNL A   1      37.624  22.288  24.779  1.00  0.00    -0.460 OA
BRANCH   6   7
ATOM      7  C   UNL A   1      36.566  21.444  24.703  1.00  0.00     0.338 C 
ATOM      8  O   UNL A   1      36.509  20.299  25.090  1.00  0.00    -0.246 OA
BRANCH   7   9
ATOM      9  C   UNL A   1      35.405  22.266  24.278  1.00  0.00     0.061 A 
ATOM     10  C   UNL A   1      33.222  23.197  24.716  1.00  0.00     0.083 A 
ATOM     11  C   UNL A   1      33.045  23.452  23.354  1.00  0.00     0.022 A 
ATOM     12  C   UNL A   1      34.394  22.593  25.183  1.00  0.00     0.037 A 
ATOM     13  C   UNL A   1      34.078  23.164  22.460  1.00  0.00     0.002 A 
ATOM     14  C   UNL A   1      35.265  22.585  22.922  1.00  0.00     0.016 A 
BRANCH  10  15
ATOM     15  S   UNL A   1      32.025  23.686  25.923  1.00  0.00     0.240 S 
ATOM     16  O   UNL A   1      32.624  23.512  27.227  1.00  0.00    -0.207 OA
ATOM     17  O   UNL A   1      30.781  23.034  25.581  1.00  0.00    -0.207 OA
BRANCH  15  18
ATOM     18  N   UNL A   1      31.755  25.325  25.691  1.00  0.00    -0.208 NA
ATOM     19  H   UNL A   1      31.934  25.495  24.701  1.00  0.00     0.141 HD
BRANCH  18  20
ATOM     20  C   UNL A   1      32.461  26.397  26.410  1.00  0.00     0.075 C 
ATOM     21  C   UNL A   1      33.587  26.743  24.068  1.00  0.00     0.013 C 
ATOM     22  C   UNL A   1      33.150  27.367  25.404  1.00  0.00    -0.019 C 
ATOM     23  C   UNL A   1      34.401  27.996  26.052  1.00  0.00     0.013 C 
ATOM     24  C   UNL A   1      32.063  28.429  25.173  1.00  0.00     0.008 C 
ATOM     25  C   UNL A   1      31.435  28.636  26.541  1.00  0.00     0.002 C 
ATOM     26  C   UNL A   1      31.532  27.286  27.247  1.00  0.00     0.020 C 
ENDBRANCH  18  20
ENDBRANCH  15  18
ENDBRANCH  10  15
ENDBRANCH   7   9
ENDBRANCH   6   7
ENDBRANCH   5   6
ENDBRANCH   4   5
ENDBRANCH   3   4
ENDBRANCH   2   3
ENDBRANCH   1   2
BRANCH   1  27
ATOM     27  O   UNL A   1      42.467  19.303  25.006  1.00  0.00    -0.377 OA
BRANCH  27  28
ATOM     28  C   UNL A   1      43.838  19.053  25.295  1.00  0.00     0.188 C 
BRANCH  28  29
ATOM     29  C   UNL A   1      44.872  20.186  25.480  1.00  0.00     0.188 C 
BRANCH  29  30
ATOM     30  O   UNL A   1      45.467  20.667  24.280  1.00  0.00    -0.376 OA
BRANCH  30  31
ATOM     31  C   UNL A   1      46.053  21.960  24.337  1.00  0.00     0.202 C 
BRANCH  31  32
ATOM     32  C   UNL A   1      45.620  22.769  25.564  1.00  0.00     0.261 C 
BRANCH  32  33
ATOM     33  O   UNL A   1      44.950  24.000  25.259  1.00  0.00    -0.460 OA
BRANCH  33  34
ATOM     34  C   UNL A   1      43.618  23.932  25.047  1.00  0.00     0.338 C 
ATOM     35  O   UNL A   1      43.015  23.138  24.349  1.00  0.00    -0.246 OA
BRANCH  34  36
ATOM     36  C   UNL A   1      42.971  24.896  25.954  1.00  0.00     0.060 A 
ATOM     37  C   UNL A   1      43.453  26.211  25.999  1.00  0.00     0.016 A 
ATOM     38  C   UNL A   1      41.897  24.499  26.754  1.00  0.00     0.016 A 
ATOM     39  C   UNL A   1      42.884  27.125  26.884  1.00  0.00     0.010 A 
ATOM     40  C   UNL A   1      41.340  25.410  27.651  1.00  0.00     0.010 A 
ATOM     41  C   UNL A   1      41.856  26.714  27.744  1.00  0.00    -0.014 A 
BRANCH  41  42
ATOM     42  C   UNL A   1      41.461  27.575  28.882  1.00  0.00     0.031 A 
ATOM     43  C   UNL A   1      42.236  27.457  30.164  1.00  0.00     0.074 A 
ATOM     44  C   UNL A   1      40.436  28.438  28.783  1.00  0.00     0.049 A 
ATOM     45  N   UNL A   1      42.058  28.070  31.305  1.00  0.00    -0.248 NA
ATOM     46  C   UNL A   1      43.364  26.511  30.156  1.00  0.00     0.031 C 
ATOM     47  C   UNL A   1      39.625  28.654  27.588  1.00  0.00     0.029 A 
ATOM     48  N   UNL A   1      39.898  29.286  29.719  1.00  0.00    -0.354 N 
ATOM     49  C   UNL A   1      43.046  27.582  32.149  1.00  0.00     0.074 A 
ATOM     50  C   UNL A   1      43.801  26.600  31.402  1.00  0.00     0.031 C 
ATOM     51  C   UNL A   1      38.677  29.566  27.868  1.00  0.00     0.029 A 
ATOM     52  C   UNL A   1      38.802  29.976  29.267  1.00  0.00     0.049 A 
ATOM     53  H   UNL A   1      40.264  29.388  30.628  1.00  0.00     0.167 HD
ATOM     54  C   UNL A   1      43.305  27.927  33.432  1.00  0.00     0.037 A 
ATOM     55  C   UNL A   1      37.984  30.824  29.920  1.00  0.00     0.037 A 
ATOM     56  C   UNL A   1      42.547  28.897  34.176  1.00  0.00     0.049 A 
ATOM     57  C   UNL A   1      38.256  31.151  31.366  1.00  0.00     0.074 A 
ATOM     58  C   UNL A   1      42.747  29.340  35.471  1.00  0.00     0.029 A 
ATOM     59  N   UNL A   1      41.433  29.565  33.690  1.00  0.00    -0.354 N 
ATOM     60  N   UNL A   1      39.220  30.723  32.147  1.00  0.00    -0.248 NA
ATOM     61  C   UNL A   1      37.327  32.082  32.022  1.00  0.00     0.031 C 
ATOM     62  C   UNL A   1      41.722  30.237  35.788  1.00  0.00     0.029 A 
ATOM     63  C   UNL A   1      40.916  30.395  34.672  1.00  0.00     0.049 A 
ATOM     64  H   UNL A   1      41.063  29.463  32.784  1.00  0.00     0.167 HD
ATOM     65  C   UNL A   1      39.030  31.350  33.371  1.00  0.00     0.074 A 
ATOM     66  C   UNL A   1      37.865  32.199  33.228  1.00  0.00     0.031 C 
ATOM     67  C   UNL A   1      39.757  31.237  34.511  1.00  0.00     0.037 A 
BRANCH  54  68
ATOM     68  C   UNL A   1      44.438  27.222  34.117  1.00  0.00     0.064 A 
ATOM     69  C   UNL A   1      45.765  27.657  33.985  1.00  0.00     0.173 A 
ATOM     70  C   UNL A   1      44.190  26.102  34.924  1.00  0.00     0.173 A 
ATOM     71  F   UNL A   1      46.056  28.713  33.210  1.00  0.00    -0.203 F 
ATOM     72  C   UNL A   1      46.807  26.978  34.612  1.00  0.00     0.198 A 
ATOM     73  C   UNL A   1      45.231  25.443  35.572  1.00  0.00     0.198 A 
ATOM     74  F   UNL A   1      42.939  25.646  35.083  1.00  0.00    -0.203 F 
ATOM     75  F   UNL A   1      48.072  27.379  34.429  1.00  0.00    -0.200 F 
ATOM     76  C   UNL A   1      46.538  25.875  35.409  1.00  0.00     0.200 A 
ATOM     77  F   UNL A   1      44.968  24.383  36.350  1.00  0.00    -0.200 F 
ATOM     78  F   UNL A   1      47.541  25.224  36.013  1.00  0.00    -0.200 F 
ENDBRANCH  54  68
BRANCH  55  79
ATOM     79  C   UNL A   1      36.823  31.423  29.212  1.00  0.00     0.064 A 
ATOM     80  C   UNL A   1      36.831  32.767  28.815  1.00  0.00     0.173 A 
ATOM     81  C   UNL A   1      35.677  30.665  28.928  1.00  0.00     0.173 A 
ATOM     82  F   UNL A   1      37.893  33.540  29.089  1.00  0.00    -0.203 F 
ATOM     83  C   UNL A   1      35.732  33.334  28.173  1.00  0.00     0.198 A 
ATOM     84  C   UNL A   1      34.589  31.227  28.263  1.00  0.00     0.198 A 
ATOM     85  F   UNL A   1      35.616  29.377  29.294  1.00  0.00    -0.203 F 
ATOM     86  F   UNL A   1      35.749  34.633  27.844  1.00  0.00    -0.200 F 
ATOM     87  C   UNL A   1      34.615  32.562  27.892  1.00  0.00     0.200 A 
ATOM     88  F   UNL A   1      33.514  30.476  27.988  1.00  0.00    -0.200 F 
ATOM     89  F   UNL A   1      33.560  33.109  27.272  1.00  0.00    -0.200 F 
ENDBRANCH  55  79
BRANCH  67  90
ATOM     90  C   UNL A   1      39.337  32.073  35.687  1.00  0.00     0.064 A 
ATOM     91  C   UNL A   1      39.791  33.389  35.855  1.00  0.00     0.173 A 
ATOM     92  C   UNL A   1      38.428  31.566  36.628  1.00  0.00     0.173 A 
ATOM     93  F   UNL A   1      40.671  33.916  34.990  1.00  0.00    -0.203 F 
ATOM     94  C   UNL A   1      39.370  34.158  36.936  1.00  0.00     0.198 A 
ATOM     95  C   UNL A   1      37.985  32.348  37.691  1.00  0.00     0.198 A 
ATOM     96  F   UNL A   1      37.956  30.316  36.507  1.00  0.00    -0.203 F 
ATOM     97  F   UNL A   1      39.851  35.398  37.103  1.00  0.00    -0.200 F 
ATOM     98  C   UNL A   1      38.461  33.640  37.848  1.00  0.00     0.200 A 
ATOM     99  F   UNL A   1      37.096  31.851  38.562  1.00  0.00    -0.200 F 
ATOM    100  F   UNL A   1      38.050  34.386  38.883  1.00  0.00    -0.200 F 
ENDBRANCH  67  90
ENDBRANCH  41  42
ENDBRANCH  34  36
ENDBRANCH  33  34
ENDBRANCH  32  33
ENDBRANCH  31  32
ENDBRANCH  30  31
ENDBRANCH  29  30
ENDBRANCH  28  29
ENDBRANCH  27  28
ENDBRANCH   1  27
TORSDOF 23
ENDMDL
MODEL 2
REMARK VINA RESULT:     -10.1      3.997     10.162
REMARK SMILES CC1(C)CCC[C@H]1NS(=O)(=O)c1cccc(C(=O)OCCOCCOCCOCCOC(=O)c2ccc(-c3c4nc(c(-c5c(F)c(F)c(F)c(F)c5F)c5ccc([nH]5)c(-c5c(F)c(F)c(F)c(F)c5F)c5nc(c(-c6c(F)c(F)c(F)c(F)c6F)c6ccc3[nH]6)C=C5)C=C4)cc2)c1
REMARK SMILES IDX 24 1 23 2 22 3 21 4 20 5 19 6 17 7 18 8 16 9 12 10 13 11
REMARK SMILES IDX 97 12 14 13 15 14 9 15 10 16 11 17 8 18 7 20 1 21 2 22 3 23
REMARK SMILES IDX 4 24 5 25 6 26 25 27 26 28 27 29 28 30 29 31 30 32 31 33
REMARK SMILES IDX 32 34 33 35 34 36 35 37 96 38 36 39 95 40 37 41 38 42 39 43
REMARK SMILES IDX 89 44 40 45 94 46 88 47 90 48 41 49 93 50 87 51 86 52 42 54
REMARK SMILES IDX 74 55 54 56 73 57 55 58 58 59 72 60 91 61 56 62 57 63 71 65
REMARK SMILES IDX 92 66 59 67 43 68 44 69 52 70 45 71 46 72 50 73 53 74 47 75
REMARK SMILES IDX 48 76 51 77 49 78 75 79 76 80 84 81 77 82 78 83 82 84 85 85
REMARK SMILES IDX 79 86 80 87 83 88 81 89 60 90 61 91 69 92 62 93 63 94 67 95
REMARK SMILES IDX 70 96 64 97 65 98 68 99 66 100
REMARK H PARENT 8 19 90 53 58 64
REMARK Flexibility Score: inf
ROOT
ATOM      1  C   UNL A   1      33.856  31.304  27.479  1.00  0.00     0.188 C 
ENDROOT
BRANCH   1   2
ATOM      2  C   UNL A   1      33.183  29.947  27.215  1.00  0.00     0.188 C 
BRANCH   2   3
ATOM      3  O   UNL A   1      33.679  29.279  26.058  1.00  0.00    -0.376 OA
BRANCH   3   4
ATOM      4  C   UNL A   1      32.900  29.416  24.877  1.00  0.00     0.202 C 
BRANCH   4   5
ATOM      5  C   UNL A   1      31.431  29.002  25.031  1.00  0.00     0.261 C 
BRANCH   5   6
ATOM      6  O   UNL A   1      31.190  27.592  24.919  1.00  0.00    -0.460 OA
BRANCH   6   7
ATOM      7  C   UNL A   1      31.219  26.852  26.054  1.00  0.00     0.338 C 
ATOM      8  O   UNL A   1      30.928  27.209  27.172  1.00  0.00    -0.246 OA
BRANCH   7   9
ATOM      9  C   UNL A   1      31.437  25.445  25.630  1.00  0.00     0.061 A 
ATOM     10  C   UNL A   1      32.236  23.842  24.014  1.00  0.00     0.083 A 
ATOM     11  C   UNL A   1      31.485  22.835  24.624  1.00  0.00     0.022 A 
ATOM     12  C   UNL A   1      32.207  25.152  24.503  1.00  0.00     0.037 A 
ATOM     13  C   UNL A   1      30.753  23.125  25.778  1.00  0.00     0.002 A 
ATOM     14  C   UNL A   1      30.740  24.426  26.292  1.00  0.00     0.016 A 
BRANCH  10  15
ATOM     15  S   UNL A   1      33.313  23.510  22.650  1.00  0.00     0.240 S 
ATOM     16  O   UNL A   1      33.536  24.759  21.957  1.00  0.00    -0.207 OA
ATOM     17  O   UNL A   1      32.784  22.356  21.957  1.00  0.00    -0.207 OA
BRANCH  15  18
ATOM     18  N   UNL A   1      34.774  23.013  23.305  1.00  0.00    -0.208 NA
ATOM     19  H   UNL A   1      34.862  22.026  23.063  1.00  0.00     0.141 HD
BRANCH  18  20
ATOM     20  C   UNL A   1      35.122  23.101  24.733  1.00  0.00     0.075 C 
ATOM     21  C   UNL A   1      34.271  20.621  24.730  1.00  0.00     0.013 C 
ATOM     22  C   UNL A   1      35.188  21.679  25.367  1.00  0.00    -0.019 C 
ATOM     23  C   UNL A   1      34.833  21.755  26.866  1.00  0.00     0.013 C 
ATOM     24  C   UNL A   1      36.664  21.300  25.174  1.00  0.00     0.008 C 
ATOM     25  C   UNL A   1      37.427  22.586  25.444  1.00  0.00     0.002 C 
ATOM     26  C   UNL A   1      36.505  23.714  24.989  1.00  0.00     0.020 C 
ENDBRANCH  18  20
ENDBRANCH  15  18
ENDBRANCH  10  15
ENDBRANCH   7   9
ENDBRANCH   6   7
ENDBRANCH   5   6
ENDBRANCH   4   5
ENDBRANCH   3   4
ENDBRANCH   2   3
ENDBRANCH   1   2
BRANCH   1  27
ATOM     27  O   UNL A   1      34.696  31.381  28.616  1.00  0.00    -0.377 OA
BRANCH  27  28
ATOM     28  C   UNL A   1      35.061  32.658  29.128  1.00  0.00     0.188 C 
BRANCH  28  29
ATOM     29  C   UNL A   1      34.657  33.981  28.437  1.00  0.00     0.188 C 
BRANCH  29  30
ATOM     30  O   UNL A   1      33.385  34.497  28.810  1.00  0.00    -0.376 OA
BRANCH  30  31
ATOM     31  C   UNL A   1      33.265  35.912  28.860  1.00  0.00     0.202 C 
BRANCH  31  32
ATOM     32  C   UNL A   1      32.612  36.420  30.149  1.00  0.00     0.261 C 
BRANCH  32  33
ATOM     33  O   UNL A   1      32.413  35.412  31.151  1.00  0.00    -0.460 OA
BRANCH  33  34
ATOM     34  C   UNL A   1      32.923  35.661  32.376  1.00  0.00     0.338 C 
ATOM     35  O   UNL A   1      32.417  36.306  33.276  1.00  0.00    -0.246 OA
BRANCH  34  36
ATOM     36  C   UNL A   1      34.154  34.864  32.519  1.00  0.00     0.060 A 
ATOM     37  C   UNL A   1      34.097  33.650  33.214  1.00  0.00     0.016 A 
ATOM     38  C   UNL A   1      35.355  35.320  31.970  1.00  0.00     0.016 A 
ATOM     39  C   UNL A   1      35.260  32.904  33.400  1.00  0.00     0.010 A 
ATOM     40  C   UNL A   1      36.520  34.581  32.170  1.00  0.00     0.010 A 
ATOM     41  C   UNL A   1      36.482  33.390  32.917  1.00  0.00    -0.014 A 
BRANCH  41  42
ATOM     42  C   UNL A   1      37.749  32.770  33.366  1.00  0.00     0.031 A 
ATOM     43  C   UNL A   1      38.373  31.719  32.491  1.00  0.00     0.074 A 
ATOM     44  C   UNL A   1      38.331  33.125  34.523  1.00  0.00     0.049 A 
ATOM     45  N   UNL A   1      39.453  31.007  32.685  1.00  0.00    -0.248 NA
ATOM     46  C   UNL A   1      37.678  31.431  31.226  1.00  0.00     0.031 C 
ATOM     47  C   UNL A   1      37.831  34.143  35.444  1.00  0.00     0.029 A 
ATOM     48  N   UNL A   1      39.470  32.652  35.125  1.00  0.00    -0.354 N 
ATOM     49  C   UNL A   1      39.562  30.185  31.571  1.00  0.00     0.074 A 
ATOM     50  C   UNL A   1      38.425  30.463  30.721  1.00  0.00     0.031 C 
ATOM     51  C   UNL A   1      38.653  34.207  36.506  1.00  0.00     0.029 A 
ATOM     52  C   UNL A   1      39.720  33.217  36.349  1.00  0.00     0.049 A 
ATOM     53  H   UNL A   1      40.053  31.971  34.716  1.00  0.00     0.167 HD
ATOM     54  C   UNL A   1      40.529  29.284  31.281  1.00  0.00     0.037 A 
ATOM     55  C   UNL A   1      40.688  32.947  37.246  1.00  0.00     0.037 A 
ATOM     56  C   UNL A   1      41.654  29.003  32.132  1.00  0.00     0.049 A 
ATOM     57  C   UNL A   1      41.721  31.898  36.928  1.00  0.00     0.074 A 
ATOM     58  C   UNL A   1      42.705  28.130  31.914  1.00  0.00     0.029 A 
ATOM     59  N   UNL A   1      41.865  29.584  33.374  1.00  0.00    -0.354 N 
ATOM     60  N   UNL A   1      41.849  31.157  35.853  1.00  0.00    -0.248 NA
ATOM     61  C   UNL A   1      42.751  31.650  37.948  1.00  0.00     0.031 C 
ATOM     62  C   UNL A   1      43.524  28.144  33.048  1.00  0.00     0.029 A 
ATOM     63  C   UNL A   1      43.014  29.066  33.948  1.00  0.00     0.049 A 
ATOM     64  H   UNL A   1      41.284  30.263  33.786  1.00  0.00     0.167 HD
ATOM     65  C   UNL A   1      42.981  30.378  36.055  1.00  0.00     0.074 A 
ATOM     66  C   UNL A   1      43.513  30.744  37.351  1.00  0.00     0.031 C 
ATOM     67  C   UNL A   1      43.532  29.445  35.239  1.00  0.00     0.037 A 
BRANCH  54  68
ATOM     68  C   UNL A   1      40.389  28.515  30.000  1.00  0.00     0.064 A 
ATOM     69  C   UNL A   1      39.640  27.331  29.928  1.00  0.00     0.173 A 
ATOM     70  C   UNL A   1      41.006  28.976  28.828  1.00  0.00     0.173 A 
ATOM     71  F   UNL A   1      39.045  26.840  31.026  1.00  0.00    -0.203 F 
ATOM     72  C   UNL A   1      39.538  26.620  28.735  1.00  0.00     0.198 A 
ATOM     73  C   UNL A   1      40.877  28.278  27.630  1.00  0.00     0.198 A 
ATOM     74  F   UNL A   1      41.733  30.103  28.843  1.00  0.00    -0.203 F 
ATOM     75  F   UNL A   1      38.861  25.464  28.701  1.00  0.00    -0.200 F 
ATOM     76  C   UNL A   1      40.152  27.098  27.586  1.00  0.00     0.200 A 
ATOM     77  F   UNL A   1      41.464  28.745  26.519  1.00  0.00    -0.200 F 
ATOM     78  F   UNL A   1      40.052  26.413  26.438  1.00  0.00    -0.200 F 
ENDBRANCH  54  68
BRANCH  55  79
ATOM     79  C   UNL A   1      40.722  33.680  38.538  1.00  0.00     0.064 A 
ATOM     80  C   UNL A   1      39.896  33.305  39.607  1.00  0.00     0.173 A 
ATOM     81  C   UNL A   1      41.575  34.778  38.727  1.00  0.00     0.173 A 
ATOM     82  F   UNL A   1      39.043  32.279  39.465  1.00  0.00    -0.203 F 
ATOM     83  C   UNL A   1      39.911  34.008  40.809  1.00  0.00     0.198 A 
ATOM     84  C   UNL A   1      41.608  35.464  39.940  1.00  0.00     0.198 A 
ATOM     85  F   UNL A   1      42.380  35.182  37.734  1.00  0.00    -0.203 F 
ATOM     86  F   UNL A   1      39.079  33.655  41.799  1.00  0.00    -0.200 F 
ATOM     87  C   UNL A   1      40.771  35.083  40.977  1.00  0.00     0.200 A 
ATOM     88  F   UNL A   1      42.445  36.498  40.100  1.00  0.00    -0.200 F 
ATOM     89  F   UNL A   1      40.787  35.756  42.136  1.00  0.00    -0.200 F 
ENDBRANCH  55  79
BRANCH  67  90
ATOM     90  C   UNL A   1      44.794  28.776  35.704  1.00  0.00     0.064 A 
ATOM     91  C   UNL A   1      46.059  29.315  35.428  1.00  0.00     0.173 A 
ATOM     92  C   UNL A   1      44.732  27.609  36.481  1.00  0.00     0.173 A 
ATOM     93  F   UNL A   1      46.173  30.422  34.679  1.00  0.00    -0.203 F 
ATOM     94  C   UNL A   1      47.217  28.696  35.891  1.00  0.00     0.198 A 
ATOM     95  C   UNL A   1      45.890  27.009  36.968  1.00  0.00     0.198 A 
ATOM     96  F   UNL A   1      43.546  27.059  36.781  1.00  0.00    -0.203 F 
ATOM     97  F   UNL A   1      48.418  29.202  35.578  1.00  0.00    -0.200 F 
ATOM     98  C   UNL A   1      47.131  27.549  36.668  1.00  0.00     0.200 A 
ATOM     99  F   UNL A   1      45.804  25.910  37.730  1.00  0.00    -0.200 F 
ATOM    100  F   UNL A   1      48.246  26.959  37.120  1.00  0.00    -0.200 F 
ENDBRANCH  67  90
ENDBRANCH  41  42
ENDBRANCH  34  36
ENDBRANCH  33  34
ENDBRANCH  32  33
ENDBRANCH  31  32
ENDBRANCH  30  31
ENDBRANCH  29  30
ENDBRANCH  28  29
ENDBRANCH  27  28
ENDBRANCH   1  27
TORSDOF 23
ENDMDL
MODEL 3
REMARK VINA RESULT:      -9.9      4.430      7.524
REMARK SMILES CC1(C)CCC[C@H]1NS(=O)(=O)c1cccc(C(=O)OCCOCCOCCOCCOC(=O)c2ccc(-c3c4nc(c(-c5c(F)c(F)c(F)c(F)c5F)c5ccc([nH]5)c(-c5c(F)c(F)c(F)c(F)c5F)c5nc(c(-c6c(F)c(F)c(F)c(F)c6F)c6ccc3[nH]6)C=C5)C=C4)cc2)c1
REMARK SMILES IDX 24 1 23 2 22 3 21 4 20 5 19 6 17 7 18 8 16 9 12 10 13 11
REMARK SMILES IDX 97 12 14 13 15 14 9 15 10 16 11 17 8 18 7 20 1 21 2 22 3 23
REMARK SMILES IDX 4 24 5 25 6 26 25 27 26 28 27 29 28 30 29 31 30 32 31 33
REMARK SMILES IDX 32 34 33 35 34 36 35 37 96 38 36 39 95 40 37 41 38 42 39 43
REMARK SMILES IDX 89 44 40 45 94 46 88 47 90 48 41 49 93 50 87 51 86 52 42 54
REMARK SMILES IDX 74 55 54 56 73 57 55 58 58 59 72 60 91 61 56 62 57 63 71 65
REMARK SMILES IDX 92 66 59 67 43 68 44 69 52 70 45 71 46 72 50 73 53 74 47 75
REMARK SMILES IDX 48 76 51 77 49 78 75 79 76 80 84 81 77 82 78 83 82 84 85 85
REMARK SMILES IDX 79 86 80 87 83 88 81 89 60 90 61 91 69 92 62 93 63 94 67 95
REMARK SMILES IDX 70 96 64 97 65 98 68 99 66 100
REMARK H PARENT 8 19 90 53 58 64
REMARK Flexibility Score: inf
ROOT
ATOM      1  C   UNL A   1      33.999  25.965  25.844  1.00  0.00     0.188 C 
ENDROOT
BRANCH   1   2
ATOM      2  C   UNL A   1      33.741  27.443  25.508  1.00  0.00     0.188 C 
BRANCH   2   3
ATOM      3  O   UNL A   1      33.657  27.705  24.110  1.00  0.00    -0.376 OA
BRANCH   3   4
ATOM      4  C   UNL A   1      32.560  28.507  23.691  1.00  0.00     0.202 C 
BRANCH   4   5
ATOM      5  C   UNL A   1      31.385  28.542  24.675  1.00  0.00     0.261 C 
BRANCH   5   6
ATOM      6  O   UNL A   1      30.850  27.256  25.019  1.00  0.00    -0.460 OA
BRANCH   6   7
ATOM      7  C   UNL A   1      30.104  26.610  24.089  1.00  0.00     0.338 C 
ATOM      8  O   UNL A   1      29.148  27.040  23.486  1.00  0.00    -0.246 OA
BRANCH   7   9
ATOM      9  C   UNL A   1      30.832  25.357  23.766  1.00  0.00     0.061 A 
ATOM     10  C   UNL A   1      31.771  23.242  24.450  1.00  0.00     0.083 A 
ATOM     11  C   UNL A   1      32.548  23.199  23.289  1.00  0.00     0.022 A 
ATOM     12  C   UNL A   1      30.921  24.323  24.700  1.00  0.00     0.037 A 
ATOM     13  C   UNL A   1      32.421  24.214  22.338  1.00  0.00     0.002 A 
ATOM     14  C   UNL A   1      31.552  25.286  22.567  1.00  0.00     0.016 A 
BRANCH  10  15
ATOM     15  S   UNL A   1      31.759  21.913  25.617  1.00  0.00     0.240 S 
ATOM     16  O   UNL A   1      30.551  22.032  26.401  1.00  0.00    -0.207 OA
ATOM     17  O   UNL A   1      33.059  21.885  26.249  1.00  0.00    -0.207 OA
BRANCH  15  18
ATOM     18  N   UNL A   1      31.660  20.496  24.726  1.00  0.00    -0.208 NA
ATOM     19  H   UNL A   1      31.351  19.779  25.383  1.00  0.00     0.141 HD
BRANCH  18  20
ATOM     20  C   UNL A   1      32.781  19.894  23.986  1.00  0.00     0.075 C 
ATOM     21  C   UNL A   1      32.798  18.263  26.038  1.00  0.00     0.013 C 
ATOM     22  C   UNL A   1      33.108  18.477  24.547  1.00  0.00    -0.019 C 
ATOM     23  C   UNL A   1      34.603  18.161  24.335  1.00  0.00     0.013 C 
ATOM     24  C   UNL A   1      32.228  17.567  23.676  1.00  0.00     0.008 C 
ATOM     25  C   UNL A   1      32.314  18.171  22.284  1.00  0.00     0.002 C 
ATOM     26  C   UNL A   1      32.483  19.673  22.497  1.00  0.00     0.020 C 
ENDBRANCH  18  20
ENDBRANCH  15  18
ENDBRANCH  10  15
ENDBRANCH   7   9
ENDBRANCH   6   7
ENDBRANCH   5   6
ENDBRANCH   4   5
ENDBRANCH   3   4
ENDBRANCH   2   3
ENDBRANCH   1   2
BRANCH   1  27
ATOM     27  O   UNL A   1      34.780  25.235  24.916  1.00  0.00    -0.377 OA
BRANCH  27  28
ATOM     28  C   UNL A   1      35.627  24.192  25.386  1.00  0.00     0.188 C 
BRANCH  28  29
ATOM     29  C   UNL A   1      36.060  23.005  24.496  1.00  0.00     0.188 C 
BRANCH  29  30
ATOM     30  O   UNL A   1      37.344  22.464  24.788  1.00  0.00    -0.376 OA
BRANCH  30  31
ATOM     31  C   UNL A   1      37.498  21.063  24.609  1.00  0.00     0.202 C 
BRANCH  31  32
ATOM     32  C   UNL A   1      38.370  20.407  25.685  1.00  0.00     0.261 C 
BRANCH  32  33
ATOM     33  O   UNL A   1      39.738  20.839  25.685  1.00  0.00    -0.460 OA
BRANCH  33  34
ATOM     34  C   UNL A   1      40.392  20.792  26.866  1.00  0.00     0.338 C 
ATOM     35  O   UNL A   1      40.835  19.811  27.433  1.00  0.00    -0.246 OA
BRANCH  34  36
ATOM     36  C   UNL A   1      40.642  22.180  27.293  1.00  0.00     0.060 A 
ATOM     37  C   UNL A   1      39.902  23.213  26.704  1.00  0.00     0.016 A 
ATOM     38  C   UNL A   1      41.604  22.454  28.268  1.00  0.00     0.016 A 
ATOM     39  C   UNL A   1      40.156  24.536  27.062  1.00  0.00     0.010 A 
ATOM     40  C   UNL A   1      41.869  23.779  28.612  1.00  0.00     0.010 A 
ATOM     41  C   UNL A   1      41.172  24.825  27.983  1.00  0.00    -0.014 A 
BRANCH  41  42
ATOM     42  C   UNL A   1      41.650  26.217  28.138  1.00  0.00     0.031 A 
ATOM     43  C   UNL A   1      43.008  26.564  27.597  1.00  0.00     0.074 A 
ATOM     44  C   UNL A   1      40.902  27.151  28.748  1.00  0.00     0.049 A 
ATOM     45  N   UNL A   1      43.660  27.697  27.644  1.00  0.00    -0.248 NA
ATOM     46  C   UNL A   1      43.731  25.480  26.911  1.00  0.00     0.031 C 
ATOM     47  C   UNL A   1      39.565  26.938  29.295  1.00  0.00     0.029 A 
ATOM     48  N   UNL A   1      41.175  28.468  29.019  1.00  0.00    -0.354 N 
ATOM     49  C   UNL A   1      44.868  27.460  27.001  1.00  0.00     0.074 A 
ATOM     50  C   UNL A   1      44.873  26.070  26.600  1.00  0.00     0.031 C 
ATOM     51  C   UNL A   1      39.139  28.085  29.854  1.00  0.00     0.029 A 
ATOM     52  C   UNL A   1      40.184  29.101  29.725  1.00  0.00     0.049 A 
ATOM     53  H   UNL A   1      42.005  28.916  28.734  1.00  0.00     0.167 HD
ATOM     54  C   UNL A   1      45.879  28.327  26.762  1.00  0.00     0.037 A 
ATOM     55  C   UNL A   1      40.140  30.350  30.225  1.00  0.00     0.037 A 
ATOM     56  C   UNL A   1      45.875  29.706  27.169  1.00  0.00     0.049 A 
ATOM     57  C   UNL A   1      41.302  31.282  29.996  1.00  0.00     0.074 A 
ATOM     58  C   UNL A   1      46.837  30.675  26.948  1.00  0.00     0.029 A 
ATOM     59  N   UNL A   1      44.859  30.308  27.897  1.00  0.00    -0.354 N 
ATOM     60  N   UNL A   1      42.422  31.068  29.347  1.00  0.00    -0.248 NA
ATOM     61  C   UNL A   1      41.193  32.632  30.568  1.00  0.00     0.031 C 
ATOM     62  C   UNL A   1      46.428  31.849  27.587  1.00  0.00     0.029 A 
ATOM     63  C   UNL A   1      45.185  31.628  28.160  1.00  0.00     0.049 A 
ATOM     64  H   UNL A   1      44.030  29.862  28.185  1.00  0.00     0.167 HD
ATOM     65  C   UNL A   1      43.135  32.259  29.409  1.00  0.00     0.074 A 
ATOM     66  C   UNL A   1      42.317  33.196  30.149  1.00  0.00     0.031 C 
ATOM     67  C   UNL A   1      44.356  32.550  28.895  1.00  0.00     0.037 A 
BRANCH  54  68
ATOM     68  C   UNL A   1      47.087  27.792  26.050  1.00  0.00     0.064 A 
ATOM     69  C   UNL A   1      47.171  27.775  24.650  1.00  0.00     0.173 A 
ATOM     70  C   UNL A   1      48.177  27.298  26.781  1.00  0.00     0.173 A 
ATOM     71  F   UNL A   1      46.148  28.220  23.906  1.00  0.00    -0.203 F 
ATOM     72  C   UNL A   1      48.293  27.256  24.007  1.00  0.00     0.198 A 
ATOM     73  C   UNL A   1      49.308  26.807  26.135  1.00  0.00     0.198 A 
ATOM     74  F   UNL A   1      48.147  27.293  28.122  1.00  0.00    -0.203 F 
ATOM     75  F   UNL A   1      48.330  27.201  22.669  1.00  0.00    -0.200 F 
ATOM     76  C   UNL A   1      49.362  26.778  24.750  1.00  0.00     0.200 A 
ATOM     77  F   UNL A   1      50.344  26.354  26.855  1.00  0.00    -0.200 F 
ATOM     78  F   UNL A   1      50.440  26.280  24.130  1.00  0.00    -0.200 F 
ENDBRANCH  54  68
BRANCH  55  79
ATOM     79  C   UNL A   1      38.952  30.794  30.999  1.00  0.00     0.064 A 
ATOM     80  C   UNL A   1      37.864  31.413  30.367  1.00  0.00     0.173 A 
ATOM     81  C   UNL A   1      38.885  30.620  32.389  1.00  0.00     0.173 A 
ATOM     82  F   UNL A   1      37.894  31.628  29.043  1.00  0.00    -0.203 F 
ATOM     83  C   UNL A   1      36.762  31.851  31.097  1.00  0.00     0.198 A 
ATOM     84  C   UNL A   1      37.770  31.036  33.115  1.00  0.00     0.198 A 
ATOM     85  F   UNL A   1      39.902  30.040  33.043  1.00  0.00    -0.203 F 
ATOM     86  F   UNL A   1      35.755  32.478  30.473  1.00  0.00    -0.200 F 
ATOM     87  C   UNL A   1      36.712  31.657  32.469  1.00  0.00     0.200 A 
ATOM     88  F   UNL A   1      37.723  30.839  34.440  1.00  0.00    -0.200 F 
ATOM     89  F   UNL A   1      35.650  32.077  33.169  1.00  0.00    -0.200 F 
ENDBRANCH  55  79
BRANCH  67  90
ATOM     90  C   UNL A   1      44.872  33.948  29.086  1.00  0.00     0.064 A 
ATOM     91  C   UNL A   1      45.676  34.295  30.182  1.00  0.00     0.173 A 
ATOM     92  C   UNL A   1      44.599  34.940  28.131  1.00  0.00     0.173 A 
ATOM     93  F   UNL A   1      45.955  33.386  31.128  1.00  0.00    -0.203 F 
ATOM     94  C   UNL A   1      46.168  35.589  30.327  1.00  0.00     0.198 A 
ATOM     95  C   UNL A   1      45.117  36.225  28.264  1.00  0.00     0.198 A 
ATOM     96  F   UNL A   1      43.843  34.658  27.060  1.00  0.00    -0.203 F 
ATOM     97  F   UNL A   1      46.897  35.910  31.405  1.00  0.00    -0.200 F 
ATOM     98  C   UNL A   1      45.895  36.550  29.364  1.00  0.00     0.200 A 
ATOM     99  F   UNL A   1      44.865  37.148  27.326  1.00  0.00    -0.200 F 
ATOM    100  F   UNL A   1      46.377  37.794  29.502  1.00  0.00    -0.200 F 
ENDBRANCH  67  90
ENDBRANCH  41  42
ENDBRANCH  34  36
ENDBRANCH  33  34
ENDBRANCH  32  33
ENDBRANCH  31  32
ENDBRANCH  30  31
ENDBRANCH  29  30
ENDBRANCH  28  29
ENDBRANCH  27  28
ENDBRANCH   1  27
TORSDOF 23
ENDMDL
