MODEL 1
REMARK VINA RESULT:     -11.4      0.000      0.000
REMARK SMILES C=C1c2ccccc2C(=O)N1[C@](C)(C(=O)OCCOCCOCCOCCOC(=O)c1ccc(-c2c3nc(c(-c4c(F)c(F)c(F)c(F)c4F)c4ccc([nH]4)c(-c4c(F)c(F)c(F)c(F)c4F)c4nc(c(-c5c(F)c(F)c(F)c(F)c5F)c5ccc2[nH]5)C=C4)C=C3)cc1)C(F)(F)F
REMARK SMILES IDX 23 1 22 2 21 3 20 4 19 5 18 6 17 7 16 8 14 9 15 10 12 11
REMARK SMILES IDX 13 12 11 13 1 14 2 15 3 16 4 17 8 18 9 19 5 20 7 21 10 22
REMARK SMILES IDX 6 23 94 24 95 25 96 26 97 27 24 28 25 29 26 30 27 31 28 32
REMARK SMILES IDX 29 33 30 34 31 35 32 36 93 37 33 38 92 39 34 40 35 41 36 42
REMARK SMILES IDX 86 43 37 44 91 45 85 46 87 47 38 48 90 49 84 50 83 51 39 53
REMARK SMILES IDX 71 54 51 55 70 56 52 57 55 58 69 59 88 60 53 61 54 62 68 64
REMARK SMILES IDX 89 65 56 66 40 67 41 68 49 69 42 70 43 71 47 72 50 73 44 74
REMARK SMILES IDX 45 75 48 76 46 77 72 78 73 79 81 80 74 81 75 82 79 83 82 84
REMARK SMILES IDX 76 85 77 86 80 87 78 88 57 89 58 90 66 91 59 92 60 93 64 94
REMARK SMILES IDX 67 95 61 96 62 97 65 98 63 99
REMARK H PARENT 87 52 55 63
REMARK Flexibility Score: inf
ROOT
ATOM      1  C   UNL A   1      31.963  29.124  24.911  1.00  0.00     0.188 C 
ENDROOT
BRANCH   1   2
ATOM      2  O   UNL A   1      32.176  29.136  23.510  1.00  0.00    -0.377 OA
BRANCH   2   3
ATOM      3  C   UNL A   1      31.054  28.903  22.686  1.00  0.00     0.188 C 
BRANCH   3   4
ATOM      4  C   UNL A   1      30.669  27.425  22.500  1.00  0.00     0.188 C 
BRANCH   4   5
ATOM      5  O   UNL A   1      31.269  26.659  21.468  1.00  0.00    -0.376 OA
BRANCH   5   6
ATOM      6  C   UNL A   1      32.389  25.826  21.732  1.00  0.00     0.202 C 
BRANCH   6   7
ATOM      7  C   UNL A   1      32.976  25.630  23.142  1.00  0.00     0.261 C 
BRANCH   7   8
ATOM      8  O   UNL A   1      32.705  24.370  23.777  1.00  0.00    -0.461 OA
BRANCH   8   9
ATOM      9  C   UNL A   1      33.712  23.466  23.807  1.00  0.00     0.341 C 
ATOM     10  O   UNL A   1      34.190  22.974  22.788  1.00  0.00    -0.249 OA
BRANCH   9  11
ATOM     11  C   UNL A   1      34.122  23.027  25.227  1.00  0.00     0.238 C 
ATOM     12  C   UNL A   1      33.185  23.330  26.426  1.00  0.00     0.058 C 
BRANCH  11  13
ATOM     13  N   UNL A   1      34.169  21.561  25.062  1.00  0.00    -0.283 N 
ATOM     14  C   UNL A   1      36.548  20.912  25.071  1.00  0.00     0.038 C 
ATOM     15  C   UNL A   1      35.239  20.688  24.956  1.00  0.00     0.046 C 
ATOM     16  C   UNL A   1      34.669  19.364  24.684  1.00  0.00     0.010 A 
ATOM     17  C   UNL A   1      35.236  18.128  24.445  1.00  0.00     0.011 A 
ATOM     18  C   UNL A   1      33.283  19.488  24.663  1.00  0.00     0.049 A 
ATOM     19  C   UNL A   1      32.949  20.882  24.908  1.00  0.00     0.260 C 
ATOM     20  C   UNL A   1      34.384  17.044  24.193  1.00  0.00     0.001 A 
ATOM     21  C   UNL A   1      32.414  18.443  24.419  1.00  0.00     0.014 A 
ATOM     22  O   UNL A   1      31.817  21.311  24.936  1.00  0.00    -0.269 OA
ATOM     23  C   UNL A   1      32.986  17.198  24.179  1.00  0.00     0.001 A 
ENDBRANCH  11  13
BRANCH  11  24
ATOM     24  C   UNL A   1      35.413  23.829  25.461  1.00  0.00     0.422 C 
ATOM     25  F   UNL A   1      35.162  25.157  25.611  1.00  0.00    -0.168 F 
ATOM     26  F   UNL A   1      36.018  23.452  26.618  1.00  0.00    -0.168 F 
ATOM     27  F   UNL A   1      36.336  23.737  24.481  1.00  0.00    -0.168 F 
ENDBRANCH  11  24
ENDBRANCH   9  11
ENDBRANCH   8   9
ENDBRANCH   7   8
ENDBRANCH   6   7
ENDBRANCH   5   6
ENDBRANCH   4   5
ENDBRANCH   3   4
ENDBRANCH   2   3
ENDBRANCH   1   2
BRANCH   1  28
ATOM     28  C   UNL A   1      32.880  29.983  25.804  1.00  0.00     0.188 C 
BRANCH  28  29
ATOM     29  O   UNL A   1      32.200  30.901  26.647  1.00  0.00    -0.376 OA
BRANCH  29  30
ATOM     30  C   UNL A   1      32.908  31.603  27.655  1.00  0.00     0.202 C 
BRANCH  30  31
ATOM     31  C   UNL A   1      33.243  33.091  27.445  1.00  0.00     0.261 C 
BRANCH  31  32
ATOM     32  O   UNL A   1      32.375  34.049  28.065  1.00  0.00    -0.460 OA
BRANCH  32  33
ATOM     33  C   UNL A   1      32.939  35.084  28.720  1.00  0.00     0.338 C 
ATOM     34  O   UNL A   1      32.491  36.208  28.845  1.00  0.00    -0.246 OA
BRANCH  33  35
ATOM     35  C   UNL A   1      34.116  34.562  29.450  1.00  0.00     0.060 A 
ATOM     36  C   UNL A   1      35.358  34.535  28.800  1.00  0.00     0.016 A 
ATOM     37  C   UNL A   1      34.000  34.121  30.770  1.00  0.00     0.016 A 
ATOM     38  C   UNL A   1      36.479  34.031  29.455  1.00  0.00     0.010 A 
ATOM     39  C   UNL A   1      35.118  33.586  31.415  1.00  0.00     0.010 A 
ATOM     40  C   UNL A   1      36.353  33.504  30.746  1.00  0.00    -0.014 A 
BRANCH  40  41
ATOM     41  C   UNL A   1      37.444  32.668  31.300  1.00  0.00     0.031 A 
ATOM     42  C   UNL A   1      37.962  33.001  32.672  1.00  0.00     0.074 A 
ATOM     43  C   UNL A   1      37.943  31.618  30.624  1.00  0.00     0.049 A 
ATOM     44  N   UNL A   1      38.943  32.463  33.350  1.00  0.00    -0.248 NA
ATOM     45  C   UNL A   1      37.277  34.099  33.375  1.00  0.00     0.031 C 
ATOM     46  C   UNL A   1      37.486  31.160  29.315  1.00  0.00     0.029 A 
ATOM     47  N   UNL A   1      38.956  30.751  30.952  1.00  0.00    -0.354 N 
ATOM     48  C   UNL A   1      38.997  33.158  34.550  1.00  0.00     0.074 A 
ATOM     49  C   UNL A   1      37.974  34.180  34.497  1.00  0.00     0.031 C 
ATOM     50  C   UNL A   1      38.229  30.103  28.941  1.00  0.00     0.029 A 
ATOM     51  C   UNL A   1      39.235  29.835  29.968  1.00  0.00     0.049 A 
ATOM     52  H   UNL A   1      39.436  30.784  31.810  1.00  0.00     0.167 HD
ATOM     53  C   UNL A   1      39.819  32.958  35.606  1.00  0.00     0.037 A 
ATOM     54  C   UNL A   1      40.212  28.909  29.898  1.00  0.00     0.037 A 
ATOM     55  C   UNL A   1      40.838  31.942  35.651  1.00  0.00     0.049 A 
ATOM     56  C   UNL A   1      41.178  28.767  31.050  1.00  0.00     0.074 A 
ATOM     57  C   UNL A   1      41.718  31.650  36.677  1.00  0.00     0.029 A 
ATOM     58  N   UNL A   1      41.118  31.059  34.619  1.00  0.00    -0.354 N 
ATOM     59  N   UNL A   1      41.213  29.413  32.190  1.00  0.00    -0.248 NA
ATOM     60  C   UNL A   1      42.243  27.763  30.902  1.00  0.00     0.031 C 
ATOM     61  C   UNL A   1      42.573  30.634  36.242  1.00  0.00     0.029 A 
ATOM     62  C   UNL A   1      42.180  30.242  34.972  1.00  0.00     0.049 A 
ATOM     63  H   UNL A   1      40.634  31.019  33.762  1.00  0.00     0.167 HD
ATOM     64  C   UNL A   1      42.274  28.872  32.907  1.00  0.00     0.074 A 
ATOM     65  C   UNL A   1      42.848  27.833  32.078  1.00  0.00     0.031 C 
ATOM     66  C   UNL A   1      42.732  29.203  34.140  1.00  0.00     0.037 A 
BRANCH  53  67
ATOM     67  C   UNL A   1      39.675  33.876  36.784  1.00  0.00     0.064 A 
ATOM     68  C   UNL A   1      38.887  33.538  37.895  1.00  0.00     0.173 A 
ATOM     69  C   UNL A   1      40.362  35.098  36.817  1.00  0.00     0.173 A 
ATOM     70  F   UNL A   1      38.195  32.389  37.909  1.00  0.00    -0.203 F 
ATOM     71  C   UNL A   1      38.772  34.402  38.982  1.00  0.00     0.198 A 
ATOM     72  C   UNL A   1      40.273  35.944  37.919  1.00  0.00     0.198 A 
ATOM     73  F   UNL A   1      41.130  35.471  35.781  1.00  0.00    -0.203 F 
ATOM     74  F   UNL A   1      37.974  34.081  40.009  1.00  0.00    -0.200 F 
ATOM     75  C   UNL A   1      39.473  35.598  38.997  1.00  0.00     0.200 A 
ATOM     76  F   UNL A   1      40.962  37.094  37.938  1.00  0.00    -0.200 F 
ATOM     77  F   UNL A   1      39.371  36.423  40.049  1.00  0.00    -0.200 F 
ENDBRANCH  53  67
BRANCH  54  78
ATOM     78  C   UNL A   1      40.348  28.053  28.689  1.00  0.00     0.064 A 
ATOM     79  C   UNL A   1      39.748  26.786  28.624  1.00  0.00     0.173 A 
ATOM     80  C   UNL A   1      41.119  28.462  27.590  1.00  0.00     0.173 A 
ATOM     81  F   UNL A   1      39.025  26.335  29.660  1.00  0.00    -0.203 F 
ATOM     82  C   UNL A   1      39.935  25.955  27.522  1.00  0.00     0.198 A 
ATOM     83  C   UNL A   1      41.276  27.644  26.473  1.00  0.00     0.198 A 
ATOM     84  F   UNL A   1      41.722  29.660  27.600  1.00  0.00    -0.203 F 
ATOM     85  F   UNL A   1      39.401  24.725  27.515  1.00  0.00    -0.200 F 
ATOM     86  C   UNL A   1      40.694  26.386  26.445  1.00  0.00     0.200 A 
ATOM     87  F   UNL A   1      42.003  28.069  25.431  1.00  0.00    -0.200 F 
ATOM     88  F   UNL A   1      40.876  25.584  25.386  1.00  0.00    -0.200 F 
ENDBRANCH  54  78
BRANCH  66  89
ATOM     89  C   UNL A   1      43.881  28.404  34.694  1.00  0.00     0.064 A 
ATOM     90  C   UNL A   1      45.215  28.780  34.483  1.00  0.00     0.173 A 
ATOM     91  C   UNL A   1      43.636  27.271  35.486  1.00  0.00     0.173 A 
ATOM     92  F   UNL A   1      45.505  29.848  33.725  1.00  0.00    -0.203 F 
ATOM     93  C   UNL A   1      46.263  28.034  35.018  1.00  0.00     0.198 A 
ATOM     94  C   UNL A   1      44.685  26.550  36.050  1.00  0.00     0.198 A 
ATOM     95  F   UNL A   1      42.379  26.873  35.729  1.00  0.00    -0.203 F 
ATOM     96  F   UNL A   1      47.531  28.380  34.757  1.00  0.00    -0.200 F 
ATOM     97  C   UNL A   1      45.997  26.925  35.808  1.00  0.00     0.200 A 
ATOM     98  F   UNL A   1      44.424  25.491  36.829  1.00  0.00    -0.200 F 
ATOM     99  F   UNL A   1      47.006  26.215  36.330  1.00  0.00    -0.200 F 
ENDBRANCH  66  89
ENDBRANCH  40  41
ENDBRANCH  33  35
ENDBRANCH  32  33
ENDBRANCH  31  32
ENDBRANCH  30  31
ENDBRANCH  29  30
ENDBRANCH  28  29
ENDBRANCH   1  28
TORSDOF 22
ENDMDL
MODEL 2
REMARK VINA RESULT:     -11.3      3.329      8.715
REMARK SMILES C=C1c2ccccc2C(=O)N1[C@](C)(C(=O)OCCOCCOCCOCCOC(=O)c1ccc(-c2c3nc(c(-c4c(F)c(F)c(F)c(F)c4F)c4ccc([nH]4)c(-c4c(F)c(F)c(F)c(F)c4F)c4nc(c(-c5c(F)c(F)c(F)c(F)c5F)c5ccc2[nH]5)C=C4)C=C3)cc1)C(F)(F)F
REMARK SMILES IDX 23 1 22 2 21 3 20 4 19 5 18 6 17 7 16 8 14 9 15 10 12 11
REMARK SMILES IDX 13 12 11 13 1 14 2 15 3 16 4 17 8 18 9 19 5 20 7 21 10 22
REMARK SMILES IDX 6 23 94 24 95 25 96 26 97 27 24 28 25 29 26 30 27 31 28 32
REMARK SMILES IDX 29 33 30 34 31 35 32 36 93 37 33 38 92 39 34 40 35 41 36 42
REMARK SMILES IDX 86 43 37 44 91 45 85 46 87 47 38 48 90 49 84 50 83 51 39 53
REMARK SMILES IDX 71 54 51 55 70 56 52 57 55 58 69 59 88 60 53 61 54 62 68 64
REMARK SMILES IDX 89 65 56 66 40 67 41 68 49 69 42 70 43 71 47 72 50 73 44 74
REMARK SMILES IDX 45 75 48 76 46 77 72 78 73 79 81 80 74 81 75 82 79 83 82 84
REMARK SMILES IDX 76 85 77 86 80 87 78 88 57 89 58 90 66 91 59 92 60 93 64 94
REMARK SMILES IDX 67 95 61 96 62 97 65 98 63 99
REMARK H PARENT 87 52 55 63
REMARK Flexibility Score: inf
ROOT
ATOM      1  C   UNL A   1      41.871  20.534  27.366  1.00  0.00     0.188 C 
ENDROOT
BRANCH   1   2
ATOM      2  O   UNL A   1      40.507  20.696  27.019  1.00  0.00    -0.377 OA
BRANCH   2   3
ATOM      3  C   UNL A   1      40.166  21.834  26.257  1.00  0.00     0.188 C 
BRANCH   3   4
ATOM      4  C   UNL A   1      38.715  22.322  26.415  1.00  0.00     0.188 C 
BRANCH   4   5
ATOM      5  O   UNL A   1      38.347  23.615  25.962  1.00  0.00    -0.376 OA
BRANCH   5   6
ATOM      6  C   UNL A   1      36.992  23.932  25.678  1.00  0.00     0.202 C 
BRANCH   6   7
ATOM      7  C   UNL A   1      35.816  23.023  26.079  1.00  0.00     0.261 C 
BRANCH   7   8
ATOM      8  O   UNL A   1      34.498  23.544  25.845  1.00  0.00    -0.461 OA
BRANCH   8   9
ATOM      9  C   UNL A   1      33.456  22.711  26.079  1.00  0.00     0.341 C 
ATOM     10  O   UNL A   1      33.469  21.871  26.976  1.00  0.00    -0.249 OA
BRANCH   9  11
ATOM     11  C   UNL A   1      32.310  22.832  25.054  1.00  0.00     0.238 C 
ATOM     12  C   UNL A   1      30.926  22.205  25.371  1.00  0.00     0.058 C 
BRANCH  11  13
ATOM     13  N   UNL A   1      32.132  24.296  25.007  1.00  0.00    -0.283 N 
ATOM     14  C   UNL A   1      32.766  25.023  22.737  1.00  0.00     0.038 C 
ATOM     15  C   UNL A   1      32.381  25.213  24.000  1.00  0.00     0.046 C 
ATOM     16  C   UNL A   1      32.128  26.539  24.574  1.00  0.00     0.010 A 
ATOM     17  C   UNL A   1      32.245  27.820  24.069  1.00  0.00     0.011 A 
ATOM     18  C   UNL A   1      31.714  26.366  25.891  1.00  0.00     0.049 A 
ATOM     19  C   UNL A   1      31.706  24.941  26.180  1.00  0.00     0.260 C 
ATOM     20  C   UNL A   1      31.937  28.896  24.912  1.00  0.00     0.001 A 
ATOM     21  C   UNL A   1      31.401  27.402  26.749  1.00  0.00     0.014 A 
ATOM     22  O   UNL A   1      31.403  24.470  27.254  1.00  0.00    -0.269 OA
ATOM     23  C   UNL A   1      31.518  28.691  26.240  1.00  0.00     0.001 A 
ENDBRANCH  11  13
BRANCH  11  24
ATOM     24  C   UNL A   1      32.872  22.072  23.841  1.00  0.00     0.422 C 
ATOM     25  F   UNL A   1      33.187  20.786  24.152  1.00  0.00    -0.168 F 
ATOM     26  F   UNL A   1      31.943  21.978  22.853  1.00  0.00    -0.168 F 
ATOM     27  F   UNL A   1      33.984  22.601  23.292  1.00  0.00    -0.168 F 
ENDBRANCH  11  24
ENDBRANCH   9  11
ENDBRANCH   8   9
ENDBRANCH   7   8
ENDBRANCH   6   7
ENDBRANCH   5   6
ENDBRANCH   4   5
ENDBRANCH   3   4
ENDBRANCH   2   3
ENDBRANCH   1   2
BRANCH   1  28
ATOM     28  C   UNL A   1      42.655  21.761  27.869  1.00  0.00     0.188 C 
BRANCH  28  29
ATOM     29  O   UNL A   1      43.778  22.117  27.075  1.00  0.00    -0.376 OA
BRANCH  29  30
ATOM     30  C   UNL A   1      43.915  21.599  25.762  1.00  0.00     0.202 C 
BRANCH  30  31
ATOM     31  C   UNL A   1      43.675  22.525  24.556  1.00  0.00     0.261 C 
BRANCH  31  32
ATOM     32  O   UNL A   1      43.059  23.792  24.820  1.00  0.00    -0.460 OA
BRANCH  32  33
ATOM     33  C   UNL A   1      43.858  24.832  25.136  1.00  0.00     0.338 C 
ATOM     34  O   UNL A   1      44.922  25.125  24.625  1.00  0.00    -0.246 OA
BRANCH  33  35
ATOM     35  C   UNL A   1      43.116  25.692  26.085  1.00  0.00     0.060 A 
ATOM     36  C   UNL A   1      43.502  27.032  26.228  1.00  0.00     0.016 A 
ATOM     37  C   UNL A   1      42.038  25.186  26.815  1.00  0.00     0.016 A 
ATOM     38  C   UNL A   1      42.836  27.861  27.128  1.00  0.00     0.010 A 
ATOM     39  C   UNL A   1      41.390  26.009  27.741  1.00  0.00     0.010 A 
ATOM     40  C   UNL A   1      41.811  27.338  27.927  1.00  0.00    -0.014 A 
BRANCH  40  41
ATOM     41  C   UNL A   1      41.346  28.107  29.106  1.00  0.00     0.031 A 
ATOM     42  C   UNL A   1      42.100  27.943  30.398  1.00  0.00     0.074 A 
ATOM     43  C   UNL A   1      40.306  28.955  29.032  1.00  0.00     0.049 A 
ATOM     44  N   UNL A   1      41.860  28.456  31.577  1.00  0.00    -0.248 NA
ATOM     45  C   UNL A   1      43.289  27.076  30.349  1.00  0.00     0.031 C 
ATOM     46  C   UNL A   1      39.534  29.243  27.827  1.00  0.00     0.029 A 
ATOM     47  N   UNL A   1      39.718  29.727  30.004  1.00  0.00    -0.354 N 
ATOM     48  C   UNL A   1      42.860  27.969  32.409  1.00  0.00     0.074 A 
ATOM     49  C   UNL A   1      43.690  27.094  31.610  1.00  0.00     0.031 C 
ATOM     50  C   UNL A   1      38.560  30.118  28.134  1.00  0.00     0.029 A 
ATOM     51  C   UNL A   1      38.619  30.422  29.563  1.00  0.00     0.049 A 
ATOM     52  H   UNL A   1      40.052  29.776  30.928  1.00  0.00     0.167 HD
ATOM     53  C   UNL A   1      43.073  28.235  33.718  1.00  0.00     0.037 A 
ATOM     54  C   UNL A   1      37.748  31.189  30.248  1.00  0.00     0.037 A 
ATOM     55  C   UNL A   1      42.241  29.104  34.508  1.00  0.00     0.049 A 
ATOM     56  C   UNL A   1      37.951  31.395  31.730  1.00  0.00     0.074 A 
ATOM     57  C   UNL A   1      42.374  29.447  35.842  1.00  0.00     0.029 A 
ATOM     58  N   UNL A   1      41.113  29.758  34.038  1.00  0.00    -0.354 N 
ATOM     59  N   UNL A   1      38.909  30.950  32.507  1.00  0.00    -0.248 NA
ATOM     60  C   UNL A   1      36.950  32.214  32.429  1.00  0.00     0.031 C 
ATOM     61  C   UNL A   1      41.292  30.256  36.194  1.00  0.00     0.029 A 
ATOM     62  C   UNL A   1      40.522  30.479  35.064  1.00  0.00     0.049 A 
ATOM     63  H   UNL A   1      40.779  29.717  33.111  1.00  0.00     0.167 HD
ATOM     64  C   UNL A   1      38.646  31.461  33.773  1.00  0.00     0.074 A 
ATOM     65  C   UNL A   1      37.448  32.264  33.656  1.00  0.00     0.031 C 
ATOM     66  C   UNL A   1      39.334  31.284  34.928  1.00  0.00     0.037 A 
BRANCH  53  67
ATOM     67  C   UNL A   1      44.230  27.553  34.387  1.00  0.00     0.064 A 
ATOM     68  C   UNL A   1      44.137  26.240  34.873  1.00  0.00     0.173 A 
ATOM     69  C   UNL A   1      45.462  28.212  34.515  1.00  0.00     0.173 A 
ATOM     70  F   UNL A   1      42.977  25.570  34.792  1.00  0.00    -0.203 F 
ATOM     71  C   UNL A   1      45.226  25.622  35.484  1.00  0.00     0.198 A 
ATOM     72  C   UNL A   1      46.559  27.581  35.096  1.00  0.00     0.198 A 
ATOM     73  F   UNL A   1      45.607  29.469  34.067  1.00  0.00    -0.203 F 
ATOM     74  F   UNL A   1      45.098  24.387  35.986  1.00  0.00    -0.200 F 
ATOM     75  C   UNL A   1      46.437  26.289  35.586  1.00  0.00     0.200 A 
ATOM     76  F   UNL A   1      47.733  28.221  35.180  1.00  0.00    -0.200 F 
ATOM     77  F   UNL A   1      47.487  25.690  36.164  1.00  0.00    -0.200 F 
ENDBRANCH  53  67
BRANCH  54  78
ATOM     78  C   UNL A   1      36.586  31.806  29.553  1.00  0.00     0.064 A 
ATOM     79  C   UNL A   1      35.513  31.025  29.097  1.00  0.00     0.173 A 
ATOM     80  C   UNL A   1      36.543  33.184  29.288  1.00  0.00     0.173 A 
ATOM     81  F   UNL A   1      35.519  29.699  29.298  1.00  0.00    -0.203 F 
ATOM     82  C   UNL A   1      34.460  31.593  28.383  1.00  0.00     0.198 A 
ATOM     83  C   UNL A   1      35.472  33.755  28.604  1.00  0.00     0.198 A 
ATOM     84  F   UNL A   1      37.545  33.978  29.693  1.00  0.00    -0.203 F 
ATOM     85  F   UNL A   1      33.481  30.811  27.905  1.00  0.00    -0.200 F 
ATOM     86  C   UNL A   1      34.437  32.958  28.142  1.00  0.00     0.200 A 
ATOM     87  F   UNL A   1      35.450  35.076  28.382  1.00  0.00    -0.200 F 
ATOM     88  F   UNL A   1      33.425  33.502  27.452  1.00  0.00    -0.200 F 
ENDBRANCH  54  78
BRANCH  66  89
ATOM     89  C   UNL A   1      38.842  32.008  36.151  1.00  0.00     0.064 A 
ATOM     90  C   UNL A   1      39.154  33.354  36.392  1.00  0.00     0.173 A 
ATOM     91  C   UNL A   1      38.006  31.355  37.071  1.00  0.00     0.173 A 
ATOM     92  F   UNL A   1      39.958  34.022  35.552  1.00  0.00    -0.203 F 
ATOM     93  C   UNL A   1      38.675  34.009  37.525  1.00  0.00     0.198 A 
ATOM     94  C   UNL A   1      37.498  32.024  38.181  1.00  0.00     0.198 A 
ATOM     95  F   UNL A   1      37.665  30.071  36.883  1.00  0.00    -0.203 F 
ATOM     96  F   UNL A   1      39.033  35.278  37.764  1.00  0.00    -0.200 F 
ATOM     97  C   UNL A   1      37.841  33.346  38.413  1.00  0.00     0.200 A 
ATOM     98  F   UNL A   1      36.676  31.386  39.026  1.00  0.00    -0.200 F 
ATOM     99  F   UNL A   1      37.372  33.981  39.496  1.00  0.00    -0.200 F 
ENDBRANCH  66  89
ENDBRANCH  40  41
ENDBRANCH  33  35
ENDBRANCH  32  33
ENDBRANCH  31  32
ENDBRANCH  30  31
ENDBRANCH  29  30
ENDBRANCH  28  29
ENDBRANCH   1  28
TORSDOF 22
ENDMDL
MODEL 3
REMARK VINA RESULT:     -11.2      1.141      2.074
REMARK SMILES C=C1c2ccccc2C(=O)N1[C@](C)(C(=O)OCCOCCOCCOCCOC(=O)c1ccc(-c2c3nc(c(-c4c(F)c(F)c(F)c(F)c4F)c4ccc([nH]4)c(-c4c(F)c(F)c(F)c(F)c4F)c4nc(c(-c5c(F)c(F)c(F)c(F)c5F)c5ccc2[nH]5)C=C4)C=C3)cc1)C(F)(F)F
REMARK SMILES IDX 23 1 22 2 21 3 20 4 19 5 18 6 17 7 16 8 14 9 15 10 12 11
REMARK SMILES IDX 13 12 11 13 1 14 2 15 3 16 4 17 8 18 9 19 5 20 7 21 10 22
REMARK SMILES IDX 6 23 94 24 95 25 96 26 97 27 24 28 25 29 26 30 27 31 28 32
REMARK SMILES IDX 29 33 30 34 31 35 32 36 93 37 33 38 92 39 34 40 35 41 36 42
REMARK SMILES IDX 86 43 37 44 91 45 85 46 87 47 38 48 90 49 84 50 83 51 39 53
REMARK SMILES IDX 71 54 51 55 70 56 52 57 55 58 69 59 88 60 53 61 54 62 68 64
REMARK SMILES IDX 89 65 56 66 40 67 41 68 49 69 42 70 43 71 47 72 50 73 44 74
REMARK SMILES IDX 45 75 48 76 46 77 72 78 73 79 81 80 74 81 75 82 79 83 82 84
REMARK SMILES IDX 76 85 77 86 80 87 78 88 57 89 58 90 66 91 59 92 60 93 64 94
REMARK SMILES IDX 67 95 61 96 62 97 65 98 63 99
REMARK H PARENT 87 52 55 63
REMARK Flexibility Score: inf
ROOT
ATOM      1  C   UNL A   1      31.806  28.969  26.421  1.00  0.00     0.188 C 
ENDROOT
BRANCH   1   2
ATOM      2  O   UNL A   1      32.412  28.141  25.444  1.00  0.00    -0.377 OA
BRANCH   2   3
ATOM      3  C   UNL A   1      32.556  28.676  24.146  1.00  0.00     0.188 C 
BRANCH   3   4
ATOM      4  C   UNL A   1      31.821  27.909  23.032  1.00  0.00     0.188 C 
BRANCH   4   5
ATOM      5  O   UNL A   1      32.560  27.224  22.034  1.00  0.00    -0.376 OA
BRANCH   5   6
ATOM      6  C   UNL A   1      32.153  25.943  21.572  1.00  0.00     0.202 C 
BRANCH   6   7
ATOM      7  C   UNL A   1      32.637  24.628  22.208  1.00  0.00     0.261 C 
BRANCH   7   8
ATOM      8  O   UNL A   1      33.669  24.740  23.201  1.00  0.00    -0.461 OA
BRANCH   8   9
ATOM      9  C   UNL A   1      34.353  23.612  23.508  1.00  0.00     0.341 C 
ATOM     10  O   UNL A   1      34.953  22.952  22.663  1.00  0.00    -0.249 OA
BRANCH   9  11
ATOM     11  C   UNL A   1      34.213  23.172  24.979  1.00  0.00     0.238 C 
ATOM     12  C   UNL A   1      32.944  23.564  25.782  1.00  0.00     0.058 C 
BRANCH  11  13
ATOM     13  N   UNL A   1      34.206  21.703  24.830  1.00  0.00    -0.283 N 
ATOM     14  C   UNL A   1      36.497  20.922  25.301  1.00  0.00     0.038 C 
ATOM     15  C   UNL A   1      35.223  20.770  24.935  1.00  0.00     0.046 C 
ATOM     16  C   UNL A   1      34.641  19.477  24.562  1.00  0.00     0.010 A 
ATOM     17  C   UNL A   1      35.172  18.207  24.441  1.00  0.00     0.011 A 
ATOM     18  C   UNL A   1      33.295  19.678  24.273  1.00  0.00     0.049 A 
ATOM     19  C   UNL A   1      33.001  21.092  24.445  1.00  0.00     0.260 C 
ATOM     20  C   UNL A   1      34.323  17.169  24.032  1.00  0.00     0.001 A 
ATOM     21  C   UNL A   1      32.430  18.681  23.868  1.00  0.00     0.014 A 
ATOM     22  O   UNL A   1      31.912  21.585  24.252  1.00  0.00    -0.269 OA
ATOM     23  C   UNL A   1      32.965  17.402  23.747  1.00  0.00     0.001 A 
ENDBRANCH  11  13
BRANCH  11  24
ATOM     24  C   UNL A   1      35.399  23.884  25.650  1.00  0.00     0.422 C 
ATOM     25  F   UNL A   1      35.122  25.190  25.912  1.00  0.00    -0.168 F 
ATOM     26  F   UNL A   1      35.675  23.333  26.862  1.00  0.00    -0.168 F 
ATOM     27  F   UNL A   1      36.547  23.886  24.943  1.00  0.00    -0.168 F 
ENDBRANCH  11  24
ENDBRANCH   9  11
ENDBRANCH   8   9
ENDBRANCH   7   8
ENDBRANCH   6   7
ENDBRANCH   5   6
ENDBRANCH   4   5
ENDBRANCH   3   4
ENDBRANCH   2   3
ENDBRANCH   1   2
BRANCH   1  28
ATOM     28  C   UNL A   1      32.250  30.441  26.519  1.00  0.00     0.188 C 
BRANCH  28  29
ATOM     29  O   UNL A   1      31.188  31.383  26.544  1.00  0.00    -0.376 OA
BRANCH  29  30
ATOM     30  C   UNL A   1      31.466  32.773  26.538  1.00  0.00     0.202 C 
BRANCH  30  31
ATOM     31  C   UNL A   1      32.740  33.291  27.230  1.00  0.00     0.261 C 
BRANCH  31  32
ATOM     32  O   UNL A   1      32.563  34.129  28.380  1.00  0.00    -0.460 OA
BRANCH  32  33
ATOM     33  C   UNL A   1      33.614  34.865  28.795  1.00  0.00     0.338 C 
ATOM     34  O   UNL A   1      33.628  36.054  29.047  1.00  0.00    -0.246 OA
BRANCH  33  35
ATOM     35  C   UNL A   1      34.721  33.929  29.098  1.00  0.00     0.060 A 
ATOM     36  C   UNL A   1      34.435  32.741  29.783  1.00  0.00     0.016 A 
ATOM     37  C   UNL A   1      36.028  34.214  28.693  1.00  0.00     0.016 A 
ATOM     38  C   UNL A   1      35.459  31.850  30.099  1.00  0.00     0.010 A 
ATOM     39  C   UNL A   1      37.059  33.336  29.039  1.00  0.00     0.010 A 
ATOM     40  C   UNL A   1      36.783  32.171  29.775  1.00  0.00    -0.014 A 
BRANCH  40  41
ATOM     41  C   UNL A   1      37.889  31.410  30.405  1.00  0.00     0.031 A 
ATOM     42  C   UNL A   1      38.221  31.708  31.842  1.00  0.00     0.074 A 
ATOM     43  C   UNL A   1      38.561  30.455  29.738  1.00  0.00     0.049 A 
ATOM     44  N   UNL A   1      39.174  31.225  32.597  1.00  0.00    -0.248 NA
ATOM     45  C   UNL A   1      37.358  32.691  32.517  1.00  0.00     0.031 C 
ATOM     46  C   UNL A   1      38.294  30.036  28.365  1.00  0.00     0.029 A 
ATOM     47  N   UNL A   1      39.615  29.670  30.134  1.00  0.00    -0.354 N 
ATOM     48  C   UNL A   1      39.029  31.850  33.829  1.00  0.00     0.074 A 
ATOM     49  C   UNL A   1      37.920  32.771  33.712  1.00  0.00     0.031 C 
ATOM     50  C   UNL A   1      39.175  29.078  28.025  1.00  0.00     0.029 A 
ATOM     51  C   UNL A   1      40.089  28.846  29.143  1.00  0.00     0.049 A 
ATOM     52  H   UNL A   1      39.996  29.697  31.041  1.00  0.00     0.167 HD
ATOM     53  C   UNL A   1      39.750  31.665  34.959  1.00  0.00     0.037 A 
ATOM     54  C   UNL A   1      41.156  28.023  29.138  1.00  0.00     0.037 A 
ATOM     55  C   UNL A   1      40.856  30.750  35.067  1.00  0.00     0.049 A 
ATOM     56  C   UNL A   1      42.004  27.904  30.382  1.00  0.00     0.074 A 
ATOM     57  C   UNL A   1      41.648  30.481  36.169  1.00  0.00     0.029 A 
ATOM     58  N   UNL A   1      41.332  29.962  34.031  1.00  0.00    -0.354 N 
ATOM     59  N   UNL A   1      41.851  28.481  31.550  1.00  0.00    -0.248 NA
ATOM     60  C   UNL A   1      43.174  27.017  30.304  1.00  0.00     0.031 C 
ATOM     61  C   UNL A   1      42.642  29.580  35.783  1.00  0.00     0.029 A 
ATOM     62  C   UNL A   1      42.428  29.229  34.460  1.00  0.00     0.049 A 
ATOM     63  H   UNL A   1      40.949  29.927  33.124  1.00  0.00     0.167 HD
ATOM     64  C   UNL A   1      42.880  28.001  32.353  1.00  0.00     0.074 A 
ATOM     65  C   UNL A   1      43.640  27.073  31.543  1.00  0.00     0.031 C 
ATOM     66  C   UNL A   1      43.168  28.299  33.644  1.00  0.00     0.037 A 
BRANCH  53  67
ATOM     67  C   UNL A   1      39.389  32.493  36.157  1.00  0.00     0.064 A 
ATOM     68  C   UNL A   1      39.939  33.766  36.373  1.00  0.00     0.173 A 
ATOM     69  C   UNL A   1      38.453  32.018  37.088  1.00  0.00     0.173 A 
ATOM     70  F   UNL A   1      40.851  34.260  35.522  1.00  0.00    -0.203 F 
ATOM     71  C   UNL A   1      39.584  34.521  37.488  1.00  0.00     0.198 A 
ATOM     72  C   UNL A   1      38.074  32.789  38.184  1.00  0.00     0.198 A 
ATOM     73  F   UNL A   1      37.896  30.807  36.931  1.00  0.00    -0.203 F 
ATOM     74  F   UNL A   1      40.160  35.711  37.699  1.00  0.00    -0.200 F 
ATOM     75  C   UNL A   1      38.646  34.036  38.386  1.00  0.00     0.200 A 
ATOM     76  F   UNL A   1      37.157  32.326  39.044  1.00  0.00    -0.200 F 
ATOM     77  F   UNL A   1      38.296  34.768  39.454  1.00  0.00    -0.200 F 
ENDBRANCH  53  67
BRANCH  54  78
ATOM     78  C   UNL A   1      41.506  27.258  27.910  1.00  0.00     0.064 A 
ATOM     79  C   UNL A   1      40.986  25.976  27.681  1.00  0.00     0.173 A 
ATOM     80  C   UNL A   1      42.404  27.773  26.962  1.00  0.00     0.173 A 
ATOM     81  F   UNL A   1      40.147  25.425  28.571  1.00  0.00    -0.203 F 
ATOM     82  C   UNL A   1      41.370  25.230  26.568  1.00  0.00     0.198 A 
ATOM     83  C   UNL A   1      42.760  27.040  25.832  1.00  0.00     0.198 A 
ATOM     84  F   UNL A   1      42.938  28.990  27.135  1.00  0.00    -0.203 F 
ATOM     85  F   UNL A   1      40.905  23.983  26.408  1.00  0.00    -0.200 F 
ATOM     86  C   UNL A   1      42.252  25.765  25.641  1.00  0.00     0.200 A 
ATOM     87  F   UNL A   1      43.605  27.565  24.935  1.00  0.00    -0.200 F 
ATOM     88  F   UNL A   1      42.622  25.045  24.573  1.00  0.00    -0.200 F 
ENDBRANCH  54  78
BRANCH  66  89
ATOM     89  C   UNL A   1      44.326  27.582  34.283  1.00  0.00     0.064 A 
ATOM     90  C   UNL A   1      44.177  26.327  34.890  1.00  0.00     0.173 A 
ATOM     91  C   UNL A   1      45.612  28.143  34.245  1.00  0.00     0.173 A 
ATOM     92  F   UNL A   1      42.967  25.751  34.964  1.00  0.00    -0.203 F 
ATOM     93  C   UNL A   1      45.266  25.674  35.463  1.00  0.00     0.198 A 
ATOM     94  C   UNL A   1      46.705  27.470  34.785  1.00  0.00     0.198 A 
ATOM     95  F   UNL A   1      45.815  29.336  33.667  1.00  0.00    -0.203 F 
ATOM     96  F   UNL A   1      45.089  24.502  36.087  1.00  0.00    -0.200 F 
ATOM     97  C   UNL A   1      46.530  26.242  35.402  1.00  0.00     0.200 A 
ATOM     98  F   UNL A   1      47.928  28.013  34.707  1.00  0.00    -0.200 F 
ATOM     99  F   UNL A   1      47.578  25.608  35.945  1.00  0.00    -0.200 F 
ENDBRANCH  66  89
ENDBRANCH  40  41
ENDBRANCH  33  35
ENDBRANCH  32  33
ENDBRANCH  31  32
ENDBRANCH  30  31
ENDBRANCH  29  30
ENDBRANCH  28  29
ENDBRANCH   1  28
TORSDOF 22
ENDMDL
