MODEL 1
REMARK VINA RESULT:     -11.2      0.000      0.000
REMARK SMILES C[C@@H](C(=O)OCCOCCOCCOCCOC(=O)c1ccc(-c2c3nc(c(-c4c(F)c(F)c(F)c(F)c4F)c4ccc([nH]4)c(-c4c(F)c(F)c(F)c(F)c4F)c4nc(c(-c5c(F)c(F)c(F)c(F)c5F)c5ccc2[nH]5)C=C4)C=C3)cc1)c1ccc2c3cc(Cl)ccc3n(C(=O)c3cocn3)c2c1
REMARK SMILES IDX 10 1 9 2 8 3 7 4 6 5 5 6 3 7 4 8 2 9 1 10 83 11 84 12 103 13
REMARK SMILES IDX 85 14 102 15 86 16 94 17 87 18 93 19 88 20 92 21 89 22 91 23
REMARK SMILES IDX 90 24 95 25 96 26 97 27 98 28 101 29 99 30 100 31 11 32
REMARK SMILES IDX 12 33 13 34 14 35 15 36 16 37 17 38 18 39 19 40 20 41 21 42
REMARK SMILES IDX 82 43 22 44 81 45 23 46 24 47 25 48 75 49 26 50 80 51 74 52
REMARK SMILES IDX 76 53 27 54 79 55 73 56 72 57 28 59 60 60 40 61 59 62 41 63
REMARK SMILES IDX 44 64 58 65 77 66 42 67 43 68 57 70 78 71 45 72 29 73 30 74
REMARK SMILES IDX 38 75 31 76 32 77 36 78 39 79 33 80 34 81 37 82 35 83 61 84
REMARK SMILES IDX 62 85 70 86 63 87 64 88 68 89 71 90 65 91 66 92 69 93 67 94
REMARK SMILES IDX 46 95 47 96 55 97 48 98 49 99 53 100 56 101 50 102 51 103
REMARK SMILES IDX 54 104 52 105
REMARK H PARENT 76 58 44 69
REMARK Flexibility Score: inf
ROOT
ATOM      1  C   UNL A   1      33.516  29.838  27.030  1.00  0.00     0.188 C 
ENDROOT
BRANCH   1   2
ATOM      2  C   UNL A   1      32.149  30.474  26.725  1.00  0.00     0.188 C 
BRANCH   2   3
ATOM      3  O   UNL A   1      31.477  29.869  25.625  1.00  0.00    -0.376 OA
BRANCH   3   4
ATOM      4  C   UNL A   1      32.312  29.107  24.769  1.00  0.00     0.202 C 
BRANCH   4   5
ATOM      5  C   UNL A   1      31.710  27.793  24.253  1.00  0.00     0.261 C 
BRANCH   5   6
ATOM      6  O   UNL A   1      30.682  27.187  25.060  1.00  0.00    -0.463 OA
BRANCH   6   7
ATOM      7  C   UNL A   1      31.051  26.398  26.101  1.00  0.00     0.313 C 
ATOM      8  O   UNL A   1      31.374  26.841  27.197  1.00  0.00    -0.252 OA
BRANCH   7   9
ATOM      9  C   UNL A   1      31.063  24.897  25.738  1.00  0.00     0.126 C 
ATOM     10  C   UNL A   1      30.195  23.962  26.594  1.00  0.00     0.025 C 
BRANCH   9  11
ATOM     11  C   UNL A   1      32.468  24.316  25.556  1.00  0.00    -0.032 A 
ATOM     12  C   UNL A   1      33.577  25.159  25.628  1.00  0.00     0.005 A 
ATOM     13  C   UNL A   1      32.688  22.956  25.286  1.00  0.00     0.032 A 
ATOM     14  C   UNL A   1      34.878  24.640  25.589  1.00  0.00     0.011 A 
ATOM     15  C   UNL A   1      33.995  22.436  25.181  1.00  0.00     0.058 A 
ATOM     16  C   UNL A   1      35.087  23.255  25.421  1.00  0.00     0.008 A 
ATOM     17  N   UNL A   1      34.458  21.139  24.884  1.00  0.00    -0.274 N 
ATOM     18  C   UNL A   1      36.233  22.419  25.465  1.00  0.00     0.009 A 
ATOM     19  C   UNL A   1      35.852  21.128  25.066  1.00  0.00     0.057 A 
ATOM     20  C   UNL A   1      37.576  22.686  25.800  1.00  0.00     0.031 A 
ATOM     21  C   UNL A   1      36.838  20.142  24.852  1.00  0.00     0.029 A 
ATOM     22  C   UNL A   1      38.527  21.681  25.675  1.00  0.00     0.041 A 
ATOM     23  C   UNL A   1      38.171  20.435  25.178  1.00  0.00     0.023 A 
ATOM     24  Cl  UNL A   1      40.160  22.002  26.114  1.00  0.00    -0.084 Cl
BRANCH  17  25
ATOM     25  C   UNL A   1      33.608  20.088  24.424  1.00  0.00     0.284 C 
ATOM     26  O   UNL A   1      32.823  20.404  23.529  1.00  0.00    -0.266 OA
BRANCH  25  27
ATOM     27  C   UNL A   1      33.569  18.716  24.929  1.00  0.00     0.167 A 
ATOM     28  C   UNL A   1      32.657  18.108  25.767  1.00  0.00     0.231 A 
ATOM     29  N   UNL A   1      34.440  17.737  24.457  1.00  0.00    -0.211 NA
ATOM     30  O   UNL A   1      32.947  16.776  25.833  1.00  0.00    -0.451 OA
ATOM     31  C   UNL A   1      34.015  16.625  25.006  1.00  0.00     0.308 A 
ENDBRANCH  25  27
ENDBRANCH  17  25
ENDBRANCH   9  11
ENDBRANCH   7   9
ENDBRANCH   6   7
ENDBRANCH   5   6
ENDBRANCH   4   5
ENDBRANCH   3   4
ENDBRANCH   2   3
ENDBRANCH   1   2
BRANCH   1  32
ATOM     32  O   UNL A   1      34.508  30.653  27.632  1.00  0.00    -0.377 OA
BRANCH  32  33
ATOM     33  C   UNL A   1      34.129  31.944  28.094  1.00  0.00     0.188 C 
BRANCH  33  34
ATOM     34  C   UNL A   1      35.167  33.088  28.165  1.00  0.00     0.188 C 
BRANCH  34  35
ATOM     35  O   UNL A   1      34.662  34.381  27.884  1.00  0.00    -0.376 OA
BRANCH  35  36
ATOM     36  C   UNL A   1      33.302  34.652  28.179  1.00  0.00     0.202 C 
BRANCH  36  37
ATOM     37  C   UNL A   1      33.031  35.583  29.368  1.00  0.00     0.261 C 
BRANCH  37  38
ATOM     38  O   UNL A   1      32.611  34.939  30.582  1.00  0.00    -0.460 OA
BRANCH  38  39
ATOM     39  C   UNL A   1      32.880  35.555  31.752  1.00  0.00     0.338 C 
ATOM     40  O   UNL A   1      32.204  36.388  32.329  1.00  0.00    -0.246 OA
BRANCH  39  41
ATOM     41  C   UNL A   1      34.059  34.884  32.336  1.00  0.00     0.060 A 
ATOM     42  C   UNL A   1      35.310  35.515  32.256  1.00  0.00     0.016 A 
ATOM     43  C   UNL A   1      33.920  33.664  33.000  1.00  0.00     0.016 A 
ATOM     44  C   UNL A   1      36.432  34.911  32.820  1.00  0.00     0.010 A 
ATOM     45  C   UNL A   1      35.051  33.043  33.534  1.00  0.00     0.010 A 
ATOM     46  C   UNL A   1      36.315  33.649  33.416  1.00  0.00    -0.014 A 
BRANCH  46  47
ATOM     47  C   UNL A   1      37.536  32.858  33.688  1.00  0.00     0.031 A 
ATOM     48  C   UNL A   1      38.270  33.129  34.973  1.00  0.00     0.074 A 
ATOM     49  C   UNL A   1      37.972  31.913  32.839  1.00  0.00     0.049 A 
ATOM     50  N   UNL A   1      39.383  32.612  35.424  1.00  0.00    -0.248 NA
ATOM     51  C   UNL A   1      37.661  34.126  35.870  1.00  0.00     0.031 C 
ATOM     52  C   UNL A   1      37.318  31.527  31.593  1.00  0.00     0.029 A 
ATOM     53  N   UNL A   1      39.084  31.110  32.903  1.00  0.00    -0.354 N 
ATOM     54  C   UNL A   1      39.610  33.226  36.648  1.00  0.00     0.074 A 
ATOM     55  C   UNL A   1      38.538  34.172  36.860  1.00  0.00     0.031 C 
ATOM     56  C   UNL A   1      38.049  30.565  30.999  1.00  0.00     0.029 A 
ATOM     57  C   UNL A   1      39.238  30.296  31.808  1.00  0.00     0.049 A 
ATOM     58  H   UNL A   1      39.712  31.118  33.661  1.00  0.00     0.167 HD
ATOM     59  C   UNL A   1      40.620  33.013  37.522  1.00  0.00     0.037 A 
ATOM     60  C   UNL A   1      40.238  29.450  31.493  1.00  0.00     0.037 A 
ATOM     61  C   UNL A   1      41.687  32.074  37.305  1.00  0.00     0.049 A 
ATOM     62  C   UNL A   1      41.399  29.293  32.445  1.00  0.00     0.074 A 
ATOM     63  C   UNL A   1      42.750  31.769  38.136  1.00  0.00     0.029 A 
ATOM     64  N   UNL A   1      41.830  31.295  36.166  1.00  0.00    -0.354 N 
ATOM     65  N   UNL A   1      41.596  29.853  33.615  1.00  0.00    -0.248 NA
ATOM     66  C   UNL A   1      42.478  28.384  32.032  1.00  0.00     0.031 C 
ATOM     67  C   UNL A   1      43.570  30.851  37.473  1.00  0.00     0.029 A 
ATOM     68  C   UNL A   1      42.984  30.534  36.258  1.00  0.00     0.049 A 
ATOM     69  H   UNL A   1      41.205  31.285  35.406  1.00  0.00     0.167 HD
ATOM     70  C   UNL A   1      42.796  29.340  34.091  1.00  0.00     0.074 A 
ATOM     71  C   UNL A   1      43.278  28.414  33.087  1.00  0.00     0.031 C 
ATOM     72  C   UNL A   1      43.441  29.607  35.253  1.00  0.00     0.037 A 
BRANCH  59  73
ATOM     73  C   UNL A   1      40.638  33.842  38.773  1.00  0.00     0.064 A 
ATOM     74  C   UNL A   1      39.987  33.430  39.945  1.00  0.00     0.173 A 
ATOM     75  C   UNL A   1      41.334  35.060  38.802  1.00  0.00     0.173 A 
ATOM     76  F   UNL A   1      39.292  32.284  39.965  1.00  0.00    -0.203 F 
ATOM     77  C   UNL A   1      40.011  34.220  41.093  1.00  0.00     0.198 A 
ATOM     78  C   UNL A   1      41.384  35.830  39.960  1.00  0.00     0.198 A 
ATOM     79  F   UNL A   1      41.974  35.501  37.708  1.00  0.00    -0.203 F 
ATOM     80  F   UNL A   1      39.339  33.831  42.186  1.00  0.00    -0.200 F 
ATOM     81  C   UNL A   1      40.716  35.414  41.101  1.00  0.00     0.200 A 
ATOM     82  F   UNL A   1      42.074  36.979  39.970  1.00  0.00    -0.200 F 
ATOM     83  F   UNL A   1      40.744  36.169  42.208  1.00  0.00    -0.200 F 
ENDBRANCH  59  73
BRANCH  60  84
ATOM     84  C   UNL A   1      40.202  28.691  30.214  1.00  0.00     0.064 A 
ATOM     85  C   UNL A   1      40.791  29.204  29.050  1.00  0.00     0.173 A 
ATOM     86  C   UNL A   1      39.552  27.451  30.121  1.00  0.00     0.173 A 
ATOM     87  F   UNL A   1      41.401  30.399  29.079  1.00  0.00    -0.203 F 
ATOM     88  C   UNL A   1      40.713  28.519  27.839  1.00  0.00     0.198 A 
ATOM     89  C   UNL A   1      39.500  26.752  28.918  1.00  0.00     0.198 A 
ATOM     90  F   UNL A   1      38.965  26.917  31.203  1.00  0.00    -0.203 F 
ATOM     91  F   UNL A   1      41.237  29.058  26.731  1.00  0.00    -0.200 F 
ATOM     92  C   UNL A   1      40.072  27.290  27.775  1.00  0.00     0.200 A 
ATOM     93  F   UNL A   1      38.888  25.562  28.862  1.00  0.00    -0.200 F 
ATOM     94  F   UNL A   1      39.997  26.632  26.610  1.00  0.00    -0.200 F 
ENDBRANCH  60  84
BRANCH  72  95
ATOM     95  C   UNL A   1      44.714  28.858  35.530  1.00  0.00     0.064 A 
ATOM     96  C   UNL A   1      44.717  27.620  36.190  1.00  0.00     0.173 A 
ATOM     97  C   UNL A   1      45.944  29.365  35.083  1.00  0.00     0.173 A 
ATOM     98  F   UNL A   1      43.570  27.097  36.649  1.00  0.00    -0.203 F 
ATOM     99  C   UNL A   1      45.907  26.933  36.417  1.00  0.00     0.198 A 
ATOM    100  C   UNL A   1      47.128  28.659  35.280  1.00  0.00     0.198 A 
ATOM    101  F   UNL A   1      45.997  30.539  34.437  1.00  0.00    -0.203 F 
ATOM    102  F   UNL A   1      45.892  25.776  37.094  1.00  0.00    -0.200 F 
ATOM    103  C   UNL A   1      47.109  27.448  35.954  1.00  0.00     0.200 A 
ATOM    104  F   UNL A   1      48.284  29.149  34.815  1.00  0.00    -0.200 F 
ATOM    105  F   UNL A   1      48.251  26.779  36.164  1.00  0.00    -0.200 F 
ENDBRANCH  72  95
ENDBRANCH  46  47
ENDBRANCH  39  41
ENDBRANCH  38  39
ENDBRANCH  37  38
ENDBRANCH  36  37
ENDBRANCH  35  36
ENDBRANCH  34  35
ENDBRANCH  33  34
ENDBRANCH  32  33
ENDBRANCH   1  32
TORSDOF 23
ENDMDL
MODEL 2
REMARK VINA RESULT:     -10.5      1.642      7.240
REMARK SMILES C[C@@H](C(=O)OCCOCCOCCOCCOC(=O)c1ccc(-c2c3nc(c(-c4c(F)c(F)c(F)c(F)c4F)c4ccc([nH]4)c(-c4c(F)c(F)c(F)c(F)c4F)c4nc(c(-c5c(F)c(F)c(F)c(F)c5F)c5ccc2[nH]5)C=C4)C=C3)cc1)c1ccc2c3cc(Cl)ccc3n(C(=O)c3cocn3)c2c1
REMARK SMILES IDX 10 1 9 2 8 3 7 4 6 5 5 6 3 7 4 8 2 9 1 10 83 11 84 12 103 13
REMARK SMILES IDX 85 14 102 15 86 16 94 17 87 18 93 19 88 20 92 21 89 22 91 23
REMARK SMILES IDX 90 24 95 25 96 26 97 27 98 28 101 29 99 30 100 31 11 32
REMARK SMILES IDX 12 33 13 34 14 35 15 36 16 37 17 38 18 39 19 40 20 41 21 42
REMARK SMILES IDX 82 43 22 44 81 45 23 46 24 47 25 48 75 49 26 50 80 51 74 52
REMARK SMILES IDX 76 53 27 54 79 55 73 56 72 57 28 59 60 60 40 61 59 62 41 63
REMARK SMILES IDX 44 64 58 65 77 66 42 67 43 68 57 70 78 71 45 72 29 73 30 74
REMARK SMILES IDX 38 75 31 76 32 77 36 78 39 79 33 80 34 81 37 82 35 83 61 84
REMARK SMILES IDX 62 85 70 86 63 87 64 88 68 89 71 90 65 91 66 92 69 93 67 94
REMARK SMILES IDX 46 95 47 96 55 97 48 98 49 99 53 100 56 101 50 102 51 103
REMARK SMILES IDX 54 104 52 105
REMARK H PARENT 76 58 44 69
REMARK Flexibility Score: inf
ROOT
ATOM      1  C   UNL A   1      34.554  31.191  27.976  1.00  0.00     0.188 C 
ENDROOT
BRANCH   1   2
ATOM      2  C   UNL A   1      33.261  30.945  27.178  1.00  0.00     0.188 C 
BRANCH   2   3
ATOM      3  O   UNL A   1      33.285  29.740  26.421  1.00  0.00    -0.376 OA
BRANCH   3   4
ATOM      4  C   UNL A   1      33.349  28.555  27.198  1.00  0.00     0.202 C 
BRANCH   4   5
ATOM      5  C   UNL A   1      32.742  27.304  26.549  1.00  0.00     0.261 C 
BRANCH   5   6
ATOM      6  O   UNL A   1      31.315  27.301  26.350  1.00  0.00    -0.463 OA
BRANCH   6   7
ATOM      7  C   UNL A   1      30.713  26.147  25.966  1.00  0.00     0.313 C 
ATOM      8  O   UNL A   1      29.776  25.644  26.578  1.00  0.00    -0.252 OA
BRANCH   7   9
ATOM      9  C   UNL A   1      31.362  25.521  24.713  1.00  0.00     0.126 C 
ATOM     10  C   UNL A   1      30.599  25.656  23.386  1.00  0.00     0.025 C 
BRANCH   9  11
ATOM     11  C   UNL A   1      31.842  24.082  24.918  1.00  0.00    -0.032 A 
ATOM     12  C   UNL A   1      31.004  23.158  25.542  1.00  0.00     0.005 A 
ATOM     13  C   UNL A   1      33.121  23.655  24.525  1.00  0.00     0.032 A 
ATOM     14  C   UNL A   1      31.364  21.807  25.633  1.00  0.00     0.011 A 
ATOM     15  C   UNL A   1      33.517  22.308  24.672  1.00  0.00     0.058 A 
ATOM     16  C   UNL A   1      32.612  21.369  25.140  1.00  0.00     0.008 A 
ATOM     17  N   UNL A   1      34.737  21.663  24.393  1.00  0.00    -0.274 N 
ATOM     18  C   UNL A   1      33.210  20.094  24.968  1.00  0.00     0.009 A 
ATOM     19  C   UNL A   1      34.544  20.282  24.573  1.00  0.00     0.057 A 
ATOM     20  C   UNL A   1      32.704  18.789  25.144  1.00  0.00     0.031 A 
ATOM     21  C   UNL A   1      35.417  19.176  24.503  1.00  0.00     0.029 A 
ATOM     22  C   UNL A   1      33.550  17.698  24.983  1.00  0.00     0.041 A 
ATOM     23  C   UNL A   1      34.895  17.888  24.697  1.00  0.00     0.023 A 
ATOM     24  Cl  UNL A   1      32.921  16.107  25.169  1.00  0.00    -0.084 Cl
BRANCH  17  25
ATOM     25  C   UNL A   1      35.935  22.361  24.053  1.00  0.00     0.284 C 
ATOM     26  O   UNL A   1      35.958  22.838  22.917  1.00  0.00    -0.266 OA
BRANCH  25  27
ATOM     27  C   UNL A   1      37.114  22.531  24.902  1.00  0.00     0.167 A 
ATOM     28  C   UNL A   1      37.490  23.601  25.688  1.00  0.00     0.231 A 
ATOM     29  N   UNL A   1      37.988  21.478  25.159  1.00  0.00    -0.211 NA
ATOM     30  O   UNL A   1      38.585  23.240  26.419  1.00  0.00    -0.451 OA
ATOM     31  C   UNL A   1      38.812  21.948  26.064  1.00  0.00     0.308 A 
ENDBRANCH  25  27
ENDBRANCH  17  25
ENDBRANCH   9  11
ENDBRANCH   7   9
ENDBRANCH   6   7
ENDBRANCH   5   6
ENDBRANCH   4   5
ENDBRANCH   3   4
ENDBRANCH   2   3
ENDBRANCH   1   2
BRANCH   1  32
ATOM     32  O   UNL A   1      35.328  32.335  27.650  1.00  0.00    -0.377 OA
BRANCH  32  33
ATOM     33  C   UNL A   1      35.275  33.455  28.525  1.00  0.00     0.188 C 
BRANCH  33  34
ATOM     34  C   UNL A   1      33.919  34.105  28.886  1.00  0.00     0.188 C 
BRANCH  34  35
ATOM     35  O   UNL A   1      33.966  35.496  29.147  1.00  0.00    -0.376 OA
BRANCH  35  36
ATOM     36  C   UNL A   1      32.768  36.153  29.524  1.00  0.00     0.202 C 
BRANCH  36  37
ATOM     37  C   UNL A   1      32.870  37.154  30.682  1.00  0.00     0.261 C 
BRANCH  37  38
ATOM     38  O   UNL A   1      33.572  36.691  31.847  1.00  0.00    -0.460 OA
BRANCH  38  39
ATOM     39  C   UNL A   1      33.220  35.496  32.366  1.00  0.00     0.338 C 
ATOM     40  O   UNL A   1      32.096  35.054  32.526  1.00  0.00    -0.246 OA
BRANCH  39  41
ATOM     41  C   UNL A   1      34.459  34.706  32.519  1.00  0.00     0.060 A 
ATOM     42  C   UNL A   1      34.399  33.466  33.173  1.00  0.00     0.016 A 
ATOM     43  C   UNL A   1      35.661  35.166  31.979  1.00  0.00     0.016 A 
ATOM     44  C   UNL A   1      35.550  32.693  33.309  1.00  0.00     0.010 A 
ATOM     45  C   UNL A   1      36.822  34.407  32.147  1.00  0.00     0.010 A 
ATOM     46  C   UNL A   1      36.775  33.185  32.841  1.00  0.00    -0.014 A 
BRANCH  46  47
ATOM     47  C   UNL A   1      38.034  32.550  33.293  1.00  0.00     0.031 A 
ATOM     48  C   UNL A   1      38.625  31.477  32.421  1.00  0.00     0.074 A 
ATOM     49  C   UNL A   1      38.649  32.925  34.426  1.00  0.00     0.049 A 
ATOM     50  N   UNL A   1      39.686  30.736  32.611  1.00  0.00    -0.248 NA
ATOM     51  C   UNL A   1      37.915  31.201  31.160  1.00  0.00     0.031 C 
ATOM     52  C   UNL A   1      38.200  33.985  35.324  1.00  0.00     0.029 A 
ATOM     53  N   UNL A   1      39.789  32.438  35.017  1.00  0.00    -0.354 N 
ATOM     54  C   UNL A   1      39.763  29.905  31.501  1.00  0.00     0.074 A 
ATOM     55  C   UNL A   1      38.632  30.210  30.656  1.00  0.00     0.031 C 
ATOM     56  C   UNL A   1      39.052  34.063  36.363  1.00  0.00     0.029 A 
ATOM     57  C   UNL A   1      40.084  33.036  36.218  1.00  0.00     0.049 A 
ATOM     58  H   UNL A   1      40.343  31.730  34.618  1.00  0.00     0.167 HD
ATOM     59  C   UNL A   1      40.701  28.974  31.211  1.00  0.00     0.037 A 
ATOM     60  C   UNL A   1      41.062  32.763  37.103  1.00  0.00     0.037 A 
ATOM     61  C   UNL A   1      41.823  28.671  32.058  1.00  0.00     0.049 A 
ATOM     62  C   UNL A   1      42.047  31.661  36.796  1.00  0.00     0.074 A 
ATOM     63  C   UNL A   1      42.840  27.758  31.849  1.00  0.00     0.029 A 
ATOM     64  N   UNL A   1      42.066  29.270  33.286  1.00  0.00    -0.354 N 
ATOM     65  N   UNL A   1      42.135  30.896  35.734  1.00  0.00    -0.248 NA
ATOM     66  C   UNL A   1      43.070  31.384  37.815  1.00  0.00     0.031 C 
ATOM     67  C   UNL A   1      43.665  27.760  32.978  1.00  0.00     0.029 A 
ATOM     68  C   UNL A   1      43.201  28.721  33.861  1.00  0.00     0.049 A 
ATOM     69  H   UNL A   1      41.515  29.978  33.689  1.00  0.00     0.167 HD
ATOM     70  C   UNL A   1      43.238  30.077  35.939  1.00  0.00     0.074 A 
ATOM     71  C   UNL A   1      43.795  30.445  37.224  1.00  0.00     0.031 C 
ATOM     72  C   UNL A   1      43.748  29.109  35.137  1.00  0.00     0.037 A 
BRANCH  59  73
ATOM     73  C   UNL A   1      40.527  28.190  29.944  1.00  0.00     0.064 A 
ATOM     74  C   UNL A   1      39.682  27.073  29.874  1.00  0.00     0.173 A 
ATOM     75  C   UNL A   1      41.204  28.575  28.777  1.00  0.00     0.173 A 
ATOM     76  F   UNL A   1      39.027  26.651  30.965  1.00  0.00    -0.203 F 
ATOM     77  C   UNL A   1      39.541  26.355  28.688  1.00  0.00     0.198 A 
ATOM     78  C   UNL A   1      41.036  27.875  27.586  1.00  0.00     0.198 A 
ATOM     79  F   UNL A   1      42.025  29.636  28.790  1.00  0.00    -0.203 F 
ATOM     80  F   UNL A   1      38.769  25.260  28.657  1.00  0.00    -0.200 F 
ATOM     81  C   UNL A   1      40.212  26.761  27.545  1.00  0.00     0.200 A 
ATOM     82  F   UNL A   1      41.676  28.276  26.479  1.00  0.00    -0.200 F 
ATOM     83  F   UNL A   1      40.070  26.074  26.403  1.00  0.00    -0.200 F 
ENDBRANCH  59  73
BRANCH  60  84
ATOM     84  C   UNL A   1      41.160  33.532  38.373  1.00  0.00     0.064 A 
ATOM     85  C   UNL A   1      40.305  33.263  39.451  1.00  0.00     0.173 A 
ATOM     86  C   UNL A   1      42.089  34.572  38.524  1.00  0.00     0.173 A 
ATOM     87  F   UNL A   1      39.380  32.297  39.346  1.00  0.00    -0.203 F 
ATOM     88  C   UNL A   1      40.360  34.017  40.621  1.00  0.00     0.198 A 
ATOM     89  C   UNL A   1      42.164  35.306  39.706  1.00  0.00     0.198 A 
ATOM     90  F   UNL A   1      42.927  34.877  37.522  1.00  0.00    -0.203 F 
ATOM     91  F   UNL A   1      39.494  33.774  41.614  1.00  0.00    -0.200 F 
ATOM     92  C   UNL A   1      41.294  35.035  40.750  1.00  0.00     0.200 A 
ATOM     93  F   UNL A   1      43.073  36.282  39.830  1.00  0.00    -0.200 F 
ATOM     94  F   UNL A   1      41.346  35.760  41.876  1.00  0.00    -0.200 F 
ENDBRANCH  60  84
BRANCH  72  95
ATOM     95  C   UNL A   1      44.995  28.410  35.597  1.00  0.00     0.064 A 
ATOM     96  C   UNL A   1      44.948  27.207  36.317  1.00  0.00     0.173 A 
ATOM     97  C   UNL A   1      46.258  28.928  35.269  1.00  0.00     0.173 A 
ATOM     98  F   UNL A   1      43.767  26.676  36.668  1.00  0.00    -0.203 F 
ATOM     99  C   UNL A   1      46.117  26.564  36.715  1.00  0.00     0.198 A 
ATOM    100  C   UNL A   1      47.425  28.265  35.637  1.00  0.00     0.198 A 
ATOM    101  F   UNL A   1      46.361  30.069  34.572  1.00  0.00    -0.203 F 
ATOM    102  F   UNL A   1      46.048  25.443  37.445  1.00  0.00    -0.200 F 
ATOM    103  C   UNL A   1      47.354  27.088  36.367  1.00  0.00     0.200 A 
ATOM    104  F   UNL A   1      48.618  28.763  35.284  1.00  0.00    -0.200 F 
ATOM    105  F   UNL A   1      48.478  26.462  36.742  1.00  0.00    -0.200 F 
ENDBRANCH  72  95
ENDBRANCH  46  47
ENDBRANCH  39  41
ENDBRANCH  38  39
ENDBRANCH  37  38
ENDBRANCH  36  37
ENDBRANCH  35  36
ENDBRANCH  34  35
ENDBRANCH  33  34
ENDBRANCH  32  33
ENDBRANCH   1  32
TORSDOF 23
ENDMDL
MODEL 3
REMARK VINA RESULT:      -9.4      5.813     10.625
REMARK SMILES C[C@@H](C(=O)OCCOCCOCCOCCOC(=O)c1ccc(-c2c3nc(c(-c4c(F)c(F)c(F)c(F)c4F)c4ccc([nH]4)c(-c4c(F)c(F)c(F)c(F)c4F)c4nc(c(-c5c(F)c(F)c(F)c(F)c5F)c5ccc2[nH]5)C=C4)C=C3)cc1)c1ccc2c3cc(Cl)ccc3n(C(=O)c3cocn3)c2c1
REMARK SMILES IDX 10 1 9 2 8 3 7 4 6 5 5 6 3 7 4 8 2 9 1 10 83 11 84 12 103 13
REMARK SMILES IDX 85 14 102 15 86 16 94 17 87 18 93 19 88 20 92 21 89 22 91 23
REMARK SMILES IDX 90 24 95 25 96 26 97 27 98 28 101 29 99 30 100 31 11 32
REMARK SMILES IDX 12 33 13 34 14 35 15 36 16 37 17 38 18 39 19 40 20 41 21 42
REMARK SMILES IDX 82 43 22 44 81 45 23 46 24 47 25 48 75 49 26 50 80 51 74 52
REMARK SMILES IDX 76 53 27 54 79 55 73 56 72 57 28 59 60 60 40 61 59 62 41 63
REMARK SMILES IDX 44 64 58 65 77 66 42 67 43 68 57 70 78 71 45 72 29 73 30 74
REMARK SMILES IDX 38 75 31 76 32 77 36 78 39 79 33 80 34 81 37 82 35 83 61 84
REMARK SMILES IDX 62 85 70 86 63 87 64 88 68 89 71 90 65 91 66 92 69 93 67 94
REMARK SMILES IDX 46 95 47 96 55 97 48 98 49 99 53 100 56 101 50 102 51 103
REMARK SMILES IDX 54 104 52 105
REMARK H PARENT 76 58 44 69
REMARK Flexibility Score: inf
ROOT
ATOM      1  C   UNL A   1      37.407  29.317  32.192  1.00  0.00     0.188 C 
ENDROOT
BRANCH   1   2
ATOM      2  C   UNL A   1      38.155  27.997  32.452  1.00  0.00     0.188 C 
BRANCH   2   3
ATOM      3  O   UNL A   1      39.255  27.788  31.573  1.00  0.00    -0.376 OA
BRANCH   3   4
ATOM      4  C   UNL A   1      40.516  28.153  32.108  1.00  0.00     0.202 C 
BRANCH   4   5
ATOM      5  C   UNL A   1      41.283  29.227  31.324  1.00  0.00     0.261 C 
BRANCH   5   6
ATOM      6  O   UNL A   1      40.719  30.553  31.316  1.00  0.00    -0.463 OA
BRANCH   6   7
ATOM      7  C   UNL A   1      40.858  31.313  30.200  1.00  0.00     0.313 C 
ATOM      8  O   UNL A   1      41.833  31.245  29.459  1.00  0.00    -0.252 OA
BRANCH   7   9
ATOM      9  C   UNL A   1      39.686  32.297  29.997  1.00  0.00     0.126 C 
ATOM     10  C   UNL A   1      39.219  33.095  31.225  1.00  0.00     0.025 C 
BRANCH   9  11
ATOM     11  C   UNL A   1      38.490  31.690  29.259  1.00  0.00    -0.032 A 
ATOM     12  C   UNL A   1      38.597  30.414  28.705  1.00  0.00     0.005 A 
ATOM     13  C   UNL A   1      37.282  32.386  29.089  1.00  0.00     0.032 A 
ATOM     14  C   UNL A   1      37.484  29.783  28.132  1.00  0.00     0.011 A 
ATOM     15  C   UNL A   1      36.175  31.781  28.456  1.00  0.00     0.058 A 
ATOM     16  C   UNL A   1      36.245  30.455  28.060  1.00  0.00     0.008 A 
ATOM     17  N   UNL A   1      34.897  32.281  28.142  1.00  0.00    -0.274 N 
ATOM     18  C   UNL A   1      34.936  30.067  27.672  1.00  0.00     0.009 A 
ATOM     19  C   UNL A   1      34.124  31.212  27.657  1.00  0.00     0.057 A 
ATOM     20  C   UNL A   1      34.397  28.814  27.311  1.00  0.00     0.031 A 
ATOM     21  C   UNL A   1      32.815  31.135  27.136  1.00  0.00     0.029 A 
ATOM     22  C   UNL A   1      33.077  28.733  26.886  1.00  0.00     0.041 A 
ATOM     23  C   UNL A   1      32.305  29.880  26.769  1.00  0.00     0.023 A 
ATOM     24  Cl  UNL A   1      32.414  27.199  26.476  1.00  0.00    -0.084 Cl
BRANCH  17  25
ATOM     25  C   UNL A   1      34.542  33.659  28.261  1.00  0.00     0.284 C 
ATOM     26  O   UNL A   1      34.779  34.348  27.268  1.00  0.00    -0.266 OA
BRANCH  25  27
ATOM     27  C   UNL A   1      33.965  34.310  29.437  1.00  0.00     0.167 A 
ATOM     28  C   UNL A   1      34.373  34.278  30.754  1.00  0.00     0.231 A 
ATOM     29  N   UNL A   1      32.938  35.244  29.327  1.00  0.00    -0.211 NA
ATOM     30  O   UNL A   1      33.617  35.164  31.467  1.00  0.00    -0.451 OA
ATOM     31  C   UNL A   1      32.793  35.719  30.540  1.00  0.00     0.308 A 
ENDBRANCH  25  27
ENDBRANCH  17  25
ENDBRANCH   9  11
ENDBRANCH   7   9
ENDBRANCH   6   7
ENDBRANCH   5   6
ENDBRANCH   4   5
ENDBRANCH   3   4
ENDBRANCH   2   3
ENDBRANCH   1   2
BRANCH   1  32
ATOM     32  O   UNL A   1      37.973  30.513  32.706  1.00  0.00    -0.377 OA
BRANCH  32  33
ATOM     33  C   UNL A   1      37.406  31.074  33.884  1.00  0.00     0.188 C 
BRANCH  33  34
ATOM     34  C   UNL A   1      36.709  32.453  33.839  1.00  0.00     0.188 C 
BRANCH  34  35
ATOM     35  O   UNL A   1      36.691  33.161  35.066  1.00  0.00    -0.376 OA
BRANCH  35  36
ATOM     36  C   UNL A   1      37.473  32.668  36.141  1.00  0.00     0.202 C 
BRANCH  36  37
ATOM     37  C   UNL A   1      38.133  33.716  37.046  1.00  0.00     0.261 C 
BRANCH  37  38
ATOM     38  O   UNL A   1      39.469  34.101  36.683  1.00  0.00    -0.460 OA
BRANCH  38  39
ATOM     39  C   UNL A   1      40.496  33.523  37.341  1.00  0.00     0.338 C 
ATOM     40  O   UNL A   1      40.654  33.434  38.545  1.00  0.00    -0.246 OA
BRANCH  39  41
ATOM     41  C   UNL A   1      41.314  32.815  36.334  1.00  0.00     0.060 A 
ATOM     42  C   UNL A   1      42.704  32.998  36.337  1.00  0.00     0.016 A 
ATOM     43  C   UNL A   1      40.714  31.941  35.426  1.00  0.00     0.016 A 
ATOM     44  C   UNL A   1      43.498  32.324  35.412  1.00  0.00     0.010 A 
ATOM     45  C   UNL A   1      41.506  31.292  34.477  1.00  0.00     0.010 A 
ATOM     46  C   UNL A   1      42.895  31.507  34.447  1.00  0.00    -0.014 A 
BRANCH  46  47
ATOM     47  C   UNL A   1      43.678  31.084  33.263  1.00  0.00     0.031 A 
ATOM     48  C   UNL A   1      44.182  29.668  33.232  1.00  0.00     0.074 A 
ATOM     49  C   UNL A   1      43.916  31.916  32.236  1.00  0.00     0.049 A 
ATOM     50  N   UNL A   1      44.926  29.065  32.340  1.00  0.00    -0.248 NA
ATOM     51  C   UNL A   1      43.795  28.815  34.369  1.00  0.00     0.031 C 
ATOM     52  C   UNL A   1      43.436  33.291  32.130  1.00  0.00     0.029 A 
ATOM     53  N   UNL A   1      44.636  31.718  31.084  1.00  0.00    -0.354 N 
ATOM     54  C   UNL A   1      45.100  27.771  32.813  1.00  0.00     0.074 A 
ATOM     55  C   UNL A   1      44.411  27.680  34.081  1.00  0.00     0.031 C 
ATOM     56  C   UNL A   1      43.886  33.820  30.978  1.00  0.00     0.029 A 
ATOM     57  C   UNL A   1      44.712  32.832  30.285  1.00  0.00     0.049 A 
ATOM     58  H   UNL A   1      45.058  30.859  30.853  1.00  0.00     0.167 HD
ATOM     59  C   UNL A   1      45.771  26.748  32.237  1.00  0.00     0.037 A 
ATOM     60  C   UNL A   1      45.393  33.029  29.139  1.00  0.00     0.037 A 
ATOM     61  C   UNL A   1      46.459  26.845  30.978  1.00  0.00     0.049 A 
ATOM     62  C   UNL A   1      46.204  31.896  28.559  1.00  0.00     0.074 A 
ATOM     63  C   UNL A   1      47.154  25.862  30.297  1.00  0.00     0.029 A 
ATOM     64  N   UNL A   1      46.546  28.000  30.216  1.00  0.00    -0.354 N 
ATOM     65  N   UNL A   1      46.344  30.666  28.993  1.00  0.00    -0.248 NA
ATOM     66  C   UNL A   1      46.954  32.180  27.326  1.00  0.00     0.031 C 
ATOM     67  C   UNL A   1      47.715  26.439  29.153  1.00  0.00     0.029 A 
ATOM     68  C   UNL A   1      47.314  27.763  29.087  1.00  0.00     0.049 A 
ATOM     69  H   UNL A   1      46.127  28.861  30.444  1.00  0.00     0.167 HD
ATOM     70  C   UNL A   1      47.163  30.023  28.073  1.00  0.00     0.074 A 
ATOM     71  C   UNL A   1      47.481  30.997  27.049  1.00  0.00     0.031 C 
ATOM     72  C   UNL A   1      47.610  28.743  28.072  1.00  0.00     0.037 A 
BRANCH  59  73
ATOM     73  C   UNL A   1      45.825  25.449  32.985  1.00  0.00     0.064 A 
ATOM     74  C   UNL A   1      44.833  24.468  32.841  1.00  0.00     0.173 A 
ATOM     75  C   UNL A   1      46.898  25.175  33.846  1.00  0.00     0.173 A 
ATOM     76  F   UNL A   1      43.775  24.687  32.045  1.00  0.00    -0.203 F 
ATOM     77  C   UNL A   1      44.900  23.271  33.552  1.00  0.00     0.198 A 
ATOM     78  C   UNL A   1      46.979  23.965  34.530  1.00  0.00     0.198 A 
ATOM     79  F   UNL A   1      47.874  26.079  34.020  1.00  0.00    -0.203 F 
ATOM     80  F   UNL A   1      43.914  22.370  33.439  1.00  0.00    -0.200 F 
ATOM     81  C   UNL A   1      45.976  23.018  34.389  1.00  0.00     0.200 A 
ATOM     82  F   UNL A   1      48.026  23.717  35.329  1.00  0.00    -0.200 F 
ATOM     83  F   UNL A   1      46.043  21.864  35.066  1.00  0.00    -0.200 F 
ENDBRANCH  59  73
BRANCH  60  84
ATOM     84  C   UNL A   1      45.352  34.353  28.461  1.00  0.00     0.064 A 
ATOM     85  C   UNL A   1      44.305  34.690  27.593  1.00  0.00     0.173 A 
ATOM     86  C   UNL A   1      46.375  35.296  28.644  1.00  0.00     0.173 A 
ATOM     87  F   UNL A   1      43.317  33.812  27.362  1.00  0.00    -0.203 F 
ATOM     88  C   UNL A   1      44.292  35.909  26.917  1.00  0.00     0.198 A 
ATOM     89  C   UNL A   1      46.346  36.526  27.991  1.00  0.00     0.198 A 
ATOM     90  F   UNL A   1      47.404  35.022  29.458  1.00  0.00    -0.203 F 
ATOM     91  F   UNL A   1      43.307  36.183  26.051  1.00  0.00    -0.200 F 
ATOM     92  C   UNL A   1      45.310  36.829  27.121  1.00  0.00     0.200 A 
ATOM     93  F   UNL A   1      47.327  37.416  28.198  1.00  0.00    -0.200 F 
ATOM     94  F   UNL A   1      45.298  38.000  26.470  1.00  0.00    -0.200 F 
ENDBRANCH  60  84
BRANCH  72  95
ATOM     95  C   UNL A   1      48.452  28.302  26.909  1.00  0.00     0.064 A 
ATOM     96  C   UNL A   1      47.888  27.733  25.757  1.00  0.00     0.173 A 
ATOM     97  C   UNL A   1      49.843  28.498  26.928  1.00  0.00     0.173 A 
ATOM     98  F   UNL A   1      46.566  27.513  25.692  1.00  0.00    -0.203 F 
ATOM     99  C   UNL A   1      48.686  27.352  24.682  1.00  0.00     0.198 A 
ATOM    100  C   UNL A   1      50.634  28.148  25.838  1.00  0.00     0.198 A 
ATOM    101  F   UNL A   1      50.433  29.047  28.000  1.00  0.00    -0.203 F 
ATOM    102  F   UNL A   1      48.131  26.764  23.613  1.00  0.00    -0.200 F 
ATOM    103  C   UNL A   1      50.056  27.568  24.719  1.00  0.00     0.200 A 
ATOM    104  F   UNL A   1      51.954  28.374  25.869  1.00  0.00    -0.200 F 
ATOM    105  F   UNL A   1      50.821  27.209  23.679  1.00  0.00    -0.200 F 
ENDBRANCH  72  95
ENDBRANCH  46  47
ENDBRANCH  39  41
ENDBRANCH  38  39
ENDBRANCH  37  38
ENDBRANCH  36  37
ENDBRANCH  35  36
ENDBRANCH  34  35
ENDBRANCH  33  34
ENDBRANCH  32  33
ENDBRANCH   1  32
TORSDOF 23
ENDMDL
