MODEL 1
REMARK VINA RESULT:     -10.4      0.000      0.000
REMARK SMILES O=C(OCCOCCOCCOCCOC(=O)[C@@H](Cc1ccccc1)N1C(=O)/C(=C/c2ccncc2)SC1=S)c1ccc(-c2c3nc(c(-c4c(F)c(F)c(F)c(F)c4F)c4ccc([nH]4)c(-c4c(F)c(F)c(F)c(F)c4F)c4nc(c(-c5c(F)c(F)c(F)c(F)c5F)c5ccc2[nH]5)C=C4)C=C3)cc1
REMARK SMILES IDX 9 1 8 2 7 3 6 4 5 5 4 6 3 7 2 8 1 9 40 10 41 11 102 12 42 13
REMARK SMILES IDX 101 14 43 15 44 16 45 17 95 18 46 19 100 20 94 21 96 22
REMARK SMILES IDX 47 23 99 24 93 25 92 26 48 28 80 29 60 30 79 31 61 32 64 33
REMARK SMILES IDX 78 34 97 35 62 36 63 37 77 39 98 40 65 41 49 42 50 43 58 44
REMARK SMILES IDX 51 45 52 46 56 47 59 48 53 49 54 50 57 51 55 52 81 53 82 54
REMARK SMILES IDX 90 55 83 56 84 57 88 58 91 59 85 60 86 61 89 62 87 63 66 64
REMARK SMILES IDX 67 65 75 66 68 67 69 68 73 69 76 70 70 71 71 72 74 73 72 74
REMARK SMILES IDX 10 75 11 76 12 77 13 78 14 79 15 80 16 81 17 82 18 83 19 84
REMARK SMILES IDX 20 85 21 86 25 87 22 88 24 89 23 90 26 91 27 92 38 93 28 94
REMARK SMILES IDX 29 95 37 96 39 97 30 98 31 99 32 100 36 101 33 102 35 103
REMARK SMILES IDX 34 104
REMARK H PARENT 96 27 64 38
REMARK Flexibility Score: inf
ROOT
ATOM      1  O   UNL A   1      39.961  22.190  26.272  1.00  0.00    -0.377 OA
ENDROOT
BRANCH   1   2
ATOM      2  C   UNL A   1      41.381  22.219  26.212  1.00  0.00     0.188 C 
BRANCH   2   3
ATOM      3  C   UNL A   1      42.056  21.369  27.268  1.00  0.00     0.188 C 
BRANCH   3   4
ATOM      4  O   UNL A   1      41.339  20.160  27.361  1.00  0.00    -0.376 OA
BRANCH   4   5
ATOM      5  C   UNL A   1      41.437  19.137  26.398  1.00  0.00     0.202 C 
BRANCH   5   6
ATOM      6  C   UNL A   1      42.809  18.582  26.094  1.00  0.00     0.261 C 
BRANCH   6   7
ATOM      7  O   UNL A   1      43.420  18.884  24.815  1.00  0.00    -0.460 OA
BRANCH   7   8
ATOM      8  C   UNL A   1      44.468  19.591  24.350  1.00  0.00     0.338 C 
ATOM      9  O   UNL A   1      45.227  19.051  23.545  1.00  0.00    -0.246 OA
BRANCH   8  10
ATOM     10  C   UNL A   1      44.774  20.992  24.724  1.00  0.00     0.060 A 
ATOM     11  C   UNL A   1      45.505  21.355  25.842  1.00  0.00     0.016 A 
ATOM     12  C   UNL A   1      44.450  22.011  23.821  1.00  0.00     0.016 A 
ATOM     13  C   UNL A   1      45.727  22.657  26.207  1.00  0.00     0.010 A 
ATOM     14  C   UNL A   1      44.777  23.343  24.105  1.00  0.00     0.010 A 
ATOM     15  C   UNL A   1      45.375  23.662  25.330  1.00  0.00    -0.014 A 
BRANCH  15  16
ATOM     16  C   UNL A   1      45.493  25.022  25.856  1.00  0.00     0.031 A 
ATOM     17  C   UNL A   1      46.803  25.705  25.648  1.00  0.00     0.074 A 
ATOM     18  C   UNL A   1      44.390  25.674  26.269  1.00  0.00     0.049 A 
ATOM     19  N   UNL A   1      47.211  26.862  26.083  1.00  0.00    -0.248 NA
ATOM     20  C   UNL A   1      47.789  24.993  24.810  1.00  0.00     0.031 C 
ATOM     21  C   UNL A   1      43.024  25.131  26.257  1.00  0.00     0.029 A 
ATOM     22  N   UNL A   1      44.232  26.948  26.734  1.00  0.00    -0.354 N 
ATOM     23  C   UNL A   1      48.513  26.986  25.626  1.00  0.00     0.074 A 
ATOM     24  C   UNL A   1      48.829  25.807  24.858  1.00  0.00     0.031 C 
ATOM     25  C   UNL A   1      42.173  26.072  26.691  1.00  0.00     0.029 A 
ATOM     26  C   UNL A   1      42.942  27.235  27.108  1.00  0.00     0.049 A 
ATOM     27  H   UNL A   1      44.971  27.597  26.795  1.00  0.00     0.167 HD
ATOM     28  C   UNL A   1      49.366  28.004  25.865  1.00  0.00     0.037 A 
ATOM     29  C   UNL A   1      42.472  28.299  27.781  1.00  0.00     0.037 A 
ATOM     30  C   UNL A   1      48.985  29.155  26.631  1.00  0.00     0.049 A 
ATOM     31  C   UNL A   1      43.480  29.351  28.167  1.00  0.00     0.074 A 
ATOM     32  C   UNL A   1      49.757  30.221  27.044  1.00  0.00     0.029 A 
ATOM     33  N   UNL A   1      47.694  29.379  27.102  1.00  0.00    -0.354 N 
ATOM     34  N   UNL A   1      44.755  29.427  27.856  1.00  0.00    -0.248 NA
ATOM     35  C   UNL A   1      43.001  30.448  29.011  1.00  0.00     0.031 C 
ATOM     36  C   UNL A   1      48.945  31.060  27.815  1.00  0.00     0.029 A 
ATOM     37  C   UNL A   1      47.651  30.554  27.824  1.00  0.00     0.049 A 
ATOM     38  H   UNL A   1      46.924  28.785  26.942  1.00  0.00     0.167 HD
ATOM     39  C   UNL A   1      45.225  30.590  28.444  1.00  0.00     0.074 A 
ATOM     40  C   UNL A   1      44.089  31.197  29.113  1.00  0.00     0.031 C 
ATOM     41  C   UNL A   1      46.477  31.113  28.447  1.00  0.00     0.037 A 
BRANCH  28  42
ATOM     42  C   UNL A   1      50.780  27.838  25.402  1.00  0.00     0.064 A 
ATOM     43  C   UNL A   1      51.175  28.082  24.079  1.00  0.00     0.173 A 
ATOM     44  C   UNL A   1      51.751  27.371  26.301  1.00  0.00     0.173 A 
ATOM     45  F   UNL A   1      50.275  28.481  23.168  1.00  0.00    -0.203 F 
ATOM     46  C   UNL A   1      52.487  27.849  23.670  1.00  0.00     0.198 A 
ATOM     47  C   UNL A   1      53.066  27.167  25.897  1.00  0.00     0.198 A 
ATOM     48  F   UNL A   1      51.419  27.096  27.572  1.00  0.00    -0.203 F 
ATOM     49  F   UNL A   1      52.829  28.032  22.387  1.00  0.00    -0.200 F 
ATOM     50  C   UNL A   1      53.432  27.399  24.580  1.00  0.00     0.200 A 
ATOM     51  F   UNL A   1      53.975  26.727  26.778  1.00  0.00    -0.200 F 
ATOM     52  F   UNL A   1      54.692  27.174  24.184  1.00  0.00    -0.200 F 
ENDBRANCH  28  42
BRANCH  29  53
ATOM     53  C   UNL A   1      41.052  28.370  28.221  1.00  0.00     0.064 A 
ATOM     54  C   UNL A   1      40.062  28.938  27.409  1.00  0.00     0.173 A 
ATOM     55  C   UNL A   1      40.659  27.921  29.494  1.00  0.00     0.173 A 
ATOM     56  F   UNL A   1      40.379  29.398  26.190  1.00  0.00    -0.203 F 
ATOM     57  C   UNL A   1      38.751  29.090  27.864  1.00  0.00     0.198 A 
ATOM     58  C   UNL A   1      39.342  28.037  29.934  1.00  0.00     0.198 A 
ATOM     59  F   UNL A   1      41.559  27.369  30.322  1.00  0.00    -0.203 F 
ATOM     60  F   UNL A   1      37.843  29.701  27.091  1.00  0.00    -0.200 F 
ATOM     61  C   UNL A   1      38.392  28.638  29.124  1.00  0.00     0.200 A 
ATOM     62  F   UNL A   1      38.999  27.583  31.147  1.00  0.00    -0.200 F 
ATOM     63  F   UNL A   1      37.136  28.794  29.565  1.00  0.00    -0.200 F 
ENDBRANCH  29  53
BRANCH  41  64
ATOM     64  C   UNL A   1      46.653  32.425  29.146  1.00  0.00     0.064 A 
ATOM     65  C   UNL A   1      46.469  33.644  28.481  1.00  0.00     0.173 A 
ATOM     66  C   UNL A   1      46.948  32.450  30.516  1.00  0.00     0.173 A 
ATOM     67  F   UNL A   1      46.200  33.663  27.166  1.00  0.00    -0.203 F 
ATOM     68  C   UNL A   1      46.599  34.849  29.161  1.00  0.00     0.198 A 
ATOM     69  C   UNL A   1      47.038  33.656  31.201  1.00  0.00     0.198 A 
ATOM     70  F   UNL A   1      47.123  31.306  31.194  1.00  0.00    -0.203 F 
ATOM     71  F   UNL A   1      46.470  36.006  28.499  1.00  0.00    -0.200 F 
ATOM     72  C   UNL A   1      46.872  34.853  30.522  1.00  0.00     0.200 A 
ATOM     73  F   UNL A   1      47.279  33.658  32.520  1.00  0.00    -0.200 F 
ATOM     74  F   UNL A   1      46.979  36.016  31.179  1.00  0.00    -0.200 F 
ENDBRANCH  41  64
ENDBRANCH  15  16
ENDBRANCH   8  10
ENDBRANCH   7   8
ENDBRANCH   6   7
ENDBRANCH   5   6
ENDBRANCH   4   5
ENDBRANCH   3   4
ENDBRANCH   2   3
ENDBRANCH   1   2
BRANCH   1  75
ATOM     75  C   UNL A   1      39.208  23.391  26.439  1.00  0.00     0.188 C 
BRANCH  75  76
ATOM     76  C   UNL A   1      37.715  23.419  26.066  1.00  0.00     0.188 C 
BRANCH  76  77
ATOM     77  O   UNL A   1      37.237  22.270  25.398  1.00  0.00    -0.376 OA
BRANCH  77  78
ATOM     78  C   UNL A   1      36.278  22.434  24.358  1.00  0.00     0.202 C 
BRANCH  78  79
ATOM     79  C   UNL A   1      35.930  23.806  23.749  1.00  0.00     0.261 C 
BRANCH  79  80
ATOM     80  O   UNL A   1      34.586  24.260  23.954  1.00  0.00    -0.462 OA
BRANCH  80  81
ATOM     81  C   UNL A   1      34.310  24.887  25.124  1.00  0.00     0.329 C 
ATOM     82  O   UNL A   1      35.029  25.758  25.616  1.00  0.00    -0.250 OA
BRANCH  81  83
ATOM     83  C   UNL A   1      33.063  24.368  25.882  1.00  0.00     0.206 C 
BRANCH  83  84
ATOM     84  C   UNL A   1      31.774  25.154  26.214  1.00  0.00     0.073 C 
BRANCH  84  85
ATOM     85  C   UNL A   1      31.574  26.637  26.016  1.00  0.00    -0.045 A 
ATOM     86  C   UNL A   1      31.751  27.465  27.143  1.00  0.00     0.004 A 
ATOM     87  C   UNL A   1      31.380  27.255  24.780  1.00  0.00     0.004 A 
ATOM     88  C   UNL A   1      31.746  28.855  27.033  1.00  0.00     0.000 A 
ATOM     89  C   UNL A   1      31.393  28.648  24.664  1.00  0.00     0.000 A 
ATOM     90  C   UNL A   1      31.579  29.448  25.788  1.00  0.00     0.000 A 
ENDBRANCH  84  85
ENDBRANCH  83  84
BRANCH  83  91
ATOM     91  N   UNL A   1      32.777  23.003  25.444  1.00  0.00    -0.278 N 
ATOM     92  C   UNL A   1      33.391  21.968  26.125  1.00  0.00     0.267 C 
ATOM     93  C   UNL A   1      32.053  22.672  24.316  1.00  0.00     0.149 C 
ATOM     94  O   UNL A   1      34.093  22.042  27.116  1.00  0.00    -0.268 OA
ATOM     95  C   UNL A   1      33.076  20.693  25.470  1.00  0.00     0.081 C 
ATOM     96  S   UNL A   1      32.188  20.946  24.027  1.00  0.00    -0.054 SA
ATOM     97  S   UNL A   1      31.172  23.665  23.302  1.00  0.00    -0.052 S 
ATOM     98  C   UNL A   1      33.517  19.553  26.005  1.00  0.00     0.029 C 
BRANCH  98  99
ATOM     99  C   UNL A   1      33.405  18.301  25.283  1.00  0.00    -0.021 A 
ATOM    100  C   UNL A   1      32.573  17.314  25.807  1.00  0.00     0.028 A 
ATOM    101  C   UNL A   1      34.205  18.037  24.180  1.00  0.00     0.028 A 
ATOM    102  C   UNL A   1      32.591  16.074  25.205  1.00  0.00     0.111 A 
ATOM    103  C   UNL A   1      34.145  16.765  23.647  1.00  0.00     0.111 A 
ATOM    104  N   UNL A   1      33.358  15.778  24.134  1.00  0.00    -0.265 NA
ENDBRANCH  98  99
ENDBRANCH  83  91
ENDBRANCH  81  83
ENDBRANCH  80  81
ENDBRANCH  79  80
ENDBRANCH  78  79
ENDBRANCH  77  78
ENDBRANCH  76  77
ENDBRANCH  75  76
ENDBRANCH   1  75
TORSDOF 24
ENDMDL
MODEL 2
REMARK VINA RESULT:     -10.4      1.365      4.564
REMARK SMILES O=C(OCCOCCOCCOCCOC(=O)[C@@H](Cc1ccccc1)N1C(=O)/C(=C/c2ccncc2)SC1=S)c1ccc(-c2c3nc(c(-c4c(F)c(F)c(F)c(F)c4F)c4ccc([nH]4)c(-c4c(F)c(F)c(F)c(F)c4F)c4nc(c(-c5c(F)c(F)c(F)c(F)c5F)c5ccc2[nH]5)C=C4)C=C3)cc1
REMARK SMILES IDX 9 1 8 2 7 3 6 4 5 5 4 6 3 7 2 8 1 9 40 10 41 11 102 12 42 13
REMARK SMILES IDX 101 14 43 15 44 16 45 17 95 18 46 19 100 20 94 21 96 22
REMARK SMILES IDX 47 23 99 24 93 25 92 26 48 28 80 29 60 30 79 31 61 32 64 33
REMARK SMILES IDX 78 34 97 35 62 36 63 37 77 39 98 40 65 41 49 42 50 43 58 44
REMARK SMILES IDX 51 45 52 46 56 47 59 48 53 49 54 50 57 51 55 52 81 53 82 54
REMARK SMILES IDX 90 55 83 56 84 57 88 58 91 59 85 60 86 61 89 62 87 63 66 64
REMARK SMILES IDX 67 65 75 66 68 67 69 68 73 69 76 70 70 71 71 72 74 73 72 74
REMARK SMILES IDX 10 75 11 76 12 77 13 78 14 79 15 80 16 81 17 82 18 83 19 84
REMARK SMILES IDX 20 85 21 86 25 87 22 88 24 89 23 90 26 91 27 92 38 93 28 94
REMARK SMILES IDX 29 95 37 96 39 97 30 98 31 99 32 100 36 101 33 102 35 103
REMARK SMILES IDX 34 104
REMARK H PARENT 96 27 64 38
REMARK Flexibility Score: inf
ROOT
ATOM      1  O   UNL A   1      40.375  22.227  26.490  1.00  0.00    -0.377 OA
ENDROOT
BRANCH   1   2
ATOM      2  C   UNL A   1      41.786  22.270  26.659  1.00  0.00     0.188 C 
BRANCH   2   3
ATOM      3  C   UNL A   1      42.323  21.214  27.602  1.00  0.00     0.188 C 
BRANCH   3   4
ATOM      4  O   UNL A   1      41.481  20.088  27.501  1.00  0.00    -0.376 OA
BRANCH   4   5
ATOM      5  C   UNL A   1      41.491  19.226  26.387  1.00  0.00     0.202 C 
BRANCH   5   6
ATOM      6  C   UNL A   1      42.813  18.627  25.967  1.00  0.00     0.261 C 
BRANCH   6   7
ATOM      7  O   UNL A   1      43.417  19.062  24.725  1.00  0.00    -0.460 OA
BRANCH   7   8
ATOM      8  C   UNL A   1      44.522  19.721  24.327  1.00  0.00     0.338 C 
ATOM      9  O   UNL A   1      45.304  19.149  23.568  1.00  0.00    -0.246 OA
BRANCH   8  10
ATOM     10  C   UNL A   1      44.868  21.106  24.726  1.00  0.00     0.060 A 
ATOM     11  C   UNL A   1      45.581  21.430  25.867  1.00  0.00     0.016 A 
ATOM     12  C   UNL A   1      44.607  22.146  23.826  1.00  0.00     0.016 A 
ATOM     13  C   UNL A   1      45.840  22.719  26.254  1.00  0.00     0.010 A 
ATOM     14  C   UNL A   1      44.974  23.462  24.135  1.00  0.00     0.010 A 
ATOM     15  C   UNL A   1      45.549  23.745  25.380  1.00  0.00    -0.014 A 
BRANCH  15  16
ATOM     16  C   UNL A   1      45.702  25.094  25.924  1.00  0.00     0.031 A 
ATOM     17  C   UNL A   1      47.022  25.755  25.709  1.00  0.00     0.074 A 
ATOM     18  C   UNL A   1      44.618  25.761  26.363  1.00  0.00     0.049 A 
ATOM     19  N   UNL A   1      47.459  26.896  26.155  1.00  0.00    -0.248 NA
ATOM     20  C   UNL A   1      47.982  25.036  24.845  1.00  0.00     0.031 C 
ATOM     21  C   UNL A   1      43.242  25.246  26.362  1.00  0.00     0.029 A 
ATOM     22  N   UNL A   1      44.493  27.031  26.850  1.00  0.00    -0.354 N 
ATOM     23  C   UNL A   1      48.758  27.002  25.681  1.00  0.00     0.074 A 
ATOM     24  C   UNL A   1      49.039  25.829  24.891  1.00  0.00     0.031 C 
ATOM     25  C   UNL A   1      42.415  26.197  26.823  1.00  0.00     0.029 A 
ATOM     26  C   UNL A   1      43.214  27.338  27.247  1.00  0.00     0.049 A 
ATOM     27  H   UNL A   1      45.245  27.665  26.911  1.00  0.00     0.167 HD
ATOM     28  C   UNL A   1      49.634  27.998  25.924  1.00  0.00     0.037 A 
ATOM     29  C   UNL A   1      42.775  28.401  27.943  1.00  0.00     0.037 A 
ATOM     30  C   UNL A   1      49.287  29.145  26.713  1.00  0.00     0.049 A 
ATOM     31  C   UNL A   1      43.809  29.427  28.330  1.00  0.00     0.074 A 
ATOM     32  C   UNL A   1      50.086  30.188  27.131  1.00  0.00     0.029 A 
ATOM     33  N   UNL A   1      48.007  29.387  27.205  1.00  0.00    -0.354 N 
ATOM     34  N   UNL A   1      45.081  29.482  28.002  1.00  0.00    -0.248 NA
ATOM     35  C   UNL A   1      43.364  30.519  29.198  1.00  0.00     0.031 C 
ATOM     36  C   UNL A   1      49.302  31.031  27.926  1.00  0.00     0.029 A 
ATOM     37  C   UNL A   1      47.998  30.551  27.946  1.00  0.00     0.049 A 
ATOM     38  H   UNL A   1      47.224  28.811  27.047  1.00  0.00     0.167 HD
ATOM     39  C   UNL A   1      45.583  30.625  28.602  1.00  0.00     0.074 A 
ATOM     40  C   UNL A   1      44.469  31.244  29.296  1.00  0.00     0.031 C 
ATOM     41  C   UNL A   1      46.844  31.123  28.594  1.00  0.00     0.037 A 
BRANCH  28  42
ATOM     42  C   UNL A   1      51.037  27.811  25.438  1.00  0.00     0.064 A 
ATOM     43  C   UNL A   1      51.427  28.105  24.124  1.00  0.00     0.173 A 
ATOM     44  C   UNL A   1      52.002  27.274  26.304  1.00  0.00     0.173 A 
ATOM     45  F   UNL A   1      50.531  28.574  23.243  1.00  0.00    -0.203 F 
ATOM     46  C   UNL A   1      52.727  27.852  23.690  1.00  0.00     0.198 A 
ATOM     47  C   UNL A   1      53.307  27.049  25.876  1.00  0.00     0.198 A 
ATOM     48  F   UNL A   1      51.674  26.949  27.564  1.00  0.00    -0.203 F 
ATOM     49  F   UNL A   1      53.063  28.084  22.413  1.00  0.00    -0.200 F 
ATOM     50  C   UNL A   1      53.667  27.332  24.567  1.00  0.00     0.200 A 
ATOM     51  F   UNL A   1      54.210  26.541  26.725  1.00  0.00    -0.200 F 
ATOM     52  F   UNL A   1      54.916  27.087  24.148  1.00  0.00    -0.200 F 
ENDBRANCH  28  42
BRANCH  29  53
ATOM     53  C   UNL A   1      41.363  28.493  28.405  1.00  0.00     0.064 A 
ATOM     54  C   UNL A   1      40.974  28.025  29.667  1.00  0.00     0.173 A 
ATOM     55  C   UNL A   1      40.353  29.002  27.569  1.00  0.00     0.173 A 
ATOM     56  F   UNL A   1      41.890  27.515  30.503  1.00  0.00    -0.203 F 
ATOM     57  C   UNL A   1      39.634  28.025  30.058  1.00  0.00     0.198 A 
ATOM     58  C   UNL A   1      39.020  29.037  27.974  1.00  0.00     0.198 A 
ATOM     59  F   UNL A   1      40.659  29.463  26.347  1.00  0.00    -0.203 F 
ATOM     60  F   UNL A   1      39.285  27.506  31.242  1.00  0.00    -0.200 F 
ATOM     61  C   UNL A   1      38.659  28.532  29.212  1.00  0.00     0.200 A 
ATOM     62  F   UNL A   1      38.087  29.544  27.158  1.00  0.00    -0.200 F 
ATOM     63  F   UNL A   1      37.372  28.521  29.584  1.00  0.00    -0.200 F 
ENDBRANCH  29  53
BRANCH  41  64
ATOM     64  C   UNL A   1      47.057  32.421  29.311  1.00  0.00     0.064 A 
ATOM     65  C   UNL A   1      47.473  32.462  30.648  1.00  0.00     0.173 A 
ATOM     66  C   UNL A   1      46.901  33.631  28.622  1.00  0.00     0.173 A 
ATOM     67  F   UNL A   1      47.619  31.326  31.347  1.00  0.00    -0.203 F 
ATOM     68  C   UNL A   1      47.702  33.679  31.281  1.00  0.00     0.198 A 
ATOM     69  C   UNL A   1      47.169  34.843  29.247  1.00  0.00     0.198 A 
ATOM     70  F   UNL A   1      46.514  33.636  27.338  1.00  0.00    -0.203 F 
ATOM     71  F   UNL A   1      48.050  33.703  32.574  1.00  0.00    -0.200 F 
ATOM     72  C   UNL A   1      47.561  34.866  30.576  1.00  0.00     0.200 A 
ATOM     73  F   UNL A   1      47.055  35.988  28.559  1.00  0.00    -0.200 F 
ATOM     74  F   UNL A   1      47.800  36.037  31.183  1.00  0.00    -0.200 F 
ENDBRANCH  41  64
ENDBRANCH  15  16
ENDBRANCH   8  10
ENDBRANCH   7   8
ENDBRANCH   6   7
ENDBRANCH   5   6
ENDBRANCH   4   5
ENDBRANCH   3   4
ENDBRANCH   2   3
ENDBRANCH   1   2
BRANCH   1  75
ATOM     75  C   UNL A   1      39.580  23.401  26.655  1.00  0.00     0.188 C 
BRANCH  75  76
ATOM     76  C   UNL A   1      38.109  23.401  26.199  1.00  0.00     0.188 C 
BRANCH  76  77
ATOM     77  O   UNL A   1      37.599  22.146  25.803  1.00  0.00    -0.376 OA
BRANCH  77  78
ATOM     78  C   UNL A   1      37.339  21.919  24.421  1.00  0.00     0.202 C 
BRANCH  78  79
ATOM     79  C   UNL A   1      36.623  22.948  23.525  1.00  0.00     0.261 C 
BRANCH  79  80
ATOM     80  O   UNL A   1      35.244  22.680  23.241  1.00  0.00    -0.462 OA
BRANCH  80  81
ATOM     81  C   UNL A   1      34.342  22.948  24.218  1.00  0.00     0.329 C 
ATOM     82  O   UNL A   1      34.650  23.386  25.327  1.00  0.00    -0.250 OA
BRANCH  81  83
ATOM     83  C   UNL A   1      32.875  22.571  23.894  1.00  0.00     0.206 C 
BRANCH  83  84
ATOM     84  C   UNL A   1      32.143  21.258  24.253  1.00  0.00     0.073 C 
BRANCH  84  85
ATOM     85  C   UNL A   1      32.693  19.865  24.059  1.00  0.00    -0.045 A 
ATOM     86  C   UNL A   1      32.177  19.115  22.982  1.00  0.00     0.004 A 
ATOM     87  C   UNL A   1      33.770  19.331  24.765  1.00  0.00     0.004 A 
ATOM     88  C   UNL A   1      32.728  17.886  22.622  1.00  0.00     0.000 A 
ATOM     89  C   UNL A   1      34.337  18.107  24.395  1.00  0.00     0.000 A 
ATOM     90  C   UNL A   1      33.818  17.387  23.322  1.00  0.00     0.000 A 
ENDBRANCH  84  85
ENDBRANCH  83  84
BRANCH  83  91
ATOM     91  N   UNL A   1      32.029  23.745  24.099  1.00  0.00    -0.278 N 
ATOM     92  C   UNL A   1      31.979  24.687  23.087  1.00  0.00     0.267 C 
ATOM     93  C   UNL A   1      31.385  24.057  25.280  1.00  0.00     0.149 C 
ATOM     94  O   UNL A   1      32.497  24.626  21.988  1.00  0.00    -0.268 OA
ATOM     95  C   UNL A   1      31.179  25.836  23.523  1.00  0.00     0.081 C 
ATOM     96  S   UNL A   1      30.713  25.674  25.164  1.00  0.00    -0.054 SA
ATOM     97  S   UNL A   1      31.225  23.138  26.666  1.00  0.00    -0.052 S 
ATOM     98  C   UNL A   1      30.946  26.837  22.672  1.00  0.00     0.029 C 
BRANCH  98  99
ATOM     99  C   UNL A   1      30.341  28.074  23.125  1.00  0.00    -0.021 A 
ATOM    100  C   UNL A   1      29.089  28.415  22.618  1.00  0.00     0.028 A 
ATOM    101  C   UNL A   1      31.043  28.961  23.930  1.00  0.00     0.028 A 
ATOM    102  C   UNL A   1      28.590  29.661  22.929  1.00  0.00     0.111 A 
ATOM    103  C   UNL A   1      30.453  30.182  24.187  1.00  0.00     0.111 A 
ATOM    104  N   UNL A   1      29.244  30.553  23.705  1.00  0.00    -0.265 NA
ENDBRANCH  98  99
ENDBRANCH  83  91
ENDBRANCH  81  83
ENDBRANCH  80  81
ENDBRANCH  79  80
ENDBRANCH  78  79
ENDBRANCH  77  78
ENDBRANCH  76  77
ENDBRANCH  75  76
ENDBRANCH   1  75
TORSDOF 24
ENDMDL
MODEL 3
REMARK VINA RESULT:     -10.4      2.028      3.732
REMARK SMILES O=C(OCCOCCOCCOCCOC(=O)[C@@H](Cc1ccccc1)N1C(=O)/C(=C/c2ccncc2)SC1=S)c1ccc(-c2c3nc(c(-c4c(F)c(F)c(F)c(F)c4F)c4ccc([nH]4)c(-c4c(F)c(F)c(F)c(F)c4F)c4nc(c(-c5c(F)c(F)c(F)c(F)c5F)c5ccc2[nH]5)C=C4)C=C3)cc1
REMARK SMILES IDX 9 1 8 2 7 3 6 4 5 5 4 6 3 7 2 8 1 9 40 10 41 11 102 12 42 13
REMARK SMILES IDX 101 14 43 15 44 16 45 17 95 18 46 19 100 20 94 21 96 22
REMARK SMILES IDX 47 23 99 24 93 25 92 26 48 28 80 29 60 30 79 31 61 32 64 33
REMARK SMILES IDX 78 34 97 35 62 36 63 37 77 39 98 40 65 41 49 42 50 43 58 44
REMARK SMILES IDX 51 45 52 46 56 47 59 48 53 49 54 50 57 51 55 52 81 53 82 54
REMARK SMILES IDX 90 55 83 56 84 57 88 58 91 59 85 60 86 61 89 62 87 63 66 64
REMARK SMILES IDX 67 65 75 66 68 67 69 68 73 69 76 70 70 71 71 72 74 73 72 74
REMARK SMILES IDX 10 75 11 76 12 77 13 78 14 79 15 80 16 81 17 82 18 83 19 84
REMARK SMILES IDX 20 85 21 86 25 87 22 88 24 89 23 90 26 91 27 92 38 93 28 94
REMARK SMILES IDX 29 95 37 96 39 97 30 98 31 99 32 100 36 101 33 102 35 103
REMARK SMILES IDX 34 104
REMARK H PARENT 96 27 64 38
REMARK Flexibility Score: inf
ROOT
ATOM      1  O   UNL A   1      36.194  23.227  26.239  1.00  0.00    -0.377 OA
ENDROOT
BRANCH   1   2
ATOM      2  C   UNL A   1      37.078  23.441  25.146  1.00  0.00     0.188 C 
BRANCH   2   3
ATOM      3  C   UNL A   1      36.965  22.398  24.054  1.00  0.00     0.188 C 
BRANCH   3   4
ATOM      4  O   UNL A   1      37.234  21.143  24.637  1.00  0.00    -0.376 OA
BRANCH   4   5
ATOM      5  C   UNL A   1      38.423  20.866  25.338  1.00  0.00     0.202 C 
BRANCH   5   6
ATOM      6  C   UNL A   1      38.949  19.449  25.307  1.00  0.00     0.261 C 
BRANCH   6   7
ATOM      7  O   UNL A   1      40.135  19.124  26.072  1.00  0.00    -0.460 OA
BRANCH   7   8
ATOM      8  C   UNL A   1      41.446  19.434  26.064  1.00  0.00     0.338 C 
ATOM      9  O   UNL A   1      42.256  18.546  25.800  1.00  0.00    -0.246 OA
BRANCH   8  10
ATOM     10  C   UNL A   1      41.997  20.783  26.337  1.00  0.00     0.060 A 
ATOM     11  C   UNL A   1      42.401  21.218  27.587  1.00  0.00     0.016 A 
ATOM     12  C   UNL A   1      42.280  21.622  25.253  1.00  0.00     0.016 A 
ATOM     13  C   UNL A   1      42.851  22.489  27.834  1.00  0.00     0.010 A 
ATOM     14  C   UNL A   1      42.859  22.880  25.460  1.00  0.00     0.010 A 
ATOM     15  C   UNL A   1      43.096  23.325  26.766  1.00  0.00    -0.014 A 
BRANCH  15  16
ATOM     16  C   UNL A   1      43.417  24.709  27.115  1.00  0.00     0.031 A 
ATOM     17  C   UNL A   1      44.788  25.184  26.768  1.00  0.00     0.074 A 
ATOM     18  C   UNL A   1      42.432  25.546  27.493  1.00  0.00     0.049 A 
ATOM     19  N   UNL A   1      45.364  26.319  27.039  1.00  0.00    -0.248 NA
ATOM     20  C   UNL A   1      45.624  24.254  25.981  1.00  0.00     0.031 C 
ATOM     21  C   UNL A   1      41.010  25.192  27.607  1.00  0.00     0.029 A 
ATOM     22  N   UNL A   1      42.464  26.875  27.804  1.00  0.00    -0.354 N 
ATOM     23  C   UNL A   1      46.643  26.215  26.513  1.00  0.00     0.074 A 
ATOM     24  C   UNL A   1      46.760  24.923  25.884  1.00  0.00     0.031 C 
ATOM     25  C   UNL A   1      40.312  26.282  27.959  1.00  0.00     0.029 A 
ATOM     26  C   UNL A   1      41.246  27.372  28.196  1.00  0.00     0.049 A 
ATOM     27  H   UNL A   1      43.282  27.423  27.753  1.00  0.00     0.167 HD
ATOM     28  C   UNL A   1      47.630  27.131  26.589  1.00  0.00     0.037 A 
ATOM     29  C   UNL A   1      40.955  28.561  28.753  1.00  0.00     0.037 A 
ATOM     30  C   UNL A   1      47.444  28.404  27.224  1.00  0.00     0.049 A 
ATOM     31  C   UNL A   1      42.110  29.507  28.962  1.00  0.00     0.074 A 
ATOM     32  C   UNL A   1      48.368  29.398  27.468  1.00  0.00     0.029 A 
ATOM     33  N   UNL A   1      46.222  28.850  27.719  1.00  0.00    -0.354 N 
ATOM     34  N   UNL A   1      43.363  29.376  28.589  1.00  0.00    -0.248 NA
ATOM     35  C   UNL A   1      41.824  30.749  29.686  1.00  0.00     0.031 C 
ATOM     36  C   UNL A   1      47.717  30.421  28.165  1.00  0.00     0.029 A 
ATOM     37  C   UNL A   1      46.372  30.096  28.292  1.00  0.00     0.049 A 
ATOM     38  H   UNL A   1      45.375  28.350  27.667  1.00  0.00     0.167 HD
ATOM     39  C   UNL A   1      44.011  30.526  29.009  1.00  0.00     0.074 A 
ATOM     40  C   UNL A   1      43.003  31.352  29.647  1.00  0.00     0.031 C 
ATOM     41  C   UNL A   1      45.317  30.875  28.893  1.00  0.00     0.037 A 
BRANCH  28  42
ATOM     42  C   UNL A   1      48.981  26.725  26.089  1.00  0.00     0.064 A 
ATOM     43  C   UNL A   1      49.920  26.067  26.896  1.00  0.00     0.173 A 
ATOM     44  C   UNL A   1      49.360  27.054  24.778  1.00  0.00     0.173 A 
ATOM     45  F   UNL A   1      49.626  25.774  28.172  1.00  0.00    -0.203 F 
ATOM     46  C   UNL A   1      51.193  25.767  26.415  1.00  0.00     0.198 A 
ATOM     47  C   UNL A   1      50.622  26.729  24.291  1.00  0.00     0.198 A 
ATOM     48  F   UNL A   1      48.510  27.709  23.973  1.00  0.00    -0.203 F 
ATOM     49  F   UNL A   1      52.095  25.192  27.222  1.00  0.00    -0.200 F 
ATOM     50  C   UNL A   1      51.540  26.092  25.112  1.00  0.00     0.200 A 
ATOM     51  F   UNL A   1      50.955  27.049  23.034  1.00  0.00    -0.200 F 
ATOM     52  F   UNL A   1      52.766  25.805  24.651  1.00  0.00    -0.200 F 
ENDBRANCH  28  42
BRANCH  29  53
ATOM     53  C   UNL A   1      39.584  28.870  29.243  1.00  0.00     0.064 A 
ATOM     54  C   UNL A   1      39.196  28.587  30.559  1.00  0.00     0.173 A 
ATOM     55  C   UNL A   1      38.607  29.407  28.386  1.00  0.00     0.173 A 
ATOM     56  F   UNL A   1      40.080  28.060  31.419  1.00  0.00    -0.203 F 
ATOM     57  C   UNL A   1      37.883  28.790  30.987  1.00  0.00     0.198 A 
ATOM     58  C   UNL A   1      37.305  29.645  28.824  1.00  0.00     0.198 A 
ATOM     59  F   UNL A   1      38.913  29.699  27.113  1.00  0.00    -0.203 F 
ATOM     60  F   UNL A   1      37.525  28.443  32.230  1.00  0.00    -0.200 F 
ATOM     61  C   UNL A   1      36.940  29.320  30.120  1.00  0.00     0.200 A 
ATOM     62  F   UNL A   1      36.404  30.173  27.985  1.00  0.00    -0.200 F 
ATOM     63  F   UNL A   1      35.676  29.503  30.528  1.00  0.00    -0.200 F 
ENDBRANCH  29  53
BRANCH  41  64
ATOM     64  C   UNL A   1      45.699  32.224  29.417  1.00  0.00     0.064 A 
ATOM     65  C   UNL A   1      46.199  32.394  30.715  1.00  0.00     0.173 A 
ATOM     66  C   UNL A   1      45.620  33.345  28.580  1.00  0.00     0.173 A 
ATOM     67  F   UNL A   1      46.277  31.348  31.553  1.00  0.00    -0.203 F 
ATOM     68  C   UNL A   1      46.585  33.651  31.166  1.00  0.00     0.198 A 
ATOM     69  C   UNL A   1      46.044  34.593  29.022  1.00  0.00     0.198 A 
ATOM     70  F   UNL A   1      45.157  33.225  27.327  1.00  0.00    -0.203 F 
ATOM     71  F   UNL A   1      47.013  33.804  32.426  1.00  0.00    -0.200 F 
ATOM     72  C   UNL A   1      46.518  34.746  30.316  1.00  0.00     0.200 A 
ATOM     73  F   UNL A   1      46.000  35.645  28.193  1.00  0.00    -0.200 F 
ATOM     74  F   UNL A   1      46.907  35.953  30.748  1.00  0.00    -0.200 F 
ENDBRANCH  41  64
ENDBRANCH  15  16
ENDBRANCH   8  10
ENDBRANCH   7   8
ENDBRANCH   6   7
ENDBRANCH   5   6
ENDBRANCH   4   5
ENDBRANCH   3   4
ENDBRANCH   2   3
ENDBRANCH   1   2
BRANCH   1  75
ATOM     75  C   UNL A   1      34.879  23.783  26.239  1.00  0.00     0.188 C 
BRANCH  75  76
ATOM     76  C   UNL A   1      34.609  25.115  25.514  1.00  0.00     0.188 C 
BRANCH  76  77
ATOM     77  O   UNL A   1      33.686  25.973  26.151  1.00  0.00    -0.376 OA
BRANCH  77  78
ATOM     78  C   UNL A   1      33.890  27.380  26.065  1.00  0.00     0.202 C 
BRANCH  78  79
ATOM     79  C   UNL A   1      32.931  28.405  26.700  1.00  0.00     0.261 C 
BRANCH  79  80
ATOM     80  O   UNL A   1      31.587  28.399  26.200  1.00  0.00    -0.462 OA
BRANCH  80  81
ATOM     81  C   UNL A   1      31.422  28.410  24.854  1.00  0.00     0.329 C 
ATOM     82  O   UNL A   1      32.096  29.104  24.091  1.00  0.00    -0.250 OA
BRANCH  81  83
ATOM     83  C   UNL A   1      30.244  27.558  24.318  1.00  0.00     0.206 C 
BRANCH  83  84
ATOM     84  C   UNL A   1      29.161  27.990  23.305  1.00  0.00     0.073 C 
BRANCH  84  85
ATOM     85  C   UNL A   1      28.826  29.414  22.929  1.00  0.00    -0.045 A 
ATOM     86  C   UNL A   1      29.460  29.943  21.787  1.00  0.00     0.004 A 
ATOM     87  C   UNL A   1      27.830  30.182  23.534  1.00  0.00     0.004 A 
ATOM     88  C   UNL A   1      29.102  31.185  21.266  1.00  0.00     0.000 A 
ATOM     89  C   UNL A   1      27.456  31.420  23.003  1.00  0.00     0.000 A 
ATOM     90  C   UNL A   1      28.089  31.920  21.868  1.00  0.00     0.000 A 
ENDBRANCH  84  85
ENDBRANCH  83  84
BRANCH  83  91
ATOM     91  N   UNL A   1      30.719  26.199  24.069  1.00  0.00    -0.278 N 
ATOM     92  C   UNL A   1      30.538  25.261  25.069  1.00  0.00     0.267 C 
ATOM     93  C   UNL A   1      31.459  25.811  22.970  1.00  0.00     0.149 C 
ATOM     94  O   UNL A   1      29.949  25.403  26.124  1.00  0.00    -0.268 OA
ATOM     95  C   UNL A   1      31.180  23.999  24.683  1.00  0.00     0.081 C 
ATOM     96  S   UNL A   1      32.040  24.172  23.211  1.00  0.00    -0.054 SA
ATOM     97  S   UNL A   1      31.828  26.677  21.590  1.00  0.00    -0.052 S 
ATOM     98  C   UNL A   1      31.069  22.934  25.480  1.00  0.00     0.029 C 
BRANCH  98  99
ATOM     99  C   UNL A   1      31.854  21.740  25.238  1.00  0.00    -0.021 A 
ATOM    100  C   UNL A   1      32.760  21.341  26.218  1.00  0.00     0.028 A 
ATOM    101  C   UNL A   1      31.809  21.089  24.012  1.00  0.00     0.028 A 
ATOM    102  C   UNL A   1      33.612  20.301  25.918  1.00  0.00     0.111 A 
ATOM    103  C   UNL A   1      32.701  20.055  23.814  1.00  0.00     0.111 A 
ATOM    104  N   UNL A   1      33.601  19.646  24.737  1.00  0.00    -0.265 NA
ENDBRANCH  98  99
ENDBRANCH  83  91
ENDBRANCH  81  83
ENDBRANCH  80  81
ENDBRANCH  79  80
ENDBRANCH  78  79
ENDBRANCH  77  78
ENDBRANCH  76  77
ENDBRANCH  75  76
ENDBRANCH   1  75
TORSDOF 24
ENDMDL
