MODEL 1
REMARK VINA RESULT:     -10.8      0.000      0.000
REMARK SMILES Cc1cc2c(c(C)c1Cl)C=C(C(=O)OCCOCCOCCOCCOC(=O)c1ccc(-c3c4nc(c(-c5c(F)c(F)c(F)c(F)c5F)c5ccc([nH]5)c(-c5c(F)c(F)c(F)c(F)c5F)c5nc(c(-c6c(F)c(F)c(F)c(F)c6F)c6ccc3[nH]6)C=C5)C=C4)cc1)[C@@H](C(F)(F)F)O2
REMARK SMILES IDX 21 1 20 2 19 3 18 4 17 5 16 6 15 7 14 8 12 9 13 10 11 11
REMARK SMILES IDX 1 12 2 13 3 14 8 15 4 16 6 17 9 18 5 19 97 20 7 21 10 22
REMARK SMILES IDX 92 23 93 24 94 25 95 26 96 27 22 28 23 29 24 30 25 31 26 32
REMARK SMILES IDX 27 33 28 34 29 35 30 36 91 37 31 38 90 39 32 40 33 41 34 42
REMARK SMILES IDX 84 43 35 44 89 45 83 46 85 47 36 48 88 49 82 50 81 51 37 53
REMARK SMILES IDX 69 54 49 55 68 56 50 57 53 58 67 59 86 60 51 61 52 62 66 64
REMARK SMILES IDX 87 65 54 66 38 67 39 68 47 69 40 70 41 71 45 72 48 73 42 74
REMARK SMILES IDX 43 75 46 76 44 77 70 78 71 79 79 80 72 81 73 82 77 83 80 84
REMARK SMILES IDX 74 85 75 86 78 87 76 88 55 89 56 90 64 91 57 92 58 93 62 94
REMARK SMILES IDX 65 95 59 96 60 97 63 98 61 99
REMARK H PARENT 85 52 53 63
REMARK Flexibility Score: inf
ROOT
ATOM      1  C   UNL A   1      42.234  19.281  25.747  1.00  0.00     0.188 C 
ENDROOT
BRANCH   1   2
ATOM      2  O   UNL A   1      41.210  20.276  25.832  1.00  0.00    -0.377 OA
BRANCH   2   3
ATOM      3  C   UNL A   1      41.418  21.379  26.701  1.00  0.00     0.188 C 
BRANCH   3   4
ATOM      4  C   UNL A   1      40.116  22.103  27.099  1.00  0.00     0.188 C 
BRANCH   4   5
ATOM      5  O   UNL A   1      39.451  22.684  25.989  1.00  0.00    -0.376 OA
BRANCH   5   6
ATOM      6  C   UNL A   1      38.374  23.581  26.196  1.00  0.00     0.202 C 
BRANCH   6   7
ATOM      7  C   UNL A   1      36.906  23.147  26.033  1.00  0.00     0.261 C 
BRANCH   7   8
ATOM      8  O   UNL A   1      36.054  24.020  25.285  1.00  0.00    -0.460 OA
BRANCH   8   9
ATOM      9  C   UNL A   1      35.700  23.636  24.045  1.00  0.00     0.338 C 
ATOM     10  O   UNL A   1      36.360  22.965  23.272  1.00  0.00    -0.246 OA
BRANCH   9  11
ATOM     11  C   UNL A   1      34.284  24.022  23.845  1.00  0.00     0.087 C 
ATOM     12  C   UNL A   1      28.405  26.703  23.878  1.00  0.00     0.046 C 
ATOM     13  C   UNL A   1      29.882  26.435  23.759  1.00  0.00    -0.028 A 
ATOM     14  C   UNL A   1      30.293  25.108  23.585  1.00  0.00     0.052 A 
ATOM     15  C   UNL A   1      30.859  27.449  23.784  1.00  0.00     0.047 A 
ATOM     16  C   UNL A   1      31.644  24.774  23.566  1.00  0.00     0.128 A 
ATOM     17  C   UNL A   1      32.238  27.130  23.751  1.00  0.00    -0.021 A 
ATOM     18  Cl  UNL A   1      30.340  29.105  23.869  1.00  0.00    -0.084 Cl
ATOM     19  C   UNL A   1      32.620  25.765  23.711  1.00  0.00     0.022 A 
ATOM     20  O   UNL A   1      31.904  23.443  23.422  1.00  0.00    -0.475 OA
ATOM     21  C   UNL A   1      33.304  28.203  23.738  1.00  0.00     0.047 C 
ATOM     22  C   UNL A   1      34.004  25.332  23.888  1.00  0.00     0.027 C 
ATOM     23  C   UNL A   1      33.268  22.961  23.527  1.00  0.00     0.316 C 
BRANCH  23  24
ATOM     24  C   UNL A   1      33.280  21.811  24.542  1.00  0.00     0.430 C 
ATOM     25  F   UNL A   1      34.239  20.902  24.244  1.00  0.00    -0.167 F 
ATOM     26  F   UNL A   1      33.535  22.242  25.799  1.00  0.00    -0.167 F 
ATOM     27  F   UNL A   1      32.096  21.156  24.573  1.00  0.00    -0.167 F 
ENDBRANCH  23  24
ENDBRANCH   9  11
ENDBRANCH   8   9
ENDBRANCH   7   8
ENDBRANCH   6   7
ENDBRANCH   5   6
ENDBRANCH   4   5
ENDBRANCH   3   4
ENDBRANCH   2   3
ENDBRANCH   1   2
BRANCH   1  28
ATOM     28  C   UNL A   1      43.739  19.616  25.895  1.00  0.00     0.188 C 
BRANCH  28  29
ATOM     29  O   UNL A   1      44.301  20.303  24.786  1.00  0.00    -0.376 OA
BRANCH  29  30
ATOM     30  C   UNL A   1      44.693  21.653  24.966  1.00  0.00     0.202 C 
BRANCH  30  31
ATOM     31  C   UNL A   1      44.073  22.661  23.993  1.00  0.00     0.261 C 
BRANCH  31  32
ATOM     32  O   UNL A   1      43.480  23.822  24.595  1.00  0.00    -0.460 OA
BRANCH  32  33
ATOM     33  C   UNL A   1      44.313  24.783  25.045  1.00  0.00     0.338 C 
ATOM     34  O   UNL A   1      45.424  25.057  24.626  1.00  0.00    -0.246 OA
BRANCH  33  35
ATOM     35  C   UNL A   1      43.562  25.589  26.029  1.00  0.00     0.060 A 
ATOM     36  C   UNL A   1      43.761  26.975  26.070  1.00  0.00     0.016 A 
ATOM     37  C   UNL A   1      42.648  24.977  26.888  1.00  0.00     0.016 A 
ATOM     38  C   UNL A   1      43.061  27.750  26.996  1.00  0.00     0.010 A 
ATOM     39  C   UNL A   1      41.967  25.750  27.830  1.00  0.00     0.010 A 
ATOM     40  C   UNL A   1      42.195  27.135  27.908  1.00  0.00    -0.014 A 
BRANCH  40  41
ATOM     41  C   UNL A   1      41.692  27.901  29.073  1.00  0.00     0.031 A 
ATOM     42  C   UNL A   1      42.449  27.797  30.368  1.00  0.00     0.074 A 
ATOM     43  C   UNL A   1      40.609  28.692  28.982  1.00  0.00     0.049 A 
ATOM     44  N   UNL A   1      42.194  28.344  31.527  1.00  0.00    -0.248 NA
ATOM     45  C   UNL A   1      43.663  26.962  30.348  1.00  0.00     0.031 C 
ATOM     46  C   UNL A   1      39.824  28.914  27.772  1.00  0.00     0.029 A 
ATOM     47  N   UNL A   1      39.986  29.459  29.935  1.00  0.00    -0.354 N 
ATOM     48  C   UNL A   1      43.216  27.926  32.371  1.00  0.00     0.074 A 
ATOM     49  C   UNL A   1      44.072  27.049  31.605  1.00  0.00     0.031 C 
ATOM     50  C   UNL A   1      38.819  29.761  28.055  1.00  0.00     0.029 A 
ATOM     51  C   UNL A   1      38.871  30.115  29.474  1.00  0.00     0.049 A 
ATOM     52  H   UNL A   1      40.307  29.533  30.863  1.00  0.00     0.167 HD
ATOM     53  C   UNL A   1      43.430  28.260  33.664  1.00  0.00     0.037 A 
ATOM     54  C   UNL A   1      37.990  30.898  30.127  1.00  0.00     0.037 A 
ATOM     55  C   UNL A   1      42.573  29.128  34.426  1.00  0.00     0.049 A 
ATOM     56  C   UNL A   1      38.192  31.172  31.598  1.00  0.00     0.074 A 
ATOM     57  C   UNL A   1      42.704  29.526  35.743  1.00  0.00     0.029 A 
ATOM     58  N   UNL A   1      41.421  29.727  33.937  1.00  0.00    -0.354 N 
ATOM     59  N   UNL A   1      39.168  30.789  32.385  1.00  0.00    -0.248 NA
ATOM     60  C   UNL A   1      37.170  31.988  32.271  1.00  0.00     0.031 C 
ATOM     61  C   UNL A   1      41.602  30.320  36.070  1.00  0.00     0.029 A 
ATOM     62  C   UNL A   1      40.817  30.469  34.938  1.00  0.00     0.049 A 
ATOM     63  H   UNL A   1      41.084  29.638  33.017  1.00  0.00     0.167 HD
ATOM     64  C   UNL A   1      38.895  31.338  33.632  1.00  0.00     0.074 A 
ATOM     65  C   UNL A   1      37.667  32.091  33.496  1.00  0.00     0.031 C 
ATOM     66  C   UNL A   1      39.600  31.226  34.786  1.00  0.00     0.037 A 
BRANCH  53  67
ATOM     67  C   UNL A   1      44.632  27.677  34.346  1.00  0.00     0.064 A 
ATOM     68  C   UNL A   1      45.819  28.410  34.492  1.00  0.00     0.173 A 
ATOM     69  C   UNL A   1      44.576  26.395  34.913  1.00  0.00     0.173 A 
ATOM     70  F   UNL A   1      45.928  29.633  33.953  1.00  0.00    -0.203 F 
ATOM     71  C   UNL A   1      46.910  27.876  35.171  1.00  0.00     0.198 A 
ATOM     72  C   UNL A   1      45.658  25.876  35.617  1.00  0.00     0.198 A 
ATOM     73  F   UNL A   1      43.463  25.653  34.801  1.00  0.00    -0.203 F 
ATOM     74  F   UNL A   1      48.046  28.580  35.268  1.00  0.00    -0.200 F 
ATOM     75  C   UNL A   1      46.826  26.615  35.742  1.00  0.00     0.200 A 
ATOM     76  F   UNL A   1      45.570  24.664  36.180  1.00  0.00    -0.200 F 
ATOM     77  F   UNL A   1      47.871  26.110  36.412  1.00  0.00    -0.200 F 
ENDBRANCH  53  67
BRANCH  54  78
ATOM     78  C   UNL A   1      36.836  31.486  29.396  1.00  0.00     0.064 A 
ATOM     79  C   UNL A   1      35.756  30.689  28.993  1.00  0.00     0.173 A 
ATOM     80  C   UNL A   1      36.786  32.854  29.085  1.00  0.00     0.173 A 
ATOM     81  F   UNL A   1      35.768  29.371  29.240  1.00  0.00    -0.203 F 
ATOM     82  C   UNL A   1      34.675  31.235  28.303  1.00  0.00     0.198 A 
ATOM     83  C   UNL A   1      35.692  33.403  28.420  1.00  0.00     0.198 A 
ATOM     84  F   UNL A   1      37.797  33.660  29.441  1.00  0.00    -0.203 F 
ATOM     85  F   UNL A   1      33.673  30.442  27.896  1.00  0.00    -0.200 F 
ATOM     86  C   UNL A   1      34.640  32.593  28.025  1.00  0.00     0.200 A 
ATOM     87  F   UNL A   1      35.658  34.718  28.163  1.00  0.00    -0.200 F 
ATOM     88  F   UNL A   1      33.595  33.118  27.370  1.00  0.00    -0.200 F 
ENDBRANCH  54  78
BRANCH  66  89
ATOM     89  C   UNL A   1      39.089  31.951  35.999  1.00  0.00     0.064 A 
ATOM     90  C   UNL A   1      39.442  33.282  36.261  1.00  0.00     0.173 A 
ATOM     91  C   UNL A   1      38.154  31.338  36.849  1.00  0.00     0.173 A 
ATOM     92  F   UNL A   1      40.338  33.908  35.484  1.00  0.00    -0.203 F 
ATOM     93  C   UNL A   1      38.884  33.971  37.335  1.00  0.00     0.198 A 
ATOM     94  C   UNL A   1      37.574  32.040  37.902  1.00  0.00     0.198 A 
ATOM     95  F   UNL A   1      37.773  30.070  36.635  1.00  0.00    -0.203 F 
ATOM     96  F   UNL A   1      39.256  35.234  37.584  1.00  0.00    -0.200 F 
ATOM     97  C   UNL A   1      37.942  33.355  38.146  1.00  0.00     0.200 A 
ATOM     98  F   UNL A   1      36.649  31.450  38.671  1.00  0.00    -0.200 F 
ATOM     99  F   UNL A   1      37.387  34.029  39.162  1.00  0.00    -0.200 F 
ENDBRANCH  66  89
ENDBRANCH  40  41
ENDBRANCH  33  35
ENDBRANCH  32  33
ENDBRANCH  31  32
ENDBRANCH  30  31
ENDBRANCH  29  30
ENDBRANCH  28  29
ENDBRANCH   1  28
TORSDOF 21
ENDMDL
MODEL 2
REMARK VINA RESULT:     -10.8      4.390      7.382
REMARK SMILES Cc1cc2c(c(C)c1Cl)C=C(C(=O)OCCOCCOCCOCCOC(=O)c1ccc(-c3c4nc(c(-c5c(F)c(F)c(F)c(F)c5F)c5ccc([nH]5)c(-c5c(F)c(F)c(F)c(F)c5F)c5nc(c(-c6c(F)c(F)c(F)c(F)c6F)c6ccc3[nH]6)C=C5)C=C4)cc1)[C@@H](C(F)(F)F)O2
REMARK SMILES IDX 21 1 20 2 19 3 18 4 17 5 16 6 15 7 14 8 12 9 13 10 11 11
REMARK SMILES IDX 1 12 2 13 3 14 8 15 4 16 6 17 9 18 5 19 97 20 7 21 10 22
REMARK SMILES IDX 92 23 93 24 94 25 95 26 96 27 22 28 23 29 24 30 25 31 26 32
REMARK SMILES IDX 27 33 28 34 29 35 30 36 91 37 31 38 90 39 32 40 33 41 34 42
REMARK SMILES IDX 84 43 35 44 89 45 83 46 85 47 36 48 88 49 82 50 81 51 37 53
REMARK SMILES IDX 69 54 49 55 68 56 50 57 53 58 67 59 86 60 51 61 52 62 66 64
REMARK SMILES IDX 87 65 54 66 38 67 39 68 47 69 40 70 41 71 45 72 48 73 42 74
REMARK SMILES IDX 43 75 46 76 44 77 70 78 71 79 79 80 72 81 73 82 77 83 80 84
REMARK SMILES IDX 74 85 75 86 78 87 76 88 55 89 56 90 64 91 57 92 58 93 62 94
REMARK SMILES IDX 65 95 59 96 60 97 63 98 61 99
REMARK H PARENT 85 52 53 63
REMARK Flexibility Score: inf
ROOT
ATOM      1  C   UNL A   1      33.463  21.577  26.051  1.00  0.00     0.188 C 
ENDROOT
BRANCH   1   2
ATOM      2  O   UNL A   1      32.671  22.564  26.716  1.00  0.00    -0.377 OA
BRANCH   2   3
ATOM      3  C   UNL A   1      32.194  23.665  25.957  1.00  0.00     0.188 C 
BRANCH   3   4
ATOM      4  C   UNL A   1      30.757  23.476  25.434  1.00  0.00     0.188 C 
BRANCH   4   5
ATOM      5  O   UNL A   1      30.653  23.670  24.033  1.00  0.00    -0.376 OA
BRANCH   5   6
ATOM      6  C   UNL A   1      29.991  24.813  23.519  1.00  0.00     0.202 C 
BRANCH   6   7
ATOM      7  C   UNL A   1      29.545  25.974  24.426  1.00  0.00     0.261 C 
BRANCH   7   8
ATOM      8  O   UNL A   1      29.501  27.276  23.833  1.00  0.00    -0.460 OA
BRANCH   8   9
ATOM      9  C   UNL A   1      30.599  27.704  23.185  1.00  0.00     0.338 C 
ATOM     10  O   UNL A   1      30.690  27.974  22.001  1.00  0.00    -0.246 OA
BRANCH   9  11
ATOM     11  C   UNL A   1      31.644  27.966  24.202  1.00  0.00     0.087 C 
ATOM     12  C   UNL A   1      36.081  30.411  28.211  1.00  0.00     0.046 C 
ATOM     13  C   UNL A   1      34.817  30.097  27.456  1.00  0.00    -0.028 A 
ATOM     14  C   UNL A   1      34.720  28.846  26.836  1.00  0.00     0.052 A 
ATOM     15  C   UNL A   1      33.725  30.982  27.371  1.00  0.00     0.047 A 
ATOM     16  C   UNL A   1      33.625  28.526  26.039  1.00  0.00     0.128 A 
ATOM     17  C   UNL A   1      32.595  30.668  26.578  1.00  0.00    -0.021 A 
ATOM     18  Cl  UNL A   1      33.795  32.480  28.249  1.00  0.00    -0.084 Cl
ATOM     19  C   UNL A   1      32.591  29.449  25.853  1.00  0.00     0.022 A 
ATOM     20  O   UNL A   1      33.673  27.287  25.469  1.00  0.00    -0.475 OA
ATOM     21  C   UNL A   1      31.395  31.585  26.501  1.00  0.00     0.047 C 
ATOM     22  C   UNL A   1      31.575  29.136  24.850  1.00  0.00     0.027 C 
ATOM     23  C   UNL A   1      32.656  26.898  24.511  1.00  0.00     0.316 C 
BRANCH  23  24
ATOM     24  C   UNL A   1      33.371  26.383  23.254  1.00  0.00     0.430 C 
ATOM     25  F   UNL A   1      34.403  25.567  23.575  1.00  0.00    -0.167 F 
ATOM     26  F   UNL A   1      32.547  25.666  22.455  1.00  0.00    -0.167 F 
ATOM     27  F   UNL A   1      33.871  27.397  22.511  1.00  0.00    -0.167 F 
ENDBRANCH  23  24
ENDBRANCH   9  11
ENDBRANCH   8   9
ENDBRANCH   7   8
ENDBRANCH   6   7
ENDBRANCH   5   6
ENDBRANCH   4   5
ENDBRANCH   3   4
ENDBRANCH   2   3
ENDBRANCH   1   2
BRANCH   1  28
ATOM     28  C   UNL A   1      34.030  21.783  24.624  1.00  0.00     0.188 C 
BRANCH  28  29
ATOM     29  O   UNL A   1      35.447  21.717  24.538  1.00  0.00    -0.376 OA
BRANCH  29  30
ATOM     30  C   UNL A   1      36.090  20.542  25.001  1.00  0.00     0.202 C 
BRANCH  30  31
ATOM     31  C   UNL A   1      37.622  20.587  25.025  1.00  0.00     0.261 C 
BRANCH  31  32
ATOM     32  O   UNL A   1      38.199  21.693  25.735  1.00  0.00    -0.460 OA
BRANCH  32  33
ATOM     33  C   UNL A   1      39.406  21.502  26.309  1.00  0.00     0.338 C 
ATOM     34  O   UNL A   1      40.089  20.494  26.280  1.00  0.00    -0.246 OA
BRANCH  33  35
ATOM     35  C   UNL A   1      39.854  22.809  26.833  1.00  0.00     0.060 A 
ATOM     36  C   UNL A   1      39.222  23.976  26.385  1.00  0.00     0.016 A 
ATOM     37  C   UNL A   1      40.877  22.873  27.781  1.00  0.00     0.016 A 
ATOM     38  C   UNL A   1      39.636  25.219  26.868  1.00  0.00     0.010 A 
ATOM     39  C   UNL A   1      41.306  24.118  28.244  1.00  0.00     0.010 A 
ATOM     40  C   UNL A   1      40.708  25.297  27.766  1.00  0.00    -0.014 A 
BRANCH  40  41
ATOM     41  C   UNL A   1      41.341  26.610  28.040  1.00  0.00     0.031 A 
ATOM     42  C   UNL A   1      42.747  26.831  27.556  1.00  0.00     0.074 A 
ATOM     43  C   UNL A   1      40.679  27.591  28.675  1.00  0.00     0.049 A 
ATOM     44  N   UNL A   1      43.520  27.875  27.698  1.00  0.00    -0.248 NA
ATOM     45  C   UNL A   1      43.362  25.721  26.808  1.00  0.00     0.031 C 
ATOM     46  C   UNL A   1      39.299  27.514  29.145  1.00  0.00     0.029 A 
ATOM     47  N   UNL A   1      41.087  28.853  29.033  1.00  0.00    -0.354 N 
ATOM     48  C   UNL A   1      44.707  27.551  27.052  1.00  0.00     0.074 A 
ATOM     49  C   UNL A   1      44.570  26.202  26.554  1.00  0.00     0.031 C 
ATOM     50  C   UNL A   1      38.974  28.678  29.733  1.00  0.00     0.029 A 
ATOM     51  C   UNL A   1      40.133  29.571  29.709  1.00  0.00     0.049 A 
ATOM     52  H   UNL A   1      41.981  29.209  28.825  1.00  0.00     0.167 HD
ATOM     53  C   UNL A   1      45.807  28.320  26.877  1.00  0.00     0.037 A 
ATOM     54  C   UNL A   1      40.196  30.802  30.256  1.00  0.00     0.037 A 
ATOM     55  C   UNL A   1      45.943  29.660  27.379  1.00  0.00     0.049 A 
ATOM     56  C   UNL A   1      41.471  31.600  30.136  1.00  0.00     0.074 A 
ATOM     57  C   UNL A   1      47.019  30.520  27.254  1.00  0.00     0.029 A 
ATOM     58  N   UNL A   1      44.973  30.332  28.109  1.00  0.00    -0.354 N 
ATOM     59  N   UNL A   1      42.583  31.297  29.511  1.00  0.00    -0.248 NA
ATOM     60  C   UNL A   1      41.500  32.913  30.799  1.00  0.00     0.031 C 
ATOM     61  C   UNL A   1      46.724  31.691  27.955  1.00  0.00     0.029 A 
ATOM     62  C   UNL A   1      45.439  31.586  28.466  1.00  0.00     0.049 A 
ATOM     63  H   UNL A   1      44.087  29.971  28.339  1.00  0.00     0.167 HD
ATOM     64  C   UNL A   1      43.429  32.386  29.678  1.00  0.00     0.074 A 
ATOM     65  C   UNL A   1      42.699  33.364  30.456  1.00  0.00     0.031 C 
ATOM     66  C   UNL A   1      44.697  32.558  29.229  1.00  0.00     0.037 A 
BRANCH  53  67
ATOM     67  C   UNL A   1      46.957  27.728  26.117  1.00  0.00     0.064 A 
ATOM     68  C   UNL A   1      47.032  27.809  24.720  1.00  0.00     0.173 A 
ATOM     69  C   UNL A   1      48.026  27.129  26.800  1.00  0.00     0.173 A 
ATOM     70  F   UNL A   1      46.027  28.358  24.020  1.00  0.00    -0.203 F 
ATOM     71  C   UNL A   1      48.130  27.301  24.031  1.00  0.00     0.198 A 
ATOM     72  C   UNL A   1      49.136  26.649  26.111  1.00  0.00     0.198 A 
ATOM     73  F   UNL A   1      48.003  27.027  28.138  1.00  0.00    -0.203 F 
ATOM     74  F   UNL A   1      48.164  27.357  22.693  1.00  0.00    -0.200 F 
ATOM     75  C   UNL A   1      49.185  26.731  24.728  1.00  0.00     0.200 A 
ATOM     76  F   UNL A   1      50.160  26.111  26.786  1.00  0.00    -0.200 F 
ATOM     77  F   UNL A   1      50.250  26.259  24.065  1.00  0.00    -0.200 F 
ENDBRANCH  53  67
BRANCH  54  78
ATOM     78  C   UNL A   1      39.013  31.360  30.963  1.00  0.00     0.064 A 
ATOM     79  C   UNL A   1      38.756  31.040  32.303  1.00  0.00     0.173 A 
ATOM     80  C   UNL A   1      38.115  32.225  30.318  1.00  0.00     0.173 A 
ATOM     81  F   UNL A   1      39.567  30.194  32.956  1.00  0.00    -0.203 F 
ATOM     82  C   UNL A   1      37.645  31.556  32.968  1.00  0.00     0.198 A 
ATOM     83  C   UNL A   1      37.021  32.764  30.993  1.00  0.00     0.198 A 
ATOM     84  F   UNL A   1      38.310  32.559  29.034  1.00  0.00    -0.203 F 
ATOM     85  F   UNL A   1      37.403  31.202  34.239  1.00  0.00    -0.200 F 
ATOM     86  C   UNL A   1      36.784  32.425  32.316  1.00  0.00     0.200 A 
ATOM     87  F   UNL A   1      36.198  33.611  30.361  1.00  0.00    -0.200 F 
ATOM     88  F   UNL A   1      35.722  32.929  32.959  1.00  0.00    -0.200 F 
ENDBRANCH  54  78
BRANCH  66  89
ATOM     89  C   UNL A   1      45.384  33.858  29.533  1.00  0.00     0.064 A 
ATOM     90  C   UNL A   1      45.260  34.970  28.688  1.00  0.00     0.173 A 
ATOM     91  C   UNL A   1      46.088  34.024  30.738  1.00  0.00     0.173 A 
ATOM     92  F   UNL A   1      44.606  34.861  27.522  1.00  0.00    -0.203 F 
ATOM     93  C   UNL A   1      45.822  36.196  29.032  1.00  0.00     0.198 A 
ATOM     94  C   UNL A   1      46.621  35.259  31.094  1.00  0.00     0.198 A 
ATOM     95  F   UNL A   1      46.226  32.995  31.587  1.00  0.00    -0.203 F 
ATOM     96  F   UNL A   1      45.715  37.238  28.197  1.00  0.00    -0.200 F 
ATOM     97  C   UNL A   1      46.490  36.344  30.240  1.00  0.00     0.200 A 
ATOM     98  F   UNL A   1      47.247  35.405  32.269  1.00  0.00    -0.200 F 
ATOM     99  F   UNL A   1      47.007  37.532  30.581  1.00  0.00    -0.200 F 
ENDBRANCH  66  89
ENDBRANCH  40  41
ENDBRANCH  33  35
ENDBRANCH  32  33
ENDBRANCH  31  32
ENDBRANCH  30  31
ENDBRANCH  29  30
ENDBRANCH  28  29
ENDBRANCH   1  28
TORSDOF 21
ENDMDL
MODEL 3
REMARK VINA RESULT:     -10.8      4.503      7.155
REMARK SMILES Cc1cc2c(c(C)c1Cl)C=C(C(=O)OCCOCCOCCOCCOC(=O)c1ccc(-c3c4nc(c(-c5c(F)c(F)c(F)c(F)c5F)c5ccc([nH]5)c(-c5c(F)c(F)c(F)c(F)c5F)c5nc(c(-c6c(F)c(F)c(F)c(F)c6F)c6ccc3[nH]6)C=C5)C=C4)cc1)[C@@H](C(F)(F)F)O2
REMARK SMILES IDX 21 1 20 2 19 3 18 4 17 5 16 6 15 7 14 8 12 9 13 10 11 11
REMARK SMILES IDX 1 12 2 13 3 14 8 15 4 16 6 17 9 18 5 19 97 20 7 21 10 22
REMARK SMILES IDX 92 23 93 24 94 25 95 26 96 27 22 28 23 29 24 30 25 31 26 32
REMARK SMILES IDX 27 33 28 34 29 35 30 36 91 37 31 38 90 39 32 40 33 41 34 42
REMARK SMILES IDX 84 43 35 44 89 45 83 46 85 47 36 48 88 49 82 50 81 51 37 53
REMARK SMILES IDX 69 54 49 55 68 56 50 57 53 58 67 59 86 60 51 61 52 62 66 64
REMARK SMILES IDX 87 65 54 66 38 67 39 68 47 69 40 70 41 71 45 72 48 73 42 74
REMARK SMILES IDX 43 75 46 76 44 77 70 78 71 79 79 80 72 81 73 82 77 83 80 84
REMARK SMILES IDX 74 85 75 86 78 87 76 88 55 89 56 90 64 91 57 92 58 93 62 94
REMARK SMILES IDX 65 95 59 96 60 97 63 98 61 99
REMARK H PARENT 85 52 53 63
REMARK Flexibility Score: inf
ROOT
ATOM      1  C   UNL A   1      35.674  21.596  25.025  1.00  0.00     0.188 C 
ENDROOT
BRANCH   1   2
ATOM      2  O   UNL A   1      35.063  20.397  25.507  1.00  0.00    -0.377 OA
BRANCH   2   3
ATOM      3  C   UNL A   1      34.113  19.747  24.676  1.00  0.00     0.188 C 
BRANCH   3   4
ATOM      4  C   UNL A   1      32.656  20.157  24.967  1.00  0.00     0.188 C 
BRANCH   4   5
ATOM      5  O   UNL A   1      32.090  20.940  23.929  1.00  0.00    -0.376 OA
BRANCH   5   6
ATOM      6  C   UNL A   1      32.143  22.355  23.996  1.00  0.00     0.202 C 
BRANCH   6   7
ATOM      7  C   UNL A   1      33.192  23.171  23.220  1.00  0.00     0.261 C 
BRANCH   7   8
ATOM      8  O   UNL A   1      33.418  24.515  23.658  1.00  0.00    -0.460 OA
BRANCH   8   9
ATOM      9  C   UNL A   1      33.168  24.802  24.949  1.00  0.00     0.338 C 
ATOM     10  O   UNL A   1      33.404  24.096  25.913  1.00  0.00    -0.246 OA
BRANCH   9  11
ATOM     11  C   UNL A   1      32.713  26.210  25.013  1.00  0.00     0.087 C 
ATOM     12  C   UNL A   1      31.181  32.285  26.592  1.00  0.00     0.046 C 
ATOM     13  C   UNL A   1      31.894  30.985  26.327  1.00  0.00    -0.028 A 
ATOM     14  C   UNL A   1      31.295  30.080  25.444  1.00  0.00     0.052 A 
ATOM     15  C   UNL A   1      33.139  30.654  26.896  1.00  0.00     0.047 A 
ATOM     16  C   UNL A   1      31.845  28.820  25.228  1.00  0.00     0.128 A 
ATOM     17  C   UNL A   1      33.723  29.383  26.676  1.00  0.00    -0.021 A 
ATOM     18  Cl  UNL A   1      33.943  31.832  27.888  1.00  0.00    -0.084 Cl
ATOM     19  C   UNL A   1      33.020  28.439  25.884  1.00  0.00     0.022 A 
ATOM     20  O   UNL A   1      31.143  28.027  24.368  1.00  0.00    -0.475 OA
ATOM     21  C   UNL A   1      35.075  29.018  27.244  1.00  0.00     0.047 C 
ATOM     22  C   UNL A   1      33.435  27.042  25.775  1.00  0.00     0.027 C 
ATOM     23  C   UNL A   1      31.545  26.647  24.174  1.00  0.00     0.316 C 
BRANCH  23  24
ATOM     24  C   UNL A   1      30.306  25.765  24.384  1.00  0.00     0.430 C 
ATOM     25  F   UNL A   1      30.199  24.827  23.413  1.00  0.00    -0.167 F 
ATOM     26  F   UNL A   1      30.348  25.099  25.561  1.00  0.00    -0.167 F 
ATOM     27  F   UNL A   1      29.165  26.493  24.374  1.00  0.00    -0.167 F 
ENDBRANCH  23  24
ENDBRANCH   9  11
ENDBRANCH   8   9
ENDBRANCH   7   8
ENDBRANCH   6   7
ENDBRANCH   5   6
ENDBRANCH   4   5
ENDBRANCH   3   4
ENDBRANCH   2   3
ENDBRANCH   1   2
BRANCH   1  28
ATOM     28  C   UNL A   1      37.097  21.621  24.414  1.00  0.00     0.188 C 
BRANCH  28  29
ATOM     29  O   UNL A   1      38.114  21.112  25.266  1.00  0.00    -0.376 OA
BRANCH  29  30
ATOM     30  C   UNL A   1      38.386  19.723  25.223  1.00  0.00     0.202 C 
BRANCH  30  31
ATOM     31  C   UNL A   1      39.773  19.301  25.721  1.00  0.00     0.261 C 
BRANCH  31  32
ATOM     32  O   UNL A   1      40.233  19.960  26.911  1.00  0.00    -0.460 OA
BRANCH  32  33
ATOM     33  C   UNL A   1      41.549  20.248  26.993  1.00  0.00     0.338 C 
ATOM     34  O   UNL A   1      42.485  19.521  26.711  1.00  0.00    -0.246 OA
BRANCH  33  35
ATOM     35  C   UNL A   1      41.664  21.686  27.310  1.00  0.00     0.060 A 
ATOM     36  C   UNL A   1      41.151  22.627  26.408  1.00  0.00     0.016 A 
ATOM     37  C   UNL A   1      42.255  22.097  28.507  1.00  0.00     0.016 A 
ATOM     38  C   UNL A   1      41.255  23.989  26.692  1.00  0.00     0.010 A 
ATOM     39  C   UNL A   1      42.380  23.461  28.777  1.00  0.00     0.010 A 
ATOM     40  C   UNL A   1      41.909  24.412  27.856  1.00  0.00    -0.014 A 
BRANCH  40  41
ATOM     41  C   UNL A   1      42.287  25.838  28.008  1.00  0.00     0.031 A 
ATOM     42  C   UNL A   1      43.599  26.287  27.427  1.00  0.00     0.074 A 
ATOM     43  C   UNL A   1      41.478  26.719  28.620  1.00  0.00     0.049 A 
ATOM     44  N   UNL A   1      44.160  27.467  27.456  1.00  0.00    -0.248 NA
ATOM     45  C   UNL A   1      44.381  25.263  26.714  1.00  0.00     0.031 C 
ATOM     46  C   UNL A   1      40.163  26.415  29.177  1.00  0.00     0.029 A 
ATOM     47  N   UNL A   1      41.650  28.058  28.872  1.00  0.00    -0.354 N 
ATOM     48  C   UNL A   1      45.355  27.329  26.761  1.00  0.00     0.074 A 
ATOM     49  C   UNL A   1      45.459  25.945  26.358  1.00  0.00     0.031 C 
ATOM     50  C   UNL A   1      39.646  27.536  29.708  1.00  0.00     0.029 A 
ATOM     51  C   UNL A   1      40.607  28.629  29.558  1.00  0.00     0.049 A 
ATOM     52  H   UNL A   1      42.447  28.562  28.588  1.00  0.00     0.167 HD
ATOM     53  C   UNL A   1      46.275  28.277  26.471  1.00  0.00     0.037 A 
ATOM     54  C   UNL A   1      40.455  29.886  30.022  1.00  0.00     0.037 A 
ATOM     55  C   UNL A   1      46.172  29.653  26.879  1.00  0.00     0.049 A 
ATOM     56  C   UNL A   1      41.544  30.902  29.775  1.00  0.00     0.074 A 
ATOM     57  C   UNL A   1      47.053  30.690  26.635  1.00  0.00     0.029 A 
ATOM     58  N   UNL A   1      45.126  30.179  27.623  1.00  0.00    -0.354 N 
ATOM     59  N   UNL A   1      42.663  30.771  29.103  1.00  0.00    -0.248 NA
ATOM     60  C   UNL A   1      41.349  32.241  30.350  1.00  0.00     0.031 C 
ATOM     61  C   UNL A   1      46.570  31.831  27.278  1.00  0.00     0.029 A 
ATOM     62  C   UNL A   1      45.356  31.522  27.871  1.00  0.00     0.049 A 
ATOM     63  H   UNL A   1      44.339  29.674  27.928  1.00  0.00     0.167 HD
ATOM     64  C   UNL A   1      43.289  32.011  29.150  1.00  0.00     0.074 A 
ATOM     65  C   UNL A   1      42.420  32.886  29.908  1.00  0.00     0.031 C 
ATOM     66  C   UNL A   1      44.476  32.387  28.615  1.00  0.00     0.037 A 
BRANCH  53  67
ATOM     67  C   UNL A   1      47.481  27.862  25.682  1.00  0.00     0.064 A 
ATOM     68  C   UNL A   1      48.678  27.494  26.312  1.00  0.00     0.173 A 
ATOM     69  C   UNL A   1      47.419  27.771  24.283  1.00  0.00     0.173 A 
ATOM     70  F   UNL A   1      48.793  27.579  27.646  1.00  0.00    -0.203 F 
ATOM     71  C   UNL A   1      49.774  27.061  25.571  1.00  0.00     0.198 A 
ATOM     72  C   UNL A   1      48.506  27.310  23.547  1.00  0.00     0.198 A 
ATOM     73  F   UNL A   1      46.296  28.112  23.632  1.00  0.00    -0.203 F 
ATOM     74  F   UNL A   1      50.920  26.749  26.191  1.00  0.00    -0.200 F 
ATOM     75  C   UNL A   1      49.684  26.960  24.191  1.00  0.00     0.200 A 
ATOM     76  F   UNL A   1      48.413  27.200  22.215  1.00  0.00    -0.200 F 
ATOM     77  F   UNL A   1      50.734  26.526  23.480  1.00  0.00    -0.200 F 
ENDBRANCH  53  67
BRANCH  54  78
ATOM     78  C   UNL A   1      39.221  30.259  30.763  1.00  0.00     0.064 A 
ATOM     79  C   UNL A   1      39.126  30.068  32.148  1.00  0.00     0.173 A 
ATOM     80  C   UNL A   1      38.113  30.815  30.106  1.00  0.00     0.173 A 
ATOM     81  F   UNL A   1      40.147  29.513  32.818  1.00  0.00    -0.203 F 
ATOM     82  C   UNL A   1      37.970  30.411  32.846  1.00  0.00     0.198 A 
ATOM     83  C   UNL A   1      36.968  31.185  30.809  1.00  0.00     0.198 A 
ATOM     84  F   UNL A   1      38.148  31.013  28.780  1.00  0.00    -0.203 F 
ATOM     85  F   UNL A   1      37.892  30.180  34.164  1.00  0.00    -0.200 F 
ATOM     86  C   UNL A   1      36.895  30.977  32.177  1.00  0.00     0.200 A 
ATOM     87  F   UNL A   1      35.936  31.741  30.160  1.00  0.00    -0.200 F 
ATOM     88  F   UNL A   1      35.787  31.316  32.851  1.00  0.00    -0.200 F 
ENDBRANCH  54  78
BRANCH  66  89
ATOM     89  C   UNL A   1      44.911  33.814  28.795  1.00  0.00     0.064 A 
ATOM     90  C   UNL A   1      44.507  34.822  27.908  1.00  0.00     0.173 A 
ATOM     91  C   UNL A   1      45.654  34.192  29.925  1.00  0.00     0.173 A 
ATOM     92  F   UNL A   1      43.804  34.512  26.809  1.00  0.00    -0.203 F 
ATOM     93  C   UNL A   1      44.837  36.154  28.142  1.00  0.00     0.198 A 
ATOM     94  C   UNL A   1      45.956  35.528  30.172  1.00  0.00     0.198 A 
ATOM     95  F   UNL A   1      46.056  33.267  30.810  1.00  0.00    -0.203 F 
ATOM     96  F   UNL A   1      44.463  37.099  27.268  1.00  0.00    -0.200 F 
ATOM     97  C   UNL A   1      45.548  36.508  29.280  1.00  0.00     0.200 A 
ATOM     98  F   UNL A   1      46.624  35.869  31.282  1.00  0.00    -0.200 F 
ATOM     99  F   UNL A   1      45.842  37.794  29.516  1.00  0.00    -0.200 F 
ENDBRANCH  66  89
ENDBRANCH  40  41
ENDBRANCH  33  35
ENDBRANCH  32  33
ENDBRANCH  31  32
ENDBRANCH  30  31
ENDBRANCH  29  30
ENDBRANCH  28  29
ENDBRANCH   1  28
TORSDOF 21
ENDMDL
