MODEL 1
REMARK VINA RESULT:     -10.3      0.000      0.000
REMARK SMILES O=C(Cc1cc(C2CC[NH+](Cc3cccs3)CC2)n[nH]1)OCCOCCOCCOCCOC(=O)c1ccc(-c2c3nc(c(-c4c(F)c(F)c(F)c(F)c4F)c4ccc([nH]4)c(-c4c(F)c(F)c(F)c(F)c4F)c4nc(c(-c5c(F)c(F)c(F)c(F)c5F)c5ccc2[nH]5)C=C4)C=C3)cc1
REMARK SMILES IDX 26 1 25 2 24 3 23 4 22 5 21 6 2 7 1 8 3 9 4 10 5 11 20 12
REMARK SMILES IDX 6 13 19 14 7 16 8 17 18 18 9 19 17 20 10 21 11 23 12 24
REMARK SMILES IDX 13 25 16 26 14 27 15 28 27 29 28 30 29 31 30 32 31 33 32 34
REMARK SMILES IDX 33 35 34 36 35 37 36 38 37 39 98 40 38 41 97 42 39 43 40 44
REMARK SMILES IDX 41 45 91 46 42 47 96 48 90 49 92 50 43 51 95 52 89 53 88 54
REMARK SMILES IDX 44 56 76 57 56 58 75 59 57 60 60 61 74 62 93 63 58 64 59 65
REMARK SMILES IDX 73 67 94 68 61 69 45 70 46 71 54 72 47 73 48 74 52 75 55 76
REMARK SMILES IDX 49 77 50 78 53 79 51 80 77 81 78 82 86 83 79 84 80 85 84 86
REMARK SMILES IDX 87 87 81 88 82 89 85 90 83 91 62 92 63 93 71 94 64 95 65 96
REMARK SMILES IDX 69 97 72 98 66 99 67 100 70 101 68 102
REMARK H PARENT 20 15 10 22 92 55 60 66
REMARK Flexibility Score: inf
ROOT
ATOM      1  C   UNL A   1      33.998  33.833  28.930  1.00  0.00     0.188 C 
ENDROOT
BRANCH   1   2
ATOM      2  C   UNL A   1      35.039  33.182  28.007  1.00  0.00     0.188 C 
BRANCH   2   3
ATOM      3  O   UNL A   1      34.869  31.854  27.532  1.00  0.00    -0.376 OA
BRANCH   3   4
ATOM      4  C   UNL A   1      33.681  31.145  27.824  1.00  0.00     0.202 C 
BRANCH   4   5
ATOM      5  C   UNL A   1      32.610  30.995  26.757  1.00  0.00     0.261 C 
BRANCH   5   6
ATOM      6  O   UNL A   1      32.188  29.662  26.470  1.00  0.00    -0.463 OA
BRANCH   6   7
ATOM      7  C   UNL A   1      32.470  28.996  25.327  1.00  0.00     0.311 C 
ATOM      8  O   UNL A   1      31.670  29.051  24.392  1.00  0.00    -0.252 OA
BRANCH   7   9
ATOM      9  C   UNL A   1      33.694  28.102  25.229  1.00  0.00     0.178 C 
BRANCH   9  10
ATOM     10  C   UNL A   1      33.389  26.736  24.735  1.00  0.00     0.047 A 
ATOM     11  C   UNL A   1      34.202  25.663  24.434  1.00  0.00     0.049 A 
ATOM     12  N   UNL A   1      32.120  26.332  24.435  1.00  0.00    -0.282 N 
ATOM     13  C   UNL A   1      33.362  24.750  23.752  1.00  0.00     0.066 A 
ATOM     14  N   UNL A   1      32.085  25.157  23.793  1.00  0.00    -0.180 NA
ATOM     15  H   UNL A   1      31.314  26.850  24.667  1.00  0.00     0.190 HD
BRANCH  13  16
ATOM     16  C   UNL A   1      33.707  23.524  22.939  1.00  0.00     0.051 C 
ATOM     17  C   UNL A   1      32.550  22.552  22.708  1.00  0.00     0.071 C 
ATOM     18  C   UNL A   1      34.935  22.784  23.494  1.00  0.00     0.071 C 
ATOM     19  C   UNL A   1      32.314  21.604  23.878  1.00  0.00     0.263 C 
ATOM     20  C   UNL A   1      34.608  21.834  24.649  1.00  0.00     0.263 C 
ATOM     21  N   UNL A   1      33.532  20.906  24.300  1.00  0.00    -0.330 N 
ATOM     22  H   UNL A   1      33.854  20.382  23.486  1.00  0.00     0.348 HD
BRANCH  21  23
ATOM     23  C   UNL A   1      33.288  19.890  25.350  1.00  0.00     0.310 C 
BRANCH  23  24
ATOM     24  C   UNL A   1      33.530  18.458  24.940  1.00  0.00     0.059 A 
ATOM     25  C   UNL A   1      34.474  17.969  24.054  1.00  0.00     0.021 A 
ATOM     26  S   UNL A   1      32.615  17.180  25.620  1.00  0.00    -0.143 S 
ATOM     27  C   UNL A   1      34.300  16.584  23.778  1.00  0.00     0.012 A 
ATOM     28  C   UNL A   1      33.304  16.034  24.552  1.00  0.00     0.065 A 
ENDBRANCH  23  24
ENDBRANCH  21  23
ENDBRANCH  13  16
ENDBRANCH   9  10
ENDBRANCH   7   9
ENDBRANCH   6   7
ENDBRANCH   5   6
ENDBRANCH   4   5
ENDBRANCH   3   4
ENDBRANCH   2   3
ENDBRANCH   1   2
BRANCH   1  29
ATOM     29  O   UNL A   1      33.524  35.137  28.635  1.00  0.00    -0.377 OA
BRANCH  29  30
ATOM     30  C   UNL A   1      33.462  36.057  29.711  1.00  0.00     0.188 C 
BRANCH  30  31
ATOM     31  C   UNL A   1      32.518  35.723  30.843  1.00  0.00     0.188 C 
BRANCH  31  32
ATOM     32  O   UNL A   1      33.108  35.514  32.120  1.00  0.00    -0.376 OA
BRANCH  32  33
ATOM     33  C   UNL A   1      34.529  35.297  32.053  1.00  0.00     0.202 C 
BRANCH  33  34
ATOM     34  C   UNL A   1      34.981  33.857  32.379  1.00  0.00     0.261 C 
BRANCH  34  35
ATOM     35  O   UNL A   1      36.415  33.682  32.478  1.00  0.00    -0.460 OA
BRANCH  35  36
ATOM     36  C   UNL A   1      36.866  32.561  33.104  1.00  0.00     0.338 C 
ATOM     37  O   UNL A   1      36.366  32.041  34.075  1.00  0.00    -0.246 OA
BRANCH  36  38
ATOM     38  C   UNL A   1      37.889  31.897  32.227  1.00  0.00     0.060 A 
ATOM     39  C   UNL A   1      38.856  31.089  32.847  1.00  0.00     0.016 A 
ATOM     40  C   UNL A   1      37.838  31.946  30.828  1.00  0.00     0.016 A 
ATOM     41  C   UNL A   1      39.811  30.407  32.085  1.00  0.00     0.010 A 
ATOM     42  C   UNL A   1      38.797  31.263  30.063  1.00  0.00     0.010 A 
ATOM     43  C   UNL A   1      39.825  30.535  30.690  1.00  0.00    -0.014 A 
BRANCH  43  44
ATOM     44  C   UNL A   1      41.063  30.176  29.943  1.00  0.00     0.031 A 
ATOM     45  C   UNL A   1      41.137  28.789  29.353  1.00  0.00     0.074 A 
ATOM     46  C   UNL A   1      42.070  31.042  29.716  1.00  0.00     0.049 A 
ATOM     47  N   UNL A   1      42.073  28.234  28.625  1.00  0.00    -0.248 NA
ATOM     48  C   UNL A   1      39.987  27.909  29.622  1.00  0.00     0.031 C 
ATOM     49  C   UNL A   1      42.134  32.421  30.191  1.00  0.00     0.029 A 
ATOM     50  N   UNL A   1      43.243  30.874  29.015  1.00  0.00    -0.354 N 
ATOM     51  C   UNL A   1      41.614  26.955  28.335  1.00  0.00     0.074 A 
ATOM     52  C   UNL A   1      40.347  26.792  29.012  1.00  0.00     0.031 C 
ATOM     53  C   UNL A   1      43.290  32.971  29.777  1.00  0.00     0.029 A 
ATOM     54  C   UNL A   1      44.057  31.980  29.018  1.00  0.00     0.049 A 
ATOM     55  H   UNL A   1      43.477  30.036  28.553  1.00  0.00     0.167 HD
ATOM     56  C   UNL A   1      42.177  26.002  27.556  1.00  0.00     0.037 A 
ATOM     57  C   UNL A   1      45.281  32.167  28.480  1.00  0.00     0.037 A 
ATOM     58  C   UNL A   1      43.444  26.134  26.893  1.00  0.00     0.049 A 
ATOM     59  C   UNL A   1      45.931  31.055  27.686  1.00  0.00     0.074 A 
ATOM     60  C   UNL A   1      44.104  25.209  26.102  1.00  0.00     0.029 A 
ATOM     61  N   UNL A   1      44.250  27.260  26.951  1.00  0.00    -0.354 N 
ATOM     62  N   UNL A   1      45.474  29.862  27.392  1.00  0.00    -0.248 NA
ATOM     63  C   UNL A   1      47.270  31.327  27.137  1.00  0.00     0.031 C 
ATOM     64  C   UNL A   1      45.331  25.760  25.717  1.00  0.00     0.029 A 
ATOM     65  C   UNL A   1      45.409  27.047  26.223  1.00  0.00     0.049 A 
ATOM     66  H   UNL A   1      44.032  28.087  27.438  1.00  0.00     0.167 HD
ATOM     67  C   UNL A   1      46.449  29.259  26.602  1.00  0.00     0.074 A 
ATOM     68  C   UNL A   1      47.515  30.223  26.445  1.00  0.00     0.031 C 
ATOM     69  C   UNL A   1      46.460  28.017  26.058  1.00  0.00     0.037 A 
BRANCH  56  70
ATOM     70  C   UNL A   1      41.417  24.720  27.391  1.00  0.00     0.064 A 
ATOM     71  C   UNL A   1      40.263  24.652  26.594  1.00  0.00     0.173 A 
ATOM     72  C   UNL A   1      41.852  23.545  28.020  1.00  0.00     0.173 A 
ATOM     73  F   UNL A   1      39.794  25.755  25.990  1.00  0.00    -0.203 F 
ATOM     74  C   UNL A   1      39.560  23.459  26.453  1.00  0.00     0.198 A 
ATOM     75  C   UNL A   1      41.163  22.347  27.852  1.00  0.00     0.198 A 
ATOM     76  F   UNL A   1      42.947  23.558  28.795  1.00  0.00    -0.203 F 
ATOM     77  F   UNL A   1      38.432  23.430  25.730  1.00  0.00    -0.200 F 
ATOM     78  C   UNL A   1      40.015  22.307  27.076  1.00  0.00     0.200 A 
ATOM     79  F   UNL A   1      41.609  21.233  28.447  1.00  0.00    -0.200 F 
ATOM     80  F   UNL A   1      39.341  21.158  26.935  1.00  0.00    -0.200 F 
ENDBRANCH  56  70
BRANCH  57  81
ATOM     81  C   UNL A   1      46.004  33.454  28.677  1.00  0.00     0.064 A 
ATOM     82  C   UNL A   1      45.795  34.548  27.823  1.00  0.00     0.173 A 
ATOM     83  C   UNL A   1      46.976  33.590  29.678  1.00  0.00     0.173 A 
ATOM     84  F   UNL A   1      44.902  34.459  26.827  1.00  0.00    -0.203 F 
ATOM     85  C   UNL A   1      46.552  35.713  27.944  1.00  0.00     0.198 A 
ATOM     86  C   UNL A   1      47.711  34.767  29.818  1.00  0.00     0.198 A 
ATOM     87  F   UNL A   1      47.226  32.572  30.515  1.00  0.00    -0.203 F 
ATOM     88  F   UNL A   1      46.380  36.715  27.071  1.00  0.00    -0.200 F 
ATOM     89  C   UNL A   1      47.506  35.823  28.944  1.00  0.00     0.200 A 
ATOM     90  F   UNL A   1      48.627  34.870  30.789  1.00  0.00    -0.200 F 
ATOM     91  F   UNL A   1      48.241  36.938  29.053  1.00  0.00    -0.200 F 
ENDBRANCH  57  81
BRANCH  69  92
ATOM     92  C   UNL A   1      47.638  27.638  25.203  1.00  0.00     0.064 A 
ATOM     93  C   UNL A   1      47.620  27.787  23.808  1.00  0.00     0.173 A 
ATOM     94  C   UNL A   1      48.816  27.155  25.794  1.00  0.00     0.173 A 
ATOM     95  F   UNL A   1      46.517  28.237  23.191  1.00  0.00    -0.203 F 
ATOM     96  C   UNL A   1      48.723  27.433  23.035  1.00  0.00     0.198 A 
ATOM     97  C   UNL A   1      49.929  26.833  25.020  1.00  0.00     0.198 A 
ATOM     98  F   UNL A   1      48.894  27.004  27.125  1.00  0.00    -0.203 F 
ATOM     99  F   UNL A   1      48.663  27.532  21.700  1.00  0.00    -0.200 F 
ATOM    100  C   UNL A   1      49.878  26.963  23.642  1.00  0.00     0.200 A 
ATOM    101  F   UNL A   1      51.050  26.396  25.611  1.00  0.00    -0.200 F 
ATOM    102  F   UNL A   1      50.940  26.627  22.895  1.00  0.00    -0.200 F 
ENDBRANCH  69  92
ENDBRANCH  43  44
ENDBRANCH  36  38
ENDBRANCH  35  36
ENDBRANCH  34  35
ENDBRANCH  33  34
ENDBRANCH  32  33
ENDBRANCH  31  32
ENDBRANCH  30  31
ENDBRANCH  29  30
ENDBRANCH   1  29
TORSDOF 24
ENDMDL
MODEL 2
REMARK VINA RESULT:      -9.4      3.143      5.386
REMARK SMILES O=C(Cc1cc(C2CC[NH+](Cc3cccs3)CC2)n[nH]1)OCCOCCOCCOCCOC(=O)c1ccc(-c2c3nc(c(-c4c(F)c(F)c(F)c(F)c4F)c4ccc([nH]4)c(-c4c(F)c(F)c(F)c(F)c4F)c4nc(c(-c5c(F)c(F)c(F)c(F)c5F)c5ccc2[nH]5)C=C4)C=C3)cc1
REMARK SMILES IDX 26 1 25 2 24 3 23 4 22 5 21 6 2 7 1 8 3 9 4 10 5 11 20 12
REMARK SMILES IDX 6 13 19 14 7 16 8 17 18 18 9 19 17 20 10 21 11 23 12 24
REMARK SMILES IDX 13 25 16 26 14 27 15 28 27 29 28 30 29 31 30 32 31 33 32 34
REMARK SMILES IDX 33 35 34 36 35 37 36 38 37 39 98 40 38 41 97 42 39 43 40 44
REMARK SMILES IDX 41 45 91 46 42 47 96 48 90 49 92 50 43 51 95 52 89 53 88 54
REMARK SMILES IDX 44 56 76 57 56 58 75 59 57 60 60 61 74 62 93 63 58 64 59 65
REMARK SMILES IDX 73 67 94 68 61 69 45 70 46 71 54 72 47 73 48 74 52 75 55 76
REMARK SMILES IDX 49 77 50 78 53 79 51 80 77 81 78 82 86 83 79 84 80 85 84 86
REMARK SMILES IDX 87 87 81 88 82 89 85 90 83 91 62 92 63 93 71 94 64 95 65 96
REMARK SMILES IDX 69 97 72 98 66 99 67 100 70 101 68 102
REMARK H PARENT 20 15 10 22 92 55 60 66
REMARK Flexibility Score: inf
ROOT
ATOM      1  C   UNL A   1      34.432  32.153  28.008  1.00  0.00     0.188 C 
ENDROOT
BRANCH   1   2
ATOM      2  C   UNL A   1      35.003  30.760  27.698  1.00  0.00     0.188 C 
BRANCH   2   3
ATOM      3  O   UNL A   1      34.149  29.676  27.360  1.00  0.00    -0.376 OA
BRANCH   3   4
ATOM      4  C   UNL A   1      32.752  29.879  27.267  1.00  0.00     0.202 C 
BRANCH   4   5
ATOM      5  C   UNL A   1      32.144  30.361  25.961  1.00  0.00     0.261 C 
BRANCH   5   6
ATOM      6  O   UNL A   1      31.518  29.366  25.152  1.00  0.00    -0.463 OA
BRANCH   6   7
ATOM      7  C   UNL A   1      32.004  28.918  23.972  1.00  0.00     0.311 C 
ATOM      8  O   UNL A   1      31.339  29.088  22.950  1.00  0.00    -0.252 OA
BRANCH   7   9
ATOM      9  C   UNL A   1      33.293  28.116  23.916  1.00  0.00     0.178 C 
BRANCH   9  10
ATOM     10  C   UNL A   1      33.078  26.669  23.663  1.00  0.00     0.047 A 
ATOM     11  C   UNL A   1      33.951  25.603  23.620  1.00  0.00     0.049 A 
ATOM     12  N   UNL A   1      31.851  26.153  23.360  1.00  0.00    -0.282 N 
ATOM     13  C   UNL A   1      33.199  24.538  23.065  1.00  0.00     0.066 A 
ATOM     14  N   UNL A   1      31.909  24.881  22.945  1.00  0.00    -0.180 NA
ATOM     15  H   UNL A   1      31.011  26.663  23.438  1.00  0.00     0.190 HD
BRANCH  13  16
ATOM     16  C   UNL A   1      33.650  23.205  22.517  1.00  0.00     0.051 C 
ATOM     17  C   UNL A   1      32.535  22.181  22.301  1.00  0.00     0.071 C 
ATOM     18  C   UNL A   1      34.796  22.594  23.340  1.00  0.00     0.071 C 
ATOM     19  C   UNL A   1      32.149  21.432  23.571  1.00  0.00     0.263 C 
ATOM     20  C   UNL A   1      34.320  21.839  24.584  1.00  0.00     0.263 C 
ATOM     21  N   UNL A   1      33.302  20.841  24.257  1.00  0.00    -0.330 N 
ATOM     22  H   UNL A   1      33.728  20.199  23.589  1.00  0.00     0.348 HD
BRANCH  21  23
ATOM     23  C   UNL A   1      32.923  20.005  25.420  1.00  0.00     0.310 C 
BRANCH  23  24
ATOM     24  C   UNL A   1      32.946  18.514  25.185  1.00  0.00     0.059 A 
ATOM     25  C   UNL A   1      32.544  17.505  26.043  1.00  0.00     0.021 A 
ATOM     26  S   UNL A   1      33.475  17.866  23.690  1.00  0.00    -0.143 S 
ATOM     27  C   UNL A   1      32.870  16.210  25.555  1.00  0.00     0.012 A 
ATOM     28  C   UNL A   1      33.403  16.264  24.287  1.00  0.00     0.065 A 
ENDBRANCH  23  24
ENDBRANCH  21  23
ENDBRANCH  13  16
ENDBRANCH   9  10
ENDBRANCH   7   9
ENDBRANCH   6   7
ENDBRANCH   5   6
ENDBRANCH   4   5
ENDBRANCH   3   4
ENDBRANCH   2   3
ENDBRANCH   1   2
BRANCH   1  29
ATOM     29  O   UNL A   1      35.266  33.292  27.874  1.00  0.00    -0.377 OA
BRANCH  29  30
ATOM     30  C   UNL A   1      35.313  34.186  28.973  1.00  0.00     0.188 C 
BRANCH  30  31
ATOM     31  C   UNL A   1      34.045  34.346  29.780  1.00  0.00     0.188 C 
BRANCH  31  32
ATOM     32  O   UNL A   1      34.054  33.791  31.089  1.00  0.00    -0.376 OA
BRANCH  32  33
ATOM     33  C   UNL A   1      35.347  33.300  31.483  1.00  0.00     0.202 C 
BRANCH  33  34
ATOM     34  C   UNL A   1      35.424  31.773  31.698  1.00  0.00     0.261 C 
BRANCH  34  35
ATOM     35  O   UNL A   1      36.529  31.334  32.524  1.00  0.00    -0.460 OA
BRANCH  35  36
ATOM     36  C   UNL A   1      37.157  30.182  32.166  1.00  0.00     0.338 C 
ATOM     37  O   UNL A   1      36.652  29.082  32.122  1.00  0.00    -0.246 OA
BRANCH  36  38
ATOM     38  C   UNL A   1      38.479  30.526  31.541  1.00  0.00     0.060 A 
ATOM     39  C   UNL A   1      39.597  30.618  32.385  1.00  0.00     0.016 A 
ATOM     40  C   UNL A   1      38.660  30.629  30.155  1.00  0.00     0.016 A 
ATOM     41  C   UNL A   1      40.866  30.892  31.862  1.00  0.00     0.010 A 
ATOM     42  C   UNL A   1      39.933  30.906  29.630  1.00  0.00     0.010 A 
ATOM     43  C   UNL A   1      41.033  31.096  30.486  1.00  0.00    -0.014 A 
BRANCH  43  44
ATOM     44  C   UNL A   1      42.257  31.796  30.002  1.00  0.00     0.031 A 
ATOM     45  C   UNL A   1      43.415  30.936  29.556  1.00  0.00     0.074 A 
ATOM     46  C   UNL A   1      42.346  33.135  29.881  1.00  0.00     0.049 A 
ATOM     47  N   UNL A   1      44.574  31.281  29.055  1.00  0.00    -0.248 NA
ATOM     48  C   UNL A   1      43.231  29.481  29.694  1.00  0.00     0.031 C 
ATOM     49  C   UNL A   1      41.308  34.095  30.239  1.00  0.00     0.029 A 
ATOM     50  N   UNL A   1      43.380  33.915  29.415  1.00  0.00    -0.354 N 
ATOM     51  C   UNL A   1      45.243  30.090  28.801  1.00  0.00     0.074 A 
ATOM     52  C   UNL A   1      44.389  29.016  29.257  1.00  0.00     0.031 C 
ATOM     53  C   UNL A   1      41.760  35.338  29.989  1.00  0.00     0.029 A 
ATOM     54  C   UNL A   1      43.126  35.264  29.465  1.00  0.00     0.049 A 
ATOM     55  H   UNL A   1      44.226  33.541  29.076  1.00  0.00     0.167 HD
ATOM     56  C   UNL A   1      46.448  29.896  28.219  1.00  0.00     0.037 A 
ATOM     57  C   UNL A   1      43.908  36.315  29.137  1.00  0.00     0.037 A 
ATOM     58  C   UNL A   1      47.322  30.949  27.780  1.00  0.00     0.049 A 
ATOM     59  C   UNL A   1      45.289  36.075  28.569  1.00  0.00     0.074 A 
ATOM     60  C   UNL A   1      48.574  30.845  27.200  1.00  0.00     0.029 A 
ATOM     61  N   UNL A   1      47.038  32.302  27.881  1.00  0.00    -0.354 N 
ATOM     62  N   UNL A   1      45.898  34.945  28.303  1.00  0.00    -0.248 NA
ATOM     63  C   UNL A   1      46.089  37.268  28.242  1.00  0.00     0.031 C 
ATOM     64  C   UNL A   1      49.067  32.137  26.991  1.00  0.00     0.029 A 
ATOM     65  C   UNL A   1      48.099  33.043  27.389  1.00  0.00     0.049 A 
ATOM     66  H   UNL A   1      46.206  32.679  28.248  1.00  0.00     0.167 HD
ATOM     67  C   UNL A   1      47.129  35.290  27.753  1.00  0.00     0.074 A 
ATOM     68  C   UNL A   1      47.175  36.733  27.702  1.00  0.00     0.031 C 
ATOM     69  C   UNL A   1      48.132  34.481  27.328  1.00  0.00     0.037 A 
BRANCH  56  70
ATOM     70  C   UNL A   1      46.895  28.477  28.034  1.00  0.00     0.064 A 
ATOM     71  C   UNL A   1      46.612  27.769  26.856  1.00  0.00     0.173 A 
ATOM     72  C   UNL A   1      47.627  27.822  29.036  1.00  0.00     0.173 A 
ATOM     73  F   UNL A   1      45.895  28.345  25.878  1.00  0.00    -0.203 F 
ATOM     74  C   UNL A   1      47.025  26.449  26.697  1.00  0.00     0.198 A 
ATOM     75  C   UNL A   1      48.064  26.512  28.860  1.00  0.00     0.198 A 
ATOM     76  F   UNL A   1      47.921  28.454  30.182  1.00  0.00    -0.203 F 
ATOM     77  F   UNL A   1      46.698  25.777  25.585  1.00  0.00    -0.200 F 
ATOM     78  C   UNL A   1      47.756  25.825  27.696  1.00  0.00     0.200 A 
ATOM     79  F   UNL A   1      48.778  25.913  29.822  1.00  0.00    -0.200 F 
ATOM     80  F   UNL A   1      48.157  24.557  27.540  1.00  0.00    -0.200 F 
ENDBRANCH  56  70
BRANCH  57  81
ATOM     81  C   UNL A   1      43.426  37.709  29.345  1.00  0.00     0.064 A 
ATOM     82  C   UNL A   1      42.676  38.377  28.366  1.00  0.00     0.173 A 
ATOM     83  C   UNL A   1      43.773  38.427  30.498  1.00  0.00     0.173 A 
ATOM     84  F   UNL A   1      42.347  37.748  27.228  1.00  0.00    -0.203 F 
ATOM     85  C   UNL A   1      42.320  39.718  28.519  1.00  0.00     0.198 A 
ATOM     86  C   UNL A   1      43.390  39.758  30.664  1.00  0.00     0.198 A 
ATOM     87  F   UNL A   1      44.500  37.841  31.462  1.00  0.00    -0.203 F 
ATOM     88  F   UNL A   1      41.664  40.350  27.536  1.00  0.00    -0.200 F 
ATOM     89  C   UNL A   1      42.674  40.405  29.670  1.00  0.00     0.200 A 
ATOM     90  F   UNL A   1      43.730  40.415  31.780  1.00  0.00    -0.200 F 
ATOM     91  F   UNL A   1      42.341  41.695  29.812  1.00  0.00    -0.200 F 
ENDBRANCH  57  81
BRANCH  69  92
ATOM     92  C   UNL A   1      49.349  35.132  26.730  1.00  0.00     0.064 A 
ATOM     93  C   UNL A   1      50.519  35.341  27.476  1.00  0.00     0.173 A 
ATOM     94  C   UNL A   1      49.357  35.517  25.380  1.00  0.00     0.173 A 
ATOM     95  F   UNL A   1      50.564  35.000  28.773  1.00  0.00    -0.203 F 
ATOM     96  C   UNL A   1      51.637  35.944  26.903  1.00  0.00     0.198 A 
ATOM     97  C   UNL A   1      50.487  36.088  24.802  1.00  0.00     0.198 A 
ATOM     98  F   UNL A   1      48.270  35.328  24.616  1.00  0.00    -0.203 F 
ATOM     99  F   UNL A   1      52.723  36.183  27.649  1.00  0.00    -0.200 F 
ATOM    100  C   UNL A   1      51.622  36.310  25.565  1.00  0.00     0.200 A 
ATOM    101  F   UNL A   1      50.477  36.425  23.505  1.00  0.00    -0.200 F 
ATOM    102  F   UNL A   1      52.701  36.885  25.015  1.00  0.00    -0.200 F 
ENDBRANCH  69  92
ENDBRANCH  43  44
ENDBRANCH  36  38
ENDBRANCH  35  36
ENDBRANCH  34  35
ENDBRANCH  33  34
ENDBRANCH  32  33
ENDBRANCH  31  32
ENDBRANCH  30  31
ENDBRANCH  29  30
ENDBRANCH   1  29
TORSDOF 24
ENDMDL
MODEL 3
REMARK VINA RESULT:      -9.1      4.381      8.109
REMARK SMILES O=C(Cc1cc(C2CC[NH+](Cc3cccs3)CC2)n[nH]1)OCCOCCOCCOCCOC(=O)c1ccc(-c2c3nc(c(-c4c(F)c(F)c(F)c(F)c4F)c4ccc([nH]4)c(-c4c(F)c(F)c(F)c(F)c4F)c4nc(c(-c5c(F)c(F)c(F)c(F)c5F)c5ccc2[nH]5)C=C4)C=C3)cc1
REMARK SMILES IDX 26 1 25 2 24 3 23 4 22 5 21 6 2 7 1 8 3 9 4 10 5 11 20 12
REMARK SMILES IDX 6 13 19 14 7 16 8 17 18 18 9 19 17 20 10 21 11 23 12 24
REMARK SMILES IDX 13 25 16 26 14 27 15 28 27 29 28 30 29 31 30 32 31 33 32 34
REMARK SMILES IDX 33 35 34 36 35 37 36 38 37 39 98 40 38 41 97 42 39 43 40 44
REMARK SMILES IDX 41 45 91 46 42 47 96 48 90 49 92 50 43 51 95 52 89 53 88 54
REMARK SMILES IDX 44 56 76 57 56 58 75 59 57 60 60 61 74 62 93 63 58 64 59 65
REMARK SMILES IDX 73 67 94 68 61 69 45 70 46 71 54 72 47 73 48 74 52 75 55 76
REMARK SMILES IDX 49 77 50 78 53 79 51 80 77 81 78 82 86 83 79 84 80 85 84 86
REMARK SMILES IDX 87 87 81 88 82 89 85 90 83 91 62 92 63 93 71 94 64 95 65 96
REMARK SMILES IDX 69 97 72 98 66 99 67 100 70 101 68 102
REMARK H PARENT 20 15 10 22 92 55 60 66
REMARK Flexibility Score: inf
ROOT
ATOM      1  C   UNL A   1      39.294  29.824  28.687  1.00  0.00     0.188 C 
ENDROOT
BRANCH   1   2
ATOM      2  C   UNL A   1      40.200  28.653  28.275  1.00  0.00     0.188 C 
BRANCH   2   3
ATOM      3  O   UNL A   1      41.333  28.861  27.444  1.00  0.00    -0.376 OA
BRANCH   3   4
ATOM      4  C   UNL A   1      41.239  28.637  26.051  1.00  0.00     0.202 C 
BRANCH   4   5
ATOM      5  C   UNL A   1      41.970  27.463  25.423  1.00  0.00     0.261 C 
BRANCH   5   6
ATOM      6  O   UNL A   1      41.254  26.230  25.370  1.00  0.00    -0.463 OA
BRANCH   6   7
ATOM      7  C   UNL A   1      41.438  25.197  26.225  1.00  0.00     0.311 C 
ATOM      8  O   UNL A   1      42.497  24.570  26.182  1.00  0.00    -0.252 OA
BRANCH   7   9
ATOM      9  C   UNL A   1      40.320  24.741  27.146  1.00  0.00     0.178 C 
BRANCH   9  10
ATOM     10  C   UNL A   1      39.322  23.870  26.477  1.00  0.00     0.047 A 
ATOM     11  C   UNL A   1      38.005  24.080  26.126  1.00  0.00     0.049 A 
ATOM     12  N   UNL A   1      39.596  22.580  26.123  1.00  0.00    -0.282 N 
ATOM     13  C   UNL A   1      37.511  22.799  25.779  1.00  0.00     0.066 A 
ATOM     14  N   UNL A   1      38.506  21.900  25.747  1.00  0.00    -0.180 NA
ATOM     15  H   UNL A   1      40.501  22.191  26.140  1.00  0.00     0.190 HD
BRANCH  13  16
ATOM     16  C   UNL A   1      36.093  22.321  25.571  1.00  0.00     0.051 C 
ATOM     17  C   UNL A   1      35.689  22.107  24.112  1.00  0.00     0.071 C 
ATOM     18  C   UNL A   1      35.068  23.208  26.295  1.00  0.00     0.071 C 
ATOM     19  C   UNL A   1      35.267  23.392  23.408  1.00  0.00     0.263 C 
ATOM     20  C   UNL A   1      34.681  24.464  25.508  1.00  0.00     0.263 C 
ATOM     21  N   UNL A   1      34.249  24.141  24.149  1.00  0.00    -0.330 N 
ATOM     22  H   UNL A   1      33.449  23.514  24.240  1.00  0.00     0.348 HD
BRANCH  21  23
ATOM     23  C   UNL A   1      33.742  25.322  23.412  1.00  0.00     0.310 C 
BRANCH  23  24
ATOM     24  C   UNL A   1      32.374  25.808  23.824  1.00  0.00     0.059 A 
ATOM     25  C   UNL A   1      31.968  27.105  24.085  1.00  0.00     0.021 A 
ATOM     26  S   UNL A   1      31.062  24.718  23.979  1.00  0.00    -0.143 S 
ATOM     27  C   UNL A   1      30.649  27.170  24.614  1.00  0.00     0.012 A 
ATOM     28  C   UNL A   1      30.047  25.933  24.630  1.00  0.00     0.065 A 
ENDBRANCH  23  24
ENDBRANCH  21  23
ENDBRANCH  13  16
ENDBRANCH   9  10
ENDBRANCH   7   9
ENDBRANCH   6   7
ENDBRANCH   5   6
ENDBRANCH   4   5
ENDBRANCH   3   4
ENDBRANCH   2   3
ENDBRANCH   1   2
BRANCH   1  29
ATOM     29  O   UNL A   1      38.059  30.019  28.018  1.00  0.00    -0.377 OA
BRANCH  29  30
ATOM     30  C   UNL A   1      36.899  29.506  28.649  1.00  0.00     0.188 C 
BRANCH  30  31
ATOM     31  C   UNL A   1      35.726  30.448  28.797  1.00  0.00     0.188 C 
BRANCH  31  32
ATOM     32  O   UNL A   1      36.032  31.785  29.172  1.00  0.00    -0.376 OA
BRANCH  32  33
ATOM     33  C   UNL A   1      34.938  32.449  29.829  1.00  0.00     0.202 C 
BRANCH  33  34
ATOM     34  C   UNL A   1      35.132  32.675  31.344  1.00  0.00     0.261 C 
BRANCH  34  35
ATOM     35  O   UNL A   1      35.730  31.561  32.049  1.00  0.00    -0.460 OA
BRANCH  35  36
ATOM     36  C   UNL A   1      36.521  31.850  33.117  1.00  0.00     0.338 C 
ATOM     37  O   UNL A   1      36.171  32.418  34.127  1.00  0.00    -0.246 OA
BRANCH  36  38
ATOM     38  C   UNL A   1      37.808  31.087  32.986  1.00  0.00     0.060 A 
ATOM     39  C   UNL A   1      38.943  31.602  33.634  1.00  0.00     0.016 A 
ATOM     40  C   UNL A   1      37.890  29.836  32.360  1.00  0.00     0.016 A 
ATOM     41  C   UNL A   1      40.163  30.919  33.587  1.00  0.00     0.010 A 
ATOM     42  C   UNL A   1      39.115  29.150  32.312  1.00  0.00     0.010 A 
ATOM     43  C   UNL A   1      40.273  29.716  32.877  1.00  0.00    -0.014 A 
BRANCH  43  44
ATOM     44  C   UNL A   1      41.625  29.234  32.474  1.00  0.00     0.031 A 
ATOM     45  C   UNL A   1      42.333  29.999  31.382  1.00  0.00     0.074 A 
ATOM     46  C   UNL A   1      42.257  28.210  33.078  1.00  0.00     0.049 A 
ATOM     47  N   UNL A   1      43.526  29.823  30.871  1.00  0.00    -0.248 NA
ATOM     48  C   UNL A   1      41.587  31.121  30.788  1.00  0.00     0.031 C 
ATOM     49  C   UNL A   1      41.720  27.396  34.163  1.00  0.00     0.029 A 
ATOM     50  N   UNL A   1      43.508  27.683  32.850  1.00  0.00    -0.354 N 
ATOM     51  C   UNL A   1      43.677  30.822  29.918  1.00  0.00     0.074 A 
ATOM     52  C   UNL A   1      42.437  31.563  29.876  1.00  0.00     0.031 C 
ATOM     53  C   UNL A   1      42.632  26.466  34.502  1.00  0.00     0.029 A 
ATOM     54  C   UNL A   1      43.814  26.608  33.648  1.00  0.00     0.049 A 
ATOM     55  H   UNL A   1      44.129  28.045  32.176  1.00  0.00     0.167 HD
ATOM     56  C   UNL A   1      44.756  31.120  29.158  1.00  0.00     0.037 A 
ATOM     57  C   UNL A   1      44.913  25.825  33.678  1.00  0.00     0.037 A 
ATOM     58  C   UNL A   1      45.990  30.383  29.167  1.00  0.00     0.049 A 
ATOM     59  C   UNL A   1      46.075  26.123  32.755  1.00  0.00     0.074 A 
ATOM     60  C   UNL A   1      47.129  30.600  28.412  1.00  0.00     0.029 A 
ATOM     61  N   UNL A   1      46.242  29.280  29.967  1.00  0.00    -0.354 N 
ATOM     62  N   UNL A   1      46.219  27.089  31.881  1.00  0.00    -0.248 NA
ATOM     63  C   UNL A   1      47.236  25.222  32.837  1.00  0.00     0.031 C 
ATOM     64  C   UNL A   1      48.056  29.600  28.723  1.00  0.00     0.029 A 
ATOM     65  C   UNL A   1      47.514  28.796  29.712  1.00  0.00     0.049 A 
ATOM     66  H   UNL A   1      45.612  28.899  30.619  1.00  0.00     0.167 HD
ATOM     67  C   UNL A   1      47.490  26.931  31.338  1.00  0.00     0.074 A 
ATOM     68  C   UNL A   1      48.086  25.789  31.993  1.00  0.00     0.031 C 
ATOM     69  C   UNL A   1      48.107  27.666  30.379  1.00  0.00     0.037 A 
BRANCH  56  70
ATOM     70  C   UNL A   1      44.638  32.298  28.238  1.00  0.00     0.064 A 
ATOM     71  C   UNL A   1      44.188  32.152  26.917  1.00  0.00     0.173 A 
ATOM     72  C   UNL A   1      44.961  33.588  28.685  1.00  0.00     0.173 A 
ATOM     73  F   UNL A   1      43.888  30.935  26.436  1.00  0.00    -0.203 F 
ATOM     74  C   UNL A   1      44.089  33.252  26.069  1.00  0.00     0.198 A 
ATOM     75  C   UNL A   1      44.832  34.689  27.843  1.00  0.00     0.198 A 
ATOM     76  F   UNL A   1      45.399  33.780  29.938  1.00  0.00    -0.203 F 
ATOM     77  F   UNL A   1      43.706  33.081  24.796  1.00  0.00    -0.200 F 
ATOM     78  C   UNL A   1      44.404  34.519  26.535  1.00  0.00     0.200 A 
ATOM     79  F   UNL A   1      45.127  35.914  28.297  1.00  0.00    -0.200 F 
ATOM     80  F   UNL A   1      44.303  35.577  25.720  1.00  0.00    -0.200 F 
ENDBRANCH  56  70
BRANCH  57  81
ATOM     81  C   UNL A   1      44.984  24.659  34.602  1.00  0.00     0.064 A 
ATOM     82  C   UNL A   1      45.435  24.799  35.923  1.00  0.00     0.173 A 
ATOM     83  C   UNL A   1      44.675  23.366  34.156  1.00  0.00     0.173 A 
ATOM     84  F   UNL A   1      45.778  26.009  36.389  1.00  0.00    -0.203 F 
ATOM     85  C   UNL A   1      45.604  23.688  36.750  1.00  0.00     0.198 A 
ATOM     86  C   UNL A   1      44.813  22.259  34.994  1.00  0.00     0.198 A 
ATOM     87  F   UNL A   1      44.251  23.172  32.899  1.00  0.00    -0.203 F 
ATOM     88  F   UNL A   1      46.102  23.844  37.985  1.00  0.00    -0.200 F 
ATOM     89  C   UNL A   1      45.289  22.421  36.286  1.00  0.00     0.200 A 
ATOM     90  F   UNL A   1      44.503  21.037  34.543  1.00  0.00    -0.200 F 
ATOM     91  F   UNL A   1      45.460  21.353  37.077  1.00  0.00    -0.200 F 
ENDBRANCH  57  81
BRANCH  69  92
ATOM     92  C   UNL A   1      49.516  27.291  30.008  1.00  0.00     0.064 A 
ATOM     93  C   UNL A   1      49.794  26.419  28.944  1.00  0.00     0.173 A 
ATOM     94  C   UNL A   1      50.603  27.841  30.705  1.00  0.00     0.173 A 
ATOM     95  F   UNL A   1      48.793  25.858  28.250  1.00  0.00    -0.203 F 
ATOM     96  C   UNL A   1      51.106  26.086  28.615  1.00  0.00     0.198 A 
ATOM     97  C   UNL A   1      51.914  27.531  30.351  1.00  0.00     0.198 A 
ATOM     98  F   UNL A   1      50.396  28.689  31.722  1.00  0.00    -0.203 F 
ATOM     99  F   UNL A   1      51.346  25.209  27.631  1.00  0.00    -0.200 F 
ATOM    100  C   UNL A   1      52.165  26.647  29.314  1.00  0.00     0.200 A 
ATOM    101  F   UNL A   1      52.935  28.088  31.017  1.00  0.00    -0.200 F 
ATOM    102  F   UNL A   1      53.426  26.328  28.992  1.00  0.00    -0.200 F 
ENDBRANCH  69  92
ENDBRANCH  43  44
ENDBRANCH  36  38
ENDBRANCH  35  36
ENDBRANCH  34  35
ENDBRANCH  33  34
ENDBRANCH  32  33
ENDBRANCH  31  32
ENDBRANCH  30  31
ENDBRANCH  29  30
ENDBRANCH   1  29
TORSDOF 24
ENDMDL
