MODEL 1
REMARK VINA RESULT:     -10.0      0.000      0.000
REMARK SMILES Cn1ncc(C(=O)OCCOCCOCCOCCOC(=O)c2ccc(-c3c4nc(c(-c5c(F)c(F)c(F)c(F)c5F)c5ccc([nH]5)c(-c5c(F)c(F)c(F)c(F)c5F)c5nc(c(-c6c(F)c(F)c(F)c(F)c6F)c6ccc3[nH]6)C=C5)C=C4)cc2)c1C(=O)NCC1CC[NH+](Cc2ccccc2)CC1
REMARK SMILES IDX 12 1 11 2 10 3 9 4 8 5 6 6 7 7 5 8 1 9 2 10 3 11 86 12 4 13
REMARK SMILES IDX 87 14 88 15 89 16 90 18 91 19 92 20 103 21 93 22 102 23
REMARK SMILES IDX 94 24 95 26 96 27 97 28 101 29 98 30 100 31 99 32 13 33
REMARK SMILES IDX 14 34 15 35 16 36 17 37 18 38 19 39 20 40 21 41 22 42 23 43
REMARK SMILES IDX 24 44 85 45 25 46 84 47 26 48 27 49 28 50 78 51 29 52 83 53
REMARK SMILES IDX 77 54 79 55 30 56 82 57 76 58 75 59 31 61 63 62 43 63 62 64
REMARK SMILES IDX 44 65 47 66 61 67 80 68 45 69 46 70 60 72 81 73 48 74 32 75
REMARK SMILES IDX 33 76 41 77 34 78 35 79 39 80 42 81 36 82 37 83 40 84 38 85
REMARK SMILES IDX 64 86 65 87 73 88 66 89 67 90 71 91 74 92 68 93 69 94 72 95
REMARK SMILES IDX 70 96 49 97 50 98 58 99 51 100 52 101 56 102 59 103 53 104
REMARK SMILES IDX 54 105 57 106 55 107
REMARK H PARENT 89 17 94 25 79 60 47 71
REMARK Flexibility Score: inf
ROOT
ATOM      1  C   UNL A   1      37.105  22.623  24.993  1.00  0.00     0.188 C 
ENDROOT
BRANCH   1   2
ATOM      2  O   UNL A   1      36.909  21.213  24.874  1.00  0.00    -0.376 OA
BRANCH   2   3
ATOM      3  C   UNL A   1      35.559  20.758  24.997  1.00  0.00     0.202 C 
BRANCH   3   4
ATOM      4  C   UNL A   1      34.754  21.485  26.082  1.00  0.00     0.261 C 
BRANCH   4   5
ATOM      5  O   UNL A   1      33.431  20.915  26.156  1.00  0.00    -0.460 OA
BRANCH   5   6
ATOM      6  C   UNL A   1      32.532  21.381  25.247  1.00  0.00     0.342 C 
ATOM      7  O   UNL A   1      32.154  20.759  24.261  1.00  0.00    -0.246 OA
BRANCH   6   8
ATOM      8  C   UNL A   1      31.849  22.565  25.719  1.00  0.00     0.111 A 
ATOM      9  C   UNL A   1      29.902  25.584  25.892  1.00  0.00     0.174 C 
ATOM     10  N   UNL A   1      30.778  24.446  26.024  1.00  0.00    -0.262 N 
ATOM     11  N   UNL A   1      31.032  24.015  27.273  1.00  0.00    -0.180 NA
ATOM     12  C   UNL A   1      31.310  23.653  25.028  1.00  0.00     0.140 A 
ATOM     13  C   UNL A   1      31.640  22.850  27.084  1.00  0.00     0.151 A 
BRANCH  12  14
ATOM     14  C   UNL A   1      31.227  23.864  23.597  1.00  0.00     0.270 C 
ATOM     15  O   UNL A   1      30.208  23.661  22.945  1.00  0.00    -0.268 OA
ATOM     16  N   UNL A   1      32.404  24.213  22.957  1.00  0.00    -0.350 N 
ATOM     17  H   UNL A   1      33.160  23.583  22.958  1.00  0.00     0.163 HD
BRANCH  16  18
ATOM     18  C   UNL A   1      32.544  25.497  22.281  1.00  0.00     0.120 C 
BRANCH  18  19
ATOM     19  C   UNL A   1      33.668  26.458  22.770  1.00  0.00     0.019 C 
ATOM     20  C   UNL A   1      33.782  26.578  24.294  1.00  0.00     0.067 C 
ATOM     21  C   UNL A   1      33.660  27.881  22.206  1.00  0.00     0.067 C 
ATOM     22  C   UNL A   1      32.694  27.457  24.899  1.00  0.00     0.262 C 
ATOM     23  C   UNL A   1      32.546  28.751  22.792  1.00  0.00     0.262 C 
ATOM     24  N   UNL A   1      32.539  28.769  24.258  1.00  0.00    -0.331 N 
ATOM     25  H   UNL A   1      33.393  29.270  24.505  1.00  0.00     0.348 HD
BRANCH  24  26
ATOM     26  C   UNL A   1      31.397  29.541  24.809  1.00  0.00     0.299 C 
BRANCH  26  27
ATOM     27  C   UNL A   1      30.164  29.547  23.924  1.00  0.00     0.006 A 
ATOM     28  C   UNL A   1      29.573  28.347  23.524  1.00  0.00     0.009 A 
ATOM     29  C   UNL A   1      29.498  30.756  23.650  1.00  0.00     0.009 A 
ATOM     30  C   UNL A   1      28.288  28.348  22.992  1.00  0.00     0.001 A 
ATOM     31  C   UNL A   1      28.216  30.750  23.104  1.00  0.00     0.001 A 
ATOM     32  C   UNL A   1      27.600  29.543  22.800  1.00  0.00     0.000 A 
ENDBRANCH  26  27
ENDBRANCH  24  26
ENDBRANCH  18  19
ENDBRANCH  16  18
ENDBRANCH  12  14
ENDBRANCH   6   8
ENDBRANCH   5   6
ENDBRANCH   4   5
ENDBRANCH   3   4
ENDBRANCH   2   3
ENDBRANCH   1   2
BRANCH   1  33
ATOM     33  C   UNL A   1      37.759  23.006  26.320  1.00  0.00     0.188 C 
BRANCH  33  34
ATOM     34  O   UNL A   1      39.173  23.116  26.183  1.00  0.00    -0.377 OA
BRANCH  34  35
ATOM     35  C   UNL A   1      39.965  22.200  26.934  1.00  0.00     0.188 C 
BRANCH  35  36
ATOM     36  C   UNL A   1      40.317  20.872  26.252  1.00  0.00     0.188 C 
BRANCH  36  37
ATOM     37  O   UNL A   1      41.618  20.664  25.712  1.00  0.00    -0.376 OA
BRANCH  37  38
ATOM     38  C   UNL A   1      42.771  20.891  26.510  1.00  0.00     0.202 C 
BRANCH  38  39
ATOM     39  C   UNL A   1      43.769  21.913  25.963  1.00  0.00     0.261 C 
BRANCH  39  40
ATOM     40  O   UNL A   1      43.167  23.181  25.662  1.00  0.00    -0.460 OA
BRANCH  40  41
ATOM     41  C   UNL A   1      43.277  24.100  26.646  1.00  0.00     0.338 C 
ATOM     42  O   UNL A   1      42.531  24.265  27.596  1.00  0.00    -0.246 OA
BRANCH  41  43
ATOM     43  C   UNL A   1      44.498  24.905  26.465  1.00  0.00     0.060 A 
ATOM     44  C   UNL A   1      45.188  25.305  27.615  1.00  0.00     0.016 A 
ATOM     45  C   UNL A   1      44.869  25.391  25.208  1.00  0.00     0.016 A 
ATOM     46  C   UNL A   1      46.209  26.247  27.521  1.00  0.00     0.010 A 
ATOM     47  C   UNL A   1      45.888  26.342  25.115  1.00  0.00     0.010 A 
ATOM     48  C   UNL A   1      46.529  26.807  26.277  1.00  0.00    -0.014 A 
BRANCH  48  49
ATOM     49  C   UNL A   1      47.403  28.002  26.221  1.00  0.00     0.031 A 
ATOM     50  C   UNL A   1      46.793  29.357  26.448  1.00  0.00     0.074 A 
ATOM     51  C   UNL A   1      48.724  27.881  26.006  1.00  0.00     0.049 A 
ATOM     52  N   UNL A   1      47.362  30.536  26.437  1.00  0.00    -0.248 NA
ATOM     53  C   UNL A   1      45.349  29.388  26.728  1.00  0.00     0.031 C 
ATOM     54  C   UNL A   1      49.433  26.620  25.818  1.00  0.00     0.029 A 
ATOM     55  N   UNL A   1      49.700  28.838  25.904  1.00  0.00    -0.354 N 
ATOM     56  C   UNL A   1      46.350  31.444  26.714  1.00  0.00     0.074 A 
ATOM     57  C   UNL A   1      45.125  30.688  26.858  1.00  0.00     0.031 C 
ATOM     58  C   UNL A   1      50.734  26.879  25.602  1.00  0.00     0.029 A 
ATOM     59  C   UNL A   1      50.942  28.326  25.625  1.00  0.00     0.049 A 
ATOM     60  H   UNL A   1      49.528  29.801  26.021  1.00  0.00     0.167 HD
ATOM     61  C   UNL A   1      46.437  32.788  26.849  1.00  0.00     0.037 A 
ATOM     62  C   UNL A   1      52.110  28.958  25.401  1.00  0.00     0.037 A 
ATOM     63  C   UNL A   1      47.653  33.542  26.705  1.00  0.00     0.049 A 
ATOM     64  C   UNL A   1      52.165  30.462  25.486  1.00  0.00     0.074 A 
ATOM     65  C   UNL A   1      47.845  34.906  26.840  1.00  0.00     0.029 A 
ATOM     66  N   UNL A   1      48.885  32.993  26.386  1.00  0.00    -0.354 N 
ATOM     67  N   UNL A   1      51.210  31.310  25.777  1.00  0.00    -0.248 NA
ATOM     68  C   UNL A   1      53.465  31.093  25.215  1.00  0.00     0.031 C 
ATOM     69  C   UNL A   1      49.188  35.186  26.564  1.00  0.00     0.029 A 
ATOM     70  C   UNL A   1      49.839  33.993  26.295  1.00  0.00     0.049 A 
ATOM     71  H   UNL A   1      49.057  32.034  26.247  1.00  0.00     0.167 HD
ATOM     72  C   UNL A   1      51.794  32.569  25.748  1.00  0.00     0.074 A 
ATOM     73  C   UNL A   1      53.192  32.374  25.421  1.00  0.00     0.031 C 
ATOM     74  C   UNL A   1      51.225  33.779  25.972  1.00  0.00     0.037 A 
BRANCH  61  75
ATOM     75  C   UNL A   1      45.173  33.533  27.154  1.00  0.00     0.064 A 
ATOM     76  C   UNL A   1      44.728  33.710  28.472  1.00  0.00     0.173 A 
ATOM     77  C   UNL A   1      44.416  34.101  26.120  1.00  0.00     0.173 A 
ATOM     78  F   UNL A   1      45.411  33.171  29.493  1.00  0.00    -0.203 F 
ATOM     79  C   UNL A   1      43.560  34.416  28.744  1.00  0.00     0.198 A 
ATOM     80  C   UNL A   1      43.259  34.825  26.396  1.00  0.00     0.198 A 
ATOM     81  F   UNL A   1      44.802  33.960  24.843  1.00  0.00    -0.203 F 
ATOM     82  F   UNL A   1      43.132  34.543  30.007  1.00  0.00    -0.200 F 
ATOM     83  C   UNL A   1      42.829  34.977  27.706  1.00  0.00     0.200 A 
ATOM     84  F   UNL A   1      42.558  35.373  25.394  1.00  0.00    -0.200 F 
ATOM     85  F   UNL A   1      41.706  35.661  27.968  1.00  0.00    -0.200 F 
ENDBRANCH  61  75
BRANCH  62  86
ATOM     86  C   UNL A   1      53.324  28.174  25.067  1.00  0.00     0.064 A 
ATOM     87  C   UNL A   1      54.168  27.683  26.073  1.00  0.00     0.173 A 
ATOM     88  C   UNL A   1      53.675  27.915  23.735  1.00  0.00     0.173 A 
ATOM     89  F   UNL A   1      53.886  27.928  27.361  1.00  0.00    -0.203 F 
ATOM     90  C   UNL A   1      55.327  26.977  25.757  1.00  0.00     0.198 A 
ATOM     91  C   UNL A   1      54.822  27.190  23.420  1.00  0.00     0.198 A 
ATOM     92  F   UNL A   1      52.901  28.366  22.736  1.00  0.00    -0.203 F 
ATOM     93  F   UNL A   1      56.138  26.555  26.736  1.00  0.00    -0.200 F 
ATOM     94  C   UNL A   1      55.650  26.727  24.432  1.00  0.00     0.200 A 
ATOM     95  F   UNL A   1      55.127  26.944  22.139  1.00  0.00    -0.200 F 
ATOM     96  F   UNL A   1      56.765  26.048  24.129  1.00  0.00    -0.200 F 
ENDBRANCH  62  86
BRANCH  74  97
ATOM     97  C   UNL A   1      52.115  34.983  25.892  1.00  0.00     0.064 A 
ATOM     98  C   UNL A   1      52.309  35.669  24.685  1.00  0.00     0.173 A 
ATOM     99  C   UNL A   1      52.740  35.482  27.044  1.00  0.00     0.173 A 
ATOM    100  F   UNL A   1      51.744  35.219  23.555  1.00  0.00    -0.203 F 
ATOM    101  C   UNL A   1      53.114  36.803  24.631  1.00  0.00     0.198 A 
ATOM    102  C   UNL A   1      53.525  36.631  26.990  1.00  0.00     0.198 A 
ATOM    103  F   UNL A   1      52.579  34.864  28.224  1.00  0.00    -0.203 F 
ATOM    104  F   UNL A   1      53.317  37.423  23.460  1.00  0.00    -0.200 F 
ATOM    105  C   UNL A   1      53.715  37.288  25.784  1.00  0.00     0.200 A 
ATOM    106  F   UNL A   1      54.097  37.103  28.106  1.00  0.00    -0.200 F 
ATOM    107  F   UNL A   1      54.484  38.384  25.730  1.00  0.00    -0.200 F 
ENDBRANCH  74  97
ENDBRANCH  48  49
ENDBRANCH  41  43
ENDBRANCH  40  41
ENDBRANCH  39  40
ENDBRANCH  38  39
ENDBRANCH  37  38
ENDBRANCH  36  37
ENDBRANCH  35  36
ENDBRANCH  34  35
ENDBRANCH  33  34
ENDBRANCH   1  33
TORSDOF 25
ENDMDL
MODEL 2
REMARK VINA RESULT:      -9.9      5.397      9.295
REMARK SMILES Cn1ncc(C(=O)OCCOCCOCCOCCOC(=O)c2ccc(-c3c4nc(c(-c5c(F)c(F)c(F)c(F)c5F)c5ccc([nH]5)c(-c5c(F)c(F)c(F)c(F)c5F)c5nc(c(-c6c(F)c(F)c(F)c(F)c6F)c6ccc3[nH]6)C=C5)C=C4)cc2)c1C(=O)NCC1CC[NH+](Cc2ccccc2)CC1
REMARK SMILES IDX 12 1 11 2 10 3 9 4 8 5 6 6 7 7 5 8 1 9 2 10 3 11 86 12 4 13
REMARK SMILES IDX 87 14 88 15 89 16 90 18 91 19 92 20 103 21 93 22 102 23
REMARK SMILES IDX 94 24 95 26 96 27 97 28 101 29 98 30 100 31 99 32 13 33
REMARK SMILES IDX 14 34 15 35 16 36 17 37 18 38 19 39 20 40 21 41 22 42 23 43
REMARK SMILES IDX 24 44 85 45 25 46 84 47 26 48 27 49 28 50 78 51 29 52 83 53
REMARK SMILES IDX 77 54 79 55 30 56 82 57 76 58 75 59 31 61 63 62 43 63 62 64
REMARK SMILES IDX 44 65 47 66 61 67 80 68 45 69 46 70 60 72 81 73 48 74 32 75
REMARK SMILES IDX 33 76 41 77 34 78 35 79 39 80 42 81 36 82 37 83 40 84 38 85
REMARK SMILES IDX 64 86 65 87 73 88 66 89 67 90 71 91 74 92 68 93 69 94 72 95
REMARK SMILES IDX 70 96 49 97 50 98 58 99 51 100 52 101 56 102 59 103 53 104
REMARK SMILES IDX 54 105 57 106 55 107
REMARK H PARENT 89 17 94 25 79 60 47 71
REMARK Flexibility Score: inf
ROOT
ATOM      1  C   UNL A   1      36.009  23.136  24.859  1.00  0.00     0.188 C 
ENDROOT
BRANCH   1   2
ATOM      2  O   UNL A   1      36.320  21.812  24.423  1.00  0.00    -0.376 OA
BRANCH   2   3
ATOM      3  C   UNL A   1      35.582  20.759  25.049  1.00  0.00     0.202 C 
BRANCH   3   4
ATOM      4  C   UNL A   1      34.626  21.238  26.148  1.00  0.00     0.261 C 
BRANCH   4   5
ATOM      5  O   UNL A   1      33.293  20.768  25.858  1.00  0.00    -0.460 OA
BRANCH   5   6
ATOM      6  C   UNL A   1      32.603  21.479  24.925  1.00  0.00     0.342 C 
ATOM      7  O   UNL A   1      32.371  21.091  23.785  1.00  0.00    -0.246 OA
BRANCH   6   8
ATOM      8  C   UNL A   1      31.919  22.614  25.505  1.00  0.00     0.111 A 
ATOM      9  C   UNL A   1      29.912  25.561  25.971  1.00  0.00     0.174 C 
ATOM     10  N   UNL A   1      30.822  24.442  25.983  1.00  0.00    -0.262 N 
ATOM     11  N   UNL A   1      31.160  23.946  27.188  1.00  0.00    -0.180 NA
ATOM     12  C   UNL A   1      31.313  23.724  24.913  1.00  0.00     0.140 A 
ATOM     13  C   UNL A   1      31.784  22.812  26.894  1.00  0.00     0.151 A 
BRANCH  12  14
ATOM     14  C   UNL A   1      31.141  24.016  23.505  1.00  0.00     0.270 C 
ATOM     15  O   UNL A   1      30.060  23.942  22.929  1.00  0.00    -0.268 OA
ATOM     16  N   UNL A   1      32.293  24.288  22.787  1.00  0.00    -0.350 N 
ATOM     17  H   UNL A   1      32.983  23.592  22.698  1.00  0.00     0.163 HD
BRANCH  16  18
ATOM     18  C   UNL A   1      32.503  25.587  22.159  1.00  0.00     0.120 C 
BRANCH  18  19
ATOM     19  C   UNL A   1      33.628  26.499  22.732  1.00  0.00     0.019 C 
ATOM     20  C   UNL A   1      33.674  26.566  24.263  1.00  0.00     0.067 C 
ATOM     21  C   UNL A   1      33.686  27.940  22.218  1.00  0.00     0.067 C 
ATOM     22  C   UNL A   1      32.582  27.455  24.847  1.00  0.00     0.262 C 
ATOM     23  C   UNL A   1      32.569  28.821  22.781  1.00  0.00     0.262 C 
ATOM     24  N   UNL A   1      32.493  28.791  24.244  1.00  0.00    -0.331 N 
ATOM     25  H   UNL A   1      33.348  29.259  24.548  1.00  0.00     0.348 HD
BRANCH  24  26
ATOM     26  C   UNL A   1      31.348  29.577  24.768  1.00  0.00     0.299 C 
BRANCH  26  27
ATOM     27  C   UNL A   1      30.099  29.508  23.908  1.00  0.00     0.006 A 
ATOM     28  C   UNL A   1      29.511  28.276  23.612  1.00  0.00     0.009 A 
ATOM     29  C   UNL A   1      29.418  30.687  23.557  1.00  0.00     0.009 A 
ATOM     30  C   UNL A   1      28.217  28.228  23.104  1.00  0.00     0.001 A 
ATOM     31  C   UNL A   1      28.126  30.631  23.037  1.00  0.00     0.001 A 
ATOM     32  C   UNL A   1      27.516  29.400  22.836  1.00  0.00     0.000 A 
ENDBRANCH  26  27
ENDBRANCH  24  26
ENDBRANCH  18  19
ENDBRANCH  16  18
ENDBRANCH  12  14
ENDBRANCH   6   8
ENDBRANCH   5   6
ENDBRANCH   4   5
ENDBRANCH   3   4
ENDBRANCH   2   3
ENDBRANCH   1   2
BRANCH   1  33
ATOM     33  C   UNL A   1      36.844  23.558  26.067  1.00  0.00     0.188 C 
BRANCH  33  34
ATOM     34  O   UNL A   1      38.233  23.567  25.755  1.00  0.00    -0.377 OA
BRANCH  34  35
ATOM     35  C   UNL A   1      38.992  22.434  26.164  1.00  0.00     0.188 C 
BRANCH  35  36
ATOM     36  C   UNL A   1      40.459  22.685  26.539  1.00  0.00     0.188 C 
BRANCH  36  37
ATOM     37  O   UNL A   1      41.494  21.903  25.954  1.00  0.00    -0.376 OA
BRANCH  37  38
ATOM     38  C   UNL A   1      42.764  22.479  25.685  1.00  0.00     0.202 C 
BRANCH  38  39
ATOM     39  C   UNL A   1      42.960  23.917  26.169  1.00  0.00     0.261 C 
BRANCH  39  40
ATOM     40  O   UNL A   1      43.172  24.847  25.096  1.00  0.00    -0.460 OA
BRANCH  40  41
ATOM     41  C   UNL A   1      44.374  25.463  25.121  1.00  0.00     0.338 C 
ATOM     42  O   UNL A   1      45.410  25.092  24.594  1.00  0.00    -0.246 OA
BRANCH  41  43
ATOM     43  C   UNL A   1      44.286  26.736  25.857  1.00  0.00     0.060 A 
ATOM     44  C   UNL A   1      45.406  27.139  26.593  1.00  0.00     0.016 A 
ATOM     45  C   UNL A   1      43.081  27.438  25.953  1.00  0.00     0.016 A 
ATOM     46  C   UNL A   1      45.306  28.206  27.482  1.00  0.00     0.010 A 
ATOM     47  C   UNL A   1      42.979  28.503  26.853  1.00  0.00     0.010 A 
ATOM     48  C   UNL A   1      44.078  28.860  27.653  1.00  0.00    -0.014 A 
BRANCH  48  49
ATOM     49  C   UNL A   1      43.902  29.790  28.793  1.00  0.00     0.031 A 
ATOM     50  C   UNL A   1      43.711  29.220  30.171  1.00  0.00     0.074 A 
ATOM     51  C   UNL A   1      43.946  31.120  28.610  1.00  0.00     0.049 A 
ATOM     52  N   UNL A   1      43.530  29.841  31.308  1.00  0.00    -0.248 NA
ATOM     53  C   UNL A   1      43.729  27.752  30.281  1.00  0.00     0.031 C 
ATOM     54  C   UNL A   1      44.170  31.787  27.332  1.00  0.00     0.029 A 
ATOM     55  N   UNL A   1      43.797  32.147  29.507  1.00  0.00    -0.354 N 
ATOM     56  C   UNL A   1      43.420  28.843  32.267  1.00  0.00     0.074 A 
ATOM     57  C   UNL A   1      43.522  27.576  31.578  1.00  0.00     0.031 C 
ATOM     58  C   UNL A   1      44.124  33.117  27.519  1.00  0.00     0.029 A 
ATOM     59  C   UNL A   1      43.855  33.391  28.930  1.00  0.00     0.049 A 
ATOM     60  H   UNL A   1      43.663  32.006  30.473  1.00  0.00     0.167 HD
ATOM     61  C   UNL A   1      43.260  28.974  33.605  1.00  0.00     0.037 A 
ATOM     62  C   UNL A   1      43.695  34.609  29.481  1.00  0.00     0.037 A 
ATOM     63  C   UNL A   1      43.158  30.233  34.292  1.00  0.00     0.049 A 
ATOM     64  C   UNL A   1      43.446  34.725  30.962  1.00  0.00     0.074 A 
ATOM     65  C   UNL A   1      43.011  30.469  35.648  1.00  0.00     0.029 A 
ATOM     66  N   UNL A   1      43.184  31.473  33.670  1.00  0.00    -0.354 N 
ATOM     67  N   UNL A   1      43.372  33.778  31.866  1.00  0.00    -0.248 NA
ATOM     68  C   UNL A   1      43.263  36.081  31.500  1.00  0.00     0.031 C 
ATOM     69  C   UNL A   1      42.910  31.851  35.842  1.00  0.00     0.029 A 
ATOM     70  C   UNL A   1      43.032  32.477  34.611  1.00  0.00     0.049 A 
ATOM     71  H   UNL A   1      43.296  31.616  32.702  1.00  0.00     0.167 HD
ATOM     72  C   UNL A   1      43.159  34.421  33.077  1.00  0.00     0.074 A 
ATOM     73  C   UNL A   1      43.124  35.842  32.797  1.00  0.00     0.031 C 
ATOM     74  C   UNL A   1      43.004  33.884  34.313  1.00  0.00     0.037 A 
BRANCH  61  75
ATOM     75  C   UNL A   1      43.172  27.716  34.414  1.00  0.00     0.064 A 
ATOM     76  C   UNL A   1      41.954  27.042  34.587  1.00  0.00     0.173 A 
ATOM     77  C   UNL A   1      44.321  27.163  34.995  1.00  0.00     0.173 A 
ATOM     78  F   UNL A   1      40.825  27.541  34.063  1.00  0.00    -0.203 F 
ATOM     79  C   UNL A   1      41.888  25.866  35.329  1.00  0.00     0.198 A 
ATOM     80  C   UNL A   1      44.255  25.975  35.719  1.00  0.00     0.198 A 
ATOM     81  F   UNL A   1      45.508  27.771  34.856  1.00  0.00    -0.203 F 
ATOM     82  F   UNL A   1      40.708  25.256  35.513  1.00  0.00    -0.200 F 
ATOM     83  C   UNL A   1      43.039  25.331  35.890  1.00  0.00     0.200 A 
ATOM     84  F   UNL A   1      45.369  25.455  36.253  1.00  0.00    -0.200 F 
ATOM     85  F   UNL A   1      42.975  24.196  36.601  1.00  0.00    -0.200 F 
ENDBRANCH  61  75
BRANCH  62  86
ATOM     86  C   UNL A   1      43.756  35.821  28.627  1.00  0.00     0.064 A 
ATOM     87  C   UNL A   1      42.596  36.366  28.061  1.00  0.00     0.173 A 
ATOM     88  C   UNL A   1      44.978  36.448  28.346  1.00  0.00     0.173 A 
ATOM     89  F   UNL A   1      41.407  35.785  28.282  1.00  0.00    -0.203 F 
ATOM     90  C   UNL A   1      42.659  37.483  27.230  1.00  0.00     0.198 A 
ATOM     91  C   UNL A   1      45.037  37.578  27.534  1.00  0.00     0.198 A 
ATOM     92  F   UNL A   1      46.117  35.962  28.863  1.00  0.00    -0.203 F 
ATOM     93  F   UNL A   1      41.540  37.960  26.667  1.00  0.00    -0.200 F 
ATOM     94  C   UNL A   1      43.878  38.090  26.972  1.00  0.00     0.200 A 
ATOM     95  F   UNL A   1      46.217  38.166  27.293  1.00  0.00    -0.200 F 
ATOM     96  F   UNL A   1      43.937  39.164  26.173  1.00  0.00    -0.200 F 
ENDBRANCH  62  86
BRANCH  74  97
ATOM     97  C   UNL A   1      42.806  34.835  35.456  1.00  0.00     0.064 A 
ATOM     98  C   UNL A   1      43.896  35.378  36.150  1.00  0.00     0.173 A 
ATOM     99  C   UNL A   1      41.516  35.240  35.827  1.00  0.00     0.173 A 
ATOM    100  F   UNL A   1      45.146  35.007  35.841  1.00  0.00    -0.203 F 
ATOM    101  C   UNL A   1      43.699  36.283  37.190  1.00  0.00     0.198 A 
ATOM    102  C   UNL A   1      41.325  36.163  36.852  1.00  0.00     0.198 A 
ATOM    103  F   UNL A   1      40.443  34.753  35.188  1.00  0.00    -0.203 F 
ATOM    104  F   UNL A   1      44.752  36.763  37.866  1.00  0.00    -0.200 F 
ATOM    105  C   UNL A   1      42.416  36.680  37.535  1.00  0.00     0.200 A 
ATOM    106  F   UNL A   1      40.085  36.554  37.177  1.00  0.00    -0.200 F 
ATOM    107  F   UNL A   1      42.230  37.556  38.532  1.00  0.00    -0.200 F 
ENDBRANCH  74  97
ENDBRANCH  48  49
ENDBRANCH  41  43
ENDBRANCH  40  41
ENDBRANCH  39  40
ENDBRANCH  38  39
ENDBRANCH  37  38
ENDBRANCH  36  37
ENDBRANCH  35  36
ENDBRANCH  34  35
ENDBRANCH  33  34
ENDBRANCH   1  33
TORSDOF 25
ENDMDL
MODEL 3
REMARK VINA RESULT:      -9.1      3.947      6.080
REMARK SMILES Cn1ncc(C(=O)OCCOCCOCCOCCOC(=O)c2ccc(-c3c4nc(c(-c5c(F)c(F)c(F)c(F)c5F)c5ccc([nH]5)c(-c5c(F)c(F)c(F)c(F)c5F)c5nc(c(-c6c(F)c(F)c(F)c(F)c6F)c6ccc3[nH]6)C=C5)C=C4)cc2)c1C(=O)NCC1CC[NH+](Cc2ccccc2)CC1
REMARK SMILES IDX 12 1 11 2 10 3 9 4 8 5 6 6 7 7 5 8 1 9 2 10 3 11 86 12 4 13
REMARK SMILES IDX 87 14 88 15 89 16 90 18 91 19 92 20 103 21 93 22 102 23
REMARK SMILES IDX 94 24 95 26 96 27 97 28 101 29 98 30 100 31 99 32 13 33
REMARK SMILES IDX 14 34 15 35 16 36 17 37 18 38 19 39 20 40 21 41 22 42 23 43
REMARK SMILES IDX 24 44 85 45 25 46 84 47 26 48 27 49 28 50 78 51 29 52 83 53
REMARK SMILES IDX 77 54 79 55 30 56 82 57 76 58 75 59 31 61 63 62 43 63 62 64
REMARK SMILES IDX 44 65 47 66 61 67 80 68 45 69 46 70 60 72 81 73 48 74 32 75
REMARK SMILES IDX 33 76 41 77 34 78 35 79 39 80 42 81 36 82 37 83 40 84 38 85
REMARK SMILES IDX 64 86 65 87 73 88 66 89 67 90 71 91 74 92 68 93 69 94 72 95
REMARK SMILES IDX 70 96 49 97 50 98 58 99 51 100 52 101 56 102 59 103 53 104
REMARK SMILES IDX 54 105 57 106 55 107
REMARK H PARENT 89 17 94 25 79 60 47 71
REMARK Flexibility Score: inf
ROOT
ATOM      1  C   UNL A   1      40.537  27.335  27.026  1.00  0.00     0.188 C 
ENDROOT
BRANCH   1   2
ATOM      2  O   UNL A   1      39.593  26.474  27.664  1.00  0.00    -0.376 OA
BRANCH   2   3
ATOM      3  C   UNL A   1      39.640  25.098  27.275  1.00  0.00     0.202 C 
BRANCH   3   4
ATOM      4  C   UNL A   1      38.269  24.411  27.251  1.00  0.00     0.261 C 
BRANCH   4   5
ATOM      5  O   UNL A   1      38.121  23.687  26.013  1.00  0.00    -0.460 OA
BRANCH   5   6
ATOM      6  C   UNL A   1      36.845  23.373  25.658  1.00  0.00     0.342 C 
ATOM      7  O   UNL A   1      35.980  24.196  25.376  1.00  0.00    -0.246 OA
BRANCH   6   8
ATOM      8  C   UNL A   1      36.693  21.965  25.365  1.00  0.00     0.111 A 
ATOM      9  C   UNL A   1      35.316  18.711  24.702  1.00  0.00     0.174 C 
ATOM     10  N   UNL A   1      36.063  19.900  25.027  1.00  0.00    -0.262 N 
ATOM     11  N   UNL A   1      37.384  19.879  24.771  1.00  0.00    -0.180 NA
ATOM     12  C   UNL A   1      35.587  21.119  25.466  1.00  0.00     0.140 A 
ATOM     13  C   UNL A   1      37.753  21.144  24.931  1.00  0.00     0.151 A 
BRANCH  12  14
ATOM     14  C   UNL A   1      34.227  21.448  25.840  1.00  0.00     0.270 C 
ATOM     15  O   UNL A   1      33.738  21.154  26.926  1.00  0.00    -0.268 OA
ATOM     16  N   UNL A   1      33.442  22.031  24.860  1.00  0.00    -0.350 N 
ATOM     17  H   UNL A   1      33.239  21.526  24.039  1.00  0.00     0.163 HD
BRANCH  16  18
ATOM     18  C   UNL A   1      32.911  23.379  25.019  1.00  0.00     0.120 C 
BRANCH  18  19
ATOM     19  C   UNL A   1      31.366  23.564  24.965  1.00  0.00     0.019 C 
ATOM     20  C   UNL A   1      30.809  23.854  23.567  1.00  0.00     0.067 C 
ATOM     21  C   UNL A   1      30.755  24.598  25.915  1.00  0.00     0.067 C 
ATOM     22  C   UNL A   1      31.051  25.292  23.123  1.00  0.00     0.262 C 
ATOM     23  C   UNL A   1      31.027  26.041  25.484  1.00  0.00     0.262 C 
ATOM     24  N   UNL A   1      30.638  26.311  24.097  1.00  0.00    -0.331 N 
ATOM     25  H   UNL A   1      29.620  26.248  24.106  1.00  0.00     0.348 HD
BRANCH  24  26
ATOM     26  C   UNL A   1      30.994  27.687  23.667  1.00  0.00     0.299 C 
BRANCH  26  27
ATOM     27  C   UNL A   1      29.875  28.428  22.958  1.00  0.00     0.006 A 
ATOM     28  C   UNL A   1      28.540  28.134  23.242  1.00  0.00     0.009 A 
ATOM     29  C   UNL A   1      30.168  29.540  22.148  1.00  0.00     0.009 A 
ATOM     30  C   UNL A   1      27.535  29.009  22.843  1.00  0.00     0.001 A 
ATOM     31  C   UNL A   1      29.154  30.405  21.741  1.00  0.00     0.001 A 
ATOM     32  C   UNL A   1      27.840  30.153  22.112  1.00  0.00     0.000 A 
ENDBRANCH  26  27
ENDBRANCH  24  26
ENDBRANCH  18  19
ENDBRANCH  16  18
ENDBRANCH  12  14
ENDBRANCH   6   8
ENDBRANCH   5   6
ENDBRANCH   4   5
ENDBRANCH   3   4
ENDBRANCH   2   3
ENDBRANCH   1   2
BRANCH   1  33
ATOM     33  C   UNL A   1      40.140  28.807  27.132  1.00  0.00     0.188 C 
BRANCH  33  34
ATOM     34  O   UNL A   1      39.101  28.992  28.088  1.00  0.00    -0.377 OA
BRANCH  34  35
ATOM     35  C   UNL A   1      37.941  29.695  27.650  1.00  0.00     0.188 C 
BRANCH  35  36
ATOM     36  C   UNL A   1      37.216  30.549  28.698  1.00  0.00     0.188 C 
BRANCH  36  37
ATOM     37  O   UNL A   1      36.264  29.957  29.574  1.00  0.00    -0.376 OA
BRANCH  37  38
ATOM     38  C   UNL A   1      36.616  29.647  30.915  1.00  0.00     0.202 C 
BRANCH  38  39
ATOM     39  C   UNL A   1      36.516  30.801  31.914  1.00  0.00     0.261 C 
BRANCH  39  40
ATOM     40  O   UNL A   1      37.758  31.500  32.091  1.00  0.00    -0.460 OA
BRANCH  40  41
ATOM     41  C   UNL A   1      38.668  30.839  32.840  1.00  0.00     0.338 C 
ATOM     42  O   UNL A   1      38.465  30.176  33.842  1.00  0.00    -0.246 OA
BRANCH  41  43
ATOM     43  C   UNL A   1      40.013  30.973  32.253  1.00  0.00     0.060 A 
ATOM     44  C   UNL A   1      41.012  31.552  33.043  1.00  0.00     0.016 A 
ATOM     45  C   UNL A   1      40.250  30.685  30.905  1.00  0.00     0.016 A 
ATOM     46  C   UNL A   1      42.231  31.909  32.473  1.00  0.00     0.010 A 
ATOM     47  C   UNL A   1      41.470  31.052  30.330  1.00  0.00     0.010 A 
ATOM     48  C   UNL A   1      42.445  31.707  31.102  1.00  0.00    -0.014 A 
BRANCH  48  49
ATOM     49  C   UNL A   1      43.612  32.344  30.448  1.00  0.00     0.031 A 
ATOM     50  C   UNL A   1      43.467  33.736  29.901  1.00  0.00     0.074 A 
ATOM     51  C   UNL A   1      44.793  31.706  30.372  1.00  0.00     0.049 A 
ATOM     52  N   UNL A   1      44.347  34.482  29.284  1.00  0.00    -0.248 NA
ATOM     53  C   UNL A   1      42.153  34.376  30.077  1.00  0.00     0.031 C 
ATOM     54  C   UNL A   1      45.066  30.376  30.905  1.00  0.00     0.029 A 
ATOM     55  N   UNL A   1      45.980  32.097  29.809  1.00  0.00    -0.354 N 
ATOM     56  C   UNL A   1      43.698  35.677  29.004  1.00  0.00     0.074 A 
ATOM     57  C   UNL A   1      42.341  35.548  29.489  1.00  0.00     0.031 C 
ATOM     58  C   UNL A   1      46.338  30.046  30.626  1.00  0.00     0.029 A 
ATOM     59  C   UNL A   1      46.962  31.141  29.884  1.00  0.00     0.049 A 
ATOM     60  H   UNL A   1      46.116  32.978  29.391  1.00  0.00     0.167 HD
ATOM     61  C   UNL A   1      44.194  36.786  28.408  1.00  0.00     0.037 A 
ATOM     62  C   UNL A   1      48.217  31.149  29.396  1.00  0.00     0.037 A 
ATOM     63  C   UNL A   1      45.542  36.915  27.924  1.00  0.00     0.049 A 
ATOM     64  C   UNL A   1      48.722  32.369  28.671  1.00  0.00     0.074 A 
ATOM     65  C   UNL A   1      46.142  38.006  27.320  1.00  0.00     0.029 A 
ATOM     66  N   UNL A   1      46.498  35.913  27.985  1.00  0.00    -0.354 N 
ATOM     67  N   UNL A   1      48.111  33.504  28.436  1.00  0.00    -0.248 NA
ATOM     68  C   UNL A   1      50.095  32.309  28.148  1.00  0.00     0.031 C 
ATOM     69  C   UNL A   1      47.452  37.649  26.981  1.00  0.00     0.029 A 
ATOM     70  C   UNL A   1      47.678  36.350  27.407  1.00  0.00     0.049 A 
ATOM     71  H   UNL A   1      46.358  35.023  28.382  1.00  0.00     0.167 HD
ATOM     72  C   UNL A   1      49.027  34.300  27.762  1.00  0.00     0.074 A 
ATOM     73  C   UNL A   1      50.242  33.522  27.632  1.00  0.00     0.031 C 
ATOM     74  C   UNL A   1      48.877  35.562  27.291  1.00  0.00     0.037 A 
BRANCH  61  75
ATOM     75  C   UNL A   1      43.263  37.947  28.231  1.00  0.00     0.064 A 
ATOM     76  C   UNL A   1      43.206  38.988  29.168  1.00  0.00     0.173 A 
ATOM     77  C   UNL A   1      42.443  38.033  27.097  1.00  0.00     0.173 A 
ATOM     78  F   UNL A   1      43.960  38.942  30.276  1.00  0.00    -0.203 F 
ATOM     79  C   UNL A   1      42.347  40.068  28.985  1.00  0.00     0.198 A 
ATOM     80  C   UNL A   1      41.600  39.125  26.906  1.00  0.00     0.198 A 
ATOM     81  F   UNL A   1      42.463  37.062  26.172  1.00  0.00    -0.203 F 
ATOM     82  F   UNL A   1      42.280  41.036  29.910  1.00  0.00    -0.200 F 
ATOM     83  C   UNL A   1      41.549  40.138  27.852  1.00  0.00     0.200 A 
ATOM     84  F   UNL A   1      40.836  39.195  25.807  1.00  0.00    -0.200 F 
ATOM     85  F   UNL A   1      40.725  41.181  27.673  1.00  0.00    -0.200 F 
ENDBRANCH  61  75
BRANCH  62  86
ATOM     86  C   UNL A   1      49.085  29.957  29.568  1.00  0.00     0.064 A 
ATOM     87  C   UNL A   1      49.882  29.802  30.710  1.00  0.00     0.173 A 
ATOM     88  C   UNL A   1      49.150  28.960  28.584  1.00  0.00     0.173 A 
ATOM     89  F   UNL A   1      49.871  30.743  31.666  1.00  0.00    -0.203 F 
ATOM     90  C   UNL A   1      50.723  28.701  30.855  1.00  0.00     0.198 A 
ATOM     91  C   UNL A   1      49.974  27.848  28.740  1.00  0.00     0.198 A 
ATOM     92  F   UNL A   1      48.408  29.065  27.471  1.00  0.00    -0.203 F 
ATOM     93  F   UNL A   1      51.505  28.596  31.938  1.00  0.00    -0.200 F 
ATOM     94  C   UNL A   1      50.765  27.724  29.872  1.00  0.00     0.200 A 
ATOM     95  F   UNL A   1      50.006  26.902  27.791  1.00  0.00    -0.200 F 
ATOM     96  F   UNL A   1      51.575  26.665  30.012  1.00  0.00    -0.200 F 
ENDBRANCH  62  86
BRANCH  74  97
ATOM     97  C   UNL A   1      50.058  36.189  26.612  1.00  0.00     0.064 A 
ATOM     98  C   UNL A   1      50.307  35.988  25.248  1.00  0.00     0.173 A 
ATOM     99  C   UNL A   1      50.921  37.035  27.325  1.00  0.00     0.173 A 
ATOM    100  F   UNL A   1      49.519  35.175  24.530  1.00  0.00    -0.203 F 
ATOM    101  C   UNL A   1      51.390  36.600  24.623  1.00  0.00     0.198 A 
ATOM    102  C   UNL A   1      51.989  37.663  26.690  1.00  0.00     0.198 A 
ATOM    103  F   UNL A   1      50.720  37.263  28.631  1.00  0.00    -0.203 F 
ATOM    104  F   UNL A   1      51.632  36.366  23.325  1.00  0.00    -0.200 F 
ATOM    105  C   UNL A   1      52.226  37.442  25.342  1.00  0.00     0.200 A 
ATOM    106  F   UNL A   1      52.789  38.484  27.384  1.00  0.00    -0.200 F 
ATOM    107  F   UNL A   1      53.264  38.035  24.736  1.00  0.00    -0.200 F 
ENDBRANCH  74  97
ENDBRANCH  48  49
ENDBRANCH  41  43
ENDBRANCH  40  41
ENDBRANCH  39  40
ENDBRANCH  38  39
ENDBRANCH  37  38
ENDBRANCH  36  37
ENDBRANCH  35  36
ENDBRANCH  34  35
ENDBRANCH  33  34
ENDBRANCH   1  33
TORSDOF 25
ENDMDL
