MODEL 1
REMARK VINA RESULT:     -10.1      0.000      0.000
REMARK SMILES C[C@@H]1CCC[C@](CCSc2ccccc2)(C(=O)OCCOCCOCCOCCOC(=O)c2ccc(-c3c4nc(c(-c5c(F)c(F)c(F)c(F)c5F)c5ccc([nH]5)c(-c5c(F)c(F)c(F)c(F)c5F)c5nc(c(-c6c(F)c(F)c(F)c(F)c6F)c6ccc3[nH]6)C=C5)C=C4)cc2)C1
REMARK SMILES IDX 23 1 22 2 21 3 20 4 19 5 18 6 16 7 17 8 6 9 1 10 2 11 3 12
REMARK SMILES IDX 96 13 4 14 5 15 7 16 8 17 9 18 10 19 11 20 15 21 12 22 14 23
REMARK SMILES IDX 13 24 24 25 25 26 26 27 27 28 28 29 29 30 30 31 31 32 32 33
REMARK SMILES IDX 33 34 34 35 95 36 35 37 94 38 36 39 37 40 38 41 88 42 39 43
REMARK SMILES IDX 93 44 87 45 89 46 40 47 92 48 86 49 85 50 41 52 73 53 53 54
REMARK SMILES IDX 72 55 54 56 57 57 71 58 90 59 55 60 56 61 70 63 91 64 58 65
REMARK SMILES IDX 42 66 43 67 51 68 44 69 45 70 49 71 52 72 46 73 47 74 50 75
REMARK SMILES IDX 48 76 74 77 75 78 83 79 76 80 77 81 81 82 84 83 78 84 79 85
REMARK SMILES IDX 82 86 80 87 59 88 60 89 68 90 61 91 62 92 66 93 69 94 63 95
REMARK SMILES IDX 64 96 67 97 65 98
REMARK H PARENT 89 51 57 62
REMARK Flexibility Score: inf
ROOT
ATOM      1  C   UNL A   1      31.903  29.533  26.925  1.00  0.00     0.188 C 
ENDROOT
BRANCH   1   2
ATOM      2  C   UNL A   1      32.456  28.113  27.116  1.00  0.00     0.188 C 
BRANCH   2   3
ATOM      3  O   UNL A   1      32.100  27.152  26.132  1.00  0.00    -0.376 OA
BRANCH   3   4
ATOM      4  C   UNL A   1      30.743  26.746  26.062  1.00  0.00     0.202 C 
BRANCH   4   5
ATOM      5  C   UNL A   1      30.478  25.307  25.584  1.00  0.00     0.261 C 
BRANCH   5   6
ATOM      6  O   UNL A   1      31.671  24.584  25.212  1.00  0.00    -0.463 OA
BRANCH   6   7
ATOM      7  C   UNL A   1      31.667  24.234  23.915  1.00  0.00     0.312 C 
ATOM      8  O   UNL A   1      30.840  23.442  23.496  1.00  0.00    -0.252 OA
BRANCH   7   9
ATOM      9  C   UNL A   1      32.749  24.770  23.002  1.00  0.00     0.069 C 
ATOM     10  C   UNL A   1      33.318  21.790  24.267  1.00  0.00     0.007 C 
ATOM     11  C   UNL A   1      34.200  22.630  23.332  1.00  0.00    -0.013 C 
ATOM     12  C   UNL A   1      35.232  23.435  24.132  1.00  0.00     0.003 C 
ATOM     13  C   UNL A   1      33.413  23.532  22.348  1.00  0.00     0.022 C 
ATOM     14  C   UNL A   1      34.684  24.727  24.729  1.00  0.00     0.001 C 
ATOM     15  C   UNL A   1      33.895  25.551  23.709  1.00  0.00     0.019 C 
BRANCH   9  16
ATOM     16  C   UNL A   1      32.065  25.705  21.928  1.00  0.00     0.030 C 
BRANCH  16  17
ATOM     17  C   UNL A   1      31.014  26.791  22.301  1.00  0.00     0.076 C 
BRANCH  17  18
ATOM     18  S   UNL A   1      31.491  28.527  22.764  1.00  0.00    -0.126 SA
BRANCH  18  19
ATOM     19  C   UNL A   1      29.952  29.290  23.309  1.00  0.00     0.007 A 
ATOM     20  C   UNL A   1      28.743  28.766  22.817  1.00  0.00     0.015 A 
ATOM     21  C   UNL A   1      29.925  30.508  23.993  1.00  0.00     0.015 A 
ATOM     22  C   UNL A   1      27.583  29.552  22.811  1.00  0.00     0.001 A 
ATOM     23  C   UNL A   1      28.766  31.291  23.989  1.00  0.00     0.001 A 
ATOM     24  C   UNL A   1      27.610  30.834  23.357  1.00  0.00     0.000 A 
ENDBRANCH  18  19
ENDBRANCH  17  18
ENDBRANCH  16  17
ENDBRANCH   9  16
ENDBRANCH   7   9
ENDBRANCH   6   7
ENDBRANCH   5   6
ENDBRANCH   4   5
ENDBRANCH   3   4
ENDBRANCH   2   3
ENDBRANCH   1   2
BRANCH   1  25
ATOM     25  O   UNL A   1      32.658  30.711  27.130  1.00  0.00    -0.377 OA
BRANCH  25  26
ATOM     26  C   UNL A   1      34.043  30.602  27.363  1.00  0.00     0.188 C 
BRANCH  26  27
ATOM     27  C   UNL A   1      34.712  31.825  27.996  1.00  0.00     0.188 C 
BRANCH  27  28
ATOM     28  O   UNL A   1      33.896  32.862  28.492  1.00  0.00    -0.376 OA
BRANCH  28  29
ATOM     29  C   UNL A   1      34.334  33.705  29.539  1.00  0.00     0.202 C 
BRANCH  29  30
ATOM     30  C   UNL A   1      34.404  33.335  31.039  1.00  0.00     0.261 C 
BRANCH  30  31
ATOM     31  O   UNL A   1      34.996  32.099  31.455  1.00  0.00    -0.460 OA
BRANCH  31  32
ATOM     32  C   UNL A   1      35.869  32.139  32.486  1.00  0.00     0.338 C 
ATOM     33  O   UNL A   1      35.602  32.188  33.672  1.00  0.00    -0.246 OA
BRANCH  32  34
ATOM     34  C   UNL A   1      37.237  31.920  31.947  1.00  0.00     0.060 A 
ATOM     35  C   UNL A   1      37.504  32.239  30.607  1.00  0.00     0.016 A 
ATOM     36  C   UNL A   1      38.248  31.392  32.753  1.00  0.00     0.016 A 
ATOM     37  C   UNL A   1      38.760  31.988  30.054  1.00  0.00     0.010 A 
ATOM     38  C   UNL A   1      39.496  31.100  32.187  1.00  0.00     0.010 A 
ATOM     39  C   UNL A   1      39.740  31.353  30.825  1.00  0.00    -0.014 A 
BRANCH  39  40
ATOM     40  C   UNL A   1      40.887  30.703  30.141  1.00  0.00     0.031 A 
ATOM     41  C   UNL A   1      42.129  31.530  29.929  1.00  0.00     0.074 A 
ATOM     42  C   UNL A   1      40.859  29.416  29.755  1.00  0.00     0.049 A 
ATOM     43  N   UNL A   1      43.230  31.237  29.286  1.00  0.00    -0.248 NA
ATOM     44  C   UNL A   1      42.124  32.876  30.529  1.00  0.00     0.031 C 
ATOM     45  C   UNL A   1      39.750  28.490  29.967  1.00  0.00     0.029 A 
ATOM     46  N   UNL A   1      41.799  28.669  29.086  1.00  0.00    -0.354 N 
ATOM     47  C   UNL A   1      44.038  32.362  29.395  1.00  0.00     0.074 A 
ATOM     48  C   UNL A   1      43.295  33.353  30.139  1.00  0.00     0.031 C 
ATOM     49  C   UNL A   1      40.065  27.302  29.418  1.00  0.00     0.029 A 
ATOM     50  C   UNL A   1      41.377  27.398  28.781  1.00  0.00     0.049 A 
ATOM     51  H   UNL A   1      42.690  29.014  28.848  1.00  0.00     0.167 HD
ATOM     52  C   UNL A   1      45.292  32.549  28.924  1.00  0.00     0.037 A 
ATOM     53  C   UNL A   1      41.974  26.440  28.043  1.00  0.00     0.037 A 
ATOM     54  C   UNL A   1      46.032  31.562  28.184  1.00  0.00     0.049 A 
ATOM     55  C   UNL A   1      43.335  26.711  27.442  1.00  0.00     0.074 A 
ATOM     56  C   UNL A   1      47.306  31.655  27.656  1.00  0.00     0.029 A 
ATOM     57  N   UNL A   1      45.555  30.298  27.866  1.00  0.00    -0.354 N 
ATOM     58  N   UNL A   1      44.095  27.775  27.549  1.00  0.00    -0.248 NA
ATOM     59  C   UNL A   1      43.920  25.643  26.616  1.00  0.00     0.031 C 
ATOM     60  C   UNL A   1      47.582  30.469  26.970  1.00  0.00     0.029 A 
ATOM     61  C   UNL A   1      46.505  29.611  27.128  1.00  0.00     0.049 A 
ATOM     62  H   UNL A   1      44.675  29.944  28.125  1.00  0.00     0.167 HD
ATOM     63  C   UNL A   1      45.258  27.488  26.842  1.00  0.00     0.074 A 
ATOM     64  C   UNL A   1      45.110  26.146  26.322  1.00  0.00     0.031 C 
ATOM     65  C   UNL A   1      46.350  28.265  26.639  1.00  0.00     0.037 A 
BRANCH  52  66
ATOM     66  C   UNL A   1      45.939  33.881  29.169  1.00  0.00     0.064 A 
ATOM     67  C   UNL A   1      45.790  34.951  28.273  1.00  0.00     0.173 A 
ATOM     68  C   UNL A   1      46.676  34.105  30.342  1.00  0.00     0.173 A 
ATOM     69  F   UNL A   1      45.111  34.783  27.128  1.00  0.00    -0.203 F 
ATOM     70  C   UNL A   1      46.368  36.190  28.535  1.00  0.00     0.198 A 
ATOM     71  C   UNL A   1      47.226  35.354  30.616  1.00  0.00     0.198 A 
ATOM     72  F   UNL A   1      46.849  33.117  31.231  1.00  0.00    -0.203 F 
ATOM     73  F   UNL A   1      46.246  37.186  27.647  1.00  0.00    -0.200 F 
ATOM     74  C   UNL A   1      47.075  36.394  29.711  1.00  0.00     0.200 A 
ATOM     75  F   UNL A   1      47.896  35.552  31.759  1.00  0.00    -0.200 F 
ATOM     76  F   UNL A   1      47.615  37.593  29.970  1.00  0.00    -0.200 F 
ENDBRANCH  52  66
BRANCH  53  77
ATOM     77  C   UNL A   1      41.289  25.143  27.787  1.00  0.00     0.064 A 
ATOM     78  C   UNL A   1      41.774  23.944  28.330  1.00  0.00     0.173 A 
ATOM     79  C   UNL A   1      40.173  25.065  26.940  1.00  0.00     0.173 A 
ATOM     80  F   UNL A   1      42.856  23.958  29.124  1.00  0.00    -0.203 F 
ATOM     81  C   UNL A   1      41.194  22.718  28.007  1.00  0.00     0.198 A 
ATOM     82  C   UNL A   1      39.571  23.842  26.647  1.00  0.00     0.198 A 
ATOM     83  F   UNL A   1      39.668  26.178  26.388  1.00  0.00    -0.203 F 
ATOM     84  F   UNL A   1      41.725  21.582  28.483  1.00  0.00    -0.200 F 
ATOM     85  C   UNL A   1      40.091  22.668  27.169  1.00  0.00     0.200 A 
ATOM     86  F   UNL A   1      38.497  23.801  25.847  1.00  0.00    -0.200 F 
ATOM     87  F   UNL A   1      39.539  21.489  26.853  1.00  0.00    -0.200 F 
ENDBRANCH  53  77
BRANCH  65  88
ATOM     88  C   UNL A   1      47.500  27.668  25.876  1.00  0.00     0.064 A 
ATOM     89  C   UNL A   1      47.581  27.742  24.478  1.00  0.00     0.173 A 
ATOM     90  C   UNL A   1      48.559  27.052  26.562  1.00  0.00     0.173 A 
ATOM     91  F   UNL A   1      46.591  28.311  23.773  1.00  0.00    -0.203 F 
ATOM     92  C   UNL A   1      48.664  27.195  23.794  1.00  0.00     0.198 A 
ATOM     93  C   UNL A   1      49.657  26.538  25.878  1.00  0.00     0.198 A 
ATOM     94  F   UNL A   1      48.537  26.963  27.901  1.00  0.00    -0.203 F 
ATOM     95  F   UNL A   1      48.693  27.229  22.454  1.00  0.00    -0.200 F 
ATOM     96  C   UNL A   1      49.704  26.601  24.493  1.00  0.00     0.200 A 
ATOM     97  F   UNL A   1      50.669  25.983  26.557  1.00  0.00    -0.200 F 
ATOM     98  F   UNL A   1      50.748  26.083  23.834  1.00  0.00    -0.200 F 
ENDBRANCH  65  88
ENDBRANCH  39  40
ENDBRANCH  32  34
ENDBRANCH  31  32
ENDBRANCH  30  31
ENDBRANCH  29  30
ENDBRANCH  28  29
ENDBRANCH  27  28
ENDBRANCH  26  27
ENDBRANCH  25  26
ENDBRANCH   1  25
TORSDOF 24
ENDMDL
MODEL 2
REMARK VINA RESULT:      -9.9      2.987      8.118
REMARK SMILES C[C@@H]1CCC[C@](CCSc2ccccc2)(C(=O)OCCOCCOCCOCCOC(=O)c2ccc(-c3c4nc(c(-c5c(F)c(F)c(F)c(F)c5F)c5ccc([nH]5)c(-c5c(F)c(F)c(F)c(F)c5F)c5nc(c(-c6c(F)c(F)c(F)c(F)c6F)c6ccc3[nH]6)C=C5)C=C4)cc2)C1
REMARK SMILES IDX 23 1 22 2 21 3 20 4 19 5 18 6 16 7 17 8 6 9 1 10 2 11 3 12
REMARK SMILES IDX 96 13 4 14 5 15 7 16 8 17 9 18 10 19 11 20 15 21 12 22 14 23
REMARK SMILES IDX 13 24 24 25 25 26 26 27 27 28 28 29 29 30 30 31 31 32 32 33
REMARK SMILES IDX 33 34 34 35 95 36 35 37 94 38 36 39 37 40 38 41 88 42 39 43
REMARK SMILES IDX 93 44 87 45 89 46 40 47 92 48 86 49 85 50 41 52 73 53 53 54
REMARK SMILES IDX 72 55 54 56 57 57 71 58 90 59 55 60 56 61 70 63 91 64 58 65
REMARK SMILES IDX 42 66 43 67 51 68 44 69 45 70 49 71 52 72 46 73 47 74 50 75
REMARK SMILES IDX 48 76 74 77 75 78 83 79 76 80 77 81 81 82 84 83 78 84 79 85
REMARK SMILES IDX 82 86 80 87 59 88 60 89 68 90 61 91 62 92 66 93 69 94 63 95
REMARK SMILES IDX 64 96 67 97 65 98
REMARK H PARENT 89 51 57 62
REMARK Flexibility Score: inf
ROOT
ATOM      1  C   UNL A   1      34.481  22.678  27.578  1.00  0.00     0.188 C 
ENDROOT
BRANCH   1   2
ATOM      2  C   UNL A   1      33.007  22.250  27.513  1.00  0.00     0.188 C 
BRANCH   2   3
ATOM      3  O   UNL A   1      32.212  22.854  26.503  1.00  0.00    -0.376 OA
BRANCH   3   4
ATOM      4  C   UNL A   1      30.931  23.341  26.870  1.00  0.00     0.202 C 
BRANCH   4   5
ATOM      5  C   UNL A   1      30.279  24.356  25.913  1.00  0.00     0.261 C 
BRANCH   5   6
ATOM      6  O   UNL A   1      31.224  25.201  25.222  1.00  0.00    -0.463 OA
BRANCH   6   7
ATOM      7  C   UNL A   1      30.929  25.329  23.917  1.00  0.00     0.312 C 
ATOM      8  O   UNL A   1      29.939  24.787  23.456  1.00  0.00    -0.252 OA
BRANCH   7   9
ATOM      9  C   UNL A   1      31.883  26.082  23.015  1.00  0.00     0.069 C 
ATOM     10  C   UNL A   1      32.411  22.846  23.238  1.00  0.00     0.007 C 
ATOM     11  C   UNL A   1      33.189  23.902  22.440  1.00  0.00    -0.013 C 
ATOM     12  C   UNL A   1      34.403  24.402  23.234  1.00  0.00     0.003 C 
ATOM     13  C   UNL A   1      32.325  25.078  21.921  1.00  0.00     0.022 C 
ATOM     14  C   UNL A   1      34.070  25.471  24.268  1.00  0.00     0.001 C 
ATOM     15  C   UNL A   1      33.190  26.584  23.694  1.00  0.00     0.019 C 
BRANCH   9  16
ATOM     16  C   UNL A   1      31.107  27.315  22.402  1.00  0.00     0.030 C 
BRANCH  16  17
ATOM     17  C   UNL A   1      31.456  28.791  22.751  1.00  0.00     0.076 C 
BRANCH  17  18
ATOM     18  S   UNL A   1      30.655  29.701  24.160  1.00  0.00    -0.126 SA
BRANCH  18  19
ATOM     19  C   UNL A   1      31.712  29.361  25.579  1.00  0.00     0.007 A 
ATOM     20  C   UNL A   1      32.997  29.933  25.601  1.00  0.00     0.015 A 
ATOM     21  C   UNL A   1      31.403  28.375  26.520  1.00  0.00     0.015 A 
ATOM     22  C   UNL A   1      34.008  29.370  26.390  1.00  0.00     0.001 A 
ATOM     23  C   UNL A   1      32.412  27.815  27.310  1.00  0.00     0.001 A 
ATOM     24  C   UNL A   1      33.723  28.281  27.211  1.00  0.00     0.000 A 
ENDBRANCH  18  19
ENDBRANCH  17  18
ENDBRANCH  16  17
ENDBRANCH   9  16
ENDBRANCH   7   9
ENDBRANCH   6   7
ENDBRANCH   5   6
ENDBRANCH   4   5
ENDBRANCH   3   4
ENDBRANCH   2   3
ENDBRANCH   1   2
BRANCH   1  25
ATOM     25  O   UNL A   1      35.183  23.267  26.500  1.00  0.00    -0.377 OA
BRANCH  25  26
ATOM     26  C   UNL A   1      36.330  22.622  26.000  1.00  0.00     0.188 C 
BRANCH  26  27
ATOM     27  C   UNL A   1      36.077  21.380  25.140  1.00  0.00     0.188 C 
BRANCH  27  28
ATOM     28  O   UNL A   1      37.184  20.679  24.621  1.00  0.00    -0.376 OA
BRANCH  28  29
ATOM     29  C   UNL A   1      37.809  19.644  25.355  1.00  0.00     0.202 C 
BRANCH  29  30
ATOM     30  C   UNL A   1      39.308  19.265  25.303  1.00  0.00     0.261 C 
BRANCH  30  31
ATOM     31  O   UNL A   1      40.178  19.591  26.392  1.00  0.00    -0.460 OA
BRANCH  31  32
ATOM     32  C   UNL A   1      41.506  19.436  26.199  1.00  0.00     0.338 C 
ATOM     33  O   UNL A   1      42.075  18.455  25.759  1.00  0.00    -0.246 OA
BRANCH  32  34
ATOM     34  C   UNL A   1      42.168  20.746  26.435  1.00  0.00     0.060 A 
ATOM     35  C   UNL A   1      42.279  21.229  27.748  1.00  0.00     0.016 A 
ATOM     36  C   UNL A   1      42.665  21.500  25.370  1.00  0.00     0.016 A 
ATOM     37  C   UNL A   1      42.839  22.483  27.997  1.00  0.00     0.010 A 
ATOM     38  C   UNL A   1      43.188  22.776  25.616  1.00  0.00     0.010 A 
ATOM     39  C   UNL A   1      43.232  23.290  26.925  1.00  0.00    -0.014 A 
BRANCH  39  40
ATOM     40  C   UNL A   1      43.410  24.748  27.146  1.00  0.00     0.031 A 
ATOM     41  C   UNL A   1      44.753  25.343  26.807  1.00  0.00     0.074 A 
ATOM     42  C   UNL A   1      42.416  25.535  27.590  1.00  0.00     0.049 A 
ATOM     43  N   UNL A   1      45.198  26.560  26.987  1.00  0.00    -0.248 NA
ATOM     44  C   UNL A   1      45.726  24.435  26.176  1.00  0.00     0.031 C 
ATOM     45  C   UNL A   1      41.053  25.099  27.882  1.00  0.00     0.029 A 
ATOM     46  N   UNL A   1      42.410  26.878  27.884  1.00  0.00    -0.354 N 
ATOM     47  C   UNL A   1      46.501  26.557  26.504  1.00  0.00     0.074 A 
ATOM     48  C   UNL A   1      46.787  25.215  26.050  1.00  0.00     0.031 C 
ATOM     49  C   UNL A   1      40.348  26.150  28.336  1.00  0.00     0.029 A 
ATOM     50  C   UNL A   1      41.219  27.323  28.405  1.00  0.00     0.049 A 
ATOM     51  H   UNL A   1      43.186  27.465  27.735  1.00  0.00     0.167 HD
ATOM     52  C   UNL A   1      47.379  27.585  26.438  1.00  0.00     0.037 A 
ATOM     53  C   UNL A   1      40.890  28.530  28.909  1.00  0.00     0.037 A 
ATOM     54  C   UNL A   1      47.094  28.920  26.889  1.00  0.00     0.049 A 
ATOM     55  C   UNL A   1      41.922  29.634  28.915  1.00  0.00     0.074 A 
ATOM     56  C   UNL A   1      47.917  30.031  26.873  1.00  0.00     0.029 A 
ATOM     57  N   UNL A   1      45.887  29.321  27.444  1.00  0.00    -0.354 N 
ATOM     58  N   UNL A   1      43.152  29.627  28.457  1.00  0.00    -0.248 NA
ATOM     59  C   UNL A   1      41.518  30.917  29.511  1.00  0.00     0.031 C 
ATOM     60  C   UNL A   1      47.229  31.092  27.468  1.00  0.00     0.029 A 
ATOM     61  C   UNL A   1      45.954  30.660  27.794  1.00  0.00     0.049 A 
ATOM     62  H   UNL A   1      45.102  28.742  27.570  1.00  0.00     0.167 HD
ATOM     63  C   UNL A   1      43.649  30.909  28.671  1.00  0.00     0.074 A 
ATOM     64  C   UNL A   1      42.585  31.670  29.288  1.00  0.00     0.031 C 
ATOM     65  C   UNL A   1      44.875  31.410  28.385  1.00  0.00     0.037 A 
BRANCH  52  66
ATOM     66  C   UNL A   1      48.743  27.303  25.880  1.00  0.00     0.064 A 
ATOM     67  C   UNL A   1      49.806  26.892  26.699  1.00  0.00     0.173 A 
ATOM     68  C   UNL A   1      48.977  27.395  24.499  1.00  0.00     0.173 A 
ATOM     69  F   UNL A   1      49.640  26.805  28.028  1.00  0.00    -0.203 F 
ATOM     70  C   UNL A   1      51.056  26.600  26.159  1.00  0.00     0.198 A 
ATOM     71  C   UNL A   1      50.218  27.072  23.959  1.00  0.00     0.198 A 
ATOM     72  F   UNL A   1      47.996  27.783  23.672  1.00  0.00    -0.203 F 
ATOM     73  F   UNL A   1      52.067  26.247  26.964  1.00  0.00    -0.200 F 
ATOM     74  C   UNL A   1      51.257  26.679  24.788  1.00  0.00     0.200 A 
ATOM     75  F   UNL A   1      50.407  27.136  22.634  1.00  0.00    -0.200 F 
ATOM     76  F   UNL A   1      52.456  26.380  24.269  1.00  0.00    -0.200 F 
ENDBRANCH  52  66
BRANCH  53  77
ATOM     77  C   UNL A   1      39.539  28.766  29.490  1.00  0.00     0.064 A 
ATOM     78  C   UNL A   1      38.517  29.362  28.736  1.00  0.00     0.173 A 
ATOM     79  C   UNL A   1      39.261  28.461  30.831  1.00  0.00     0.173 A 
ATOM     80  F   UNL A   1      38.739  29.700  27.457  1.00  0.00    -0.203 F 
ATOM     81  C   UNL A   1      37.286  29.678  29.310  1.00  0.00     0.198 A 
ATOM     82  C   UNL A   1      38.017  28.743  31.394  1.00  0.00     0.198 A 
ATOM     83  F   UNL A   1      40.201  27.894  31.601  1.00  0.00    -0.203 F 
ATOM     84  F   UNL A   1      36.355  30.314  28.585  1.00  0.00    -0.200 F 
ATOM     85  C   UNL A   1      37.035  29.365  30.637  1.00  0.00     0.200 A 
ATOM     86  F   UNL A   1      37.776  28.426  32.673  1.00  0.00    -0.200 F 
ATOM     87  F   UNL A   1      35.855  29.675  31.190  1.00  0.00    -0.200 F 
ENDBRANCH  53  77
BRANCH  65  88
ATOM     88  C   UNL A   1      45.119  32.865  28.676  1.00  0.00     0.064 A 
ATOM     89  C   UNL A   1      44.772  33.872  27.764  1.00  0.00     0.173 A 
ATOM     90  C   UNL A   1      45.667  33.256  29.908  1.00  0.00     0.173 A 
ATOM     91  F   UNL A   1      44.256  33.553  26.568  1.00  0.00    -0.203 F 
ATOM     92  C   UNL A   1      44.994  35.214  28.063  1.00  0.00     0.198 A 
ATOM     93  C   UNL A   1      45.853  34.600  30.218  1.00  0.00     0.198 A 
ATOM     94  F   UNL A   1      46.007  32.333  30.822  1.00  0.00    -0.203 F 
ATOM     95  F   UNL A   1      44.705  36.157  27.154  1.00  0.00    -0.200 F 
ATOM     96  C   UNL A   1      45.526  35.578  29.291  1.00  0.00     0.200 A 
ATOM     97  F   UNL A   1      46.349  34.949  31.413  1.00  0.00    -0.200 F 
ATOM     98  F   UNL A   1      45.730  36.870  29.580  1.00  0.00    -0.200 F 
ENDBRANCH  65  88
ENDBRANCH  39  40
ENDBRANCH  32  34
ENDBRANCH  31  32
ENDBRANCH  30  31
ENDBRANCH  29  30
ENDBRANCH  28  29
ENDBRANCH  27  28
ENDBRANCH  26  27
ENDBRANCH  25  26
ENDBRANCH   1  25
TORSDOF 24
ENDMDL
MODEL 3
REMARK VINA RESULT:      -9.6      2.990      8.400
REMARK SMILES C[C@@H]1CCC[C@](CCSc2ccccc2)(C(=O)OCCOCCOCCOCCOC(=O)c2ccc(-c3c4nc(c(-c5c(F)c(F)c(F)c(F)c5F)c5ccc([nH]5)c(-c5c(F)c(F)c(F)c(F)c5F)c5nc(c(-c6c(F)c(F)c(F)c(F)c6F)c6ccc3[nH]6)C=C5)C=C4)cc2)C1
REMARK SMILES IDX 23 1 22 2 21 3 20 4 19 5 18 6 16 7 17 8 6 9 1 10 2 11 3 12
REMARK SMILES IDX 96 13 4 14 5 15 7 16 8 17 9 18 10 19 11 20 15 21 12 22 14 23
REMARK SMILES IDX 13 24 24 25 25 26 26 27 27 28 28 29 29 30 30 31 31 32 32 33
REMARK SMILES IDX 33 34 34 35 95 36 35 37 94 38 36 39 37 40 38 41 88 42 39 43
REMARK SMILES IDX 93 44 87 45 89 46 40 47 92 48 86 49 85 50 41 52 73 53 53 54
REMARK SMILES IDX 72 55 54 56 57 57 71 58 90 59 55 60 56 61 70 63 91 64 58 65
REMARK SMILES IDX 42 66 43 67 51 68 44 69 45 70 49 71 52 72 46 73 47 74 50 75
REMARK SMILES IDX 48 76 74 77 75 78 83 79 76 80 77 81 81 82 84 83 78 84 79 85
REMARK SMILES IDX 82 86 80 87 59 88 60 89 68 90 61 91 62 92 66 93 69 94 63 95
REMARK SMILES IDX 64 96 67 97 65 98
REMARK H PARENT 89 51 57 62
REMARK Flexibility Score: inf
ROOT
ATOM      1  C   UNL A   1      34.329  22.644  27.442  1.00  0.00     0.188 C 
ENDROOT
BRANCH   1   2
ATOM      2  C   UNL A   1      32.852  22.256  27.603  1.00  0.00     0.188 C 
BRANCH   2   3
ATOM      3  O   UNL A   1      31.907  23.315  27.573  1.00  0.00    -0.376 OA
BRANCH   3   4
ATOM      4  C   UNL A   1      31.034  23.393  26.456  1.00  0.00     0.202 C 
BRANCH   4   5
ATOM      5  C   UNL A   1      30.403  24.768  26.171  1.00  0.00     0.261 C 
BRANCH   5   6
ATOM      6  O   UNL A   1      31.216  25.885  26.590  1.00  0.00    -0.463 OA
BRANCH   6   7
ATOM      7  C   UNL A   1      31.005  26.977  25.835  1.00  0.00     0.312 C 
ATOM      8  O   UNL A   1      29.992  27.070  25.162  1.00  0.00    -0.252 OA
BRANCH   7   9
ATOM      9  C   UNL A   1      32.075  28.045  25.767  1.00  0.00     0.069 C 
ATOM     10  C   UNL A   1      31.621  26.324  23.003  1.00  0.00     0.007 C 
ATOM     11  C   UNL A   1      32.622  27.453  23.288  1.00  0.00    -0.013 C 
ATOM     12  C   UNL A   1      33.983  26.884  23.709  1.00  0.00     0.003 C 
ATOM     13  C   UNL A   1      32.116  28.519  24.292  1.00  0.00     0.022 C 
ATOM     14  C   UNL A   1      34.060  26.484  25.179  1.00  0.00     0.001 C 
ATOM     15  C   UNL A   1      33.517  27.571  26.108  1.00  0.00     0.019 C 
BRANCH   9  16
ATOM     16  C   UNL A   1      31.663  29.214  26.748  1.00  0.00     0.030 C 
BRANCH  16  17
ATOM     17  C   UNL A   1      32.624  30.378  27.124  1.00  0.00     0.076 C 
BRANCH  17  18
ATOM     18  S   UNL A   1      32.165  32.166  26.900  1.00  0.00    -0.126 SA
BRANCH  18  19
ATOM     19  C   UNL A   1      33.315  33.065  27.957  1.00  0.00     0.007 A 
ATOM     20  C   UNL A   1      34.388  32.354  28.524  1.00  0.00     0.015 A 
ATOM     21  C   UNL A   1      33.048  34.356  28.420  1.00  0.00     0.015 A 
ATOM     22  C   UNL A   1      35.024  32.835  29.676  1.00  0.00     0.001 A 
ATOM     23  C   UNL A   1      33.686  34.838  29.568  1.00  0.00     0.001 A 
ATOM     24  C   UNL A   1      34.639  34.058  30.223  1.00  0.00     0.000 A 
ENDBRANCH  18  19
ENDBRANCH  17  18
ENDBRANCH  16  17
ENDBRANCH   9  16
ENDBRANCH   7   9
ENDBRANCH   6   7
ENDBRANCH   5   6
ENDBRANCH   4   5
ENDBRANCH   3   4
ENDBRANCH   2   3
ENDBRANCH   1   2
BRANCH   1  25
ATOM     25  O   UNL A   1      34.829  23.435  26.382  1.00  0.00    -0.377 OA
BRANCH  25  26
ATOM     26  C   UNL A   1      36.012  23.036  25.731  1.00  0.00     0.188 C 
BRANCH  26  27
ATOM     27  C   UNL A   1      35.931  21.725  24.943  1.00  0.00     0.188 C 
BRANCH  27  28
ATOM     28  O   UNL A   1      37.125  21.149  24.463  1.00  0.00    -0.376 OA
BRANCH  28  29
ATOM     29  C   UNL A   1      37.733  20.058  25.127  1.00  0.00     0.202 C 
BRANCH  29  30
ATOM     30  C   UNL A   1      39.232  19.680  25.074  1.00  0.00     0.261 C 
BRANCH  30  31
ATOM     31  O   UNL A   1      40.034  19.724  26.260  1.00  0.00    -0.460 OA
BRANCH  31  32
ATOM     32  C   UNL A   1      41.360  19.499  26.126  1.00  0.00     0.338 C 
ATOM     33  O   UNL A   1      41.895  18.496  25.692  1.00  0.00    -0.246 OA
BRANCH  32  34
ATOM     34  C   UNL A   1      42.079  20.766  26.421  1.00  0.00     0.060 A 
ATOM     35  C   UNL A   1      42.210  21.183  27.755  1.00  0.00     0.016 A 
ATOM     36  C   UNL A   1      42.609  21.545  25.391  1.00  0.00     0.016 A 
ATOM     37  C   UNL A   1      42.826  22.398  28.061  1.00  0.00     0.010 A 
ATOM     38  C   UNL A   1      43.189  22.784  25.695  1.00  0.00     0.010 A 
ATOM     39  C   UNL A   1      43.255  23.235  27.026  1.00  0.00    -0.014 A 
BRANCH  39  40
ATOM     40  C   UNL A   1      43.498  24.672  27.314  1.00  0.00     0.031 A 
ATOM     41  C   UNL A   1      44.915  25.173  27.201  1.00  0.00     0.074 A 
ATOM     42  C   UNL A   1      42.504  25.522  27.624  1.00  0.00     0.049 A 
ATOM     43  N   UNL A   1      45.410  26.351  27.482  1.00  0.00    -0.248 NA
ATOM     44  C   UNL A   1      45.909  24.208  26.700  1.00  0.00     0.031 C 
ATOM     45  C   UNL A   1      41.086  25.181  27.692  1.00  0.00     0.029 A 
ATOM     46  N   UNL A   1      42.546  26.855  27.952  1.00  0.00    -0.354 N 
ATOM     47  C   UNL A   1      46.769  26.261  27.204  1.00  0.00     0.074 A 
ATOM     48  C   UNL A   1      47.028  24.911  26.760  1.00  0.00     0.031 C 
ATOM     49  C   UNL A   1      40.393  26.273  28.064  1.00  0.00     0.029 A 
ATOM     50  C   UNL A   1      41.323  27.377  28.298  1.00  0.00     0.049 A 
ATOM     51  H   UNL A   1      43.375  27.387  27.940  1.00  0.00     0.167 HD
ATOM     52  C   UNL A   1      47.716  27.223  27.302  1.00  0.00     0.037 A 
ATOM     53  C   UNL A   1      41.005  28.595  28.781  1.00  0.00     0.037 A 
ATOM     54  C   UNL A   1      47.458  28.567  27.743  1.00  0.00     0.049 A 
ATOM     55  C   UNL A   1      42.098  29.621  28.976  1.00  0.00     0.074 A 
ATOM     56  C   UNL A   1      48.349  29.615  27.884  1.00  0.00     0.029 A 
ATOM     57  N   UNL A   1      46.211  29.046  28.118  1.00  0.00    -0.354 N 
ATOM     58  N   UNL A   1      43.380  29.533  28.711  1.00  0.00    -0.248 NA
ATOM     59  C   UNL A   1      41.697  30.919  29.541  1.00  0.00     0.031 C 
ATOM     60  C   UNL A   1      47.653  30.713  28.398  1.00  0.00     0.029 A 
ATOM     61  C   UNL A   1      46.316  30.369  28.513  1.00  0.00     0.049 A 
ATOM     62  H   UNL A   1      45.378  28.523  28.107  1.00  0.00     0.167 HD
ATOM     63  C   UNL A   1      43.926  30.770  29.035  1.00  0.00     0.074 A 
ATOM     64  C   UNL A   1      42.836  31.596  29.504  1.00  0.00     0.031 C 
ATOM     65  C   UNL A   1      45.214  31.185  28.954  1.00  0.00     0.037 A 
BRANCH  52  66
ATOM     66  C   UNL A   1      49.127  26.852  26.951  1.00  0.00     0.064 A 
ATOM     67  C   UNL A   1      50.027  26.374  27.915  1.00  0.00     0.173 A 
ATOM     68  C   UNL A   1      49.569  26.926  25.621  1.00  0.00     0.173 A 
ATOM     69  F   UNL A   1      49.660  26.301  29.204  1.00  0.00    -0.203 F 
ATOM     70  C   UNL A   1      51.322  26.000  27.565  1.00  0.00     0.198 A 
ATOM     71  C   UNL A   1      50.854  26.522  25.268  1.00  0.00     0.198 A 
ATOM     72  F   UNL A   1      48.749  27.376  24.660  1.00  0.00    -0.203 F 
ATOM     73  F   UNL A   1      52.177  25.585  28.508  1.00  0.00    -0.200 F 
ATOM     74  C   UNL A   1      51.730  26.064  26.240  1.00  0.00     0.200 A 
ATOM     75  F   UNL A   1      51.241  26.572  23.986  1.00  0.00    -0.200 F 
ATOM     76  F   UNL A   1      52.970  25.687  25.901  1.00  0.00    -0.200 F 
ENDBRANCH  52  66
BRANCH  53  77
ATOM     77  C   UNL A   1      39.600  28.919  29.155  1.00  0.00     0.064 A 
ATOM     78  C   UNL A   1      39.133  28.729  30.464  1.00  0.00     0.173 A 
ATOM     79  C   UNL A   1      38.677  29.363  28.196  1.00  0.00     0.173 A 
ATOM     80  F   UNL A   1      39.967  28.278  31.413  1.00  0.00    -0.203 F 
ATOM     81  C   UNL A   1      37.793  28.933  30.789  1.00  0.00     0.198 A 
ATOM     82  C   UNL A   1      37.345  29.603  28.531  1.00  0.00     0.198 A 
ATOM     83  F   UNL A   1      39.066  29.558  26.927  1.00  0.00    -0.203 F 
ATOM     84  F   UNL A   1      37.360  28.672  32.031  1.00  0.00    -0.200 F 
ATOM     85  C   UNL A   1      36.900  29.373  29.824  1.00  0.00     0.200 A 
ATOM     86  F   UNL A   1      36.490  30.041  27.597  1.00  0.00    -0.200 F 
ATOM     87  F   UNL A   1      35.611  29.562  30.135  1.00  0.00    -0.200 F 
ENDBRANCH  53  77
BRANCH  65  88
ATOM     88  C   UNL A   1      45.511  32.613  29.320  1.00  0.00     0.064 A 
ATOM     89  C   UNL A   1      45.962  32.973  30.598  1.00  0.00     0.173 A 
ATOM     90  C   UNL A   1      45.386  33.629  28.359  1.00  0.00     0.173 A 
ATOM     91  F   UNL A   1      46.089  32.044  31.557  1.00  0.00    -0.203 F 
ATOM     92  C   UNL A   1      46.245  34.301  30.909  1.00  0.00     0.198 A 
ATOM     93  C   UNL A   1      45.704  34.950  28.663  1.00  0.00     0.198 A 
ATOM     94  F   UNL A   1      44.968  33.338  27.117  1.00  0.00    -0.203 F 
ATOM     95  F   UNL A   1      46.622  34.629  32.153  1.00  0.00    -0.200 F 
ATOM     96  C   UNL A   1      46.124  35.286  29.940  1.00  0.00     0.200 A 
ATOM     97  F   UNL A   1      45.605  35.896  27.719  1.00  0.00    -0.200 F 
ATOM     98  F   UNL A   1      46.406  36.561  30.239  1.00  0.00    -0.200 F 
ENDBRANCH  65  88
ENDBRANCH  39  40
ENDBRANCH  32  34
ENDBRANCH  31  32
ENDBRANCH  30  31
ENDBRANCH  29  30
ENDBRANCH  28  29
ENDBRANCH  27  28
ENDBRANCH  26  27
ENDBRANCH  25  26
ENDBRANCH   1  25
TORSDOF 24
ENDMDL
