MODEL 1
REMARK VINA RESULT:     -12.2      0.000      0.000
REMARK SMILES Cc1c(CC(=O)OCCOCCOCCOCCOC(=O)c2ccc(-c3c4nc(c(-c5c(F)c(F)c(F)c(F)c5F)c5ccc([nH]5)c(-c5c(F)c(F)c(F)c(F)c5F)c5nc(c(-c6c(F)c(F)c(F)c(F)c6F)c6ccc3[nH]6)C=C5)C=C4)cc2)cc(-c2ccccc2)cc1-c1ccccc1
REMARK SMILES IDX 13 1 12 2 11 3 10 4 9 5 8 6 7 7 5 8 6 9 4 10 3 11 1 12 2 13
REMARK SMILES IDX 94 14 85 15 93 16 86 17 95 18 96 19 100 20 97 21 99 22 98 23
REMARK SMILES IDX 87 24 88 25 92 26 89 27 91 28 90 29 14 30 15 31 16 32 17 33
REMARK SMILES IDX 18 34 19 35 20 36 21 37 22 38 23 39 84 40 24 41 83 42 25 43
REMARK SMILES IDX 26 44 27 45 77 46 28 47 82 48 76 49 78 50 29 51 81 52 75 53
REMARK SMILES IDX 74 54 30 56 62 57 42 58 61 59 43 60 46 61 60 62 79 63 44 64
REMARK SMILES IDX 45 65 59 67 80 68 47 69 31 70 32 71 40 72 33 73 34 74 38 75
REMARK SMILES IDX 41 76 35 77 36 78 39 79 37 80 63 81 64 82 72 83 65 84 66 85
REMARK SMILES IDX 70 86 73 87 67 88 68 89 71 90 69 91 48 92 49 93 57 94 50 95
REMARK SMILES IDX 51 96 55 97 58 98 52 99 53 100 56 101 54 102
REMARK H PARENT 78 55 46 66
REMARK Flexibility Score: inf
ROOT
ATOM      1  O   UNL A   1      37.009  20.970  25.155  1.00  0.00    -0.377 OA
ENDROOT
BRANCH   1   2
ATOM      2  C   UNL A   1      35.666  21.392  25.192  1.00  0.00     0.188 C 
BRANCH   2   3
ATOM      3  C   UNL A   1      35.094  22.164  26.399  1.00  0.00     0.188 C 
BRANCH   3   4
ATOM      4  O   UNL A   1      34.225  21.553  27.341  1.00  0.00    -0.376 OA
BRANCH   4   5
ATOM      5  C   UNL A   1      33.141  22.325  27.815  1.00  0.00     0.202 C 
BRANCH   5   6
ATOM      6  C   UNL A   1      32.405  23.193  26.796  1.00  0.00     0.261 C 
BRANCH   6   7
ATOM      7  O   UNL A   1      31.176  23.759  27.297  1.00  0.00    -0.463 OA
BRANCH   7   8
ATOM      8  C   UNL A   1      30.621  24.747  26.550  1.00  0.00     0.310 C 
ATOM      9  O   UNL A   1      29.463  25.133  26.663  1.00  0.00    -0.252 OA
BRANCH   8  10
ATOM     10  C   UNL A   1      31.544  25.268  25.470  1.00  0.00     0.158 C 
BRANCH  10  11
ATOM     11  C   UNL A   1      31.712  26.773  25.302  1.00  0.00    -0.033 A 
ATOM     12  C   UNL A   1      30.303  26.752  23.182  1.00  0.00     0.045 C 
ATOM     13  C   UNL A   1      31.042  27.485  24.276  1.00  0.00    -0.039 A 
ATOM     14  C   UNL A   1      31.042  28.900  24.304  1.00  0.00    -0.015 A 
ATOM     15  C   UNL A   1      32.484  27.504  26.242  1.00  0.00     0.013 A 
ATOM     16  C   UNL A   1      31.923  29.566  25.171  1.00  0.00     0.017 A 
ATOM     17  C   UNL A   1      32.688  28.893  26.122  1.00  0.00    -0.017 A 
BRANCH  14  18
ATOM     18  C   UNL A   1      30.009  29.725  23.652  1.00  0.00    -0.018 A 
ATOM     19  C   UNL A   1      29.634  30.989  24.129  1.00  0.00     0.009 A 
ATOM     20  C   UNL A   1      29.232  29.135  22.638  1.00  0.00     0.009 A 
ATOM     21  C   UNL A   1      28.494  31.625  23.626  1.00  0.00     0.001 A 
ATOM     22  C   UNL A   1      28.102  29.771  22.132  1.00  0.00     0.001 A 
ATOM     23  C   UNL A   1      27.727  31.012  22.635  1.00  0.00     0.000 A 
ENDBRANCH  14  18
BRANCH  17  24
ATOM     24  C   UNL A   1      33.695  29.651  26.900  1.00  0.00    -0.018 A 
ATOM     25  C   UNL A   1      33.422  30.982  27.293  1.00  0.00     0.009 A 
ATOM     26  C   UNL A   1      34.941  29.122  27.249  1.00  0.00     0.009 A 
ATOM     27  C   UNL A   1      34.367  31.763  27.967  1.00  0.00     0.001 A 
ATOM     28  C   UNL A   1      35.884  29.898  27.940  1.00  0.00     0.001 A 
ATOM     29  C   UNL A   1      35.604  31.219  28.284  1.00  0.00     0.000 A 
ENDBRANCH  17  24
ENDBRANCH  10  11
ENDBRANCH   8  10
ENDBRANCH   7   8
ENDBRANCH   6   7
ENDBRANCH   5   6
ENDBRANCH   4   5
ENDBRANCH   3   4
ENDBRANCH   2   3
ENDBRANCH   1   2
BRANCH   1  30
ATOM     30  C   UNL A   1      38.048  21.913  25.302  1.00  0.00     0.188 C 
BRANCH  30  31
ATOM     31  C   UNL A   1      39.291  21.585  26.078  1.00  0.00     0.188 C 
BRANCH  31  32
ATOM     32  O   UNL A   1      39.797  20.345  25.619  1.00  0.00    -0.376 OA
BRANCH  32  33
ATOM     33  C   UNL A   1      40.652  19.701  26.556  1.00  0.00     0.202 C 
BRANCH  33  34
ATOM     34  C   UNL A   1      41.990  19.300  25.921  1.00  0.00     0.261 C 
BRANCH  34  35
ATOM     35  O   UNL A   1      43.019  20.182  26.421  1.00  0.00    -0.460 OA
BRANCH  35  36
ATOM     36  C   UNL A   1      43.511  21.090  25.529  1.00  0.00     0.338 C 
ATOM     37  O   UNL A   1      44.439  20.891  24.766  1.00  0.00    -0.246 OA
BRANCH  36  38
ATOM     38  C   UNL A   1      42.951  22.452  25.814  1.00  0.00     0.060 A 
ATOM     39  C   UNL A   1      43.065  23.476  24.852  1.00  0.00     0.016 A 
ATOM     40  C   UNL A   1      42.628  22.790  27.126  1.00  0.00     0.016 A 
ATOM     41  C   UNL A   1      43.001  24.835  25.235  1.00  0.00     0.010 A 
ATOM     42  C   UNL A   1      42.663  24.124  27.509  1.00  0.00     0.010 A 
ATOM     43  C   UNL A   1      42.880  25.170  26.587  1.00  0.00    -0.014 A 
BRANCH  43  44
ATOM     44  C   UNL A   1      43.176  26.499  27.190  1.00  0.00     0.031 A 
ATOM     45  C   UNL A   1      42.025  27.423  27.492  1.00  0.00     0.074 A 
ATOM     46  C   UNL A   1      44.373  26.738  27.806  1.00  0.00     0.049 A 
ATOM     47  N   UNL A   1      42.138  28.533  28.141  1.00  0.00    -0.248 NA
ATOM     48  C   UNL A   1      40.631  27.174  27.119  1.00  0.00     0.031 C 
ATOM     49  C   UNL A   1      44.595  27.648  28.943  1.00  0.00     0.029 A 
ATOM     50  N   UNL A   1      45.641  26.126  27.675  1.00  0.00    -0.354 N 
ATOM     51  C   UNL A   1      40.896  28.926  28.578  1.00  0.00     0.074 A 
ATOM     52  C   UNL A   1      39.981  28.107  27.828  1.00  0.00     0.031 C 
ATOM     53  C   UNL A   1      45.875  27.639  29.331  1.00  0.00     0.029 A 
ATOM     54  C   UNL A   1      46.596  26.999  28.265  1.00  0.00     0.049 A 
ATOM     55  H   UNL A   1      45.828  25.257  27.252  1.00  0.00     0.167 HD
ATOM     56  C   UNL A   1      40.822  29.824  29.607  1.00  0.00     0.037 A 
ATOM     57  C   UNL A   1      47.547  27.641  27.526  1.00  0.00     0.037 A 
ATOM     58  C   UNL A   1      42.133  30.457  29.870  1.00  0.00     0.049 A 
ATOM     59  C   UNL A   1      47.305  29.134  27.497  1.00  0.00     0.074 A 
ATOM     60  C   UNL A   1      42.925  30.669  30.985  1.00  0.00     0.029 A 
ATOM     61  N   UNL A   1      42.906  30.887  28.781  1.00  0.00    -0.354 N 
ATOM     62  N   UNL A   1      46.150  29.651  27.833  1.00  0.00    -0.248 NA
ATOM     63  C   UNL A   1      48.286  30.171  27.189  1.00  0.00     0.031 C 
ATOM     64  C   UNL A   1      44.218  31.084  30.540  1.00  0.00     0.029 A 
ATOM     65  C   UNL A   1      44.189  31.220  29.159  1.00  0.00     0.049 A 
ATOM     66  H   UNL A   1      42.572  30.944  27.857  1.00  0.00     0.167 HD
ATOM     67  C   UNL A   1      46.213  31.003  27.845  1.00  0.00     0.074 A 
ATOM     68  C   UNL A   1      47.562  31.292  27.391  1.00  0.00     0.031 C 
ATOM     69  C   UNL A   1      45.140  31.767  28.193  1.00  0.00     0.037 A 
BRANCH  56  70
ATOM     70  C   UNL A   1      39.584  30.070  30.467  1.00  0.00     0.064 A 
ATOM     71  C   UNL A   1      39.101  29.071  31.346  1.00  0.00     0.173 A 
ATOM     72  C   UNL A   1      38.769  31.226  30.414  1.00  0.00     0.173 A 
ATOM     73  F   UNL A   1      39.749  27.908  31.494  1.00  0.00    -0.203 F 
ATOM     74  C   UNL A   1      37.929  29.221  32.103  1.00  0.00     0.198 A 
ATOM     75  C   UNL A   1      37.634  31.401  31.219  1.00  0.00     0.198 A 
ATOM     76  F   UNL A   1      38.998  32.212  29.541  1.00  0.00    -0.203 F 
ATOM     77  F   UNL A   1      37.502  28.212  32.876  1.00  0.00    -0.200 F 
ATOM     78  C   UNL A   1      37.207  30.395  32.058  1.00  0.00     0.200 A 
ATOM     79  F   UNL A   1      36.947  32.552  31.159  1.00  0.00    -0.200 F 
ATOM     80  F   UNL A   1      36.102  30.550  32.799  1.00  0.00    -0.200 F 
ENDBRANCH  56  70
BRANCH  57  81
ATOM     81  C   UNL A   1      48.170  26.707  26.550  1.00  0.00     0.064 A 
ATOM     82  C   UNL A   1      48.073  27.138  25.207  1.00  0.00     0.173 A 
ATOM     83  C   UNL A   1      49.310  25.973  26.908  1.00  0.00     0.173 A 
ATOM     84  F   UNL A   1      46.987  27.816  24.801  1.00  0.00    -0.203 F 
ATOM     85  C   UNL A   1      49.168  27.074  24.348  1.00  0.00     0.198 A 
ATOM     86  C   UNL A   1      50.398  25.887  26.031  1.00  0.00     0.198 A 
ATOM     87  F   UNL A   1      49.449  25.508  28.158  1.00  0.00    -0.203 F 
ATOM     88  F   UNL A   1      49.119  27.684  23.155  1.00  0.00    -0.200 F 
ATOM     89  C   UNL A   1      50.347  26.493  24.781  1.00  0.00     0.200 A 
ATOM     90  F   UNL A   1      51.546  25.327  26.440  1.00  0.00    -0.200 F 
ATOM     91  F   UNL A   1      51.448  26.567  24.019  1.00  0.00    -0.200 F 
ENDBRANCH  57  81
BRANCH  69  92
ATOM     92  C   UNL A   1      44.912  33.143  27.639  1.00  0.00     0.064 A 
ATOM     93  C   UNL A   1      44.227  33.360  26.431  1.00  0.00     0.173 A 
ATOM     94  C   UNL A   1      45.167  34.291  28.422  1.00  0.00     0.173 A 
ATOM     95  F   UNL A   1      43.818  32.339  25.665  1.00  0.00    -0.203 F 
ATOM     96  C   UNL A   1      43.880  34.639  26.003  1.00  0.00     0.198 A 
ATOM     97  C   UNL A   1      44.770  35.561  28.017  1.00  0.00     0.198 A 
ATOM     98  F   UNL A   1      45.767  34.207  29.618  1.00  0.00    -0.203 F 
ATOM     99  F   UNL A   1      43.255  34.795  24.828  1.00  0.00    -0.200 F 
ATOM    100  C   UNL A   1      44.141  35.737  26.800  1.00  0.00     0.200 A 
ATOM    101  F   UNL A   1      44.971  36.610  28.825  1.00  0.00    -0.200 F 
ATOM    102  F   UNL A   1      43.765  36.960  26.406  1.00  0.00    -0.200 F 
ENDBRANCH  69  92
ENDBRANCH  43  44
ENDBRANCH  36  38
ENDBRANCH  35  36
ENDBRANCH  34  35
ENDBRANCH  33  34
ENDBRANCH  32  33
ENDBRANCH  31  32
ENDBRANCH  30  31
ENDBRANCH   1  30
TORSDOF 23
ENDMDL
MODEL 2
REMARK VINA RESULT:     -11.3      1.420      2.069
REMARK SMILES Cc1c(CC(=O)OCCOCCOCCOCCOC(=O)c2ccc(-c3c4nc(c(-c5c(F)c(F)c(F)c(F)c5F)c5ccc([nH]5)c(-c5c(F)c(F)c(F)c(F)c5F)c5nc(c(-c6c(F)c(F)c(F)c(F)c6F)c6ccc3[nH]6)C=C5)C=C4)cc2)cc(-c2ccccc2)cc1-c1ccccc1
REMARK SMILES IDX 13 1 12 2 11 3 10 4 9 5 8 6 7 7 5 8 6 9 4 10 3 11 1 12 2 13
REMARK SMILES IDX 94 14 85 15 93 16 86 17 95 18 96 19 100 20 97 21 99 22 98 23
REMARK SMILES IDX 87 24 88 25 92 26 89 27 91 28 90 29 14 30 15 31 16 32 17 33
REMARK SMILES IDX 18 34 19 35 20 36 21 37 22 38 23 39 84 40 24 41 83 42 25 43
REMARK SMILES IDX 26 44 27 45 77 46 28 47 82 48 76 49 78 50 29 51 81 52 75 53
REMARK SMILES IDX 74 54 30 56 62 57 42 58 61 59 43 60 46 61 60 62 79 63 44 64
REMARK SMILES IDX 45 65 59 67 80 68 47 69 31 70 32 71 40 72 33 73 34 74 38 75
REMARK SMILES IDX 41 76 35 77 36 78 39 79 37 80 63 81 64 82 72 83 65 84 66 85
REMARK SMILES IDX 70 86 73 87 67 88 68 89 71 90 69 91 48 92 49 93 57 94 50 95
REMARK SMILES IDX 51 96 55 97 58 98 52 99 53 100 56 101 54 102
REMARK H PARENT 78 55 46 66
REMARK Flexibility Score: inf
ROOT
ATOM      1  O   UNL A   1      37.336  22.233  24.574  1.00  0.00    -0.377 OA
ENDROOT
BRANCH   1   2
ATOM      2  C   UNL A   1      36.013  22.487  24.987  1.00  0.00     0.188 C 
BRANCH   2   3
ATOM      3  C   UNL A   1      35.252  21.510  25.905  1.00  0.00     0.188 C 
BRANCH   3   4
ATOM      4  O   UNL A   1      33.834  21.476  25.957  1.00  0.00    -0.376 OA
BRANCH   4   5
ATOM      5  C   UNL A   1      33.218  21.976  27.127  1.00  0.00     0.202 C 
BRANCH   5   6
ATOM      6  C   UNL A   1      32.744  23.428  27.100  1.00  0.00     0.261 C 
BRANCH   6   7
ATOM      7  O   UNL A   1      31.367  23.581  26.700  1.00  0.00    -0.463 OA
BRANCH   7   8
ATOM      8  C   UNL A   1      31.139  24.369  25.619  1.00  0.00     0.310 C 
ATOM      9  O   UNL A   1      31.642  24.192  24.515  1.00  0.00    -0.252 OA
BRANCH   8  10
ATOM     10  C   UNL A   1      30.276  25.572  25.930  1.00  0.00     0.158 C 
BRANCH  10  11
ATOM     11  C   UNL A   1      30.771  26.960  25.538  1.00  0.00    -0.033 A 
ATOM     12  C   UNL A   1      29.376  26.920  23.409  1.00  0.00     0.045 C 
ATOM     13  C   UNL A   1      30.266  27.633  24.398  1.00  0.00    -0.039 A 
ATOM     14  C   UNL A   1      30.579  29.001  24.210  1.00  0.00    -0.015 A 
ATOM     15  C   UNL A   1      31.691  27.639  26.377  1.00  0.00     0.013 A 
ATOM     16  C   UNL A   1      31.591  29.584  24.989  1.00  0.00     0.017 A 
ATOM     17  C   UNL A   1      32.196  28.915  26.052  1.00  0.00    -0.017 A 
BRANCH  14  18
ATOM     18  C   UNL A   1      29.748  29.921  23.412  1.00  0.00    -0.018 A 
ATOM     19  C   UNL A   1      29.617  29.811  22.020  1.00  0.00     0.009 A 
ATOM     20  C   UNL A   1      29.235  31.068  24.044  1.00  0.00     0.009 A 
ATOM     21  C   UNL A   1      29.019  30.838  21.284  1.00  0.00     0.001 A 
ATOM     22  C   UNL A   1      28.633  32.088  23.312  1.00  0.00     0.001 A 
ATOM     23  C   UNL A   1      28.536  31.977  21.929  1.00  0.00     0.000 A 
ENDBRANCH  14  18
BRANCH  17  24
ATOM     24  C   UNL A   1      33.350  29.545  26.732  1.00  0.00    -0.018 A 
ATOM     25  C   UNL A   1      33.239  30.864  27.229  1.00  0.00     0.009 A 
ATOM     26  C   UNL A   1      34.584  28.904  26.887  1.00  0.00     0.009 A 
ATOM     27  C   UNL A   1      34.320  31.529  27.816  1.00  0.00     0.001 A 
ATOM     28  C   UNL A   1      35.665  29.563  27.490  1.00  0.00     0.001 A 
ATOM     29  C   UNL A   1      35.540  30.876  27.939  1.00  0.00     0.000 A 
ENDBRANCH  17  24
ENDBRANCH  10  11
ENDBRANCH   8  10
ENDBRANCH   7   8
ENDBRANCH   6   7
ENDBRANCH   5   6
ENDBRANCH   4   5
ENDBRANCH   3   4
ENDBRANCH   2   3
ENDBRANCH   1   2
BRANCH   1  30
ATOM     30  C   UNL A   1      38.187  21.449  25.379  1.00  0.00     0.188 C 
BRANCH  30  31
ATOM     31  C   UNL A   1      39.172  22.084  26.319  1.00  0.00     0.188 C 
BRANCH  31  32
ATOM     32  O   UNL A   1      40.189  21.144  26.611  1.00  0.00    -0.376 OA
BRANCH  32  33
ATOM     33  C   UNL A   1      41.420  21.744  26.999  1.00  0.00     0.202 C 
BRANCH  33  34
ATOM     34  C   UNL A   1      42.270  22.131  25.782  1.00  0.00     0.261 C 
BRANCH  34  35
ATOM     35  O   UNL A   1      43.443  21.288  25.754  1.00  0.00    -0.460 OA
BRANCH  35  36
ATOM     36  C   UNL A   1      44.431  21.669  24.893  1.00  0.00     0.338 C 
ATOM     37  O   UNL A   1      44.823  21.016  23.943  1.00  0.00    -0.246 OA
BRANCH  36  38
ATOM     38  C   UNL A   1      45.162  22.860  25.437  1.00  0.00     0.060 A 
ATOM     39  C   UNL A   1      45.477  22.927  26.810  1.00  0.00     0.016 A 
ATOM     40  C   UNL A   1      45.227  24.022  24.672  1.00  0.00     0.016 A 
ATOM     41  C   UNL A   1      45.712  24.172  27.436  1.00  0.00     0.010 A 
ATOM     42  C   UNL A   1      45.363  25.247  25.311  1.00  0.00     0.010 A 
ATOM     43  C   UNL A   1      45.575  25.355  26.702  1.00  0.00    -0.014 A 
BRANCH  43  44
ATOM     44  C   UNL A   1      45.410  26.722  27.268  1.00  0.00     0.031 A 
ATOM     45  C   UNL A   1      44.016  27.219  27.553  1.00  0.00     0.074 A 
ATOM     46  C   UNL A   1      46.457  27.363  27.867  1.00  0.00     0.049 A 
ATOM     47  N   UNL A   1      43.751  28.321  28.170  1.00  0.00    -0.248 NA
ATOM     48  C   UNL A   1      42.785  26.509  27.197  1.00  0.00     0.031 C 
ATOM     49  C   UNL A   1      46.362  28.327  28.978  1.00  0.00     0.029 A 
ATOM     50  N   UNL A   1      47.857  27.205  27.744  1.00  0.00    -0.354 N 
ATOM     51  C   UNL A   1      42.449  28.289  28.606  1.00  0.00     0.074 A 
ATOM     52  C   UNL A   1      41.860  27.192  27.885  1.00  0.00     0.031 C 
ATOM     53  C   UNL A   1      47.570  28.755  29.357  1.00  0.00     0.029 A 
ATOM     54  C   UNL A   1      48.465  28.362  28.304  1.00  0.00     0.049 A 
ATOM     55  H   UNL A   1      48.324  26.436  27.343  1.00  0.00     0.167 HD
ATOM     56  C   UNL A   1      42.078  29.140  29.611  1.00  0.00     0.037 A 
ATOM     57  C   UNL A   1      49.150  29.263  27.541  1.00  0.00     0.037 A 
ATOM     58  C   UNL A   1      43.103  30.180  29.847  1.00  0.00     0.049 A 
ATOM     59  C   UNL A   1      48.425  30.589  27.473  1.00  0.00     0.074 A 
ATOM     60  C   UNL A   1      43.776  30.675  30.950  1.00  0.00     0.029 A 
ATOM     61  N   UNL A   1      43.691  30.812  28.741  1.00  0.00    -0.354 N 
ATOM     62  N   UNL A   1      47.163  30.701  27.804  1.00  0.00    -0.248 NA
ATOM     63  C   UNL A   1      49.005  31.884  27.130  1.00  0.00     0.031 C 
ATOM     64  C   UNL A   1      44.858  31.484  30.484  1.00  0.00     0.029 A 
ATOM     65  C   UNL A   1      44.789  31.564  29.101  1.00  0.00     0.049 A 
ATOM     66  H   UNL A   1      43.359  30.729  27.818  1.00  0.00     0.167 HD
ATOM     67  C   UNL A   1      46.773  31.997  27.778  1.00  0.00     0.074 A 
ATOM     68  C   UNL A   1      47.949  32.705  27.307  1.00  0.00     0.031 C 
ATOM     69  C   UNL A   1      45.505  32.369  28.113  1.00  0.00     0.037 A 
BRANCH  56  70
ATOM     70  C   UNL A   1      40.826  28.984  30.473  1.00  0.00     0.064 A 
ATOM     71  C   UNL A   1      40.908  28.440  31.777  1.00  0.00     0.173 A 
ATOM     72  C   UNL A   1      39.504  29.261  30.051  1.00  0.00     0.173 A 
ATOM     73  F   UNL A   1      42.088  28.104  32.315  1.00  0.00    -0.203 F 
ATOM     74  C   UNL A   1      39.781  28.210  32.581  1.00  0.00     0.198 A 
ATOM     75  C   UNL A   1      38.385  29.092  30.880  1.00  0.00     0.198 A 
ATOM     76  F   UNL A   1      39.228  29.651  28.803  1.00  0.00    -0.203 F 
ATOM     77  F   UNL A   1      39.927  27.643  33.787  1.00  0.00    -0.200 F 
ATOM     78  C   UNL A   1      38.521  28.557  32.142  1.00  0.00     0.200 A 
ATOM     79  F   UNL A   1      37.168  29.437  30.431  1.00  0.00    -0.200 F 
ATOM     80  F   UNL A   1      37.446  28.362  32.917  1.00  0.00    -0.200 F 
ENDBRANCH  56  70
BRANCH  57  81
ATOM     81  C   UNL A   1      50.050  28.563  26.586  1.00  0.00     0.064 A 
ATOM     82  C   UNL A   1      51.256  28.107  27.169  1.00  0.00     0.173 A 
ATOM     83  C   UNL A   1      49.511  27.795  25.544  1.00  0.00     0.173 A 
ATOM     84  F   UNL A   1      51.834  28.822  28.148  1.00  0.00    -0.203 F 
ATOM     85  C   UNL A   1      51.742  26.828  26.911  1.00  0.00     0.198 A 
ATOM     86  C   UNL A   1      50.021  26.521  25.269  1.00  0.00     0.198 A 
ATOM     87  F   UNL A   1      48.387  28.188  24.928  1.00  0.00    -0.203 F 
ATOM     88  F   UNL A   1      52.759  26.340  27.637  1.00  0.00    -0.200 F 
ATOM     89  C   UNL A   1      51.092  26.017  25.998  1.00  0.00     0.200 A 
ATOM     90  F   UNL A   1      49.398  25.726  24.387  1.00  0.00    -0.200 F 
ATOM     91  F   UNL A   1      51.460  24.734  25.861  1.00  0.00    -0.200 F 
ENDBRANCH  57  81
BRANCH  69  92
ATOM     92  C   UNL A   1      44.833  33.575  27.524  1.00  0.00     0.064 A 
ATOM     93  C   UNL A   1      44.159  33.529  26.291  1.00  0.00     0.173 A 
ATOM     94  C   UNL A   1      44.645  34.747  28.290  1.00  0.00     0.173 A 
ATOM     95  F   UNL A   1      44.158  32.422  25.535  1.00  0.00    -0.203 F 
ATOM     96  C   UNL A   1      43.405  34.603  25.826  1.00  0.00     0.198 A 
ATOM     97  C   UNL A   1      43.846  35.796  27.847  1.00  0.00     0.198 A 
ATOM     98  F   UNL A   1      45.194  34.888  29.506  1.00  0.00    -0.203 F 
ATOM     99  F   UNL A   1      42.807  34.522  24.630  1.00  0.00    -0.200 F 
ATOM    100  C   UNL A   1      43.240  35.731  26.608  1.00  0.00     0.200 A 
ATOM    101  F   UNL A   1      43.642  36.857  28.639  1.00  0.00    -0.200 F 
ATOM    102  F   UNL A   1      42.476  36.743  26.177  1.00  0.00    -0.200 F 
ENDBRANCH  69  92
ENDBRANCH  43  44
ENDBRANCH  36  38
ENDBRANCH  35  36
ENDBRANCH  34  35
ENDBRANCH  33  34
ENDBRANCH  32  33
ENDBRANCH  31  32
ENDBRANCH  30  31
ENDBRANCH   1  30
TORSDOF 23
ENDMDL
MODEL 3
REMARK VINA RESULT:     -11.1      4.943     10.977
REMARK SMILES Cc1c(CC(=O)OCCOCCOCCOCCOC(=O)c2ccc(-c3c4nc(c(-c5c(F)c(F)c(F)c(F)c5F)c5ccc([nH]5)c(-c5c(F)c(F)c(F)c(F)c5F)c5nc(c(-c6c(F)c(F)c(F)c(F)c6F)c6ccc3[nH]6)C=C5)C=C4)cc2)cc(-c2ccccc2)cc1-c1ccccc1
REMARK SMILES IDX 13 1 12 2 11 3 10 4 9 5 8 6 7 7 5 8 6 9 4 10 3 11 1 12 2 13
REMARK SMILES IDX 94 14 85 15 93 16 86 17 95 18 96 19 100 20 97 21 99 22 98 23
REMARK SMILES IDX 87 24 88 25 92 26 89 27 91 28 90 29 14 30 15 31 16 32 17 33
REMARK SMILES IDX 18 34 19 35 20 36 21 37 22 38 23 39 84 40 24 41 83 42 25 43
REMARK SMILES IDX 26 44 27 45 77 46 28 47 82 48 76 49 78 50 29 51 81 52 75 53
REMARK SMILES IDX 74 54 30 56 62 57 42 58 61 59 43 60 46 61 60 62 79 63 44 64
REMARK SMILES IDX 45 65 59 67 80 68 47 69 31 70 32 71 40 72 33 73 34 74 38 75
REMARK SMILES IDX 41 76 35 77 36 78 39 79 37 80 63 81 64 82 72 83 65 84 66 85
REMARK SMILES IDX 70 86 73 87 67 88 68 89 71 90 69 91 48 92 49 93 57 94 50 95
REMARK SMILES IDX 51 96 55 97 58 98 52 99 53 100 56 101 54 102
REMARK H PARENT 78 55 46 66
REMARK Flexibility Score: inf
ROOT
ATOM      1  O   UNL A   1      33.963  30.116  26.674  1.00  0.00    -0.377 OA
ENDROOT
BRANCH   1   2
ATOM      2  C   UNL A   1      34.014  28.724  26.890  1.00  0.00     0.188 C 
BRANCH   2   3
ATOM      3  C   UNL A   1      33.667  27.720  25.772  1.00  0.00     0.188 C 
BRANCH   3   4
ATOM      4  O   UNL A   1      32.901  28.093  24.637  1.00  0.00    -0.376 OA
BRANCH   4   5
ATOM      5  C   UNL A   1      33.584  28.206  23.406  1.00  0.00     0.202 C 
BRANCH   5   6
ATOM      6  C   UNL A   1      33.112  27.312  22.260  1.00  0.00     0.261 C 
BRANCH   6   7
ATOM      7  O   UNL A   1      33.996  26.207  21.984  1.00  0.00    -0.463 OA
BRANCH   7   8
ATOM      8  C   UNL A   1      33.489  24.965  22.190  1.00  0.00     0.310 C 
ATOM      9  O   UNL A   1      33.114  24.213  21.297  1.00  0.00    -0.252 OA
BRANCH   8  10
ATOM     10  C   UNL A   1      33.324  24.625  23.655  1.00  0.00     0.158 C 
BRANCH  10  11
ATOM     11  C   UNL A   1      34.080  23.432  24.229  1.00  0.00    -0.033 A 
ATOM     12  C   UNL A   1      31.980  21.995  24.165  1.00  0.00     0.045 C 
ATOM     13  C   UNL A   1      33.466  22.163  24.374  1.00  0.00    -0.039 A 
ATOM     14  C   UNL A   1      34.268  21.040  24.687  1.00  0.00    -0.015 A 
ATOM     15  C   UNL A   1      35.457  23.560  24.545  1.00  0.00     0.013 A 
ATOM     16  C   UNL A   1      35.589  21.242  25.116  1.00  0.00     0.017 A 
ATOM     17  C   UNL A   1      36.199  22.496  25.097  1.00  0.00    -0.017 A 
BRANCH  14  18
ATOM     18  C   UNL A   1      33.884  19.654  24.366  1.00  0.00    -0.018 A 
ATOM     19  C   UNL A   1      34.685  18.549  24.689  1.00  0.00     0.009 A 
ATOM     20  C   UNL A   1      32.772  19.451  23.528  1.00  0.00     0.009 A 
ATOM     21  C   UNL A   1      34.398  17.288  24.157  1.00  0.00     0.001 A 
ATOM     22  C   UNL A   1      32.481  18.194  23.005  1.00  0.00     0.001 A 
ATOM     23  C   UNL A   1      33.303  17.114  23.311  1.00  0.00     0.000 A 
ENDBRANCH  14  18
BRANCH  17  24
ATOM     24  C   UNL A   1      37.544  22.649  25.696  1.00  0.00    -0.018 A 
ATOM     25  C   UNL A   1      37.930  23.890  26.250  1.00  0.00     0.009 A 
ATOM     26  C   UNL A   1      38.487  21.616  25.718  1.00  0.00     0.009 A 
ATOM     27  C   UNL A   1      39.213  24.105  26.765  1.00  0.00     0.001 A 
ATOM     28  C   UNL A   1      39.769  21.824  26.249  1.00  0.00     0.001 A 
ATOM     29  C   UNL A   1      40.136  23.069  26.756  1.00  0.00     0.000 A 
ENDBRANCH  17  24
ENDBRANCH  10  11
ENDBRANCH   8  10
ENDBRANCH   7   8
ENDBRANCH   6   7
ENDBRANCH   5   6
ENDBRANCH   4   5
ENDBRANCH   3   4
ENDBRANCH   2   3
ENDBRANCH   1   2
BRANCH   1  30
ATOM     30  C   UNL A   1      34.523  30.997  27.622  1.00  0.00     0.188 C 
BRANCH  30  31
ATOM     31  C   UNL A   1      33.924  32.351  27.872  1.00  0.00     0.188 C 
BRANCH  31  32
ATOM     32  O   UNL A   1      34.907  33.336  27.608  1.00  0.00    -0.376 OA
BRANCH  32  33
ATOM     33  C   UNL A   1      35.217  34.144  28.738  1.00  0.00     0.202 C 
BRANCH  33  34
ATOM     34  C   UNL A   1      34.141  34.034  29.826  1.00  0.00     0.261 C 
BRANCH  34  35
ATOM     35  O   UNL A   1      34.694  34.519  31.070  1.00  0.00    -0.460 OA
BRANCH  35  36
ATOM     36  C   UNL A   1      34.728  33.621  32.097  1.00  0.00     0.338 C 
ATOM     37  O   UNL A   1      33.751  33.173  32.668  1.00  0.00    -0.246 OA
BRANCH  36  38
ATOM     38  C   UNL A   1      36.128  33.482  32.617  1.00  0.00     0.060 A 
ATOM     39  C   UNL A   1      37.215  33.947  31.849  1.00  0.00     0.016 A 
ATOM     40  C   UNL A   1      36.373  32.612  33.677  1.00  0.00     0.016 A 
ATOM     41  C   UNL A   1      38.514  33.428  32.051  1.00  0.00     0.010 A 
ATOM     42  C   UNL A   1      37.630  32.037  33.804  1.00  0.00     0.010 A 
ATOM     43  C   UNL A   1      38.716  32.404  32.980  1.00  0.00    -0.014 A 
BRANCH  43  44
ATOM     44  C   UNL A   1      39.898  31.501  33.047  1.00  0.00     0.031 A 
ATOM     45  C   UNL A   1      39.930  30.290  32.152  1.00  0.00     0.074 A 
ATOM     46  C   UNL A   1      41.076  31.930  33.593  1.00  0.00     0.049 A 
ATOM     47  N   UNL A   1      40.953  29.516  32.015  1.00  0.00    -0.248 NA
ATOM     48  C   UNL A   1      38.822  29.848  31.302  1.00  0.00     0.031 C 
ATOM     49  C   UNL A   1      42.425  31.495  33.192  1.00  0.00     0.029 A 
ATOM     50  N   UNL A   1      41.368  32.956  34.522  1.00  0.00    -0.354 N 
ATOM     51  C   UNL A   1      40.801  28.768  30.873  1.00  0.00     0.074 A 
ATOM     52  C   UNL A   1      39.415  28.933  30.524  1.00  0.00     0.031 C 
ATOM     53  C   UNL A   1      43.370  32.121  33.902  1.00  0.00     0.029 A 
ATOM     54  C   UNL A   1      42.683  32.722  35.012  1.00  0.00     0.049 A 
ATOM     55  H   UNL A   1      40.772  33.695  34.781  1.00  0.00     0.167 HD
ATOM     56  C   UNL A   1      41.912  28.196  30.317  1.00  0.00     0.037 A 
ATOM     57  C   UNL A   1      42.921  32.368  36.308  1.00  0.00     0.037 A 
ATOM     58  C   UNL A   1      43.066  28.240  31.242  1.00  0.00     0.049 A 
ATOM     59  C   UNL A   1      43.435  30.948  36.405  1.00  0.00     0.074 A 
ATOM     60  C   UNL A   1      44.387  28.647  31.160  1.00  0.00     0.029 A 
ATOM     61  N   UNL A   1      42.862  27.915  32.592  1.00  0.00    -0.354 N 
ATOM     62  N   UNL A   1      43.309  30.102  35.414  1.00  0.00    -0.248 NA
ATOM     63  C   UNL A   1      44.178  30.364  37.517  1.00  0.00     0.031 C 
ATOM     64  C   UNL A   1      44.917  28.704  32.486  1.00  0.00     0.029 A 
ATOM     65  C   UNL A   1      43.953  28.239  33.370  1.00  0.00     0.049 A 
ATOM     66  H   UNL A   1      42.039  27.505  32.941  1.00  0.00     0.167 HD
ATOM     67  C   UNL A   1      43.949  28.942  35.689  1.00  0.00     0.074 A 
ATOM     68  C   UNL A   1      44.446  29.130  37.040  1.00  0.00     0.031 C 
ATOM     69  C   UNL A   1      43.984  27.914  34.795  1.00  0.00     0.037 A 
BRANCH  56  70
ATOM     70  C   UNL A   1      42.006  27.680  28.882  1.00  0.00     0.064 A 
ATOM     71  C   UNL A   1      41.573  28.476  27.795  1.00  0.00     0.173 A 
ATOM     72  C   UNL A   1      42.425  26.381  28.507  1.00  0.00     0.173 A 
ATOM     73  F   UNL A   1      41.126  29.725  27.987  1.00  0.00    -0.203 F 
ATOM     74  C   UNL A   1      41.571  28.022  26.468  1.00  0.00     0.198 A 
ATOM     75  C   UNL A   1      42.486  25.951  27.173  1.00  0.00     0.198 A 
ATOM     76  F   UNL A   1      42.739  25.451  29.414  1.00  0.00    -0.203 F 
ATOM     77  F   UNL A   1      41.097  28.812  25.493  1.00  0.00    -0.200 F 
ATOM     78  C   UNL A   1      42.049  26.768  26.153  1.00  0.00     0.200 A 
ATOM     79  F   UNL A   1      42.955  24.726  26.890  1.00  0.00    -0.200 F 
ATOM     80  F   UNL A   1      42.072  26.341  24.883  1.00  0.00    -0.200 F 
ENDBRANCH  56  70
BRANCH  57  81
ATOM     81  C   UNL A   1      42.118  33.209  37.236  1.00  0.00     0.064 A 
ATOM     82  C   UNL A   1      42.614  34.525  37.386  1.00  0.00     0.173 A 
ATOM     83  C   UNL A   1      40.729  33.032  37.323  1.00  0.00     0.173 A 
ATOM     84  F   UNL A   1      43.938  34.747  37.345  1.00  0.00    -0.203 F 
ATOM     85  C   UNL A   1      41.760  35.625  37.353  1.00  0.00     0.198 A 
ATOM     86  C   UNL A   1      39.876  34.142  37.318  1.00  0.00     0.198 A 
ATOM     87  F   UNL A   1      40.197  31.806  37.220  1.00  0.00    -0.203 F 
ATOM     88  F   UNL A   1      42.269  36.864  37.277  1.00  0.00    -0.200 F 
ATOM     89  C   UNL A   1      40.393  35.431  37.267  1.00  0.00     0.200 A 
ATOM     90  F   UNL A   1      38.549  33.965  37.234  1.00  0.00    -0.200 F 
ATOM     91  F   UNL A   1      39.579  36.480  37.078  1.00  0.00    -0.200 F 
ENDBRANCH  57  81
BRANCH  69  92
ATOM     92  C   UNL A   1      44.069  26.476  35.216  1.00  0.00     0.064 A 
ATOM     93  C   UNL A   1      42.941  25.638  35.256  1.00  0.00     0.173 A 
ATOM     94  C   UNL A   1      45.320  25.837  35.365  1.00  0.00     0.173 A 
ATOM     95  F   UNL A   1      41.712  26.108  35.001  1.00  0.00    -0.203 F 
ATOM     96  C   UNL A   1      43.049  24.270  35.493  1.00  0.00     0.198 A 
ATOM     97  C   UNL A   1      45.428  24.462  35.547  1.00  0.00     0.198 A 
ATOM     98  F   UNL A   1      46.471  26.522  35.294  1.00  0.00    -0.203 F 
ATOM     99  F   UNL A   1      41.941  23.520  35.552  1.00  0.00    -0.200 F 
ATOM    100  C   UNL A   1      44.292  23.682  35.627  1.00  0.00     0.200 A 
ATOM    101  F   UNL A   1      46.639  23.893  35.613  1.00  0.00    -0.200 F 
ATOM    102  F   UNL A   1      44.395  22.359  35.810  1.00  0.00    -0.200 F 
ENDBRANCH  69  92
ENDBRANCH  43  44
ENDBRANCH  36  38
ENDBRANCH  35  36
ENDBRANCH  34  35
ENDBRANCH  33  34
ENDBRANCH  32  33
ENDBRANCH  31  32
ENDBRANCH  30  31
ENDBRANCH   1  30
TORSDOF 23
ENDMDL
