MODEL 1
REMARK VINA RESULT:      -9.3      0.000      0.000
REMARK SMILES O=C(CC[N@H+]1CCC[C@@H](C(=O)OCCOCCOCCOCCOC(=O)c2ccc(-c3c4nc(c(-c5c(F)c(F)c(F)c(F)c5F)c5ccc([nH]5)c(-c5c(F)c(F)c(F)c(F)c5F)c5nc(c(-c6c(F)c(F)c(F)c(F)c6F)c6ccc3[nH]6)C=C5)C=C4)cc2)C1)Nc1cccc(F)c1
REMARK SMILES IDX 17 1 16 2 15 3 14 4 13 5 12 6 10 7 11 8 9 9 5 10 6 11 90 12
REMARK SMILES IDX 7 14 8 15 4 16 3 17 2 18 1 19 91 20 92 22 93 23 98 24 94 25
REMARK SMILES IDX 96 26 95 27 97 28 18 29 19 30 20 31 21 32 22 33 23 34 24 35
REMARK SMILES IDX 25 36 26 37 27 38 28 39 89 40 29 41 88 42 30 43 31 44 32 45
REMARK SMILES IDX 82 46 33 47 87 48 81 49 83 50 34 51 86 52 80 53 79 54 35 56
REMARK SMILES IDX 67 57 47 58 66 59 48 60 51 61 65 62 84 63 49 64 50 65 64 67
REMARK SMILES IDX 85 68 52 69 36 70 37 71 45 72 38 73 39 74 43 75 46 76 40 77
REMARK SMILES IDX 41 78 44 79 42 80 68 81 69 82 77 83 70 84 71 85 75 86 78 87
REMARK SMILES IDX 72 88 73 89 76 90 74 91 53 92 54 93 62 94 55 95 56 96 60 97
REMARK SMILES IDX 63 98 57 99 58 100 61 101 59 102
REMARK H PARENT 5 13 91 21 83 55 51 66
REMARK Flexibility Score: inf
ROOT
ATOM      1  C   UNL A   1      37.590  21.835  25.132  1.00  0.00     0.188 C 
ENDROOT
BRANCH   1   2
ATOM      2  C   UNL A   1      36.154  21.320  24.952  1.00  0.00     0.188 C 
BRANCH   2   3
ATOM      3  O   UNL A   1      35.272  21.293  26.068  1.00  0.00    -0.376 OA
BRANCH   3   4
ATOM      4  C   UNL A   1      34.940  22.465  26.798  1.00  0.00     0.202 C 
BRANCH   4   5
ATOM      5  C   UNL A   1      33.559  22.548  27.432  1.00  0.00     0.261 C 
BRANCH   5   6
ATOM      6  O   UNL A   1      32.552  22.114  26.513  1.00  0.00    -0.463 OA
BRANCH   6   7
ATOM      7  C   UNL A   1      31.702  23.067  26.048  1.00  0.00     0.314 C 
ATOM      8  O   UNL A   1      31.133  23.910  26.724  1.00  0.00    -0.252 OA
BRANCH   7   9
ATOM      9  C   UNL A   1      31.518  22.883  24.566  1.00  0.00     0.154 C 
ATOM     10  N   UNL A   1      32.186  24.000  22.493  1.00  0.00    -0.334 N 
ATOM     11  C   UNL A   1      32.930  22.806  22.045  1.00  0.00     0.262 C 
ATOM     12  C   UNL A   1      32.274  24.052  23.960  1.00  0.00     0.277 C 
ATOM     13  H   UNL A   1      31.221  23.928  22.171  1.00  0.00     0.348 HD
ATOM     14  C   UNL A   1      32.232  21.535  22.549  1.00  0.00     0.062 C 
ATOM     15  C   UNL A   1      32.038  21.534  24.066  1.00  0.00     0.027 C 
BRANCH  10  16
ATOM     16  C   UNL A   1      32.742  25.245  21.929  1.00  0.00     0.272 C 
BRANCH  16  17
ATOM     17  C   UNL A   1      31.639  26.230  21.527  1.00  0.00     0.161 C 
BRANCH  17  18
ATOM     18  C   UNL A   1      31.216  27.206  22.612  1.00  0.00     0.230 C 
ATOM     19  O   UNL A   1      30.137  27.788  22.553  1.00  0.00    -0.275 OA
ATOM     20  N   UNL A   1      32.170  27.366  23.605  1.00  0.00    -0.326 N 
ATOM     21  H   UNL A   1      33.034  26.916  23.463  1.00  0.00     0.169 HD
BRANCH  20  22
ATOM     22  C   UNL A   1      32.034  28.107  24.799  1.00  0.00     0.044 A 
ATOM     23  C   UNL A   1      32.045  27.400  26.011  1.00  0.00     0.026 A 
ATOM     24  C   UNL A   1      31.866  29.492  24.830  1.00  0.00     0.065 A 
ATOM     25  C   UNL A   1      31.930  28.071  27.235  1.00  0.00     0.005 A 
ATOM     26  C   UNL A   1      31.729  30.148  26.053  1.00  0.00     0.125 A 
ATOM     27  C   UNL A   1      31.773  29.453  27.255  1.00  0.00     0.039 A 
ATOM     28  F   UNL A   1      31.536  31.473  26.074  1.00  0.00    -0.207 F 
ENDBRANCH  20  22
ENDBRANCH  17  18
ENDBRANCH  16  17
ENDBRANCH  10  16
ENDBRANCH   7   9
ENDBRANCH   6   7
ENDBRANCH   5   6
ENDBRANCH   4   5
ENDBRANCH   3   4
ENDBRANCH   2   3
ENDBRANCH   1   2
BRANCH   1  29
ATOM     29  O   UNL A   1      38.549  20.871  25.537  1.00  0.00    -0.377 OA
BRANCH  29  30
ATOM     30  C   UNL A   1      39.723  21.390  26.134  1.00  0.00     0.188 C 
BRANCH  30  31
ATOM     31  C   UNL A   1      40.679  20.339  26.723  1.00  0.00     0.188 C 
BRANCH  31  32
ATOM     32  O   UNL A   1      41.714  20.675  27.643  1.00  0.00    -0.376 OA
BRANCH  32  33
ATOM     33  C   UNL A   1      42.142  22.017  27.782  1.00  0.00     0.202 C 
BRANCH  33  34
ATOM     34  C   UNL A   1      43.156  22.490  26.732  1.00  0.00     0.261 C 
BRANCH  34  35
ATOM     35  O   UNL A   1      43.578  23.856  26.864  1.00  0.00    -0.460 OA
BRANCH  35  36
ATOM     36  C   UNL A   1      42.832  24.764  26.201  1.00  0.00     0.338 C 
ATOM     37  O   UNL A   1      42.481  24.733  25.023  1.00  0.00    -0.246 OA
BRANCH  36  38
ATOM     38  C   UNL A   1      42.382  25.805  27.144  1.00  0.00     0.060 A 
ATOM     39  C   UNL A   1      42.824  27.121  26.960  1.00  0.00     0.016 A 
ATOM     40  C   UNL A   1      41.568  25.479  28.233  1.00  0.00     0.016 A 
ATOM     41  C   UNL A   1      42.477  28.110  27.879  1.00  0.00     0.010 A 
ATOM     42  C   UNL A   1      41.243  26.464  29.169  1.00  0.00     0.010 A 
ATOM     43  C   UNL A   1      41.724  27.776  29.013  1.00  0.00    -0.014 A 
BRANCH  43  44
ATOM     44  C   UNL A   1      41.615  28.752  30.122  1.00  0.00     0.031 A 
ATOM     45  C   UNL A   1      42.713  28.794  31.149  1.00  0.00     0.074 A 
ATOM     46  C   UNL A   1      40.584  29.611  30.194  1.00  0.00     0.049 A 
ATOM     47  N   UNL A   1      42.837  29.556  32.205  1.00  0.00    -0.248 NA
ATOM     48  C   UNL A   1      43.823  27.847  30.956  1.00  0.00     0.031 C 
ATOM     49  C   UNL A   1      39.481  29.689  29.240  1.00  0.00     0.029 A 
ATOM     50  N   UNL A   1      40.301  30.583  31.120  1.00  0.00    -0.354 N 
ATOM     51  C   UNL A   1      44.036  29.182  32.800  1.00  0.00     0.074 A 
ATOM     52  C   UNL A   1      44.585  28.104  32.007  1.00  0.00     0.031 C 
ATOM     53  C   UNL A   1      38.632  30.654  29.634  1.00  0.00     0.029 A 
ATOM     54  C   UNL A   1      39.121  31.242  30.882  1.00  0.00     0.049 A 
ATOM     55  H   UNL A   1      40.888  30.789  31.883  1.00  0.00     0.167 HD
ATOM     56  C   UNL A   1      44.629  29.699  33.901  1.00  0.00     0.037 A 
ATOM     57  C   UNL A   1      38.502  32.198  31.601  1.00  0.00     0.037 A 
ATOM     58  C   UNL A   1      44.078  30.767  34.692  1.00  0.00     0.049 A 
ATOM     59  C   UNL A   1      39.150  32.706  32.865  1.00  0.00     0.074 A 
ATOM     60  C   UNL A   1      44.608  31.372  35.817  1.00  0.00     0.029 A 
ATOM     61  N   UNL A   1      42.861  31.384  34.442  1.00  0.00    -0.354 N 
ATOM     62  N   UNL A   1      40.295  32.368  33.406  1.00  0.00    -0.248 NA
ATOM     63  C   UNL A   1      38.416  33.736  33.615  1.00  0.00     0.031 C 
ATOM     64  C   UNL A   1      43.689  32.320  36.279  1.00  0.00     0.029 A 
ATOM     65  C   UNL A   1      42.609  32.344  35.409  1.00  0.00     0.049 A 
ATOM     66  H   UNL A   1      42.263  31.170  33.690  1.00  0.00     0.167 HD
ATOM     67  C   UNL A   1      40.431  33.157  34.542  1.00  0.00     0.074 A 
ATOM     68  C   UNL A   1      39.260  34.004  34.602  1.00  0.00     0.031 C 
ATOM     69  C   UNL A   1      41.435  33.177  35.455  1.00  0.00     0.037 A 
BRANCH  56  70
ATOM     70  C   UNL A   1      45.934  29.093  34.330  1.00  0.00     0.064 A 
ATOM     71  C   UNL A   1      45.986  27.966  35.163  1.00  0.00     0.173 A 
ATOM     72  C   UNL A   1      47.147  29.636  33.882  1.00  0.00     0.173 A 
ATOM     73  F   UNL A   1      44.854  27.421  35.632  1.00  0.00    -0.203 F 
ATOM     74  C   UNL A   1      47.207  27.418  35.551  1.00  0.00     0.198 A 
ATOM     75  C   UNL A   1      48.365  29.068  34.248  1.00  0.00     0.198 A 
ATOM     76  F   UNL A   1      47.153  30.714  33.084  1.00  0.00    -0.203 F 
ATOM     77  F   UNL A   1      47.234  26.369  36.384  1.00  0.00    -0.200 F 
ATOM     78  C   UNL A   1      48.394  27.964  35.088  1.00  0.00     0.200 A 
ATOM     79  F   UNL A   1      49.511  29.591  33.793  1.00  0.00    -0.200 F 
ATOM     80  F   UNL A   1      49.567  27.432  35.457  1.00  0.00    -0.200 F 
ENDBRANCH  56  70
BRANCH  57  81
ATOM     81  C   UNL A   1      37.187  32.730  31.155  1.00  0.00     0.064 A 
ATOM     82  C   UNL A   1      37.087  33.577  30.044  1.00  0.00     0.173 A 
ATOM     83  C   UNL A   1      36.007  32.423  31.850  1.00  0.00     0.173 A 
ATOM     84  F   UNL A   1      38.191  33.924  29.365  1.00  0.00    -0.203 F 
ATOM     85  C   UNL A   1      35.860  34.113  29.654  1.00  0.00     0.198 A 
ATOM     86  C   UNL A   1      34.777  32.936  31.443  1.00  0.00     0.198 A 
ATOM     87  F   UNL A   1      36.050  31.622  32.925  1.00  0.00    -0.203 F 
ATOM     88  F   UNL A   1      35.801  34.964  28.622  1.00  0.00    -0.200 F 
ATOM     89  C   UNL A   1      34.706  33.787  30.351  1.00  0.00     0.200 A 
ATOM     90  F   UNL A   1      33.665  32.614  32.117  1.00  0.00    -0.200 F 
ATOM     91  F   UNL A   1      33.528  34.307  29.980  1.00  0.00    -0.200 F 
ENDBRANCH  57  81
BRANCH  69  92
ATOM     92  C   UNL A   1      41.320  34.166  36.580  1.00  0.00     0.064 A 
ATOM     93  C   UNL A   1      40.568  33.888  37.731  1.00  0.00     0.173 A 
ATOM     94  C   UNL A   1      41.992  35.397  36.517  1.00  0.00     0.173 A 
ATOM     95  F   UNL A   1      39.897  32.731  37.835  1.00  0.00    -0.203 F 
ATOM     96  C   UNL A   1      40.464  34.819  38.761  1.00  0.00     0.198 A 
ATOM     97  C   UNL A   1      41.913  36.312  37.564  1.00  0.00     0.198 A 
ATOM     98  F   UNL A   1      42.733  35.709  35.444  1.00  0.00    -0.203 F 
ATOM     99  F   UNL A   1      39.695  34.554  39.826  1.00  0.00    -0.200 F 
ATOM    100  C   UNL A   1      41.141  36.027  38.680  1.00  0.00     0.200 A 
ATOM    101  F   UNL A   1      42.579  37.472  37.489  1.00  0.00    -0.200 F 
ATOM    102  F   UNL A   1      41.043  36.921  39.673  1.00  0.00    -0.200 F 
ENDBRANCH  69  92
ENDBRANCH  43  44
ENDBRANCH  36  38
ENDBRANCH  35  36
ENDBRANCH  34  35
ENDBRANCH  33  34
ENDBRANCH  32  33
ENDBRANCH  31  32
ENDBRANCH  30  31
ENDBRANCH  29  30
ENDBRANCH   1  29
TORSDOF 24
ENDMDL
MODEL 2
REMARK VINA RESULT:      -9.2      6.552     12.542
REMARK SMILES O=C(CC[N@H+]1CCC[C@@H](C(=O)OCCOCCOCCOCCOC(=O)c2ccc(-c3c4nc(c(-c5c(F)c(F)c(F)c(F)c5F)c5ccc([nH]5)c(-c5c(F)c(F)c(F)c(F)c5F)c5nc(c(-c6c(F)c(F)c(F)c(F)c6F)c6ccc3[nH]6)C=C5)C=C4)cc2)C1)Nc1cccc(F)c1
REMARK SMILES IDX 17 1 16 2 15 3 14 4 13 5 12 6 10 7 11 8 9 9 5 10 6 11 90 12
REMARK SMILES IDX 7 14 8 15 4 16 3 17 2 18 1 19 91 20 92 22 93 23 98 24 94 25
REMARK SMILES IDX 96 26 95 27 97 28 18 29 19 30 20 31 21 32 22 33 23 34 24 35
REMARK SMILES IDX 25 36 26 37 27 38 28 39 89 40 29 41 88 42 30 43 31 44 32 45
REMARK SMILES IDX 82 46 33 47 87 48 81 49 83 50 34 51 86 52 80 53 79 54 35 56
REMARK SMILES IDX 67 57 47 58 66 59 48 60 51 61 65 62 84 63 49 64 50 65 64 67
REMARK SMILES IDX 85 68 52 69 36 70 37 71 45 72 38 73 39 74 43 75 46 76 40 77
REMARK SMILES IDX 41 78 44 79 42 80 68 81 69 82 77 83 70 84 71 85 75 86 78 87
REMARK SMILES IDX 72 88 73 89 76 90 74 91 53 92 54 93 62 94 55 95 56 96 60 97
REMARK SMILES IDX 63 98 57 99 58 100 61 101 59 102
REMARK H PARENT 5 13 91 21 83 55 51 66
REMARK Flexibility Score: inf
ROOT
ATOM      1  C   UNL A   1      44.535  35.624  33.969  1.00  0.00     0.188 C 
ENDROOT
BRANCH   1   2
ATOM      2  C   UNL A   1      43.125  35.023  34.048  1.00  0.00     0.188 C 
BRANCH   2   3
ATOM      3  O   UNL A   1      42.862  33.965  34.964  1.00  0.00    -0.376 OA
BRANCH   3   4
ATOM      4  C   UNL A   1      42.893  34.157  36.371  1.00  0.00     0.202 C 
BRANCH   4   5
ATOM      5  C   UNL A   1      42.393  35.484  36.925  1.00  0.00     0.261 C 
BRANCH   5   6
ATOM      6  O   UNL A   1      41.086  35.337  37.489  1.00  0.00    -0.463 OA
BRANCH   6   7
ATOM      7  C   UNL A   1      40.048  35.800  36.743  1.00  0.00     0.314 C 
ATOM      8  O   UNL A   1      40.075  36.769  36.001  1.00  0.00    -0.252 OA
BRANCH   7   9
ATOM      9  C   UNL A   1      38.829  34.963  37.024  1.00  0.00     0.154 C 
ATOM     10  N   UNL A   1      37.516  33.222  35.913  1.00  0.00    -0.334 N 
ATOM     11  C   UNL A   1      37.814  32.257  36.990  1.00  0.00     0.262 C 
ATOM     12  C   UNL A   1      38.683  34.108  35.778  1.00  0.00     0.277 C 
ATOM     13  H   UNL A   1      36.671  33.738  36.154  1.00  0.00     0.348 HD
ATOM     14  C   UNL A   1      37.933  32.992  38.332  1.00  0.00     0.062 C 
ATOM     15  C   UNL A   1      38.966  34.121  38.293  1.00  0.00     0.027 C 
BRANCH  10  16
ATOM     16  C   UNL A   1      37.265  32.553  34.622  1.00  0.00     0.272 C 
BRANCH  16  17
ATOM     17  C   UNL A   1      38.109  33.156  33.493  1.00  0.00     0.161 C 
BRANCH  17  18
ATOM     18  C   UNL A   1      37.333  33.961  32.465  1.00  0.00     0.230 C 
ATOM     19  O   UNL A   1      37.910  34.709  31.681  1.00  0.00    -0.275 OA
ATOM     20  N   UNL A   1      35.961  33.773  32.546  1.00  0.00    -0.326 N 
ATOM     21  H   UNL A   1      35.635  33.227  33.297  1.00  0.00     0.169 HD
BRANCH  20  22
ATOM     22  C   UNL A   1      34.983  34.285  31.666  1.00  0.00     0.044 A 
ATOM     23  C   UNL A   1      34.911  33.732  30.378  1.00  0.00     0.026 A 
ATOM     24  C   UNL A   1      34.110  35.320  32.003  1.00  0.00     0.065 A 
ATOM     25  C   UNL A   1      33.955  34.179  29.457  1.00  0.00     0.005 A 
ATOM     26  C   UNL A   1      33.178  35.774  31.071  1.00  0.00     0.125 A 
ATOM     27  C   UNL A   1      33.082  35.205  29.807  1.00  0.00     0.039 A 
ATOM     28  F   UNL A   1      32.365  36.789  31.391  1.00  0.00    -0.207 F 
ENDBRANCH  20  22
ENDBRANCH  17  18
ENDBRANCH  16  17
ENDBRANCH  10  16
ENDBRANCH   7   9
ENDBRANCH   6   7
ENDBRANCH   5   6
ENDBRANCH   4   5
ENDBRANCH   3   4
ENDBRANCH   2   3
ENDBRANCH   1   2
BRANCH   1  29
ATOM     29  O   UNL A   1      44.863  36.282  32.756  1.00  0.00    -0.377 OA
BRANCH  29  30
ATOM     30  C   UNL A   1      44.715  37.690  32.765  1.00  0.00     0.188 C 
BRANCH  30  31
ATOM     31  C   UNL A   1      43.790  38.260  31.676  1.00  0.00     0.188 C 
BRANCH  31  32
ATOM     32  O   UNL A   1      44.052  39.497  31.019  1.00  0.00    -0.376 OA
BRANCH  32  33
ATOM     33  C   UNL A   1      43.877  39.617  29.620  1.00  0.00     0.202 C 
BRANCH  33  34
ATOM     34  C   UNL A   1      45.070  39.153  28.772  1.00  0.00     0.261 C 
BRANCH  34  35
ATOM     35  O   UNL A   1      45.082  37.754  28.451  1.00  0.00    -0.460 OA
BRANCH  35  36
ATOM     36  C   UNL A   1      45.979  37.007  29.129  1.00  0.00     0.338 C 
ATOM     37  O   UNL A   1      46.814  37.392  29.944  1.00  0.00    -0.246 OA
BRANCH  36  38
ATOM     38  C   UNL A   1      45.753  35.582  28.826  1.00  0.00     0.060 A 
ATOM     39  C   UNL A   1      45.045  35.240  27.666  1.00  0.00     0.016 A 
ATOM     40  C   UNL A   1      46.191  34.586  29.705  1.00  0.00     0.016 A 
ATOM     41  C   UNL A   1      44.750  33.905  27.396  1.00  0.00     0.010 A 
ATOM     42  C   UNL A   1      45.872  33.250  29.448  1.00  0.00     0.010 A 
ATOM     43  C   UNL A   1      45.121  32.908  28.309  1.00  0.00    -0.014 A 
BRANCH  43  44
ATOM     44  C   UNL A   1      44.551  31.549  28.168  1.00  0.00     0.031 A 
ATOM     45  C   UNL A   1      45.331  30.522  27.394  1.00  0.00     0.074 A 
ATOM     46  C   UNL A   1      43.385  31.220  28.749  1.00  0.00     0.049 A 
ATOM     47  N   UNL A   1      45.037  29.274  27.134  1.00  0.00    -0.248 NA
ATOM     48  C   UNL A   1      46.619  30.965  26.837  1.00  0.00     0.031 C 
ATOM     49  C   UNL A   1      42.558  32.117  29.552  1.00  0.00     0.029 A 
ATOM     50  N   UNL A   1      42.694  30.034  28.747  1.00  0.00    -0.354 N 
ATOM     51  C   UNL A   1      46.101  28.784  26.388  1.00  0.00     0.074 A 
ATOM     52  C   UNL A   1      47.032  29.877  26.207  1.00  0.00     0.031 C 
ATOM     53  C   UNL A   1      41.464  31.451  29.962  1.00  0.00     0.029 A 
ATOM     54  C   UNL A   1      41.503  30.090  29.426  1.00  0.00     0.049 A 
ATOM     55  H   UNL A   1      43.023  29.219  28.302  1.00  0.00     0.167 HD
ATOM     56  C   UNL A   1      46.290  27.533  25.907  1.00  0.00     0.037 A 
ATOM     57  C   UNL A   1      40.549  29.151  29.581  1.00  0.00     0.037 A 
ATOM     58  C   UNL A   1      45.360  26.449  26.083  1.00  0.00     0.049 A 
ATOM     59  C   UNL A   1      40.751  27.786  28.973  1.00  0.00     0.074 A 
ATOM     60  C   UNL A   1      45.466  25.141  25.646  1.00  0.00     0.029 A 
ATOM     61  N   UNL A   1      44.145  26.554  26.743  1.00  0.00    -0.354 N 
ATOM     62  N   UNL A   1      41.771  27.322  28.293  1.00  0.00    -0.248 NA
ATOM     63  C   UNL A   1      39.666  26.812  29.161  1.00  0.00     0.031 C 
ATOM     64  C   UNL A   1      44.292  24.466  25.999  1.00  0.00     0.029 A 
ATOM     65  C   UNL A   1      43.477  25.340  26.702  1.00  0.00     0.049 A 
ATOM     66  H   UNL A   1      43.806  27.370  27.176  1.00  0.00     0.167 HD
ATOM     67  C   UNL A   1      41.464  26.000  27.993  1.00  0.00     0.074 A 
ATOM     68  C   UNL A   1      40.170  25.731  28.582  1.00  0.00     0.031 C 
ATOM     69  C   UNL A   1      42.187  25.091  27.292  1.00  0.00     0.037 A 
BRANCH  56  70
ATOM     70  C   UNL A   1      47.542  27.279  25.119  1.00  0.00     0.064 A 
ATOM     71  C   UNL A   1      48.660  26.656  25.692  1.00  0.00     0.173 A 
ATOM     72  C   UNL A   1      47.614  27.642  23.766  1.00  0.00     0.173 A 
ATOM     73  F   UNL A   1      48.648  26.306  26.987  1.00  0.00    -0.203 F 
ATOM     74  C   UNL A   1      49.814  26.428  24.945  1.00  0.00     0.198 A 
ATOM     75  C   UNL A   1      48.757  27.385  23.015  1.00  0.00     0.198 A 
ATOM     76  F   UNL A   1      46.572  28.240  23.169  1.00  0.00    -0.203 F 
ATOM     77  F   UNL A   1      50.887  25.873  25.525  1.00  0.00    -0.200 F 
ATOM     78  C   UNL A   1      49.859  26.786  23.606  1.00  0.00     0.200 A 
ATOM     79  F   UNL A   1      48.796  27.724  21.718  1.00  0.00    -0.200 F 
ATOM     80  F   UNL A   1      50.968  26.559  22.887  1.00  0.00    -0.200 F 
ENDBRANCH  56  70
BRANCH  57  81
ATOM     81  C   UNL A   1      39.306  29.472  30.332  1.00  0.00     0.064 A 
ATOM     82  C   UNL A   1      38.174  29.975  29.679  1.00  0.00     0.173 A 
ATOM     83  C   UNL A   1      39.236  29.305  31.723  1.00  0.00     0.173 A 
ATOM     84  F   UNL A   1      38.202  30.181  28.353  1.00  0.00    -0.203 F 
ATOM     85  C   UNL A   1      37.025  30.320  30.390  1.00  0.00     0.198 A 
ATOM     86  C   UNL A   1      38.078  29.621  32.430  1.00  0.00     0.198 A 
ATOM     87  F   UNL A   1      40.295  28.832  32.397  1.00  0.00    -0.203 F 
ATOM     88  F   UNL A   1      35.977  30.852  29.748  1.00  0.00    -0.200 F 
ATOM     89  C   UNL A   1      36.977  30.137  31.764  1.00  0.00     0.200 A 
ATOM     90  F   UNL A   1      38.035  29.438  33.756  1.00  0.00    -0.200 F 
ATOM     91  F   UNL A   1      35.874  30.473  32.448  1.00  0.00    -0.200 F 
ENDBRANCH  57  81
BRANCH  69  92
ATOM     92  C   UNL A   1      41.605  23.714  27.148  1.00  0.00     0.064 A 
ATOM     93  C   UNL A   1      42.204  22.595  27.745  1.00  0.00     0.173 A 
ATOM     94  C   UNL A   1      40.418  23.515  26.425  1.00  0.00     0.173 A 
ATOM     95  F   UNL A   1      43.346  22.729  28.436  1.00  0.00    -0.203 F 
ATOM     96  C   UNL A   1      41.656  21.323  27.594  1.00  0.00     0.198 A 
ATOM     97  C   UNL A   1      39.855  22.247  26.305  1.00  0.00     0.198 A 
ATOM     98  F   UNL A   1      39.799  24.552  25.843  1.00  0.00    -0.203 F 
ATOM     99  F   UNL A   1      42.277  20.261  28.126  1.00  0.00    -0.200 F 
ATOM    100  C   UNL A   1      40.480  21.151  26.880  1.00  0.00     0.200 A 
ATOM    101  F   UNL A   1      38.711  22.085  25.626  1.00  0.00    -0.200 F 
ATOM    102  F   UNL A   1      39.952  19.928  26.738  1.00  0.00    -0.200 F 
ENDBRANCH  69  92
ENDBRANCH  43  44
ENDBRANCH  36  38
ENDBRANCH  35  36
ENDBRANCH  34  35
ENDBRANCH  33  34
ENDBRANCH  32  33
ENDBRANCH  31  32
ENDBRANCH  30  31
ENDBRANCH  29  30
ENDBRANCH   1  29
TORSDOF 24
ENDMDL
MODEL 3
REMARK VINA RESULT:      -9.0      2.822      4.530
REMARK SMILES O=C(CC[N@H+]1CCC[C@@H](C(=O)OCCOCCOCCOCCOC(=O)c2ccc(-c3c4nc(c(-c5c(F)c(F)c(F)c(F)c5F)c5ccc([nH]5)c(-c5c(F)c(F)c(F)c(F)c5F)c5nc(c(-c6c(F)c(F)c(F)c(F)c6F)c6ccc3[nH]6)C=C5)C=C4)cc2)C1)Nc1cccc(F)c1
REMARK SMILES IDX 17 1 16 2 15 3 14 4 13 5 12 6 10 7 11 8 9 9 5 10 6 11 90 12
REMARK SMILES IDX 7 14 8 15 4 16 3 17 2 18 1 19 91 20 92 22 93 23 98 24 94 25
REMARK SMILES IDX 96 26 95 27 97 28 18 29 19 30 20 31 21 32 22 33 23 34 24 35
REMARK SMILES IDX 25 36 26 37 27 38 28 39 89 40 29 41 88 42 30 43 31 44 32 45
REMARK SMILES IDX 82 46 33 47 87 48 81 49 83 50 34 51 86 52 80 53 79 54 35 56
REMARK SMILES IDX 67 57 47 58 66 59 48 60 51 61 65 62 84 63 49 64 50 65 64 67
REMARK SMILES IDX 85 68 52 69 36 70 37 71 45 72 38 73 39 74 43 75 46 76 40 77
REMARK SMILES IDX 41 78 44 79 42 80 68 81 69 82 77 83 70 84 71 85 75 86 78 87
REMARK SMILES IDX 72 88 73 89 76 90 74 91 53 92 54 93 62 94 55 95 56 96 60 97
REMARK SMILES IDX 63 98 57 99 58 100 61 101 59 102
REMARK H PARENT 5 13 91 21 83 55 51 66
REMARK Flexibility Score: inf
ROOT
ATOM      1  C   UNL A   1      35.166  21.347  24.995  1.00  0.00     0.188 C 
ENDROOT
BRANCH   1   2
ATOM      2  C   UNL A   1      33.713  20.925  24.736  1.00  0.00     0.188 C 
BRANCH   2   3
ATOM      3  O   UNL A   1      32.673  21.448  25.554  1.00  0.00    -0.376 OA
BRANCH   3   4
ATOM      4  C   UNL A   1      32.868  22.573  26.398  1.00  0.00     0.202 C 
BRANCH   4   5
ATOM      5  C   UNL A   1      31.642  23.358  26.843  1.00  0.00     0.261 C 
BRANCH   5   6
ATOM      6  O   UNL A   1      30.794  23.650  25.728  1.00  0.00    -0.463 OA
BRANCH   6   7
ATOM      7  C   UNL A   1      30.286  24.909  25.665  1.00  0.00     0.314 C 
ATOM      8  O   UNL A   1      29.576  25.437  26.506  1.00  0.00    -0.252 OA
BRANCH   7   9
ATOM      9  C   UNL A   1      30.683  25.535  24.356  1.00  0.00     0.154 C 
ATOM     10  N   UNL A   1      32.001  27.445  23.574  1.00  0.00    -0.334 N 
ATOM     11  C   UNL A   1      32.939  26.554  22.862  1.00  0.00     0.262 C 
ATOM     12  C   UNL A   1      31.529  26.727  24.768  1.00  0.00     0.277 C 
ATOM     13  H   UNL A   1      31.234  27.687  22.947  1.00  0.00     0.348 HD
ATOM     14  C   UNL A   1      32.193  25.320  22.337  1.00  0.00     0.062 C 
ATOM     15  C   UNL A   1      31.444  24.573  23.443  1.00  0.00     0.027 C 
BRANCH  10  16
ATOM     16  C   UNL A   1      32.640  28.708  23.989  1.00  0.00     0.272 C 
BRANCH  16  17
ATOM     17  C   UNL A   1      31.685  29.591  24.799  1.00  0.00     0.161 C 
BRANCH  17  18
ATOM     18  C   UNL A   1      32.274  30.188  26.067  1.00  0.00     0.230 C 
ATOM     19  O   UNL A   1      31.563  30.772  26.880  1.00  0.00    -0.275 OA
ATOM     20  N   UNL A   1      33.647  30.022  26.161  1.00  0.00    -0.326 N 
ATOM     21  H   UNL A   1      34.098  29.630  25.380  1.00  0.00     0.169 HD
BRANCH  20  22
ATOM     22  C   UNL A   1      34.468  30.360  27.260  1.00  0.00     0.044 A 
ATOM     23  C   UNL A   1      35.429  29.423  27.668  1.00  0.00     0.026 A 
ATOM     24  C   UNL A   1      34.353  31.557  27.966  1.00  0.00     0.065 A 
ATOM     25  C   UNL A   1      36.287  29.696  28.740  1.00  0.00     0.005 A 
ATOM     26  C   UNL A   1      35.196  31.810  29.047  1.00  0.00     0.125 A 
ATOM     27  C   UNL A   1      36.171  30.898  29.432  1.00  0.00     0.039 A 
ATOM     28  F   UNL A   1      35.060  32.947  29.741  1.00  0.00    -0.207 F 
ENDBRANCH  20  22
ENDBRANCH  17  18
ENDBRANCH  16  17
ENDBRANCH  10  16
ENDBRANCH   7   9
ENDBRANCH   6   7
ENDBRANCH   5   6
ENDBRANCH   4   5
ENDBRANCH   3   4
ENDBRANCH   2   3
ENDBRANCH   1   2
BRANCH   1  29
ATOM     29  O   UNL A   1      36.126  20.303  24.996  1.00  0.00    -0.377 OA
BRANCH  29  30
ATOM     30  C   UNL A   1      37.480  20.716  25.024  1.00  0.00     0.188 C 
BRANCH  30  31
ATOM     31  C   UNL A   1      38.513  19.589  24.855  1.00  0.00     0.188 C 
BRANCH  31  32
ATOM     32  O   UNL A   1      39.595  19.400  25.763  1.00  0.00    -0.376 OA
BRANCH  32  33
ATOM     33  C   UNL A   1      40.438  20.483  26.110  1.00  0.00     0.202 C 
BRANCH  33  34
ATOM     34  C   UNL A   1      41.928  20.272  25.807  1.00  0.00     0.261 C 
BRANCH  34  35
ATOM     35  O   UNL A   1      42.815  21.214  26.429  1.00  0.00    -0.460 OA
BRANCH  35  36
ATOM     36  C   UNL A   1      42.966  22.389  25.783  1.00  0.00     0.338 C 
ATOM     37  O   UNL A   1      43.021  22.578  24.569  1.00  0.00    -0.246 OA
BRANCH  36  38
ATOM     38  C   UNL A   1      42.954  23.490  26.764  1.00  0.00     0.060 A 
ATOM     39  C   UNL A   1      44.037  24.377  26.798  1.00  0.00     0.016 A 
ATOM     40  C   UNL A   1      41.906  23.620  27.680  1.00  0.00     0.016 A 
ATOM     41  C   UNL A   1      44.089  25.379  27.765  1.00  0.00     0.010 A 
ATOM     42  C   UNL A   1      41.971  24.607  28.666  1.00  0.00     0.010 A 
ATOM     43  C   UNL A   1      43.080  25.469  28.733  1.00  0.00    -0.014 A 
BRANCH  43  44
ATOM     44  C   UNL A   1      43.289  26.330  29.919  1.00  0.00     0.031 A 
ATOM     45  C   UNL A   1      43.989  25.745  31.115  1.00  0.00     0.074 A 
ATOM     46  C   UNL A   1      42.904  27.618  29.921  1.00  0.00     0.049 A 
ATOM     47  N   UNL A   1      44.283  26.299  32.263  1.00  0.00    -0.248 NA
ATOM     48  C   UNL A   1      44.417  24.341  30.997  1.00  0.00     0.031 C 
ATOM     49  C   UNL A   1      42.249  28.306  28.812  1.00  0.00     0.029 A 
ATOM     50  N   UNL A   1      43.008  28.575  30.900  1.00  0.00    -0.354 N 
ATOM     51  C   UNL A   1      44.928  25.315  33.001  1.00  0.00     0.074 A 
ATOM     52  C   UNL A   1      44.955  24.121  32.186  1.00  0.00     0.031 C 
ATOM     53  C   UNL A   1      42.002  29.577  29.173  1.00  0.00     0.029 A 
ATOM     54  C   UNL A   1      42.457  29.782  30.548  1.00  0.00     0.049 A 
ATOM     55  H   UNL A   1      43.437  28.412  31.771  1.00  0.00     0.167 HD
ATOM     56  C   UNL A   1      45.461  25.404  34.243  1.00  0.00     0.037 A 
ATOM     57  C   UNL A   1      42.324  30.915  31.265  1.00  0.00     0.037 A 
ATOM     58  C   UNL A   1      45.428  26.592  35.054  1.00  0.00     0.049 A 
ATOM     59  C   UNL A   1      42.861  30.965  32.673  1.00  0.00     0.074 A 
ATOM     60  C   UNL A   1      45.952  26.789  36.319  1.00  0.00     0.029 A 
ATOM     61  N   UNL A   1      44.827  27.785  34.680  1.00  0.00    -0.354 N 
ATOM     62  N   UNL A   1      43.494  30.041  33.354  1.00  0.00    -0.248 NA
ATOM     63  C   UNL A   1      42.668  32.223  33.409  1.00  0.00     0.031 C 
ATOM     64  C   UNL A   1      45.623  28.085  36.732  1.00  0.00     0.029 A 
ATOM     65  C   UNL A   1      44.941  28.714  35.702  1.00  0.00     0.049 A 
ATOM     66  H   UNL A   1      44.383  27.947  33.817  1.00  0.00     0.167 HD
ATOM     67  C   UNL A   1      43.796  30.610  34.586  1.00  0.00     0.074 A 
ATOM     68  C   UNL A   1      43.292  31.967  34.551  1.00  0.00     0.031 C 
ATOM     69  C   UNL A   1      44.431  30.060  35.651  1.00  0.00     0.037 A 
BRANCH  56  70
ATOM     70  C   UNL A   1      46.102  24.170  34.809  1.00  0.00     0.064 A 
ATOM     71  C   UNL A   1      45.381  23.258  35.593  1.00  0.00     0.173 A 
ATOM     72  C   UNL A   1      47.449  23.886  34.541  1.00  0.00     0.173 A 
ATOM     73  F   UNL A   1      44.095  23.493  35.892  1.00  0.00    -0.203 F 
ATOM     74  C   UNL A   1      45.993  22.118  36.110  1.00  0.00     0.198 A 
ATOM     75  C   UNL A   1      48.049  22.731  35.035  1.00  0.00     0.198 A 
ATOM     76  F   UNL A   1      48.183  24.726  33.796  1.00  0.00    -0.203 F 
ATOM     77  F   UNL A   1      45.298  21.284  36.896  1.00  0.00    -0.200 F 
ATOM     78  C   UNL A   1      47.324  21.852  35.825  1.00  0.00     0.200 A 
ATOM     79  F   UNL A   1      49.333  22.471  34.751  1.00  0.00    -0.200 F 
ATOM     80  F   UNL A   1      47.909  20.752  36.317  1.00  0.00    -0.200 F 
ENDBRANCH  56  70
BRANCH  57  81
ATOM     81  C   UNL A   1      41.638  32.094  30.672  1.00  0.00     0.064 A 
ATOM     82  C   UNL A   1      40.240  32.167  30.614  1.00  0.00     0.173 A 
ATOM     83  C   UNL A   1      42.370  33.159  30.125  1.00  0.00     0.173 A 
ATOM     84  F   UNL A   1      39.497  31.158  31.096  1.00  0.00    -0.203 F 
ATOM     85  C   UNL A   1      39.599  33.250  30.016  1.00  0.00     0.198 A 
ATOM     86  C   UNL A   1      41.727  34.255  29.554  1.00  0.00     0.198 A 
ATOM     87  F   UNL A   1      43.710  33.135  30.149  1.00  0.00    -0.203 F 
ATOM     88  F   UNL A   1      38.263  33.267  29.924  1.00  0.00    -0.200 F 
ATOM     89  C   UNL A   1      40.343  34.295  29.491  1.00  0.00     0.200 A 
ATOM     90  F   UNL A   1      42.452  35.265  29.052  1.00  0.00    -0.200 F 
ATOM     91  F   UNL A   1      39.727  35.335  28.911  1.00  0.00    -0.200 F 
ENDBRANCH  57  81
BRANCH  69  92
ATOM     92  C   UNL A   1      44.640  30.935  36.854  1.00  0.00     0.064 A 
ATOM     93  C   UNL A   1      45.881  31.529  37.127  1.00  0.00     0.173 A 
ATOM     94  C   UNL A   1      43.577  31.203  37.731  1.00  0.00     0.173 A 
ATOM     95  F   UNL A   1      46.932  31.294  36.326  1.00  0.00    -0.203 F 
ATOM     96  C   UNL A   1      46.060  32.330  38.251  1.00  0.00     0.198 A 
ATOM     97  C   UNL A   1      43.752  32.033  38.836  1.00  0.00     0.198 A 
ATOM     98  F   UNL A   1      42.367  30.670  37.511  1.00  0.00    -0.203 F 
ATOM     99  F   UNL A   1      47.269  32.841  38.522  1.00  0.00    -0.200 F 
ATOM    100  C   UNL A   1      44.994  32.587  39.102  1.00  0.00     0.200 A 
ATOM    101  F   UNL A   1      42.717  32.290  39.648  1.00  0.00    -0.200 F 
ATOM    102  F   UNL A   1      45.167  33.360  40.181  1.00  0.00    -0.200 F 
ENDBRANCH  69  92
ENDBRANCH  43  44
ENDBRANCH  36  38
ENDBRANCH  35  36
ENDBRANCH  34  35
ENDBRANCH  33  34
ENDBRANCH  32  33
ENDBRANCH  31  32
ENDBRANCH  30  31
ENDBRANCH  29  30
ENDBRANCH   1  29
TORSDOF 24
ENDMDL
