MODEL 1
REMARK VINA RESULT:     -10.2      0.000      0.000
REMARK SMILES NS(=O)(=O)c1ccc(C#Cc2cc(Cl)cc3c2O[C@H](C(F)(F)F)C(C(=O)OCCOCCOCCOCCOC(=O)c2ccc(-c4c5nc(c(-c6c(F)c(F)c(F)c(F)c6F)c6ccc([nH]6)c(-c6c(F)c(F)c(F)c(F)c6F)c6nc(c(-c7c(F)c(F)c(F)c(F)c7F)c7ccc4[nH]7)C=C6)C=C5)cc2)=C3)cc1
REMARK SMILES IDX 32 1 31 2 30 3 29 4 28 5 27 6 25 7 26 8 24 9 11 10 12 11
REMARK SMILES IDX 17 12 13 13 16 14 18 15 14 16 15 17 105 18 19 19 10 20 9 21
REMARK SMILES IDX 8 22 5 23 6 24 107 25 7 26 106 27 2 28 3 29 4 30 1 31 20 34
REMARK SMILES IDX 21 35 22 36 23 37 33 38 34 39 35 40 36 41 37 42 38 43 39 44
REMARK SMILES IDX 40 45 41 46 42 47 43 48 104 49 44 50 103 51 45 52 46 53
REMARK SMILES IDX 47 54 97 55 48 56 102 57 96 58 98 59 49 60 101 61 95 62
REMARK SMILES IDX 94 63 50 65 82 66 62 67 81 68 63 69 66 70 80 71 99 72 64 73
REMARK SMILES IDX 65 74 79 76 100 77 67 78 51 79 52 80 60 81 53 82 54 83 58 84
REMARK SMILES IDX 61 85 55 86 56 87 59 88 57 89 83 90 84 91 92 92 85 93 86 94
REMARK SMILES IDX 90 95 93 96 87 97 88 98 91 99 89 100 68 101 69 102 77 103
REMARK SMILES IDX 70 104 71 105 75 106 78 107 72 108 73 109 76 110 74 111
REMARK H PARENT 1 32 1 33 98 64 66 75
REMARK Flexibility Score: inf
ROOT
ATOM      1  C   UNL A   1      31.513  28.741  25.676  1.00  0.00     0.188 C 
ENDROOT
BRANCH   1   2
ATOM      2  C   UNL A   1      30.956  29.605  24.525  1.00  0.00     0.188 C 
BRANCH   2   3
ATOM      3  O   UNL A   1      30.421  28.881  23.436  1.00  0.00    -0.376 OA
BRANCH   3   4
ATOM      4  C   UNL A   1      30.684  27.511  23.211  1.00  0.00     0.202 C 
BRANCH   4   5
ATOM      5  C   UNL A   1      31.306  26.913  21.937  1.00  0.00     0.261 C 
BRANCH   5   6
ATOM      6  O   UNL A   1      31.595  25.518  21.932  1.00  0.00    -0.460 OA
BRANCH   6   7
ATOM      7  C   UNL A   1      31.190  24.820  23.011  1.00  0.00     0.338 C 
ATOM      8  O   UNL A   1      30.089  24.857  23.532  1.00  0.00    -0.246 OA
BRANCH   7   9
ATOM      9  C   UNL A   1      32.254  23.857  23.363  1.00  0.00     0.087 C 
ATOM     10  C   UNL A   1      35.095  21.120  24.728  1.00  0.00     0.069 A 
ATOM     11  C   UNL A   1      34.732  19.776  24.872  1.00  0.00     0.041 A 
ATOM     12  C   UNL A   1      34.189  22.036  24.167  1.00  0.00     0.143 A 
ATOM     13  C   UNL A   1      33.482  19.346  24.438  1.00  0.00     0.043 A 
ATOM     14  C   UNL A   1      32.916  21.600  23.785  1.00  0.00     0.020 A 
ATOM     15  O   UNL A   1      34.597  23.336  24.039  1.00  0.00    -0.474 OA
ATOM     16  Cl  UNL A   1      33.030  17.696  24.629  1.00  0.00    -0.084 Cl
ATOM     17  C   UNL A   1      32.575  20.247  23.888  1.00  0.00     0.032 A 
ATOM     18  C   UNL A   1      31.911  22.564  23.375  1.00  0.00     0.027 C 
ATOM     19  C   UNL A   1      33.645  24.359  23.643  1.00  0.00     0.316 C 
BRANCH  10  20
ATOM     20  C   UNL A   1      36.359  21.545  25.245  1.00  0.00    -0.058 C 
ATOM     21  C   UNL A   1      37.390  21.981  25.694  1.00  0.00    -0.062 C 
BRANCH  21  22
ATOM     22  C   UNL A   1      38.575  22.582  26.217  1.00  0.00     0.025 A 
ATOM     23  C   UNL A   1      40.842  23.725  27.372  1.00  0.00     0.082 A 
ATOM     24  C   UNL A   1      39.702  24.505  27.171  1.00  0.00     0.023 A 
ATOM     25  C   UNL A   1      40.864  22.382  26.978  1.00  0.00     0.023 A 
ATOM     26  C   UNL A   1      38.567  23.929  26.591  1.00  0.00     0.018 A 
ATOM     27  C   UNL A   1      39.727  21.811  26.402  1.00  0.00     0.018 A 
BRANCH  23  28
ATOM     28  S   UNL A   1      42.293  24.384  28.137  1.00  0.00     0.238 S 
ATOM     29  O   UNL A   1      42.928  23.330  28.892  1.00  0.00    -0.207 OA
ATOM     30  O   UNL A   1      41.959  25.666  28.709  1.00  0.00    -0.207 OA
BRANCH  28  31
ATOM     31  N   UNL A   1      43.343  24.714  26.866  1.00  0.00    -0.225 NA
ATOM     32  H   UNL A   1      43.753  25.639  26.995  1.00  0.00     0.137 HD
ATOM     33  H   UNL A   1      42.829  24.690  25.985  1.00  0.00     0.137 HD
ENDBRANCH  28  31
ENDBRANCH  23  28
ENDBRANCH  21  22
ENDBRANCH  10  20
BRANCH  19  34
ATOM     34  C   UNL A   1      33.652  25.460  24.712  1.00  0.00     0.430 C 
ATOM     35  F   UNL A   1      33.757  26.689  24.155  1.00  0.00    -0.167 F 
ATOM     36  F   UNL A   1      32.512  25.463  25.442  1.00  0.00    -0.167 F 
ATOM     37  F   UNL A   1      34.683  25.311  25.574  1.00  0.00    -0.167 F 
ENDBRANCH  19  34
ENDBRANCH   7   9
ENDBRANCH   6   7
ENDBRANCH   5   6
ENDBRANCH   4   5
ENDBRANCH   3   4
ENDBRANCH   2   3
ENDBRANCH   1   2
BRANCH   1  38
ATOM     38  O   UNL A   1      32.800  29.098  26.151  1.00  0.00    -0.377 OA
BRANCH  38  39
ATOM     39  C   UNL A   1      32.945  30.260  26.968  1.00  0.00     0.188 C 
BRANCH  39  40
ATOM     40  C   UNL A   1      34.318  30.803  27.447  1.00  0.00     0.188 C 
BRANCH  40  41
ATOM     41  O   UNL A   1      34.276  32.078  28.051  1.00  0.00    -0.376 OA
BRANCH  41  42
ATOM     42  C   UNL A   1      35.459  32.799  28.321  1.00  0.00     0.202 C 
BRANCH  42  43
ATOM     43  C   UNL A   1      35.425  34.031  29.236  1.00  0.00     0.261 C 
BRANCH  43  44
ATOM     44  O   UNL A   1      36.110  33.932  30.489  1.00  0.00    -0.460 OA
BRANCH  44  45
ATOM     45  C   UNL A   1      35.625  33.065  31.405  1.00  0.00     0.338 C 
ATOM     46  O   UNL A   1      34.514  32.573  31.441  1.00  0.00    -0.246 OA
BRANCH  45  47
ATOM     47  C   UNL A   1      36.773  32.662  32.251  1.00  0.00     0.060 A 
ATOM     48  C   UNL A   1      38.074  32.984  31.858  1.00  0.00     0.016 A 
ATOM     49  C   UNL A   1      36.550  31.891  33.401  1.00  0.00     0.016 A 
ATOM     50  C   UNL A   1      39.153  32.554  32.634  1.00  0.00     0.010 A 
ATOM     51  C   UNL A   1      37.633  31.447  34.167  1.00  0.00     0.010 A 
ATOM     52  C   UNL A   1      38.940  31.800  33.804  1.00  0.00    -0.014 A 
BRANCH  52  53
ATOM     53  C   UNL A   1      40.065  31.574  34.747  1.00  0.00     0.031 A 
ATOM     54  C   UNL A   1      40.424  32.547  35.827  1.00  0.00     0.074 A 
ATOM     55  C   UNL A   1      40.779  30.442  34.592  1.00  0.00     0.049 A 
ATOM     56  N   UNL A   1      41.346  32.437  36.754  1.00  0.00    -0.248 NA
ATOM     57  C   UNL A   1      39.666  33.803  35.877  1.00  0.00     0.031 C 
ATOM     58  C   UNL A   1      40.535  29.441  33.553  1.00  0.00     0.029 A 
ATOM     59  N   UNL A   1      41.837  29.938  35.303  1.00  0.00    -0.354 N 
ATOM     60  C   UNL A   1      41.263  33.595  37.513  1.00  0.00     0.074 A 
ATOM     61  C   UNL A   1      40.235  34.419  36.907  1.00  0.00     0.031 C 
ATOM     62  C   UNL A   1      41.392  28.424  33.716  1.00  0.00     0.029 A 
ATOM     63  C   UNL A   1      42.272  28.720  34.842  1.00  0.00     0.049 A 
ATOM     64  H   UNL A   1      42.245  30.404  36.068  1.00  0.00     0.167 HD
ATOM     65  C   UNL A   1      41.970  33.924  38.624  1.00  0.00     0.037 A 
ATOM     66  C   UNL A   1      43.270  27.926  35.275  1.00  0.00     0.037 A 
ATOM     67  C   UNL A   1      43.009  33.104  39.204  1.00  0.00     0.049 A 
ATOM     68  C   UNL A   1      44.073  28.346  36.473  1.00  0.00     0.074 A 
ATOM     69  C   UNL A   1      43.759  33.345  40.343  1.00  0.00     0.029 A 
ATOM     70  N   UNL A   1      43.454  31.895  38.687  1.00  0.00    -0.354 N 
ATOM     71  N   UNL A   1      43.940  29.410  37.227  1.00  0.00    -0.248 NA
ATOM     72  C   UNL A   1      45.159  27.449  36.887  1.00  0.00     0.031 C 
ATOM     73  C   UNL A   1      44.702  32.321  40.477  1.00  0.00     0.029 A 
ATOM     74  C   UNL A   1      44.490  31.397  39.467  1.00  0.00     0.049 A 
ATOM     75  H   UNL A   1      43.090  31.456  37.887  1.00  0.00     0.167 HD
ATOM     76  C   UNL A   1      44.903  29.297  38.219  1.00  0.00     0.074 A 
ATOM     77  C   UNL A   1      45.600  28.049  37.983  1.00  0.00     0.031 C 
ATOM     78  C   UNL A   1      45.182  30.153  39.233  1.00  0.00     0.037 A 
BRANCH  65  79
ATOM     79  C   UNL A   1      41.651  35.226  39.308  1.00  0.00     0.064 A 
ATOM     80  C   UNL A   1      42.298  36.417  38.946  1.00  0.00     0.173 A 
ATOM     81  C   UNL A   1      40.617  35.306  40.253  1.00  0.00     0.173 A 
ATOM     82  F   UNL A   1      43.293  36.400  38.047  1.00  0.00    -0.203 F 
ATOM     83  C   UNL A   1      41.932  37.636  39.515  1.00  0.00     0.198 A 
ATOM     84  C   UNL A   1      40.231  36.530  40.795  1.00  0.00     0.198 A 
ATOM     85  F   UNL A   1      39.953  34.202  40.627  1.00  0.00    -0.203 F 
ATOM     86  F   UNL A   1      42.584  38.755  39.172  1.00  0.00    -0.200 F 
ATOM     87  C   UNL A   1      40.890  37.692  40.428  1.00  0.00     0.200 A 
ATOM     88  F   UNL A   1      39.209  36.586  41.661  1.00  0.00    -0.200 F 
ATOM     89  F   UNL A   1      40.521  38.869  40.955  1.00  0.00    -0.200 F 
ENDBRANCH  65  79
BRANCH  66  90
ATOM     90  C   UNL A   1      43.528  26.636  34.585  1.00  0.00     0.064 A 
ATOM     91  C   UNL A   1      44.375  26.573  33.471  1.00  0.00     0.173 A 
ATOM     92  C   UNL A   1      42.958  25.438  35.041  1.00  0.00     0.173 A 
ATOM     93  F   UNL A   1      44.930  27.695  32.987  1.00  0.00    -0.203 F 
ATOM     94  C   UNL A   1      44.634  25.363  32.831  1.00  0.00     0.198 A 
ATOM     95  C   UNL A   1      43.246  24.223  34.424  1.00  0.00     0.198 A 
ATOM     96  F   UNL A   1      42.146  25.443  36.108  1.00  0.00    -0.203 F 
ATOM     97  F   UNL A   1      45.416  25.337  31.744  1.00  0.00    -0.200 F 
ATOM     98  C   UNL A   1      44.078  24.187  33.314  1.00  0.00     0.200 A 
ATOM     99  F   UNL A   1      42.724  23.088  34.908  1.00  0.00    -0.200 F 
ATOM    100  F   UNL A   1      44.340  23.022  32.710  1.00  0.00    -0.200 F 
ENDBRANCH  66  90
BRANCH  78 101
ATOM    101  C   UNL A   1      46.273  29.763  40.193  1.00  0.00     0.064 A 
ATOM    102  C   UNL A   1      46.007  29.023  41.355  1.00  0.00     0.173 A 
ATOM    103  C   UNL A   1      47.611  30.090  39.921  1.00  0.00     0.173 A 
ATOM    104  F   UNL A   1      44.745  28.693  41.671  1.00  0.00    -0.203 F 
ATOM    105  C   UNL A   1      47.033  28.650  42.219  1.00  0.00     0.198 A 
ATOM    106  C   UNL A   1      48.638  29.682  40.767  1.00  0.00     0.198 A 
ATOM    107  F   UNL A   1      47.927  30.791  38.821  1.00  0.00    -0.203 F 
ATOM    108  F   UNL A   1      46.747  27.989  43.351  1.00  0.00    -0.200 F 
ATOM    109  C   UNL A   1      48.349  28.970  41.919  1.00  0.00     0.200 A 
ATOM    110  F   UNL A   1      49.911  29.976  40.464  1.00  0.00    -0.200 F 
ATOM    111  F   UNL A   1      49.336  28.597  42.746  1.00  0.00    -0.200 F 
ENDBRANCH  78 101
ENDBRANCH  52  53
ENDBRANCH  45  47
ENDBRANCH  44  45
ENDBRANCH  43  44
ENDBRANCH  42  43
ENDBRANCH  41  42
ENDBRANCH  40  41
ENDBRANCH  39  40
ENDBRANCH  38  39
ENDBRANCH   1  38
TORSDOF 25
ENDMDL
MODEL 2
REMARK VINA RESULT:      -9.5      2.889      6.303
REMARK SMILES NS(=O)(=O)c1ccc(C#Cc2cc(Cl)cc3c2O[C@H](C(F)(F)F)C(C(=O)OCCOCCOCCOCCOC(=O)c2ccc(-c4c5nc(c(-c6c(F)c(F)c(F)c(F)c6F)c6ccc([nH]6)c(-c6c(F)c(F)c(F)c(F)c6F)c6nc(c(-c7c(F)c(F)c(F)c(F)c7F)c7ccc4[nH]7)C=C6)C=C5)cc2)=C3)cc1
REMARK SMILES IDX 32 1 31 2 30 3 29 4 28 5 27 6 25 7 26 8 24 9 11 10 12 11
REMARK SMILES IDX 17 12 13 13 16 14 18 15 14 16 15 17 105 18 19 19 10 20 9 21
REMARK SMILES IDX 8 22 5 23 6 24 107 25 7 26 106 27 2 28 3 29 4 30 1 31 20 34
REMARK SMILES IDX 21 35 22 36 23 37 33 38 34 39 35 40 36 41 37 42 38 43 39 44
REMARK SMILES IDX 40 45 41 46 42 47 43 48 104 49 44 50 103 51 45 52 46 53
REMARK SMILES IDX 47 54 97 55 48 56 102 57 96 58 98 59 49 60 101 61 95 62
REMARK SMILES IDX 94 63 50 65 82 66 62 67 81 68 63 69 66 70 80 71 99 72 64 73
REMARK SMILES IDX 65 74 79 76 100 77 67 78 51 79 52 80 60 81 53 82 54 83 58 84
REMARK SMILES IDX 61 85 55 86 56 87 59 88 57 89 83 90 84 91 92 92 85 93 86 94
REMARK SMILES IDX 90 95 93 96 87 97 88 98 91 99 89 100 68 101 69 102 77 103
REMARK SMILES IDX 70 104 71 105 75 106 78 107 72 108 73 109 76 110 74 111
REMARK H PARENT 1 32 1 33 98 64 66 75
REMARK Flexibility Score: inf
ROOT
ATOM      1  C   UNL A   1      31.697  28.871  25.663  1.00  0.00     0.188 C 
ENDROOT
BRANCH   1   2
ATOM      2  C   UNL A   1      31.096  29.795  24.582  1.00  0.00     0.188 C 
BRANCH   2   3
ATOM      3  O   UNL A   1      30.573  29.132  23.449  1.00  0.00    -0.376 OA
BRANCH   3   4
ATOM      4  C   UNL A   1      30.608  27.729  23.287  1.00  0.00     0.202 C 
BRANCH   4   5
ATOM      5  C   UNL A   1      31.697  26.938  22.541  1.00  0.00     0.261 C 
BRANCH   5   6
ATOM      6  O   UNL A   1      31.511  25.534  22.391  1.00  0.00    -0.460 OA
BRANCH   6   7
ATOM      7  C   UNL A   1      31.260  24.840  23.518  1.00  0.00     0.338 C 
ATOM      8  O   UNL A   1      30.225  24.841  24.160  1.00  0.00    -0.246 OA
BRANCH   7   9
ATOM      9  C   UNL A   1      32.397  23.928  23.761  1.00  0.00     0.087 C 
ATOM     10  C   UNL A   1      35.470  21.311  24.825  1.00  0.00     0.069 A 
ATOM     11  C   UNL A   1      35.194  19.943  24.929  1.00  0.00     0.041 A 
ATOM     12  C   UNL A   1      34.480  22.194  24.362  1.00  0.00     0.143 A 
ATOM     13  C   UNL A   1      33.946  19.457  24.551  1.00  0.00     0.043 A 
ATOM     14  C   UNL A   1      33.212  21.699  24.038  1.00  0.00     0.020 A 
ATOM     15  O   UNL A   1      34.804  23.520  24.270  1.00  0.00    -0.474 OA
ATOM     16  Cl  UNL A   1      33.602  17.777  24.694  1.00  0.00    -0.084 Cl
ATOM     17  C   UNL A   1      32.956  20.325  24.100  1.00  0.00     0.032 A 
ATOM     18  C   UNL A   1      32.130  22.618  23.734  1.00  0.00     0.027 C 
ATOM     19  C   UNL A   1      33.772  24.500  23.979  1.00  0.00     0.316 C 
BRANCH  10  20
ATOM     20  C   UNL A   1      36.738  21.788  25.284  1.00  0.00    -0.058 C 
ATOM     21  C   UNL A   1      37.819  22.113  25.708  1.00  0.00    -0.062 C 
BRANCH  21  22
ATOM     22  C   UNL A   1      39.096  22.425  26.266  1.00  0.00     0.025 A 
ATOM     23  C   UNL A   1      41.540  22.990  27.486  1.00  0.00     0.082 A 
ATOM     24  C   UNL A   1      40.545  23.969  27.446  1.00  0.00     0.023 A 
ATOM     25  C   UNL A   1      41.329  21.736  26.900  1.00  0.00     0.023 A 
ATOM     26  C   UNL A   1      39.322  23.683  26.832  1.00  0.00     0.018 A 
ATOM     27  C   UNL A   1      40.104  21.455  26.291  1.00  0.00     0.018 A 
BRANCH  23  28
ATOM     28  S   UNL A   1      43.093  23.278  28.281  1.00  0.00     0.238 S 
ATOM     29  O   UNL A   1      44.143  22.805  27.411  1.00  0.00    -0.207 OA
ATOM     30  O   UNL A   1      42.976  22.871  29.661  1.00  0.00    -0.207 OA
BRANCH  28  31
ATOM     31  N   UNL A   1      43.261  24.950  28.314  1.00  0.00    -0.225 NA
ATOM     32  H   UNL A   1      43.266  25.310  27.360  1.00  0.00     0.137 HD
ATOM     33  H   UNL A   1      44.138  25.194  28.774  1.00  0.00     0.137 HD
ENDBRANCH  28  31
ENDBRANCH  23  28
ENDBRANCH  21  22
ENDBRANCH  10  20
BRANCH  19  34
ATOM     34  C   UNL A   1      33.785  25.554  25.094  1.00  0.00     0.430 C 
ATOM     35  F   UNL A   1      33.932  26.803  24.594  1.00  0.00    -0.167 F 
ATOM     36  F   UNL A   1      32.630  25.554  25.801  1.00  0.00    -0.167 F 
ATOM     37  F   UNL A   1      34.793  25.341  25.970  1.00  0.00    -0.167 F 
ENDBRANCH  19  34
ENDBRANCH   7   9
ENDBRANCH   6   7
ENDBRANCH   5   6
ENDBRANCH   4   5
ENDBRANCH   3   4
ENDBRANCH   2   3
ENDBRANCH   1   2
BRANCH   1  38
ATOM     38  O   UNL A   1      32.924  29.297  26.228  1.00  0.00    -0.377 OA
BRANCH  38  39
ATOM     39  C   UNL A   1      32.957  30.495  27.005  1.00  0.00     0.188 C 
BRANCH  39  40
ATOM     40  C   UNL A   1      34.246  31.050  27.668  1.00  0.00     0.188 C 
BRANCH  40  41
ATOM     41  O   UNL A   1      34.042  32.127  28.557  1.00  0.00    -0.376 OA
BRANCH  41  42
ATOM     42  C   UNL A   1      35.106  32.664  29.312  1.00  0.00     0.202 C 
BRANCH  42  43
ATOM     43  C   UNL A   1      34.960  34.029  29.998  1.00  0.00     0.261 C 
BRANCH  43  44
ATOM     44  O   UNL A   1      35.532  34.170  31.301  1.00  0.00    -0.460 OA
BRANCH  44  45
ATOM     45  C   UNL A   1      34.811  33.728  32.356  1.00  0.00     0.338 C 
ATOM     46  O   UNL A   1      33.621  33.483  32.387  1.00  0.00    -0.246 OA
BRANCH  45  47
ATOM     47  C   UNL A   1      35.786  33.399  33.422  1.00  0.00     0.060 A 
ATOM     48  C   UNL A   1      36.478  32.186  33.383  1.00  0.00     0.016 A 
ATOM     49  C   UNL A   1      35.948  34.272  34.507  1.00  0.00     0.016 A 
ATOM     50  C   UNL A   1      37.354  31.861  34.420  1.00  0.00     0.010 A 
ATOM     51  C   UNL A   1      36.813  33.936  35.554  1.00  0.00     0.010 A 
ATOM     52  C   UNL A   1      37.544  32.741  35.503  1.00  0.00    -0.014 A 
BRANCH  52  53
ATOM     53  C   UNL A   1      38.658  32.504  36.456  1.00  0.00     0.031 A 
ATOM     54  C   UNL A   1      40.071  32.287  36.012  1.00  0.00     0.074 A 
ATOM     55  C   UNL A   1      38.351  32.481  37.767  1.00  0.00     0.049 A 
ATOM     56  N   UNL A   1      41.146  32.130  36.747  1.00  0.00    -0.248 NA
ATOM     57  C   UNL A   1      40.318  32.230  34.565  1.00  0.00     0.031 C 
ATOM     58  C   UNL A   1      37.002  32.650  38.308  1.00  0.00     0.029 A 
ATOM     59  N   UNL A   1      39.140  32.318  38.877  1.00  0.00    -0.354 N 
ATOM     60  C   UNL A   1      42.200  31.981  35.857  1.00  0.00     0.074 A 
ATOM     61  C   UNL A   1      41.628  32.015  34.525  1.00  0.00     0.031 C 
ATOM     62  C   UNL A   1      37.060  32.621  39.646  1.00  0.00     0.029 A 
ATOM     63  C   UNL A   1      38.442  32.388  40.057  1.00  0.00     0.049 A 
ATOM     64  H   UNL A   1      40.111  32.165  38.831  1.00  0.00     0.167 HD
ATOM     65  C   UNL A   1      43.521  31.850  36.135  1.00  0.00     0.037 A 
ATOM     66  C   UNL A   1      38.863  32.278  41.331  1.00  0.00     0.037 A 
ATOM     67  C   UNL A   1      44.076  31.795  37.468  1.00  0.00     0.049 A 
ATOM     68  C   UNL A   1      40.326  32.074  41.603  1.00  0.00     0.074 A 
ATOM     69  C   UNL A   1      45.404  31.689  37.844  1.00  0.00     0.029 A 
ATOM     70  N   UNL A   1      43.336  31.826  38.642  1.00  0.00    -0.354 N 
ATOM     71  N   UNL A   1      41.324  32.006  40.756  1.00  0.00    -0.248 NA
ATOM     72  C   UNL A   1      40.724  31.942  43.010  1.00  0.00     0.031 C 
ATOM     73  C   UNL A   1      45.464  31.588  39.237  1.00  0.00     0.029 A 
ATOM     74  C   UNL A   1      44.179  31.710  39.740  1.00  0.00     0.049 A 
ATOM     75  H   UNL A   1      42.357  31.918  38.690  1.00  0.00     0.167 HD
ATOM     76  C   UNL A   1      42.469  31.853  41.526  1.00  0.00     0.074 A 
ATOM     77  C   UNL A   1      42.043  31.860  42.910  1.00  0.00     0.031 C 
ATOM     78  C   UNL A   1      43.755  31.718  41.118  1.00  0.00     0.037 A 
BRANCH  65  79
ATOM     79  C   UNL A   1      44.483  31.763  34.980  1.00  0.00     0.064 A 
ATOM     80  C   UNL A   1      44.779  30.534  34.370  1.00  0.00     0.173 A 
ATOM     81  C   UNL A   1      45.027  32.923  34.410  1.00  0.00     0.173 A 
ATOM     82  F   UNL A   1      44.285  29.393  34.872  1.00  0.00    -0.203 F 
ATOM     83  C   UNL A   1      45.594  30.471  33.241  1.00  0.00     0.198 A 
ATOM     84  C   UNL A   1      45.815  32.860  33.262  1.00  0.00     0.198 A 
ATOM     85  F   UNL A   1      44.766  34.127  34.942  1.00  0.00    -0.203 F 
ATOM     86  F   UNL A   1      45.884  29.283  32.693  1.00  0.00    -0.200 F 
ATOM     87  C   UNL A   1      46.101  31.634  32.682  1.00  0.00     0.200 A 
ATOM     88  F   UNL A   1      46.285  33.987  32.710  1.00  0.00    -0.200 F 
ATOM     89  F   UNL A   1      46.864  31.574  31.581  1.00  0.00    -0.200 F 
ENDBRANCH  65  79
BRANCH  66  90
ATOM     90  C   UNL A   1      37.880  32.400  42.438  1.00  0.00     0.064 A 
ATOM     91  C   UNL A   1      37.490  33.656  42.919  1.00  0.00     0.173 A 
ATOM     92  C   UNL A   1      37.289  31.266  43.017  1.00  0.00     0.173 A 
ATOM     93  F   UNL A   1      38.040  34.769  42.409  1.00  0.00    -0.203 F 
ATOM     94  C   UNL A   1      36.556  33.775  43.945  1.00  0.00     0.198 A 
ATOM     95  C   UNL A   1      36.329  31.387  44.017  1.00  0.00     0.198 A 
ATOM     96  F   UNL A   1      37.622  30.040  42.586  1.00  0.00    -0.203 F 
ATOM     97  F   UNL A   1      36.230  34.987  44.413  1.00  0.00    -0.200 F 
ATOM     98  C   UNL A   1      35.968  32.641  44.486  1.00  0.00     0.200 A 
ATOM     99  F   UNL A   1      35.747  30.289  44.521  1.00  0.00    -0.200 F 
ATOM    100  F   UNL A   1      35.057  32.757  45.461  1.00  0.00    -0.200 F 
ENDBRANCH  66  90
BRANCH  78 101
ATOM    101  C   UNL A   1      44.813  31.596  42.181  1.00  0.00     0.064 A 
ATOM    102  C   UNL A   1      45.431  32.723  42.744  1.00  0.00     0.173 A 
ATOM    103  C   UNL A   1      45.177  30.336  42.680  1.00  0.00     0.173 A 
ATOM    104  F   UNL A   1      45.129  33.952  42.297  1.00  0.00    -0.203 F 
ATOM    105  C   UNL A   1      46.390  32.591  43.744  1.00  0.00     0.198 A 
ATOM    106  C   UNL A   1      46.108  30.210  43.708  1.00  0.00     0.198 A 
ATOM    107  F   UNL A   1      44.615  29.222  42.186  1.00  0.00    -0.203 F 
ATOM    108  F   UNL A   1      47.006  33.680  44.228  1.00  0.00    -0.200 F 
ATOM    109  C   UNL A   1      46.720  31.337  44.233  1.00  0.00     0.200 A 
ATOM    110  F   UNL A   1      46.411  28.997  44.192  1.00  0.00    -0.200 F 
ATOM    111  F   UNL A   1      47.634  31.213  45.206  1.00  0.00    -0.200 F 
ENDBRANCH  78 101
ENDBRANCH  52  53
ENDBRANCH  45  47
ENDBRANCH  44  45
ENDBRANCH  43  44
ENDBRANCH  42  43
ENDBRANCH  41  42
ENDBRANCH  40  41
ENDBRANCH  39  40
ENDBRANCH  38  39
ENDBRANCH   1  38
TORSDOF 25
ENDMDL
MODEL 3
REMARK VINA RESULT:      -9.4      1.989      6.581
REMARK SMILES NS(=O)(=O)c1ccc(C#Cc2cc(Cl)cc3c2O[C@H](C(F)(F)F)C(C(=O)OCCOCCOCCOCCOC(=O)c2ccc(-c4c5nc(c(-c6c(F)c(F)c(F)c(F)c6F)c6ccc([nH]6)c(-c6c(F)c(F)c(F)c(F)c6F)c6nc(c(-c7c(F)c(F)c(F)c(F)c7F)c7ccc4[nH]7)C=C6)C=C5)cc2)=C3)cc1
REMARK SMILES IDX 32 1 31 2 30 3 29 4 28 5 27 6 25 7 26 8 24 9 11 10 12 11
REMARK SMILES IDX 17 12 13 13 16 14 18 15 14 16 15 17 105 18 19 19 10 20 9 21
REMARK SMILES IDX 8 22 5 23 6 24 107 25 7 26 106 27 2 28 3 29 4 30 1 31 20 34
REMARK SMILES IDX 21 35 22 36 23 37 33 38 34 39 35 40 36 41 37 42 38 43 39 44
REMARK SMILES IDX 40 45 41 46 42 47 43 48 104 49 44 50 103 51 45 52 46 53
REMARK SMILES IDX 47 54 97 55 48 56 102 57 96 58 98 59 49 60 101 61 95 62
REMARK SMILES IDX 94 63 50 65 82 66 62 67 81 68 63 69 66 70 80 71 99 72 64 73
REMARK SMILES IDX 65 74 79 76 100 77 67 78 51 79 52 80 60 81 53 82 54 83 58 84
REMARK SMILES IDX 61 85 55 86 56 87 59 88 57 89 83 90 84 91 92 92 85 93 86 94
REMARK SMILES IDX 90 95 93 96 87 97 88 98 91 99 89 100 68 101 69 102 77 103
REMARK SMILES IDX 70 104 71 105 75 106 78 107 72 108 73 109 76 110 74 111
REMARK H PARENT 1 32 1 33 98 64 66 75
REMARK Flexibility Score: inf
ROOT
ATOM      1  C   UNL A   1      31.683  28.559  24.926  1.00  0.00     0.188 C 
ENDROOT
BRANCH   1   2
ATOM      2  C   UNL A   1      30.561  28.683  23.872  1.00  0.00     0.188 C 
BRANCH   2   3
ATOM      3  O   UNL A   1      29.896  27.476  23.559  1.00  0.00    -0.376 OA
BRANCH   3   4
ATOM      4  C   UNL A   1      30.289  26.219  24.071  1.00  0.00     0.202 C 
BRANCH   4   5
ATOM      5  C   UNL A   1      31.170  25.188  23.344  1.00  0.00     0.261 C 
BRANCH   5   6
ATOM      6  O   UNL A   1      30.863  23.809  23.525  1.00  0.00    -0.460 OA
BRANCH   6   7
ATOM      7  C   UNL A   1      31.100  23.300  24.749  1.00  0.00     0.338 C 
ATOM      8  O   UNL A   1      30.368  23.366  25.720  1.00  0.00    -0.246 OA
BRANCH   7   9
ATOM      9  C   UNL A   1      32.331  22.485  24.679  1.00  0.00     0.087 C 
ATOM     10  C   UNL A   1      35.719  20.053  24.857  1.00  0.00     0.069 A 
ATOM     11  C   UNL A   1      35.574  18.670  24.701  1.00  0.00     0.041 A 
ATOM     12  C   UNL A   1      34.610  20.899  24.691  1.00  0.00     0.143 A 
ATOM     13  C   UNL A   1      34.334  18.138  24.359  1.00  0.00     0.043 A 
ATOM     14  C   UNL A   1      33.358  20.345  24.402  1.00  0.00     0.020 A 
ATOM     15  O   UNL A   1      34.808  22.245  24.845  1.00  0.00    -0.474 OA
ATOM     16  Cl  UNL A   1      34.152  16.436  24.183  1.00  0.00    -0.084 Cl
ATOM     17  C   UNL A   1      33.227  18.967  24.202  1.00  0.00     0.032 A 
ATOM     18  C   UNL A   1      32.173  21.185  24.408  1.00  0.00     0.027 C 
ATOM     19  C   UNL A   1      33.669  23.146  24.871  1.00  0.00     0.316 C 
BRANCH  10  20
ATOM     20  C   UNL A   1      36.989  20.563  25.273  1.00  0.00    -0.058 C 
ATOM     21  C   UNL A   1      38.025  21.073  25.622  1.00  0.00    -0.062 C 
BRANCH  21  22
ATOM     22  C   UNL A   1      39.216  21.758  26.010  1.00  0.00     0.025 A 
ATOM     23  C   UNL A   1      41.526  23.041  26.902  1.00  0.00     0.082 A 
ATOM     24  C   UNL A   1      40.291  23.683  27.018  1.00  0.00     0.023 A 
ATOM     25  C   UNL A   1      41.617  21.771  26.322  1.00  0.00     0.023 A 
ATOM     26  C   UNL A   1      39.135  23.036  26.569  1.00  0.00     0.018 A 
ATOM     27  C   UNL A   1      40.459  21.129  25.877  1.00  0.00     0.018 A 
BRANCH  23  28
ATOM     28  S   UNL A   1      43.018  23.789  27.487  1.00  0.00     0.238 S 
ATOM     29  O   UNL A   1      42.676  25.024  28.152  1.00  0.00    -0.207 OA
ATOM     30  O   UNL A   1      44.003  23.713  26.436  1.00  0.00    -0.207 OA
BRANCH  28  31
ATOM     31  N   UNL A   1      43.570  22.768  28.702  1.00  0.00    -0.225 NA
ATOM     32  H   UNL A   1      44.589  22.804  28.741  1.00  0.00     0.137 HD
ATOM     33  H   UNL A   1      43.271  21.813  28.505  1.00  0.00     0.137 HD
ENDBRANCH  28  31
ENDBRANCH  23  28
ENDBRANCH  21  22
ENDBRANCH  10  20
BRANCH  19  34
ATOM     34  C   UNL A   1      33.728  23.954  26.174  1.00  0.00     0.430 C 
ATOM     35  F   UNL A   1      33.942  23.153  27.244  1.00  0.00    -0.167 F 
ATOM     36  F   UNL A   1      34.735  24.859  26.162  1.00  0.00    -0.167 F 
ATOM     37  F   UNL A   1      32.579  24.633  26.393  1.00  0.00    -0.167 F 
ENDBRANCH  19  34
ENDBRANCH   7   9
ENDBRANCH   6   7
ENDBRANCH   5   6
ENDBRANCH   4   5
ENDBRANCH   3   4
ENDBRANCH   2   3
ENDBRANCH   1   2
BRANCH   1  38
ATOM     38  O   UNL A   1      32.575  29.656  25.010  1.00  0.00    -0.377 OA
BRANCH  38  39
ATOM     39  C   UNL A   1      32.470  30.560  26.111  1.00  0.00     0.188 C 
BRANCH  39  40
ATOM     40  C   UNL A   1      33.409  30.518  27.346  1.00  0.00     0.188 C 
BRANCH  40  41
ATOM     41  O   UNL A   1      34.211  31.666  27.524  1.00  0.00    -0.376 OA
BRANCH  41  42
ATOM     42  C   UNL A   1      34.574  32.113  28.812  1.00  0.00     0.202 C 
BRANCH  42  43
ATOM     43  C   UNL A   1      34.597  33.614  29.134  1.00  0.00     0.261 C 
BRANCH  43  44
ATOM     44  O   UNL A   1      35.434  34.036  30.214  1.00  0.00    -0.460 OA
BRANCH  44  45
ATOM     45  C   UNL A   1      34.893  34.075  31.453  1.00  0.00     0.338 C 
ATOM     46  O   UNL A   1      33.720  34.202  31.742  1.00  0.00    -0.246 OA
BRANCH  45  47
ATOM     47  C   UNL A   1      35.980  33.726  32.397  1.00  0.00     0.060 A 
ATOM     48  C   UNL A   1      35.881  32.571  33.176  1.00  0.00     0.016 A 
ATOM     49  C   UNL A   1      37.064  34.599  32.561  1.00  0.00     0.016 A 
ATOM     50  C   UNL A   1      36.884  32.277  34.102  1.00  0.00     0.010 A 
ATOM     51  C   UNL A   1      38.059  34.313  33.501  1.00  0.00     0.010 A 
ATOM     52  C   UNL A   1      37.990  33.134  34.258  1.00  0.00    -0.014 A 
BRANCH  52  53
ATOM     53  C   UNL A   1      39.163  32.684  35.050  1.00  0.00     0.031 A 
ATOM     54  C   UNL A   1      40.315  31.946  34.442  1.00  0.00     0.074 A 
ATOM     55  C   UNL A   1      39.156  32.958  36.368  1.00  0.00     0.049 A 
ATOM     56  N   UNL A   1      41.428  31.552  35.013  1.00  0.00    -0.248 NA
ATOM     57  C   UNL A   1      40.212  31.597  33.019  1.00  0.00     0.031 C 
ATOM     58  C   UNL A   1      38.070  33.645  37.070  1.00  0.00     0.029 A 
ATOM     59  N   UNL A   1      40.083  32.708  37.348  1.00  0.00    -0.354 N 
ATOM     60  C   UNL A   1      42.169  30.931  34.019  1.00  0.00     0.074 A 
ATOM     61  C   UNL A   1      41.357  30.955  32.817  1.00  0.00     0.031 C 
ATOM     62  C   UNL A   1      38.408  33.796  38.357  1.00  0.00     0.029 A 
ATOM     63  C   UNL A   1      39.712  33.180  38.582  1.00  0.00     0.049 A 
ATOM     64  H   UNL A   1      40.930  32.235  37.181  1.00  0.00     0.167 HD
ATOM     65  C   UNL A   1      43.419  30.410  34.104  1.00  0.00     0.037 A 
ATOM     66  C   UNL A   1      40.349  33.126  39.767  1.00  0.00     0.037 A 
ATOM     67  C   UNL A   1      44.208  30.371  35.313  1.00  0.00     0.049 A 
ATOM     68  C   UNL A   1      41.708  32.489  39.840  1.00  0.00     0.074 A 
ATOM     69  C   UNL A   1      45.494  29.887  35.487  1.00  0.00     0.029 A 
ATOM     70  N   UNL A   1      43.786  30.820  36.557  1.00  0.00    -0.354 N 
ATOM     71  N   UNL A   1      42.430  31.969  38.878  1.00  0.00    -0.248 NA
ATOM     72  C   UNL A   1      42.344  32.442  41.162  1.00  0.00     0.031 C 
ATOM     73  C   UNL A   1      45.823  29.978  36.842  1.00  0.00     0.029 A 
ATOM     74  C   UNL A   1      44.774  30.593  37.506  1.00  0.00     0.049 A 
ATOM     75  H   UNL A   1      42.914  31.238  36.740  1.00  0.00     0.167 HD
ATOM     76  C   UNL A   1      43.616  31.559  39.471  1.00  0.00     0.074 A 
ATOM     77  C   UNL A   1      43.524  31.912  40.873  1.00  0.00     0.031 C 
ATOM     78  C   UNL A   1      44.683  30.946  38.902  1.00  0.00     0.037 A 
BRANCH  65  79
ATOM     79  C   UNL A   1      44.035  29.838  32.855  1.00  0.00     0.064 A 
ATOM     80  C   UNL A   1      43.799  28.510  32.467  1.00  0.00     0.173 A 
ATOM     81  C   UNL A   1      44.777  30.650  31.984  1.00  0.00     0.173 A 
ATOM     82  F   UNL A   1      43.095  27.690  33.261  1.00  0.00    -0.203 F 
ATOM     83  C   UNL A   1      44.292  28.015  31.262  1.00  0.00     0.198 A 
ATOM     84  C   UNL A   1      45.241  30.162  30.764  1.00  0.00     0.198 A 
ATOM     85  F   UNL A   1      45.022  31.932  32.295  1.00  0.00    -0.203 F 
ATOM     86  F   UNL A   1      44.075  26.736  30.927  1.00  0.00    -0.200 F 
ATOM     87  C   UNL A   1      45.002  28.844  30.407  1.00  0.00     0.200 A 
ATOM     88  F   UNL A   1      45.907  30.971  29.928  1.00  0.00    -0.200 F 
ATOM     89  F   UNL A   1      45.454  28.373  29.236  1.00  0.00    -0.200 F 
ENDBRANCH  65  79
BRANCH  66  90
ATOM     90  C   UNL A   1      39.713  33.729  40.966  1.00  0.00     0.064 A 
ATOM     91  C   UNL A   1      39.935  35.072  41.300  1.00  0.00     0.173 A 
ATOM     92  C   UNL A   1      38.847  32.988  41.784  1.00  0.00     0.173 A 
ATOM     93  F   UNL A   1      40.768  35.817  40.558  1.00  0.00    -0.203 F 
ATOM     94  C   UNL A   1      39.327  35.646  42.414  1.00  0.00     0.198 A 
ATOM     95  C   UNL A   1      38.211  33.572  42.876  1.00  0.00     0.198 A 
ATOM     96  F   UNL A   1      38.594  31.701  41.503  1.00  0.00    -0.203 F 
ATOM     97  F   UNL A   1      39.588  36.921  42.733  1.00  0.00    -0.200 F 
ATOM     98  C   UNL A   1      38.457  34.900  43.195  1.00  0.00     0.200 A 
ATOM     99  F   UNL A   1      37.354  32.853  43.614  1.00  0.00    -0.200 F 
ATOM    100  F   UNL A   1      37.859  35.458  44.255  1.00  0.00    -0.200 F 
ENDBRANCH  66  90
BRANCH  78 101
ATOM    101  C   UNL A   1      45.861  30.638  39.784  1.00  0.00     0.064 A 
ATOM    102  C   UNL A   1      46.869  31.582  40.031  1.00  0.00     0.173 A 
ATOM    103  C   UNL A   1      45.959  29.396  40.434  1.00  0.00     0.173 A 
ATOM    104  F   UNL A   1      46.834  32.781  39.428  1.00  0.00    -0.203 F 
ATOM    105  C   UNL A   1      47.940  31.287  40.871  1.00  0.00     0.198 A 
ATOM    106  C   UNL A   1      47.010  29.119  41.303  1.00  0.00     0.198 A 
ATOM    107  F   UNL A   1      45.021  28.456  40.242  1.00  0.00    -0.203 F 
ATOM    108  F   UNL A   1      48.919  32.187  41.048  1.00  0.00    -0.200 F 
ATOM    109  C   UNL A   1      48.004  30.060  41.514  1.00  0.00     0.200 A 
ATOM    110  F   UNL A   1      47.059  27.940  41.939  1.00  0.00    -0.200 F 
ATOM    111  F   UNL A   1      49.029  29.783  42.333  1.00  0.00    -0.200 F 
ENDBRANCH  78 101
ENDBRANCH  52  53
ENDBRANCH  45  47
ENDBRANCH  44  45
ENDBRANCH  43  44
ENDBRANCH  42  43
ENDBRANCH  41  42
ENDBRANCH  40  41
ENDBRANCH  39  40
ENDBRANCH  38  39
ENDBRANCH   1  38
TORSDOF 25
ENDMDL
