MODEL 1
REMARK VINA RESULT:      -9.8      0.000      0.000
REMARK SMILES C[C@@H]1CCC[C@@](Cc2ncccn2)(C(=O)OCCOCCOCCOCCOC(=O)c2ccc(-c3c4nc(c(-c5c(F)c(F)c(F)c(F)c5F)c5ccc([nH]5)c(-c5c(F)c(F)c(F)c(F)c5F)c5nc(c(-c6c(F)c(F)c(F)c(F)c6F)c6ccc3[nH]6)C=C5)C=C4)cc2)C1
REMARK SMILES IDX 22 1 21 2 20 3 19 4 18 5 17 6 16 7 14 8 15 9 6 10 1 11 2 12
REMARK SMILES IDX 3 13 94 14 4 15 5 16 7 17 8 18 9 19 13 20 10 21 12 22 11 23
REMARK SMILES IDX 23 24 24 25 25 26 26 27 27 28 28 29 29 30 30 31 31 32 32 33
REMARK SMILES IDX 93 34 33 35 92 36 34 37 35 38 36 39 86 40 37 41 91 42 85 43
REMARK SMILES IDX 87 44 38 45 90 46 84 47 83 48 39 50 71 51 51 52 70 53 52 54
REMARK SMILES IDX 55 55 69 56 88 57 53 58 54 59 68 61 89 62 56 63 40 64 41 65
REMARK SMILES IDX 49 66 42 67 43 68 47 69 50 70 44 71 45 72 48 73 46 74 72 75
REMARK SMILES IDX 73 76 81 77 74 78 75 79 79 80 82 81 76 82 77 83 80 84 78 85
REMARK SMILES IDX 57 86 58 87 66 88 59 89 60 90 64 91 67 92 61 93 62 94 65 95
REMARK SMILES IDX 63 96
REMARK H PARENT 87 49 55 60
REMARK Flexibility Score: inf
ROOT
ATOM      1  O   UNL A   1      35.449  34.032  29.619  1.00  0.00    -0.377 OA
ENDROOT
BRANCH   1   2
ATOM      2  C   UNL A   1      35.293  32.640  29.806  1.00  0.00     0.188 C 
BRANCH   2   3
ATOM      3  C   UNL A   1      35.240  31.757  28.554  1.00  0.00     0.188 C 
BRANCH   3   4
ATOM      4  O   UNL A   1      34.101  30.955  28.346  1.00  0.00    -0.376 OA
BRANCH   4   5
ATOM      5  C   UNL A   1      33.623  30.652  27.047  1.00  0.00     0.202 C 
BRANCH   5   6
ATOM      6  C   UNL A   1      32.220  30.136  26.680  1.00  0.00     0.261 C 
BRANCH   6   7
ATOM      7  O   UNL A   1      32.062  29.369  25.481  1.00  0.00    -0.463 OA
BRANCH   7   8
ATOM      8  C   UNL A   1      31.467  28.171  25.669  1.00  0.00     0.312 C 
ATOM      9  O   UNL A   1      31.148  27.744  26.779  1.00  0.00    -0.252 OA
BRANCH   8  10
ATOM     10  C   UNL A   1      31.196  27.350  24.395  1.00  0.00     0.075 C 
ATOM     11  C   UNL A   1      32.947  25.626  22.107  1.00  0.00     0.007 C 
ATOM     12  C   UNL A   1      32.301  25.156  23.409  1.00  0.00    -0.013 C 
ATOM     13  C   UNL A   1      30.902  24.568  23.211  1.00  0.00     0.003 C 
ATOM     14  C   UNL A   1      32.302  26.251  24.474  1.00  0.00     0.022 C 
ATOM     15  C   UNL A   1      29.816  25.633  23.063  1.00  0.00     0.001 C 
ATOM     16  C   UNL A   1      29.827  26.635  24.228  1.00  0.00     0.019 C 
BRANCH  10  17
ATOM     17  C   UNL A   1      31.403  28.384  23.250  1.00  0.00     0.096 C 
BRANCH  17  18
ATOM     18  C   UNL A   1      30.145  29.194  22.995  1.00  0.00     0.129 A 
ATOM     19  N   UNL A   1      29.813  30.123  23.912  1.00  0.00    -0.241 NA
ATOM     20  N   UNL A   1      29.565  29.089  21.783  1.00  0.00    -0.241 NA
ATOM     21  C   UNL A   1      28.870  31.016  23.551  1.00  0.00     0.115 A 
ATOM     22  C   UNL A   1      28.646  30.020  21.468  1.00  0.00     0.115 A 
ATOM     23  C   UNL A   1      28.262  31.025  22.320  1.00  0.00     0.040 A 
ENDBRANCH  17  18
ENDBRANCH  10  17
ENDBRANCH   8  10
ENDBRANCH   7   8
ENDBRANCH   6   7
ENDBRANCH   5   6
ENDBRANCH   4   5
ENDBRANCH   3   4
ENDBRANCH   2   3
ENDBRANCH   1   2
BRANCH   1  24
ATOM     24  C   UNL A   1      34.489  34.931  30.154  1.00  0.00     0.188 C 
BRANCH  24  25
ATOM     25  C   UNL A   1      33.992  34.792  31.607  1.00  0.00     0.188 C 
BRANCH  25  26
ATOM     26  O   UNL A   1      34.852  35.331  32.592  1.00  0.00    -0.376 OA
BRANCH  26  27
ATOM     27  C   UNL A   1      35.602  34.448  33.412  1.00  0.00     0.202 C 
BRANCH  27  28
ATOM     28  C   UNL A   1      35.089  33.011  33.602  1.00  0.00     0.261 C 
BRANCH  28  29
ATOM     29  O   UNL A   1      35.977  31.950  33.210  1.00  0.00    -0.460 OA
BRANCH  29  30
ATOM     30  C   UNL A   1      37.210  31.913  33.750  1.00  0.00     0.338 C 
ATOM     31  O   UNL A   1      37.530  32.189  34.894  1.00  0.00    -0.246 OA
BRANCH  30  32
ATOM     32  C   UNL A   1      38.115  31.290  32.762  1.00  0.00     0.060 A 
ATOM     33  C   UNL A   1      39.142  30.450  33.213  1.00  0.00     0.016 A 
ATOM     34  C   UNL A   1      37.956  31.544  31.399  1.00  0.00     0.016 A 
ATOM     35  C   UNL A   1      40.042  29.896  32.303  1.00  0.00     0.010 A 
ATOM     36  C   UNL A   1      38.873  31.009  30.491  1.00  0.00     0.010 A 
ATOM     37  C   UNL A   1      39.942  30.215  30.943  1.00  0.00    -0.014 A 
BRANCH  37  38
ATOM     38  C   UNL A   1      41.070  29.900  30.032  1.00  0.00     0.031 A 
ATOM     39  C   UNL A   1      41.105  28.536  29.395  1.00  0.00     0.074 A 
ATOM     40  C   UNL A   1      42.023  30.804  29.750  1.00  0.00     0.049 A 
ATOM     41  N   UNL A   1      42.016  27.998  28.625  1.00  0.00    -0.248 NA
ATOM     42  C   UNL A   1      39.953  27.658  29.665  1.00  0.00     0.031 C 
ATOM     43  C   UNL A   1      42.067  32.174  30.257  1.00  0.00     0.029 A 
ATOM     44  N   UNL A   1      43.148  30.697  28.969  1.00  0.00    -0.354 N 
ATOM     45  C   UNL A   1      41.551  26.724  28.327  1.00  0.00     0.074 A 
ATOM     46  C   UNL A   1      40.295  26.553  29.022  1.00  0.00     0.031 C 
ATOM     47  C   UNL A   1      43.174  32.775  29.788  1.00  0.00     0.029 A 
ATOM     48  C   UNL A   1      43.935  31.822  28.981  1.00  0.00     0.049 A 
ATOM     49  H   UNL A   1      43.368  29.890  28.451  1.00  0.00     0.167 HD
ATOM     50  C   UNL A   1      42.116  25.784  27.532  1.00  0.00     0.037 A 
ATOM     51  C   UNL A   1      45.145  32.040  28.427  1.00  0.00     0.037 A 
ATOM     52  C   UNL A   1      43.365  25.956  26.842  1.00  0.00     0.049 A 
ATOM     53  C   UNL A   1      45.797  30.938  27.625  1.00  0.00     0.074 A 
ATOM     54  C   UNL A   1      44.023  25.064  26.013  1.00  0.00     0.029 A 
ATOM     55  N   UNL A   1      44.150  27.097  26.905  1.00  0.00    -0.354 N 
ATOM     56  N   UNL A   1      45.346  29.742  27.333  1.00  0.00    -0.248 NA
ATOM     57  C   UNL A   1      47.130  31.221  27.071  1.00  0.00     0.031 C 
ATOM     58  C   UNL A   1      45.233  25.644  25.622  1.00  0.00     0.029 A 
ATOM     59  C   UNL A   1      45.298  26.923  26.149  1.00  0.00     0.049 A 
ATOM     60  H   UNL A   1      43.924  27.912  27.411  1.00  0.00     0.167 HD
ATOM     61  C   UNL A   1      46.316  29.150  26.532  1.00  0.00     0.074 A 
ATOM     62  C   UNL A   1      47.374  30.123  26.371  1.00  0.00     0.031 C 
ATOM     63  C   UNL A   1      46.331  27.912  25.979  1.00  0.00     0.037 A 
BRANCH  50  64
ATOM     64  C   UNL A   1      41.398  24.475  27.379  1.00  0.00     0.064 A 
ATOM     65  C   UNL A   1      40.241  24.354  26.596  1.00  0.00     0.173 A 
ATOM     66  C   UNL A   1      41.908  23.313  27.980  1.00  0.00     0.173 A 
ATOM     67  F   UNL A   1      39.703  25.436  26.014  1.00  0.00    -0.203 F 
ATOM     68  C   UNL A   1      39.613  23.122  26.433  1.00  0.00     0.198 A 
ATOM     69  C   UNL A   1      41.295  22.078  27.789  1.00  0.00     0.198 A 
ATOM     70  F   UNL A   1      43.013  23.373  28.739  1.00  0.00    -0.203 F 
ATOM     71  F   UNL A   1      38.486  23.037  25.711  1.00  0.00    -0.200 F 
ATOM     72  C   UNL A   1      40.146  21.984  27.019  1.00  0.00     0.200 A 
ATOM     73  F   UNL A   1      41.821  20.978  28.345  1.00  0.00    -0.200 F 
ATOM     74  F   UNL A   1      39.550  20.797  26.846  1.00  0.00    -0.200 F 
ENDBRANCH  50  64
BRANCH  51  75
ATOM     75  C   UNL A   1      45.847  33.337  28.629  1.00  0.00     0.064 A 
ATOM     76  C   UNL A   1      46.644  33.566  29.761  1.00  0.00     0.173 A 
ATOM     77  C   UNL A   1      45.687  34.399  27.725  1.00  0.00     0.173 A 
ATOM     78  F   UNL A   1      46.811  32.594  30.669  1.00  0.00    -0.203 F 
ATOM     79  C   UNL A   1      47.216  34.814  30.001  1.00  0.00     0.198 A 
ATOM     80  C   UNL A   1      46.291  35.634  27.946  1.00  0.00     0.198 A 
ATOM     81  F   UNL A   1      44.939  34.238  26.622  1.00  0.00    -0.203 F 
ATOM     82  F   UNL A   1      47.911  35.024  31.127  1.00  0.00    -0.200 F 
ATOM     83  C   UNL A   1      47.042  35.847  29.091  1.00  0.00     0.200 A 
ATOM     84  F   UNL A   1      46.136  36.622  27.053  1.00  0.00    -0.200 F 
ATOM     85  F   UNL A   1      47.588  37.048  29.325  1.00  0.00    -0.200 F 
ENDBRANCH  51  75
BRANCH  63  86
ATOM     86  C   UNL A   1      47.497  27.557  25.099  1.00  0.00     0.064 A 
ATOM     87  C   UNL A   1      48.641  26.920  25.602  1.00  0.00     0.173 A 
ATOM     88  C   UNL A   1      47.447  27.820  23.721  1.00  0.00     0.173 A 
ATOM     89  F   UNL A   1      48.746  26.656  26.913  1.00  0.00    -0.203 F 
ATOM     90  C   UNL A   1      49.704  26.591  24.764  1.00  0.00     0.198 A 
ATOM     91  C   UNL A   1      48.494  27.455  22.880  1.00  0.00     0.198 A 
ATOM     92  F   UNL A   1      46.371  28.416  23.184  1.00  0.00    -0.203 F 
ATOM     93  F   UNL A   1      50.810  26.034  25.276  1.00  0.00    -0.200 F 
ATOM     94  C   UNL A   1      49.626  26.850  23.404  1.00  0.00     0.200 A 
ATOM     95  F   UNL A   1      48.408  27.689  21.563  1.00  0.00    -0.200 F 
ATOM     96  F   UNL A   1      50.646  26.523  22.598  1.00  0.00    -0.200 F 
ENDBRANCH  63  86
ENDBRANCH  37  38
ENDBRANCH  30  32
ENDBRANCH  29  30
ENDBRANCH  28  29
ENDBRANCH  27  28
ENDBRANCH  26  27
ENDBRANCH  25  26
ENDBRANCH  24  25
ENDBRANCH   1  24
TORSDOF 22
ENDMDL
MODEL 2
REMARK VINA RESULT:      -9.8      1.342      2.560
REMARK SMILES C[C@@H]1CCC[C@@](Cc2ncccn2)(C(=O)OCCOCCOCCOCCOC(=O)c2ccc(-c3c4nc(c(-c5c(F)c(F)c(F)c(F)c5F)c5ccc([nH]5)c(-c5c(F)c(F)c(F)c(F)c5F)c5nc(c(-c6c(F)c(F)c(F)c(F)c6F)c6ccc3[nH]6)C=C5)C=C4)cc2)C1
REMARK SMILES IDX 22 1 21 2 20 3 19 4 18 5 17 6 16 7 14 8 15 9 6 10 1 11 2 12
REMARK SMILES IDX 3 13 94 14 4 15 5 16 7 17 8 18 9 19 13 20 10 21 12 22 11 23
REMARK SMILES IDX 23 24 24 25 25 26 26 27 27 28 28 29 29 30 30 31 31 32 32 33
REMARK SMILES IDX 93 34 33 35 92 36 34 37 35 38 36 39 86 40 37 41 91 42 85 43
REMARK SMILES IDX 87 44 38 45 90 46 84 47 83 48 39 50 71 51 51 52 70 53 52 54
REMARK SMILES IDX 55 55 69 56 88 57 53 58 54 59 68 61 89 62 56 63 40 64 41 65
REMARK SMILES IDX 49 66 42 67 43 68 47 69 50 70 44 71 45 72 48 73 46 74 72 75
REMARK SMILES IDX 73 76 81 77 74 78 75 79 79 80 82 81 76 82 77 83 80 84 78 85
REMARK SMILES IDX 57 86 58 87 66 88 59 89 60 90 64 91 67 92 61 93 62 94 65 95
REMARK SMILES IDX 63 96
REMARK H PARENT 87 49 55 60
REMARK Flexibility Score: inf
ROOT
ATOM      1  O   UNL A   1      35.148  34.521  29.145  1.00  0.00    -0.377 OA
ENDROOT
BRANCH   1   2
ATOM      2  C   UNL A   1      35.782  33.292  29.439  1.00  0.00     0.188 C 
BRANCH   2   3
ATOM      3  C   UNL A   1      35.509  32.110  28.502  1.00  0.00     0.188 C 
BRANCH   3   4
ATOM      4  O   UNL A   1      35.931  30.827  28.900  1.00  0.00    -0.376 OA
BRANCH   4   5
ATOM      5  C   UNL A   1      35.391  29.648  28.328  1.00  0.00     0.202 C 
BRANCH   5   6
ATOM      6  C   UNL A   1      34.907  29.468  26.878  1.00  0.00     0.261 C 
BRANCH   6   7
ATOM      7  O   UNL A   1      33.966  28.427  26.593  1.00  0.00    -0.463 OA
BRANCH   7   8
ATOM      8  C   UNL A   1      32.961  28.803  25.772  1.00  0.00     0.312 C 
ATOM      9  O   UNL A   1      32.503  29.946  25.749  1.00  0.00    -0.252 OA
BRANCH   8  10
ATOM     10  C   UNL A   1      32.409  27.708  24.842  1.00  0.00     0.075 C 
ATOM     11  C   UNL A   1      29.436  26.371  24.037  1.00  0.00     0.007 C 
ATOM     12  C   UNL A   1      30.198  27.531  23.398  1.00  0.00    -0.013 C 
ATOM     13  C   UNL A   1      31.044  27.107  22.196  1.00  0.00     0.003 C 
ATOM     14  C   UNL A   1      31.028  28.301  24.423  1.00  0.00     0.022 C 
ATOM     15  C   UNL A   1      32.371  26.460  22.591  1.00  0.00     0.001 C 
ATOM     16  C   UNL A   1      33.185  27.348  23.546  1.00  0.00     0.019 C 
BRANCH  10  17
ATOM     17  C   UNL A   1      32.313  26.462  25.771  1.00  0.00     0.096 C 
BRANCH  17  18
ATOM     18  C   UNL A   1      33.123  25.298  25.230  1.00  0.00     0.129 A 
ATOM     19  N   UNL A   1      34.446  25.295  25.487  1.00  0.00    -0.241 NA
ATOM     20  N   UNL A   1      32.451  24.247  24.722  1.00  0.00    -0.241 NA
ATOM     21  C   UNL A   1      35.102  24.142  25.252  1.00  0.00     0.115 A 
ATOM     22  C   UNL A   1      33.152  23.115  24.528  1.00  0.00     0.115 A 
ATOM     23  C   UNL A   1      34.495  23.001  24.788  1.00  0.00     0.040 A 
ENDBRANCH  17  18
ENDBRANCH  10  17
ENDBRANCH   8  10
ENDBRANCH   7   8
ENDBRANCH   6   7
ENDBRANCH   5   6
ENDBRANCH   4   5
ENDBRANCH   3   4
ENDBRANCH   2   3
ENDBRANCH   1   2
BRANCH   1  24
ATOM     24  C   UNL A   1      34.044  34.952  29.928  1.00  0.00     0.188 C 
BRANCH  24  25
ATOM     25  C   UNL A   1      33.979  34.663  31.441  1.00  0.00     0.188 C 
BRANCH  25  26
ATOM     26  O   UNL A   1      34.989  35.280  32.216  1.00  0.00    -0.376 OA
BRANCH  26  27
ATOM     27  C   UNL A   1      35.854  34.469  32.996  1.00  0.00     0.202 C 
BRANCH  27  28
ATOM     28  C   UNL A   1      35.330  33.116  33.505  1.00  0.00     0.261 C 
BRANCH  28  29
ATOM     29  O   UNL A   1      36.079  31.949  33.128  1.00  0.00    -0.460 OA
BRANCH  29  30
ATOM     30  C   UNL A   1      37.268  31.731  33.721  1.00  0.00     0.338 C 
ATOM     31  O   UNL A   1      37.545  31.853  34.903  1.00  0.00    -0.246 OA
BRANCH  30  32
ATOM     32  C   UNL A   1      38.167  31.125  32.717  1.00  0.00     0.060 A 
ATOM     33  C   UNL A   1      39.190  30.270  33.146  1.00  0.00     0.016 A 
ATOM     34  C   UNL A   1      38.006  31.411  31.360  1.00  0.00     0.016 A 
ATOM     35  C   UNL A   1      40.085  29.732  32.221  1.00  0.00     0.010 A 
ATOM     36  C   UNL A   1      38.917  30.891  30.437  1.00  0.00     0.010 A 
ATOM     37  C   UNL A   1      39.983  30.081  30.869  1.00  0.00    -0.014 A 
BRANCH  37  38
ATOM     38  C   UNL A   1      41.106  29.781  29.947  1.00  0.00     0.031 A 
ATOM     39  C   UNL A   1      41.164  28.411  29.324  1.00  0.00     0.074 A 
ATOM     40  C   UNL A   1      42.036  30.702  29.644  1.00  0.00     0.049 A 
ATOM     41  N   UNL A   1      42.077  27.885  28.549  1.00  0.00    -0.248 NA
ATOM     42  C   UNL A   1      40.034  27.512  29.617  1.00  0.00     0.031 C 
ATOM     43  C   UNL A   1      42.057  32.078  30.137  1.00  0.00     0.029 A 
ATOM     44  N   UNL A   1      43.154  30.611  28.851  1.00  0.00    -0.354 N 
ATOM     45  C   UNL A   1      41.635  26.598  28.270  1.00  0.00     0.074 A 
ATOM     46  C   UNL A   1      40.391  26.407  28.982  1.00  0.00     0.031 C 
ATOM     47  C   UNL A   1      43.145  32.698  29.648  1.00  0.00     0.029 A 
ATOM     48  C   UNL A   1      43.916  31.753  28.841  1.00  0.00     0.049 A 
ATOM     49  H   UNL A   1      43.386  29.803  28.338  1.00  0.00     0.167 HD
ATOM     50  C   UNL A   1      42.211  25.662  27.478  1.00  0.00     0.037 A 
ATOM     51  C   UNL A   1      45.115  31.990  28.271  1.00  0.00     0.037 A 
ATOM     52  C   UNL A   1      43.448  25.853  26.771  1.00  0.00     0.049 A 
ATOM     53  C   UNL A   1      45.781  30.894  27.473  1.00  0.00     0.074 A 
ATOM     54  C   UNL A   1      44.115  24.967  25.944  1.00  0.00     0.029 A 
ATOM     55  N   UNL A   1      44.209  27.012  26.812  1.00  0.00    -0.354 N 
ATOM     56  N   UNL A   1      45.352  29.685  27.199  1.00  0.00    -0.248 NA
ATOM     57  C   UNL A   1      47.101  31.200  26.900  1.00  0.00     0.031 C 
ATOM     58  C   UNL A   1      45.308  25.568  25.532  1.00  0.00     0.029 A 
ATOM     59  C   UNL A   1      45.351  26.854  26.045  1.00  0.00     0.049 A 
ATOM     60  H   UNL A   1      43.972  27.826  27.313  1.00  0.00     0.167 HD
ATOM     61  C   UNL A   1      46.325  29.106  26.392  1.00  0.00     0.074 A 
ATOM     62  C   UNL A   1      47.360  30.100  26.208  1.00  0.00     0.031 C 
ATOM     63  C   UNL A   1      46.360  27.863  25.852  1.00  0.00     0.037 A 
BRANCH  50  64
ATOM     64  C   UNL A   1      41.520  24.336  27.348  1.00  0.00     0.064 A 
ATOM     65  C   UNL A   1      40.343  24.187  26.599  1.00  0.00     0.173 A 
ATOM     66  C   UNL A   1      42.074  23.188  27.934  1.00  0.00     0.173 A 
ATOM     67  F   UNL A   1      39.763  25.256  26.032  1.00  0.00    -0.203 F 
ATOM     68  C   UNL A   1      39.739  22.940  26.455  1.00  0.00     0.198 A 
ATOM     69  C   UNL A   1      41.485  21.938  27.762  1.00  0.00     0.198 A 
ATOM     70  F   UNL A   1      43.199  23.275  28.660  1.00  0.00    -0.203 F 
ATOM     71  F   UNL A   1      38.594  22.828  25.767  1.00  0.00    -0.200 F 
ATOM     72  C   UNL A   1      40.316  21.817  27.027  1.00  0.00     0.200 A 
ATOM     73  F   UNL A   1      42.052  20.851  28.303  1.00  0.00    -0.200 F 
ATOM     74  F   UNL A   1      39.743  20.615  26.872  1.00  0.00    -0.200 F 
ENDBRANCH  50  64
BRANCH  51  75
ATOM     75  C   UNL A   1      45.792  33.305  28.450  1.00  0.00     0.064 A 
ATOM     76  C   UNL A   1      45.570  34.365  27.559  1.00  0.00     0.173 A 
ATOM     77  C   UNL A   1      46.723  33.509  29.480  1.00  0.00     0.173 A 
ATOM     78  F   UNL A   1      44.707  34.216  26.543  1.00  0.00    -0.203 F 
ATOM     79  C   UNL A   1      46.281  35.559  27.666  1.00  0.00     0.198 A 
ATOM     80  C   UNL A   1      47.406  34.716  29.609  1.00  0.00     0.198 A 
ATOM     81  F   UNL A   1      46.976  32.531  30.364  1.00  0.00    -0.203 F 
ATOM     82  F   UNL A   1      46.100  36.527  26.757  1.00  0.00    -0.200 F 
ATOM     83  C   UNL A   1      47.196  35.735  28.693  1.00  0.00     0.200 A 
ATOM     84  F   UNL A   1      48.274  34.887  30.615  1.00  0.00    -0.200 F 
ATOM     85  F   UNL A   1      47.884  36.881  28.792  1.00  0.00    -0.200 F 
ENDBRANCH  51  75
BRANCH  63  86
ATOM     86  C   UNL A   1      47.524  27.523  24.962  1.00  0.00     0.064 A 
ATOM     87  C   UNL A   1      48.661  26.859  25.445  1.00  0.00     0.173 A 
ATOM     88  C   UNL A   1      47.477  27.830  23.592  1.00  0.00     0.173 A 
ATOM     89  F   UNL A   1      48.762  26.553  26.747  1.00  0.00    -0.203 F 
ATOM     90  C   UNL A   1      49.720  26.545  24.598  1.00  0.00     0.198 A 
ATOM     91  C   UNL A   1      48.521  27.480  22.741  1.00  0.00     0.198 A 
ATOM     92  F   UNL A   1      46.408  28.454  23.074  1.00  0.00    -0.203 F 
ATOM     93  F   UNL A   1      50.820  25.961  25.092  1.00  0.00    -0.200 F 
ATOM     94  C   UNL A   1      49.647  26.848  23.246  1.00  0.00     0.200 A 
ATOM     95  F   UNL A   1      48.438  27.756  21.432  1.00  0.00    -0.200 F 
ATOM     96  F   UNL A   1      50.664  26.535  22.431  1.00  0.00    -0.200 F 
ENDBRANCH  63  86
ENDBRANCH  37  38
ENDBRANCH  30  32
ENDBRANCH  29  30
ENDBRANCH  28  29
ENDBRANCH  27  28
ENDBRANCH  26  27
ENDBRANCH  25  26
ENDBRANCH  24  25
ENDBRANCH   1  24
TORSDOF 22
ENDMDL
MODEL 3
REMARK VINA RESULT:      -9.5      2.761      8.038
REMARK SMILES C[C@@H]1CCC[C@@](Cc2ncccn2)(C(=O)OCCOCCOCCOCCOC(=O)c2ccc(-c3c4nc(c(-c5c(F)c(F)c(F)c(F)c5F)c5ccc([nH]5)c(-c5c(F)c(F)c(F)c(F)c5F)c5nc(c(-c6c(F)c(F)c(F)c(F)c6F)c6ccc3[nH]6)C=C5)C=C4)cc2)C1
REMARK SMILES IDX 22 1 21 2 20 3 19 4 18 5 17 6 16 7 14 8 15 9 6 10 1 11 2 12
REMARK SMILES IDX 3 13 94 14 4 15 5 16 7 17 8 18 9 19 13 20 10 21 12 22 11 23
REMARK SMILES IDX 23 24 24 25 25 26 26 27 27 28 28 29 29 30 30 31 31 32 32 33
REMARK SMILES IDX 93 34 33 35 92 36 34 37 35 38 36 39 86 40 37 41 91 42 85 43
REMARK SMILES IDX 87 44 38 45 90 46 84 47 83 48 39 50 71 51 51 52 70 53 52 54
REMARK SMILES IDX 55 55 69 56 88 57 53 58 54 59 68 61 89 62 56 63 40 64 41 65
REMARK SMILES IDX 49 66 42 67 43 68 47 69 50 70 44 71 45 72 48 73 46 74 72 75
REMARK SMILES IDX 73 76 81 77 74 78 75 79 79 80 82 81 76 82 77 83 80 84 78 85
REMARK SMILES IDX 57 86 58 87 66 88 59 89 60 90 64 91 67 92 61 93 62 94 65 95
REMARK SMILES IDX 63 96
REMARK H PARENT 87 49 55 60
REMARK Flexibility Score: inf
ROOT
ATOM      1  O   UNL A   1      34.020  34.417  28.795  1.00  0.00    -0.377 OA
ENDROOT
BRANCH   1   2
ATOM      2  C   UNL A   1      33.716  33.197  28.147  1.00  0.00     0.188 C 
BRANCH   2   3
ATOM      3  C   UNL A   1      34.699  32.035  28.326  1.00  0.00     0.188 C 
BRANCH   3   4
ATOM      4  O   UNL A   1      34.562  30.906  27.495  1.00  0.00    -0.376 OA
BRANCH   4   5
ATOM      5  C   UNL A   1      33.363  30.635  26.789  1.00  0.00     0.202 C 
BRANCH   5   6
ATOM      6  C   UNL A   1      32.485  29.378  26.917  1.00  0.00     0.261 C 
BRANCH   6   7
ATOM      7  O   UNL A   1      32.555  28.384  25.889  1.00  0.00    -0.463 OA
BRANCH   7   8
ATOM      8  C   UNL A   1      31.607  27.427  25.982  1.00  0.00     0.312 C 
ATOM      9  O   UNL A   1      30.920  27.255  26.990  1.00  0.00    -0.252 OA
BRANCH   8  10
ATOM     10  C   UNL A   1      31.420  26.544  24.735  1.00  0.00     0.075 C 
ATOM     11  C   UNL A   1      33.330  25.068  22.401  1.00  0.00     0.007 C 
ATOM     12  C   UNL A   1      32.820  24.531  23.737  1.00  0.00    -0.013 C 
ATOM     13  C   UNL A   1      31.526  23.725  23.609  1.00  0.00     0.003 C 
ATOM     14  C   UNL A   1      32.689  25.637  24.783  1.00  0.00     0.022 C 
ATOM     15  C   UNL A   1      30.279  24.600  23.491  1.00  0.00     0.001 C 
ATOM     16  C   UNL A   1      30.177  25.618  24.638  1.00  0.00     0.019 C 
BRANCH  10  17
ATOM     17  C   UNL A   1      31.413  27.571  23.565  1.00  0.00     0.096 C 
BRANCH  17  18
ATOM     18  C   UNL A   1      30.142  28.402  23.559  1.00  0.00     0.129 A 
ATOM     19  N   UNL A   1      30.268  29.722  23.798  1.00  0.00    -0.241 NA
ATOM     20  N   UNL A   1      29.014  27.821  23.109  1.00  0.00    -0.241 NA
ATOM     21  C   UNL A   1      29.196  30.489  23.519  1.00  0.00     0.115 A 
ATOM     22  C   UNL A   1      27.981  28.638  22.827  1.00  0.00     0.115 A 
ATOM     23  C   UNL A   1      28.021  29.998  23.006  1.00  0.00     0.040 A 
ENDBRANCH  17  18
ENDBRANCH  10  17
ENDBRANCH   8  10
ENDBRANCH   7   8
ENDBRANCH   6   7
ENDBRANCH   5   6
ENDBRANCH   4   5
ENDBRANCH   3   4
ENDBRANCH   2   3
ENDBRANCH   1   2
BRANCH   1  24
ATOM     24  C   UNL A   1      32.991  35.146  29.449  1.00  0.00     0.188 C 
BRANCH  24  25
ATOM     25  C   UNL A   1      33.255  36.551  30.025  1.00  0.00     0.188 C 
BRANCH  25  26
ATOM     26  O   UNL A   1      32.568  36.849  31.225  1.00  0.00    -0.376 OA
BRANCH  26  27
ATOM     27  C   UNL A   1      32.879  36.115  32.400  1.00  0.00     0.202 C 
BRANCH  27  28
ATOM     28  C   UNL A   1      34.355  35.966  32.802  1.00  0.00     0.261 C 
BRANCH  28  29
ATOM     29  O   UNL A   1      34.677  34.884  33.692  1.00  0.00    -0.460 OA
BRANCH  29  30
ATOM     30  C   UNL A   1      34.442  33.623  33.281  1.00  0.00     0.338 C 
ATOM     31  O   UNL A   1      33.366  33.053  33.206  1.00  0.00    -0.246 OA
BRANCH  30  32
ATOM     32  C   UNL A   1      35.707  33.082  32.744  1.00  0.00     0.060 A 
ATOM     33  C   UNL A   1      36.547  32.345  33.590  1.00  0.00     0.016 A 
ATOM     34  C   UNL A   1      36.066  33.311  31.415  1.00  0.00     0.016 A 
ATOM     35  C   UNL A   1      37.772  31.872  33.120  1.00  0.00     0.010 A 
ATOM     36  C   UNL A   1      37.305  32.858  30.952  1.00  0.00     0.010 A 
ATOM     37  C   UNL A   1      38.178  32.171  31.814  1.00  0.00    -0.014 A 
BRANCH  37  38
ATOM     38  C   UNL A   1      39.593  31.957  31.419  1.00  0.00     0.031 A 
ATOM     39  C   UNL A   1      40.590  33.038  31.744  1.00  0.00     0.074 A 
ATOM     40  C   UNL A   1      39.993  30.825  30.816  1.00  0.00     0.049 A 
ATOM     41  N   UNL A   1      41.860  33.119  31.442  1.00  0.00    -0.248 NA
ATOM     42  C   UNL A   1      40.081  34.184  32.517  1.00  0.00     0.031 C 
ATOM     43  C   UNL A   1      39.135  29.684  30.501  1.00  0.00     0.029 A 
ATOM     44  N   UNL A   1      41.231  30.455  30.350  1.00  0.00    -0.354 N 
ATOM     45  C   UNL A   1      42.297  34.322  31.980  1.00  0.00     0.074 A 
ATOM     46  C   UNL A   1      41.154  34.956  32.599  1.00  0.00     0.031 C 
ATOM     47  C   UNL A   1      39.871  28.747  29.878  1.00  0.00     0.029 A 
ATOM     48  C   UNL A   1      41.239  29.238  29.715  1.00  0.00     0.049 A 
ATOM     49  H   UNL A   1      42.036  31.010  30.462  1.00  0.00     0.167 HD
ATOM     50  C   UNL A   1      43.546  34.846  31.970  1.00  0.00     0.037 A 
ATOM     51  C   UNL A   1      42.232  28.612  29.051  1.00  0.00     0.037 A 
ATOM     52  C   UNL A   1      44.681  34.216  31.353  1.00  0.00     0.049 A 
ATOM     53  C   UNL A   1      43.592  29.266  28.972  1.00  0.00     0.074 A 
ATOM     54  C   UNL A   1      45.988  34.666  31.288  1.00  0.00     0.029 A 
ATOM     55  N   UNL A   1      44.643  32.999  30.690  1.00  0.00    -0.354 N 
ATOM     56  N   UNL A   1      44.004  30.396  29.496  1.00  0.00    -0.248 NA
ATOM     57  C   UNL A   1      44.628  28.553  28.210  1.00  0.00     0.031 C 
ATOM     58  C   UNL A   1      46.727  33.750  30.534  1.00  0.00     0.029 A 
ATOM     59  C   UNL A   1      45.898  32.694  30.190  1.00  0.00     0.049 A 
ATOM     60  H   UNL A   1      43.842  32.434  30.589  1.00  0.00     0.167 HD
ATOM     61  C   UNL A   1      45.349  30.507  29.163  1.00  0.00     0.074 A 
ATOM     62  C   UNL A   1      45.689  29.323  28.405  1.00  0.00     0.031 C 
ATOM     63  C   UNL A   1      46.225  31.498  29.458  1.00  0.00     0.037 A 
BRANCH  50  64
ATOM     64  C   UNL A   1      43.749  36.180  32.629  1.00  0.00     0.064 A 
ATOM     65  C   UNL A   1      43.968  36.296  34.009  1.00  0.00     0.173 A 
ATOM     66  C   UNL A   1      43.781  37.353  31.858  1.00  0.00     0.173 A 
ATOM     67  F   UNL A   1      43.931  35.207  34.792  1.00  0.00    -0.203 F 
ATOM     68  C   UNL A   1      44.196  37.538  34.596  1.00  0.00     0.198 A 
ATOM     69  C   UNL A   1      44.041  38.589  32.444  1.00  0.00     0.198 A 
ATOM     70  F   UNL A   1      43.578  37.298  30.533  1.00  0.00    -0.203 F 
ATOM     71  F   UNL A   1      44.365  37.629  35.923  1.00  0.00    -0.200 F 
ATOM     72  C   UNL A   1      44.244  38.681  33.813  1.00  0.00     0.200 A 
ATOM     73  F   UNL A   1      44.100  39.690  31.683  1.00  0.00    -0.200 F 
ATOM     74  F   UNL A   1      44.481  39.872  34.377  1.00  0.00    -0.200 F 
ENDBRANCH  50  64
BRANCH  51  75
ATOM     75  C   UNL A   1      41.988  27.307  28.377  1.00  0.00     0.064 A 
ATOM     76  C   UNL A   1      41.376  27.243  27.116  1.00  0.00     0.173 A 
ATOM     77  C   UNL A   1      42.303  26.093  29.005  1.00  0.00     0.173 A 
ATOM     78  F   UNL A   1      41.032  28.373  26.480  1.00  0.00    -0.203 F 
ATOM     79  C   UNL A   1      41.053  26.020  26.531  1.00  0.00     0.198 A 
ATOM     80  C   UNL A   1      42.016  24.871  28.403  1.00  0.00     0.198 A 
ATOM     81  F   UNL A   1      42.892  26.092  30.212  1.00  0.00    -0.203 F 
ATOM     82  F   UNL A   1      40.404  25.990  25.359  1.00  0.00    -0.200 F 
ATOM     83  C   UNL A   1      41.377  24.834  27.174  1.00  0.00     0.200 A 
ATOM     84  F   UNL A   1      42.348  23.729  29.021  1.00  0.00    -0.200 F 
ATOM     85  F   UNL A   1      41.062  23.658  26.614  1.00  0.00    -0.200 F 
ENDBRANCH  51  75
BRANCH  63  86
ATOM     86  C   UNL A   1      47.651  31.322  29.013  1.00  0.00     0.064 A 
ATOM     87  C   UNL A   1      48.119  31.837  27.795  1.00  0.00     0.173 A 
ATOM     88  C   UNL A   1      48.573  30.665  29.843  1.00  0.00     0.173 A 
ATOM     89  F   UNL A   1      47.278  32.464  26.959  1.00  0.00    -0.203 F 
ATOM     90  C   UNL A   1      49.447  31.671  27.411  1.00  0.00     0.198 A 
ATOM     91  C   UNL A   1      49.908  30.534  29.474  1.00  0.00     0.198 A 
ATOM     92  F   UNL A   1      48.182  30.163  31.025  1.00  0.00    -0.203 F 
ATOM     93  F   UNL A   1      49.858  32.122  26.218  1.00  0.00    -0.200 F 
ATOM     94  C   UNL A   1      50.342  31.028  28.252  1.00  0.00     0.200 A 
ATOM     95  F   UNL A   1      50.775  29.930  30.298  1.00  0.00    -0.200 F 
ATOM     96  F   UNL A   1      51.622  30.879  27.885  1.00  0.00    -0.200 F 
ENDBRANCH  63  86
ENDBRANCH  37  38
ENDBRANCH  30  32
ENDBRANCH  29  30
ENDBRANCH  28  29
ENDBRANCH  27  28
ENDBRANCH  26  27
ENDBRANCH  25  26
ENDBRANCH  24  25
ENDBRANCH   1  24
TORSDOF 22
ENDMDL
