MODEL 1
REMARK VINA RESULT:      -9.5      0.000      0.000
REMARK SMILES C#CCOc1ccccc1/C=C(\C#N)C(=O)OCCOCCOCCOCCOC(=O)c1ccc(-c2c3nc(c(-c4c(F)c(F)c(F)c(F)c4F)c4ccc([nH]4)c(-c4c(F)c(F)c(F)c(F)c4F)c4nc(c(-c5c(F)c(F)c(F)c(F)c5F)c5ccc2[nH]5)C=C4)C=C3)cc1
REMARK SMILES IDX 22 1 21 2 20 3 19 4 18 5 17 6 15 7 16 8 12 9 11 10 10 11
REMARK SMILES IDX 5 12 6 13 7 14 9 15 8 16 4 17 3 18 2 19 1 20 13 21 14 22
REMARK SMILES IDX 23 23 24 24 25 25 26 26 27 27 28 28 29 29 30 30 31 31 32 32
REMARK SMILES IDX 33 33 94 34 34 35 93 36 35 37 36 38 37 39 87 40 38 41 92 42
REMARK SMILES IDX 86 43 88 44 39 45 91 46 85 47 84 48 40 50 72 51 52 52 71 53
REMARK SMILES IDX 53 54 56 55 70 56 89 57 54 58 55 59 69 61 90 62 57 63 41 64
REMARK SMILES IDX 42 65 50 66 43 67 44 68 48 69 51 70 45 71 46 72 49 73 47 74
REMARK SMILES IDX 73 75 74 76 82 77 75 78 76 79 80 80 83 81 77 82 78 83 81 84
REMARK SMILES IDX 79 85 58 86 59 87 67 88 60 89 61 90 65 91 68 92 62 93 63 94
REMARK SMILES IDX 66 95 64 96
REMARK H PARENT 88 49 56 60
REMARK Flexibility Score: inf
ROOT
ATOM      1  C   UNL A   1      38.004  20.850  25.138  1.00  0.00     0.188 C 
ENDROOT
BRANCH   1   2
ATOM      2  C   UNL A   1      36.473  21.101  25.094  1.00  0.00     0.188 C 
BRANCH   2   3
ATOM      3  O   UNL A   1      35.916  21.919  26.120  1.00  0.00    -0.376 OA
BRANCH   3   4
ATOM      4  C   UNL A   1      35.503  23.231  25.747  1.00  0.00     0.202 C 
BRANCH   4   5
ATOM      5  C   UNL A   1      35.456  23.475  24.237  1.00  0.00     0.261 C 
BRANCH   5   6
ATOM      6  O   UNL A   1      34.125  23.234  23.763  1.00  0.00    -0.459 OA
BRANCH   6   7
ATOM      7  C   UNL A   1      33.675  24.025  22.781  1.00  0.00     0.348 C 
ATOM      8  O   UNL A   1      33.424  23.663  21.638  1.00  0.00    -0.245 OA
BRANCH   7   9
ATOM      9  C   UNL A   1      33.439  25.481  23.265  1.00  0.00     0.138 C 
ATOM     10  C   UNL A   1      33.417  26.880  23.285  1.00  0.00     0.039 C 
BRANCH  10  11
ATOM     11  C   UNL A   1      32.961  27.704  24.511  1.00  0.00     0.018 A 
ATOM     12  C   UNL A   1      32.008  28.765  24.541  1.00  0.00     0.128 A 
ATOM     13  C   UNL A   1      31.795  29.499  25.731  1.00  0.00     0.047 A 
ATOM     14  C   UNL A   1      32.500  29.236  26.895  1.00  0.00     0.004 A 
ATOM     15  C   UNL A   1      33.608  27.426  25.739  1.00  0.00     0.012 A 
ATOM     16  C   UNL A   1      33.413  28.198  26.896  1.00  0.00     0.001 A 
BRANCH  12  17
ATOM     17  O   UNL A   1      31.221  29.325  23.566  1.00  0.00    -0.480 OA
BRANCH  17  18
ATOM     18  C   UNL A   1      29.879  28.935  23.372  1.00  0.00     0.318 C 
BRANCH  18  19
ATOM     19  C   UNL A   1      29.011  30.181  23.441  1.00  0.00    -0.065 C 
ATOM     20  C   UNL A   1      28.266  31.249  23.500  1.00  0.00     0.007 C 
ENDBRANCH  18  19
ENDBRANCH  17  18
ENDBRANCH  12  17
ENDBRANCH  10  11
BRANCH   9  21
ATOM     21  C   UNL A   1      31.936  25.268  23.361  1.00  0.00     0.107 C 
ATOM     22  N   UNL A   1      30.690  25.092  23.441  1.00  0.00    -0.192 NA
ENDBRANCH   9  21
ENDBRANCH   7   9
ENDBRANCH   6   7
ENDBRANCH   5   6
ENDBRANCH   4   5
ENDBRANCH   3   4
ENDBRANCH   2   3
ENDBRANCH   1   2
BRANCH   1  23
ATOM     23  O   UNL A   1      38.897  21.815  25.666  1.00  0.00    -0.377 OA
BRANCH  23  24
ATOM     24  C   UNL A   1      39.908  21.357  26.539  1.00  0.00     0.188 C 
BRANCH  24  25
ATOM     25  C   UNL A   1      41.364  21.637  26.122  1.00  0.00     0.188 C 
BRANCH  25  26
ATOM     26  O   UNL A   1      42.342  20.920  26.866  1.00  0.00    -0.376 OA
BRANCH  26  27
ATOM     27  C   UNL A   1      42.236  19.505  26.914  1.00  0.00     0.202 C 
BRANCH  27  28
ATOM     28  C   UNL A   1      42.927  18.689  25.808  1.00  0.00     0.261 C 
BRANCH  28  29
ATOM     29  O   UNL A   1      43.306  19.410  24.626  1.00  0.00    -0.460 OA
BRANCH  29  30
ATOM     30  C   UNL A   1      44.622  19.580  24.384  1.00  0.00     0.338 C 
ATOM     31  O   UNL A   1      45.386  18.795  23.854  1.00  0.00    -0.246 OA
BRANCH  30  32
ATOM     32  C   UNL A   1      44.936  20.995  24.673  1.00  0.00     0.060 A 
ATOM     33  C   UNL A   1      45.644  21.305  25.844  1.00  0.00     0.016 A 
ATOM     34  C   UNL A   1      44.603  21.998  23.759  1.00  0.00     0.016 A 
ATOM     35  C   UNL A   1      46.017  22.622  26.106  1.00  0.00     0.010 A 
ATOM     36  C   UNL A   1      44.928  23.325  24.049  1.00  0.00     0.010 A 
ATOM     37  C   UNL A   1      45.607  23.642  25.239  1.00  0.00    -0.014 A 
BRANCH  37  38
ATOM     38  C   UNL A   1      45.626  25.041  25.723  1.00  0.00     0.031 A 
ATOM     39  C   UNL A   1      46.949  25.756  25.687  1.00  0.00     0.074 A 
ATOM     40  C   UNL A   1      44.520  25.663  26.162  1.00  0.00     0.049 A 
ATOM     41  N   UNL A   1      47.257  26.961  26.090  1.00  0.00    -0.248 NA
ATOM     42  C   UNL A   1      48.083  25.006  25.117  1.00  0.00     0.031 C 
ATOM     43  C   UNL A   1      43.178  25.085  26.205  1.00  0.00     0.029 A 
ATOM     44  N   UNL A   1      44.360  26.929  26.671  1.00  0.00    -0.354 N 
ATOM     45  C   UNL A   1      48.614  27.103  25.836  1.00  0.00     0.074 A 
ATOM     46  C   UNL A   1      49.078  25.865  25.256  1.00  0.00     0.031 C 
ATOM     47  C   UNL A   1      42.334  25.989  26.739  1.00  0.00     0.029 A 
ATOM     48  C   UNL A   1      43.082  27.193  27.100  1.00  0.00     0.049 A 
ATOM     49  H   UNL A   1      45.092  27.585  26.725  1.00  0.00     0.167 HD
ATOM     50  C   UNL A   1      49.403  28.175  26.067  1.00  0.00     0.037 A 
ATOM     51  C   UNL A   1      42.591  28.275  27.737  1.00  0.00     0.037 A 
ATOM     52  C   UNL A   1      48.938  29.408  26.637  1.00  0.00     0.049 A 
ATOM     53  C   UNL A   1      43.513  29.434  28.038  1.00  0.00     0.074 A 
ATOM     54  C   UNL A   1      49.651  30.569  26.873  1.00  0.00     0.029 A 
ATOM     55  N   UNL A   1      47.642  29.633  27.072  1.00  0.00    -0.354 N 
ATOM     56  N   UNL A   1      44.783  29.585  27.744  1.00  0.00    -0.248 NA
ATOM     57  C   UNL A   1      42.930  30.577  28.756  1.00  0.00     0.031 C 
ATOM     58  C   UNL A   1      48.800  31.477  27.507  1.00  0.00     0.029 A 
ATOM     59  C   UNL A   1      47.542  30.904  27.608  1.00  0.00     0.049 A 
ATOM     60  H   UNL A   1      46.903  28.985  27.009  1.00  0.00     0.167 HD
ATOM     61  C   UNL A   1      45.137  30.847  28.208  1.00  0.00     0.074 A 
ATOM     62  C   UNL A   1      43.946  31.427  28.790  1.00  0.00     0.031 C 
ATOM     63  C   UNL A   1      46.339  31.472  28.160  1.00  0.00     0.037 A 
BRANCH  50  64
ATOM     64  C   UNL A   1      50.860  28.055  25.739  1.00  0.00     0.064 A 
ATOM     65  C   UNL A   1      51.815  27.735  26.714  1.00  0.00     0.173 A 
ATOM     66  C   UNL A   1      51.294  28.206  24.413  1.00  0.00     0.173 A 
ATOM     67  F   UNL A   1      51.451  27.603  27.998  1.00  0.00    -0.203 F 
ATOM     68  C   UNL A   1      53.155  27.572  26.373  1.00  0.00     0.198 A 
ATOM     69  C   UNL A   1      52.629  28.016  24.072  1.00  0.00     0.198 A 
ATOM     70  F   UNL A   1      50.418  28.519  23.446  1.00  0.00    -0.203 F 
ATOM     71  F   UNL A   1      54.057  27.292  27.323  1.00  0.00    -0.200 F 
ATOM     72  C   UNL A   1      53.559  27.700  25.051  1.00  0.00     0.200 A 
ATOM     73  F   UNL A   1      53.015  28.131  22.794  1.00  0.00    -0.200 F 
ATOM     74  F   UNL A   1      54.846  27.523  24.722  1.00  0.00    -0.200 F 
ENDBRANCH  50  64
BRANCH  51  75
ATOM     75  C   UNL A   1      41.169  28.317  28.177  1.00  0.00     0.064 A 
ATOM     76  C   UNL A   1      40.171  28.868  27.359  1.00  0.00     0.173 A 
ATOM     77  C   UNL A   1      40.792  27.880  29.455  1.00  0.00     0.173 A 
ATOM     78  F   UNL A   1      40.484  29.330  26.139  1.00  0.00    -0.203 F 
ATOM     79  C   UNL A   1      38.863  29.015  27.817  1.00  0.00     0.198 A 
ATOM     80  C   UNL A   1      39.476  27.995  29.900  1.00  0.00     0.198 A 
ATOM     81  F   UNL A   1      41.707  27.351  30.281  1.00  0.00    -0.203 F 
ATOM     82  F   UNL A   1      37.947  29.614  27.043  1.00  0.00    -0.200 F 
ATOM     83  C   UNL A   1      38.515  28.576  29.086  1.00  0.00     0.200 A 
ATOM     84  F   UNL A   1      39.144  27.563  31.124  1.00  0.00    -0.200 F 
ATOM     85  F   UNL A   1      37.261  28.730  29.531  1.00  0.00    -0.200 F 
ENDBRANCH  51  75
BRANCH  63  86
ATOM     86  C   UNL A   1      46.419  32.871  28.697  1.00  0.00     0.064 A 
ATOM     87  C   UNL A   1      46.150  33.988  27.894  1.00  0.00     0.173 A 
ATOM     88  C   UNL A   1      46.713  33.092  30.053  1.00  0.00     0.173 A 
ATOM     89  F   UNL A   1      45.873  33.832  26.590  1.00  0.00    -0.203 F 
ATOM     90  C   UNL A   1      46.201  35.277  28.421  1.00  0.00     0.198 A 
ATOM     91  C   UNL A   1      46.730  34.377  30.583  1.00  0.00     0.198 A 
ATOM     92  F   UNL A   1      46.965  32.056  30.867  1.00  0.00    -0.203 F 
ATOM     93  F   UNL A   1      45.990  36.333  27.623  1.00  0.00    -0.200 F 
ATOM     94  C   UNL A   1      46.483  35.469  29.765  1.00  0.00     0.200 A 
ATOM     95  F   UNL A   1      46.982  34.560  31.886  1.00  0.00    -0.200 F 
ATOM     96  F   UNL A   1      46.520  36.710  30.273  1.00  0.00    -0.200 F 
ENDBRANCH  63  86
ENDBRANCH  37  38
ENDBRANCH  30  32
ENDBRANCH  29  30
ENDBRANCH  28  29
ENDBRANCH  27  28
ENDBRANCH  26  27
ENDBRANCH  25  26
ENDBRANCH  24  25
ENDBRANCH  23  24
ENDBRANCH   1  23
TORSDOF 25
ENDMDL
MODEL 2
REMARK VINA RESULT:      -8.5      0.791      7.158
REMARK SMILES C#CCOc1ccccc1/C=C(\C#N)C(=O)OCCOCCOCCOCCOC(=O)c1ccc(-c2c3nc(c(-c4c(F)c(F)c(F)c(F)c4F)c4ccc([nH]4)c(-c4c(F)c(F)c(F)c(F)c4F)c4nc(c(-c5c(F)c(F)c(F)c(F)c5F)c5ccc2[nH]5)C=C4)C=C3)cc1
REMARK SMILES IDX 22 1 21 2 20 3 19 4 18 5 17 6 15 7 16 8 12 9 11 10 10 11
REMARK SMILES IDX 5 12 6 13 7 14 9 15 8 16 4 17 3 18 2 19 1 20 13 21 14 22
REMARK SMILES IDX 23 23 24 24 25 25 26 26 27 27 28 28 29 29 30 30 31 31 32 32
REMARK SMILES IDX 33 33 94 34 34 35 93 36 35 37 36 38 37 39 87 40 38 41 92 42
REMARK SMILES IDX 86 43 88 44 39 45 91 46 85 47 84 48 40 50 72 51 52 52 71 53
REMARK SMILES IDX 53 54 56 55 70 56 89 57 54 58 55 59 69 61 90 62 57 63 41 64
REMARK SMILES IDX 42 65 50 66 43 67 44 68 48 69 51 70 45 71 46 72 49 73 47 74
REMARK SMILES IDX 73 75 74 76 82 77 75 78 76 79 80 80 83 81 77 82 78 83 81 84
REMARK SMILES IDX 79 85 58 86 59 87 67 88 60 89 61 90 65 91 68 92 62 93 63 94
REMARK SMILES IDX 66 95 64 96
REMARK H PARENT 88 49 56 60
REMARK Flexibility Score: inf
ROOT
ATOM      1  C   UNL A   1      37.753  21.118  25.276  1.00  0.00     0.188 C 
ENDROOT
BRANCH   1   2
ATOM      2  C   UNL A   1      36.221  21.357  25.218  1.00  0.00     0.188 C 
BRANCH   2   3
ATOM      3  O   UNL A   1      35.676  22.326  26.111  1.00  0.00    -0.376 OA
BRANCH   3   4
ATOM      4  C   UNL A   1      35.443  23.629  25.585  1.00  0.00     0.202 C 
BRANCH   4   5
ATOM      5  C   UNL A   1      35.406  23.700  24.058  1.00  0.00     0.261 C 
BRANCH   5   6
ATOM      6  O   UNL A   1      34.085  23.379  23.604  1.00  0.00    -0.459 OA
BRANCH   6   7
ATOM      7  C   UNL A   1      33.627  24.049  22.538  1.00  0.00     0.348 C 
ATOM      8  O   UNL A   1      33.469  23.576  21.419  1.00  0.00    -0.245 OA
BRANCH   7   9
ATOM      9  C   UNL A   1      33.248  25.513  22.886  1.00  0.00     0.138 C 
ATOM     10  C   UNL A   1      33.046  26.892  22.759  1.00  0.00     0.039 C 
BRANCH  10  11
ATOM     11  C   UNL A   1      32.602  27.796  23.932  1.00  0.00     0.018 A 
ATOM     12  C   UNL A   1      31.614  28.825  23.912  1.00  0.00     0.128 A 
ATOM     13  C   UNL A   1      31.414  29.644  25.048  1.00  0.00     0.047 A 
ATOM     14  C   UNL A   1      32.166  29.497  26.203  1.00  0.00     0.004 A 
ATOM     15  C   UNL A   1      33.296  27.637  25.155  1.00  0.00     0.012 A 
ATOM     16  C   UNL A   1      33.112  28.491  26.254  1.00  0.00     0.001 A 
BRANCH  12  17
ATOM     17  O   UNL A   1      30.778  29.281  22.925  1.00  0.00    -0.480 OA
BRANCH  17  18
ATOM     18  C   UNL A   1      29.433  28.865  22.832  1.00  0.00     0.318 C 
BRANCH  18  19
ATOM     19  C   UNL A   1      28.546  30.060  23.143  1.00  0.00    -0.065 C 
ATOM     20  C   UNL A   1      27.785  31.085  23.409  1.00  0.00     0.007 C 
ENDBRANCH  18  19
ENDBRANCH  17  18
ENDBRANCH  12  17
ENDBRANCH  10  11
BRANCH   9  21
ATOM     21  C   UNL A   1      31.802  25.135  23.165  1.00  0.00     0.107 C 
ATOM     22  N   UNL A   1      30.603  24.822  23.396  1.00  0.00    -0.192 NA
ENDBRANCH   9  21
ENDBRANCH   7   9
ENDBRANCH   6   7
ENDBRANCH   5   6
ENDBRANCH   4   5
ENDBRANCH   3   4
ENDBRANCH   2   3
ENDBRANCH   1   2
BRANCH   1  23
ATOM     23  O   UNL A   1      38.643  22.128  25.715  1.00  0.00    -0.377 OA
BRANCH  23  24
ATOM     24  C   UNL A   1      39.628  21.764  26.660  1.00  0.00     0.188 C 
BRANCH  24  25
ATOM     25  C   UNL A   1      40.956  22.543  26.613  1.00  0.00     0.188 C 
BRANCH  25  26
ATOM     26  O   UNL A   1      42.065  21.856  27.182  1.00  0.00    -0.376 OA
BRANCH  26  27
ATOM     27  C   UNL A   1      41.966  20.449  27.341  1.00  0.00     0.202 C 
BRANCH  27  28
ATOM     28  C   UNL A   1      42.527  19.551  26.226  1.00  0.00     0.261 C 
BRANCH  28  29
ATOM     29  O   UNL A   1      42.899  20.208  25.005  1.00  0.00    -0.460 OA
BRANCH  29  30
ATOM     30  C   UNL A   1      44.189  20.143  24.620  1.00  0.00     0.338 C 
ATOM     31  O   UNL A   1      44.727  19.263  23.973  1.00  0.00    -0.246 OA
BRANCH  30  32
ATOM     32  C   UNL A   1      44.800  21.454  24.926  1.00  0.00     0.060 A 
ATOM     33  C   UNL A   1      45.348  21.662  26.201  1.00  0.00     0.016 A 
ATOM     34  C   UNL A   1      44.900  22.439  23.942  1.00  0.00     0.016 A 
ATOM     35  C   UNL A   1      45.993  22.861  26.496  1.00  0.00     0.010 A 
ATOM     36  C   UNL A   1      45.498  23.662  24.255  1.00  0.00     0.010 A 
ATOM     37  C   UNL A   1      46.017  23.886  25.542  1.00  0.00    -0.014 A 
BRANCH  37  38
ATOM     38  C   UNL A   1      46.309  25.268  25.986  1.00  0.00     0.031 A 
ATOM     39  C   UNL A   1      45.159  26.062  26.542  1.00  0.00     0.074 A 
ATOM     40  C   UNL A   1      47.542  25.797  25.918  1.00  0.00     0.049 A 
ATOM     41  N   UNL A   1      45.125  27.301  26.957  1.00  0.00    -0.248 NA
ATOM     42  C   UNL A   1      43.867  25.361  26.641  1.00  0.00     0.031 C 
ATOM     43  C   UNL A   1      48.738  25.110  25.437  1.00  0.00     0.029 A 
ATOM     44  N   UNL A   1      47.983  27.056  26.248  1.00  0.00    -0.354 N 
ATOM     45  C   UNL A   1      43.813  27.526  27.350  1.00  0.00     0.074 A 
ATOM     46  C   UNL A   1      43.075  26.308  27.116  1.00  0.00     0.031 C 
ATOM     47  C   UNL A   1      49.776  25.967  25.480  1.00  0.00     0.029 A 
ATOM     48  C   UNL A   1      49.310  27.266  25.963  1.00  0.00     0.049 A 
ATOM     49  H   UNL A   1      47.404  27.741  26.651  1.00  0.00     0.167 HD
ATOM     50  C   UNL A   1      43.272  28.654  27.862  1.00  0.00     0.037 A 
ATOM     51  C   UNL A   1      50.045  28.393  26.056  1.00  0.00     0.037 A 
ATOM     52  C   UNL A   1      44.010  29.863  28.101  1.00  0.00     0.049 A 
ATOM     53  C   UNL A   1      49.396  29.655  26.574  1.00  0.00     0.074 A 
ATOM     54  C   UNL A   1      43.561  31.048  28.656  1.00  0.00     0.029 A 
ATOM     55  N   UNL A   1      45.347  30.043  27.785  1.00  0.00    -0.354 N 
ATOM     56  N   UNL A   1      48.169  29.846  26.997  1.00  0.00    -0.248 NA
ATOM     57  C   UNL A   1      50.238  30.859  26.631  1.00  0.00     0.031 C 
ATOM     58  C   UNL A   1      44.613  31.966  28.621  1.00  0.00     0.029 A 
ATOM     59  C   UNL A   1      45.732  31.333  28.103  1.00  0.00     0.049 A 
ATOM     60  H   UNL A   1      45.933  29.356  27.394  1.00  0.00     0.167 HD
ATOM     61  C   UNL A   1      48.105  31.175  27.402  1.00  0.00     0.074 A 
ATOM     62  C   UNL A   1      49.419  31.740  27.187  1.00  0.00     0.031 C 
ATOM     63  C   UNL A   1      47.054  31.869  27.904  1.00  0.00     0.037 A 
BRANCH  50  64
ATOM     64  C   UNL A   1      41.806  28.650  28.167  1.00  0.00     0.064 A 
ATOM     65  C   UNL A   1      40.849  29.008  27.207  1.00  0.00     0.173 A 
ATOM     66  C   UNL A   1      41.353  28.223  29.424  1.00  0.00     0.173 A 
ATOM     67  F   UNL A   1      41.235  29.444  25.998  1.00  0.00    -0.203 F 
ATOM     68  C   UNL A   1      39.489  28.941  27.496  1.00  0.00     0.198 A 
ATOM     69  C   UNL A   1      39.992  28.132  29.701  1.00  0.00     0.198 A 
ATOM     70  F   UNL A   1      42.231  27.877  30.378  1.00  0.00    -0.203 F 
ATOM     71  F   UNL A   1      38.590  29.313  26.574  1.00  0.00    -0.200 F 
ATOM     72  C   UNL A   1      39.061  28.491  28.738  1.00  0.00     0.200 A 
ATOM     73  F   UNL A   1      39.582  27.689  30.897  1.00  0.00    -0.200 F 
ATOM     74  F   UNL A   1      37.751  28.408  29.007  1.00  0.00    -0.200 F 
ENDBRANCH  50  64
BRANCH  51  75
ATOM     75  C   UNL A   1      51.469  28.409  25.619  1.00  0.00     0.064 A 
ATOM     76  C   UNL A   1      51.813  28.535  24.265  1.00  0.00     0.173 A 
ATOM     77  C   UNL A   1      52.511  28.218  26.538  1.00  0.00     0.173 A 
ATOM     78  F   UNL A   1      50.852  28.688  23.342  1.00  0.00    -0.203 F 
ATOM     79  C   UNL A   1      53.138  28.431  23.845  1.00  0.00     0.198 A 
ATOM     80  C   UNL A   1      53.839  28.149  26.121  1.00  0.00     0.198 A 
ATOM     81  F   UNL A   1      52.239  28.084  27.844  1.00  0.00    -0.203 F 
ATOM     82  F   UNL A   1      53.430  28.480  22.538  1.00  0.00    -0.200 F 
ATOM     83  C   UNL A   1      54.150  28.242  24.773  1.00  0.00     0.200 A 
ATOM     84  F   UNL A   1      54.815  27.973  27.022  1.00  0.00    -0.200 F 
ATOM     85  F   UNL A   1      55.423  28.128  24.367  1.00  0.00    -0.200 F 
ENDBRANCH  51  75
BRANCH  63  86
ATOM     86  C   UNL A   1      47.290  33.295  28.310  1.00  0.00     0.064 A 
ATOM     87  C   UNL A   1      47.074  34.361  27.425  1.00  0.00     0.173 A 
ATOM     88  C   UNL A   1      47.684  33.599  29.623  1.00  0.00     0.173 A 
ATOM     89  F   UNL A   1      46.706  34.122  26.157  1.00  0.00    -0.203 F 
ATOM     90  C   UNL A   1      47.272  35.678  27.832  1.00  0.00     0.198 A 
ATOM     91  C   UNL A   1      47.847  34.918  30.034  1.00  0.00     0.198 A 
ATOM     92  F   UNL A   1      47.892  32.617  30.512  1.00  0.00    -0.203 F 
ATOM     93  F   UNL A   1      47.107  36.679  26.955  1.00  0.00    -0.200 F 
ATOM     94  C   UNL A   1      47.650  35.956  29.137  1.00  0.00     0.200 A 
ATOM     95  F   UNL A   1      48.193  35.185  31.301  1.00  0.00    -0.200 F 
ATOM     96  F   UNL A   1      47.828  37.225  29.529  1.00  0.00    -0.200 F 
ENDBRANCH  63  86
ENDBRANCH  37  38
ENDBRANCH  30  32
ENDBRANCH  29  30
ENDBRANCH  28  29
ENDBRANCH  27  28
ENDBRANCH  26  27
ENDBRANCH  25  26
ENDBRANCH  24  25
ENDBRANCH  23  24
ENDBRANCH   1  23
TORSDOF 25
ENDMDL
MODEL 3
REMARK VINA RESULT:      -8.5      8.945     14.308
REMARK SMILES C#CCOc1ccccc1/C=C(\C#N)C(=O)OCCOCCOCCOCCOC(=O)c1ccc(-c2c3nc(c(-c4c(F)c(F)c(F)c(F)c4F)c4ccc([nH]4)c(-c4c(F)c(F)c(F)c(F)c4F)c4nc(c(-c5c(F)c(F)c(F)c(F)c5F)c5ccc2[nH]5)C=C4)C=C3)cc1
REMARK SMILES IDX 22 1 21 2 20 3 19 4 18 5 17 6 15 7 16 8 12 9 11 10 10 11
REMARK SMILES IDX 5 12 6 13 7 14 9 15 8 16 4 17 3 18 2 19 1 20 13 21 14 22
REMARK SMILES IDX 23 23 24 24 25 25 26 26 27 27 28 28 29 29 30 30 31 31 32 32
REMARK SMILES IDX 33 33 94 34 34 35 93 36 35 37 36 38 37 39 87 40 38 41 92 42
REMARK SMILES IDX 86 43 88 44 39 45 91 46 85 47 84 48 40 50 72 51 52 52 71 53
REMARK SMILES IDX 53 54 56 55 70 56 89 57 54 58 55 59 69 61 90 62 57 63 41 64
REMARK SMILES IDX 42 65 50 66 43 67 44 68 48 69 51 70 45 71 46 72 49 73 47 74
REMARK SMILES IDX 73 75 74 76 82 77 75 78 76 79 80 80 83 81 77 82 78 83 81 84
REMARK SMILES IDX 79 85 58 86 59 87 67 88 60 89 61 90 65 91 68 92 62 93 63 94
REMARK SMILES IDX 66 95 64 96
REMARK H PARENT 88 49 56 60
REMARK Flexibility Score: inf
ROOT
ATOM      1  C   UNL A   1      49.997  20.641  34.331  1.00  0.00     0.188 C 
ENDROOT
BRANCH   1   2
ATOM      2  C   UNL A   1      49.202  20.139  35.565  1.00  0.00     0.188 C 
BRANCH   2   3
ATOM      3  O   UNL A   1      49.789  20.346  36.848  1.00  0.00    -0.376 OA
BRANCH   3   4
ATOM      4  C   UNL A   1      48.902  20.424  37.959  1.00  0.00     0.202 C 
BRANCH   4   5
ATOM      5  C   UNL A   1      47.535  19.779  37.726  1.00  0.00     0.261 C 
BRANCH   5   6
ATOM      6  O   UNL A   1      47.300  18.793  38.739  1.00  0.00    -0.459 OA
BRANCH   6   7
ATOM      7  C   UNL A   1      46.446  19.117  39.719  1.00  0.00     0.348 C 
ATOM      8  O   UNL A   1      45.908  20.209  39.858  1.00  0.00    -0.245 OA
BRANCH   7   9
ATOM      9  C   UNL A   1      46.150  17.916  40.656  1.00  0.00     0.138 C 
ATOM     10  C   UNL A   1      46.297  16.699  41.333  1.00  0.00     0.039 C 
BRANCH  10  11
ATOM     11  C   UNL A   1      45.202  16.096  42.242  1.00  0.00     0.018 A 
ATOM     12  C   UNL A   1      43.797  16.046  41.996  1.00  0.00     0.128 A 
ATOM     13  C   UNL A   1      42.915  15.566  42.992  1.00  0.00     0.047 A 
ATOM     14  C   UNL A   1      43.366  15.146  44.233  1.00  0.00     0.004 A 
ATOM     15  C   UNL A   1      45.622  15.594  43.495  1.00  0.00     0.012 A 
ATOM     16  C   UNL A   1      44.724  15.164  44.486  1.00  0.00     0.001 A 
BRANCH  12  17
ATOM     17  O   UNL A   1      43.033  16.455  40.932  1.00  0.00    -0.480 OA
BRANCH  17  18
ATOM     18  C   UNL A   1      42.883  15.666  39.772  1.00  0.00     0.318 C 
BRANCH  18  19
ATOM     19  C   UNL A   1      42.153  14.390  40.160  1.00  0.00    -0.065 C 
ATOM     20  C   UNL A   1      41.528  13.295  40.492  1.00  0.00     0.007 C 
ENDBRANCH  18  19
ENDBRANCH  17  18
ENDBRANCH  12  17
ENDBRANCH  10  11
BRANCH   9  21
ATOM     21  C   UNL A   1      46.105  18.810  41.885  1.00  0.00     0.107 C 
ATOM     22  N   UNL A   1      46.068  19.552  42.904  1.00  0.00    -0.192 NA
ENDBRANCH   9  21
ENDBRANCH   7   9
ENDBRANCH   6   7
ENDBRANCH   5   6
ENDBRANCH   4   5
ENDBRANCH   3   4
ENDBRANCH   2   3
ENDBRANCH   1   2
BRANCH   1  23
ATOM     23  O   UNL A   1      51.414  20.620  34.304  1.00  0.00    -0.377 OA
BRANCH  23  24
ATOM     24  C   UNL A   1      52.047  20.965  33.089  1.00  0.00     0.188 C 
BRANCH  24  25
ATOM     25  C   UNL A   1      52.286  22.465  32.834  1.00  0.00     0.188 C 
BRANCH  25  26
ATOM     26  O   UNL A   1      51.141  23.178  32.378  1.00  0.00    -0.376 OA
BRANCH  26  27
ATOM     27  C   UNL A   1      50.620  24.202  33.211  1.00  0.00     0.202 C 
BRANCH  27  28
ATOM     28  C   UNL A   1      49.345  23.903  34.017  1.00  0.00     0.261 C 
BRANCH  28  29
ATOM     29  O   UNL A   1      48.277  24.854  33.897  1.00  0.00    -0.460 OA
BRANCH  29  30
ATOM     30  C   UNL A   1      47.981  25.613  34.971  1.00  0.00     0.338 C 
ATOM     31  O   UNL A   1      48.676  25.816  35.950  1.00  0.00    -0.246 OA
BRANCH  30  32
ATOM     32  C   UNL A   1      46.743  26.354  34.651  1.00  0.00     0.060 A 
ATOM     33  C   UNL A   1      45.509  25.701  34.796  1.00  0.00     0.016 A 
ATOM     34  C   UNL A   1      46.794  27.701  34.287  1.00  0.00     0.016 A 
ATOM     35  C   UNL A   1      44.322  26.395  34.572  1.00  0.00     0.010 A 
ATOM     36  C   UNL A   1      45.606  28.381  34.008  1.00  0.00     0.010 A 
ATOM     37  C   UNL A   1      44.370  27.719  34.119  1.00  0.00    -0.014 A 
BRANCH  37  38
ATOM     38  C   UNL A   1      43.166  28.301  33.485  1.00  0.00     0.031 A 
ATOM     39  C   UNL A   1      42.920  27.952  32.043  1.00  0.00     0.074 A 
ATOM     40  C   UNL A   1      42.314  29.093  34.157  1.00  0.00     0.049 A 
ATOM     41  N   UNL A   1      41.973  28.357  31.237  1.00  0.00    -0.248 NA
ATOM     42  C   UNL A   1      43.875  27.017  31.424  1.00  0.00     0.031 C 
ATOM     43  C   UNL A   1      42.428  29.467  35.565  1.00  0.00     0.029 A 
ATOM     44  N   UNL A   1      41.180  29.739  33.726  1.00  0.00    -0.354 N 
ATOM     45  C   UNL A   1      42.230  27.739  30.021  1.00  0.00     0.074 A 
ATOM     46  C   UNL A   1      43.422  26.941  30.184  1.00  0.00     0.031 C 
ATOM     47  C   UNL A   1      41.416  30.299  35.876  1.00  0.00     0.029 A 
ATOM     48  C   UNL A   1      40.604  30.538  34.683  1.00  0.00     0.049 A 
ATOM     49  H   UNL A   1      40.816  29.640  32.817  1.00  0.00     0.167 HD
ATOM     50  C   UNL A   1      41.530  27.831  28.869  1.00  0.00     0.037 A 
ATOM     51  C   UNL A   1      39.559  31.384  34.586  1.00  0.00     0.037 A 
ATOM     52  C   UNL A   1      40.340  28.619  28.712  1.00  0.00     0.049 A 
ATOM     53  C   UNL A   1      38.834  31.511  33.267  1.00  0.00     0.074 A 
ATOM     54  C   UNL A   1      39.534  28.745  27.595  1.00  0.00     0.029 A 
ATOM     55  N   UNL A   1      39.795  29.426  29.698  1.00  0.00    -0.354 N 
ATOM     56  N   UNL A   1      39.046  30.881  32.137  1.00  0.00    -0.248 NA
ATOM     57  C   UNL A   1      37.717  32.467  33.213  1.00  0.00     0.031 C 
ATOM     58  C   UNL A   1      38.533  29.675  27.887  1.00  0.00     0.029 A 
ATOM     59  C   UNL A   1      38.681  30.079  29.205  1.00  0.00     0.049 A 
ATOM     60  H   UNL A   1      40.149  29.518  30.612  1.00  0.00     0.167 HD
ATOM     61  C   UNL A   1      38.073  31.336  31.254  1.00  0.00     0.074 A 
ATOM     62  C   UNL A   1      37.260  32.284  31.983  1.00  0.00     0.031 C 
ATOM     63  C   UNL A   1      37.869  31.002  29.956  1.00  0.00     0.037 A 
BRANCH  50  64
ATOM     64  C   UNL A   1      42.048  27.089  27.675  1.00  0.00     0.064 A 
ATOM     65  C   UNL A   1      42.944  27.676  26.770  1.00  0.00     0.173 A 
ATOM     66  C   UNL A   1      41.685  25.749  27.471  1.00  0.00     0.173 A 
ATOM     67  F   UNL A   1      43.302  28.960  26.912  1.00  0.00    -0.203 F 
ATOM     68  C   UNL A   1      43.456  26.947  25.701  1.00  0.00     0.198 A 
ATOM     69  C   UNL A   1      42.220  25.017  26.416  1.00  0.00     0.198 A 
ATOM     70  F   UNL A   1      40.825  25.146  28.306  1.00  0.00    -0.203 F 
ATOM     71  F   UNL A   1      44.290  27.534  24.831  1.00  0.00    -0.200 F 
ATOM     72  C   UNL A   1      43.104  25.616  25.531  1.00  0.00     0.200 A 
ATOM     73  F   UNL A   1      41.886  23.728  26.260  1.00  0.00    -0.200 F 
ATOM     74  F   UNL A   1      43.615  24.910  24.512  1.00  0.00    -0.200 F 
ENDBRANCH  50  64
BRANCH  51  75
ATOM     75  C   UNL A   1      39.144  32.215  35.751  1.00  0.00     0.064 A 
ATOM     76  C   UNL A   1      39.667  33.501  35.951  1.00  0.00     0.173 A 
ATOM     77  C   UNL A   1      38.276  31.708  36.730  1.00  0.00     0.173 A 
ATOM     78  F   UNL A   1      40.525  34.020  35.061  1.00  0.00    -0.203 F 
ATOM     79  C   UNL A   1      39.370  34.229  37.102  1.00  0.00     0.198 A 
ATOM     80  C   UNL A   1      37.953  32.451  37.864  1.00  0.00     0.198 A 
ATOM     81  F   UNL A   1      37.753  30.481  36.593  1.00  0.00    -0.203 F 
ATOM     82  F   UNL A   1      39.944  35.424  37.303  1.00  0.00    -0.200 F 
ATOM     83  C   UNL A   1      38.511  33.706  38.056  1.00  0.00     0.200 A 
ATOM     84  F   UNL A   1      37.116  31.944  38.779  1.00  0.00    -0.200 F 
ATOM     85  F   UNL A   1      38.237  34.401  39.168  1.00  0.00    -0.200 F 
ENDBRANCH  51  75
BRANCH  63  86
ATOM     86  C   UNL A   1      36.694  31.618  29.254  1.00  0.00     0.064 A 
ATOM     87  C   UNL A   1      35.552  30.872  28.930  1.00  0.00     0.173 A 
ATOM     88  C   UNL A   1      36.690  32.990  28.954  1.00  0.00     0.173 A 
ATOM     89  F   UNL A   1      35.509  29.556  29.187  1.00  0.00    -0.203 F 
ATOM     90  C   UNL A   1      34.461  31.471  28.305  1.00  0.00     0.198 A 
ATOM     91  C   UNL A   1      35.585  33.591  28.361  1.00  0.00     0.198 A 
ATOM     92  F   UNL A   1      37.753  33.751  29.255  1.00  0.00    -0.203 F 
ATOM     93  F   UNL A   1      33.400  30.728  27.959  1.00  0.00    -0.200 F 
ATOM     94  C   UNL A   1      34.475  32.830  28.029  1.00  0.00     0.200 A 
ATOM     95  F   UNL A   1      35.592  34.908  28.114  1.00  0.00    -0.200 F 
ATOM     96  F   UNL A   1      33.419  33.406  27.438  1.00  0.00    -0.200 F 
ENDBRANCH  63  86
ENDBRANCH  37  38
ENDBRANCH  30  32
ENDBRANCH  29  30
ENDBRANCH  28  29
ENDBRANCH  27  28
ENDBRANCH  26  27
ENDBRANCH  25  26
ENDBRANCH  24  25
ENDBRANCH  23  24
ENDBRANCH   1  23
TORSDOF 25
ENDMDL
