MODEL 1
REMARK VINA RESULT:      -9.9      0.000      0.000
REMARK SMILES C[NH2+][C@]1(C(=O)OCCOCCOCCOCCOC(=O)c2ccc(-c3c4nc(c(-c5c(F)c(F)c(F)c(F)c5F)c5ccc([nH]5)c(-c5c(F)c(F)c(F)c(F)c5F)c5nc(c(-c6c(F)c(F)c(F)c(F)c6F)c6ccc3[nH]6)C=C5)C=C4)cc2)CCC[C@@H](Sc2nccn2C)C1
REMARK SMILES IDX 12 1 11 2 10 3 9 4 8 5 7 6 6 7 4 8 5 9 3 10 84 11 95 12
REMARK SMILES IDX 85 13 87 14 86 15 2 16 1 17 88 20 89 21 90 22 93 23 91 24
REMARK SMILES IDX 92 25 94 26 13 27 14 28 15 29 16 30 17 31 18 32 19 33 20 34
REMARK SMILES IDX 21 35 22 36 83 37 23 38 82 39 24 40 25 41 26 42 76 43 27 44
REMARK SMILES IDX 81 45 75 46 77 47 28 48 80 49 74 50 73 51 29 53 61 54 41 55
REMARK SMILES IDX 60 56 42 57 45 58 59 59 78 60 43 61 44 62 58 64 79 65 46 66
REMARK SMILES IDX 30 67 31 68 39 69 32 70 33 71 37 72 40 73 34 74 35 75 38 76
REMARK SMILES IDX 36 77 62 78 63 79 71 80 64 81 65 82 69 83 72 84 66 85 67 86
REMARK SMILES IDX 70 87 68 88 47 89 48 90 56 91 49 92 50 93 54 94 57 95 51 96
REMARK SMILES IDX 52 97 55 98 53 99
REMARK H PARENT 2 18 2 19 77 52 45 63
REMARK Flexibility Score: inf
ROOT
ATOM      1  O   UNL A   1      34.500  31.794  28.792  1.00  0.00    -0.377 OA
ENDROOT
BRANCH   1   2
ATOM      2  C   UNL A   1      34.401  31.040  27.603  1.00  0.00     0.188 C 
BRANCH   2   3
ATOM      3  C   UNL A   1      32.983  30.569  27.227  1.00  0.00     0.188 C 
BRANCH   3   4
ATOM      4  O   UNL A   1      32.739  29.257  26.743  1.00  0.00    -0.376 OA
BRANCH   4   5
ATOM      5  C   UNL A   1      31.683  28.460  27.252  1.00  0.00     0.202 C 
BRANCH   5   6
ATOM      6  C   UNL A   1      31.391  27.055  26.691  1.00  0.00     0.261 C 
BRANCH   6   7
ATOM      7  O   UNL A   1      32.466  26.102  26.657  1.00  0.00    -0.459 OA
BRANCH   7   8
ATOM      8  C   UNL A   1      32.088  24.810  26.483  1.00  0.00     0.368 C 
ATOM      9  O   UNL A   1      31.278  24.229  27.204  1.00  0.00    -0.245 OA
BRANCH   8  10
ATOM     10  C   UNL A   1      32.814  24.083  25.305  1.00  0.00     0.195 C 
ATOM     11  C   UNL A   1      32.126  22.829  24.704  1.00  0.00     0.081 C 
ATOM     12  C   UNL A   1      32.773  25.186  24.230  1.00  0.00     0.096 C 
ATOM     13  C   UNL A   1      32.771  22.360  23.397  1.00  0.00     0.008 C 
ATOM     14  C   UNL A   1      33.362  24.769  22.887  1.00  0.00     0.061 C 
ATOM     15  C   UNL A   1      32.763  23.464  22.349  1.00  0.00     0.015 C 
BRANCH  10  16
ATOM     16  N   UNL A   1      34.257  23.898  25.650  1.00  0.00    -0.335 N 
ATOM     17  C   UNL A   1      34.670  22.673  26.309  1.00  0.00     0.331 C 
ATOM     18  H   UNL A   1      34.783  23.960  24.779  1.00  0.00     0.347 HD
ATOM     19  H   UNL A   1      34.438  24.623  26.344  1.00  0.00     0.347 HD
ENDBRANCH  10  16
BRANCH  14  20
ATOM     20  S   UNL A   1      33.199  26.144  21.682  1.00  0.00    -0.084 SA
BRANCH  20  21
ATOM     21  C   UNL A   1      31.971  27.110  22.434  1.00  0.00     0.167 A 
ATOM     22  N   UNL A   1      30.680  26.866  22.395  1.00  0.00    -0.231 NA
ATOM     23  N   UNL A   1      32.237  28.282  23.084  1.00  0.00    -0.329 N 
ATOM     24  C   UNL A   1      30.083  27.937  23.003  1.00  0.00     0.132 A 
ATOM     25  C   UNL A   1      31.030  28.830  23.443  1.00  0.00     0.108 A 
ATOM     26  C   UNL A   1      33.516  28.892  23.342  1.00  0.00     0.152 C 
ENDBRANCH  20  21
ENDBRANCH  14  20
ENDBRANCH   8  10
ENDBRANCH   7   8
ENDBRANCH   6   7
ENDBRANCH   5   6
ENDBRANCH   4   5
ENDBRANCH   3   4
ENDBRANCH   2   3
ENDBRANCH   1   2
BRANCH   1  27
ATOM     27  C   UNL A   1      34.749  33.180  28.631  1.00  0.00     0.188 C 
BRANCH  27  28
ATOM     28  C   UNL A   1      34.076  34.137  29.633  1.00  0.00     0.188 C 
BRANCH  28  29
ATOM     29  O   UNL A   1      34.897  34.472  30.744  1.00  0.00    -0.376 OA
BRANCH  29  30
ATOM     30  C   UNL A   1      34.374  34.413  32.060  1.00  0.00     0.202 C 
BRANCH  30  31
ATOM     31  C   UNL A   1      34.443  33.073  32.810  1.00  0.00     0.261 C 
BRANCH  31  32
ATOM     32  O   UNL A   1      35.414  32.123  32.350  1.00  0.00    -0.460 OA
BRANCH  32  33
ATOM     33  C   UNL A   1      36.512  31.927  33.107  1.00  0.00     0.338 C 
ATOM     34  O   UNL A   1      36.610  32.060  34.315  1.00  0.00    -0.246 OA
BRANCH  33  35
ATOM     35  C   UNL A   1      37.543  31.312  32.245  1.00  0.00     0.060 A 
ATOM     36  C   UNL A   1      38.640  30.680  32.850  1.00  0.00     0.016 A 
ATOM     37  C   UNL A   1      37.419  31.332  30.854  1.00  0.00     0.016 A 
ATOM     38  C   UNL A   1      39.632  30.098  32.063  1.00  0.00     0.010 A 
ATOM     39  C   UNL A   1      38.430  30.778  30.066  1.00  0.00     0.010 A 
ATOM     40  C   UNL A   1      39.558  30.191  30.668  1.00  0.00    -0.014 A 
BRANCH  40  41
ATOM     41  C   UNL A   1      40.760  29.890  29.855  1.00  0.00     0.031 A 
ATOM     42  C   UNL A   1      40.871  28.518  29.248  1.00  0.00     0.074 A 
ATOM     43  C   UNL A   1      41.713  30.810  29.634  1.00  0.00     0.049 A 
ATOM     44  N   UNL A   1      41.841  27.992  28.545  1.00  0.00    -0.248 NA
ATOM     45  C   UNL A   1      39.729  27.616  29.467  1.00  0.00     0.031 C 
ATOM     46  C   UNL A   1      41.691  32.185  30.123  1.00  0.00     0.029 A 
ATOM     47  N   UNL A   1      42.895  30.715  28.940  1.00  0.00    -0.354 N 
ATOM     48  C   UNL A   1      41.428  26.700  28.247  1.00  0.00     0.074 A 
ATOM     49  C   UNL A   1      40.138  26.509  28.870  1.00  0.00     0.031 C 
ATOM     50  C   UNL A   1      42.818  32.804  29.730  1.00  0.00     0.029 A 
ATOM     51  C   UNL A   1      43.654  31.857  28.992  1.00  0.00     0.049 A 
ATOM     52  H   UNL A   1      43.171  29.905  28.454  1.00  0.00     0.167 HD
ATOM     53  C   UNL A   1      42.065  25.761  27.508  1.00  0.00     0.037 A 
ATOM     54  C   UNL A   1      44.894  32.096  28.519  1.00  0.00     0.037 A 
ATOM     55  C   UNL A   1      43.351  25.954  26.897  1.00  0.00     0.049 A 
ATOM     56  C   UNL A   1      45.623  31.002  27.776  1.00  0.00     0.074 A 
ATOM     57  C   UNL A   1      44.081  25.069  26.122  1.00  0.00     0.029 A 
ATOM     58  N   UNL A   1      44.108  27.113  27.000  1.00  0.00    -0.354 N 
ATOM     59  N   UNL A   1      45.220  29.789  27.478  1.00  0.00    -0.248 NA
ATOM     60  C   UNL A   1      46.978  31.313  27.300  1.00  0.00     0.031 C 
ATOM     61  C   UNL A   1      45.305  25.669  25.812  1.00  0.00     0.029 A 
ATOM     62  C   UNL A   1      45.309  26.954  26.330  1.00  0.00     0.049 A 
ATOM     63  H   UNL A   1      43.831  27.927  27.479  1.00  0.00     0.167 HD
ATOM     64  C   UNL A   1      46.254  29.209  26.753  1.00  0.00     0.074 A 
ATOM     65  C   UNL A   1      47.298  30.206  26.645  1.00  0.00     0.031 C 
ATOM     66  C   UNL A   1      46.333  27.963  26.222  1.00  0.00     0.037 A 
BRANCH  53  67
ATOM     67  C   UNL A   1      41.391  24.428  27.355  1.00  0.00     0.064 A 
ATOM     68  C   UNL A   1      40.241  24.264  26.568  1.00  0.00     0.173 A 
ATOM     69  C   UNL A   1      41.919  23.292  27.988  1.00  0.00     0.173 A 
ATOM     70  F   UNL A   1      39.685  25.321  25.956  1.00  0.00    -0.203 F 
ATOM     71  C   UNL A   1      39.628  23.020  26.444  1.00  0.00     0.198 A 
ATOM     72  C   UNL A   1      41.324  22.043  27.833  1.00  0.00     0.198 A 
ATOM     73  F   UNL A   1      43.016  23.391  28.752  1.00  0.00    -0.203 F 
ATOM     74  F   UNL A   1      38.500  22.898  25.732  1.00  0.00    -0.200 F 
ATOM     75  C   UNL A   1      40.175  21.909  27.070  1.00  0.00     0.200 A 
ATOM     76  F   UNL A   1      41.861  20.969  28.428  1.00  0.00    -0.200 F 
ATOM     77  F   UNL A   1      39.589  20.711  26.943  1.00  0.00    -0.200 F 
ENDBRANCH  53  67
BRANCH  54  78
ATOM     78  C   UNL A   1      45.540  33.416  28.750  1.00  0.00     0.064 A 
ATOM     79  C   UNL A   1      46.300  33.662  29.903  1.00  0.00     0.173 A 
ATOM     80  C   UNL A   1      45.384  34.470  27.837  1.00  0.00     0.173 A 
ATOM     81  F   UNL A   1      46.455  32.696  30.820  1.00  0.00    -0.203 F 
ATOM     82  C   UNL A   1      46.858  34.915  30.144  1.00  0.00     0.198 A 
ATOM     83  C   UNL A   1      45.971  35.713  28.064  1.00  0.00     0.198 A 
ATOM     84  F   UNL A   1      44.664  34.292  26.720  1.00  0.00    -0.203 F 
ATOM     85  F   UNL A   1      47.531  35.138  31.282  1.00  0.00    -0.200 F 
ATOM     86  C   UNL A   1      46.699  35.938  29.222  1.00  0.00     0.200 A 
ATOM     87  F   UNL A   1      45.825  36.695  27.164  1.00  0.00    -0.200 F 
ATOM     88  F   UNL A   1      47.237  37.143  29.454  1.00  0.00    -0.200 F 
ENDBRANCH  54  78
BRANCH  66  89
ATOM     89  C   UNL A   1      47.567  27.619  25.434  1.00  0.00     0.064 A 
ATOM     90  C   UNL A   1      48.732  27.137  26.051  1.00  0.00     0.173 A 
ATOM     91  C   UNL A   1      47.566  27.730  24.035  1.00  0.00     0.173 A 
ATOM     92  F   UNL A   1      48.791  27.022  27.386  1.00  0.00    -0.203 F 
ATOM     93  C   UNL A   1      49.857  26.808  25.299  1.00  0.00     0.198 A 
ATOM     94  C   UNL A   1      48.679  27.365  23.284  1.00  0.00     0.198 A 
ATOM     95  F   UNL A   1      46.476  28.175  23.392  1.00  0.00    -0.203 F 
ATOM     96  F   UNL A   1      50.975  26.400  25.914  1.00  0.00    -0.200 F 
ATOM     97  C   UNL A   1      49.827  26.914  23.916  1.00  0.00     0.200 A 
ATOM     98  F   UNL A   1      48.641  27.450  21.946  1.00  0.00    -0.200 F 
ATOM     99  F   UNL A   1      50.908  26.587  23.194  1.00  0.00    -0.200 F 
ENDBRANCH  66  89
ENDBRANCH  40  41
ENDBRANCH  33  35
ENDBRANCH  32  33
ENDBRANCH  31  32
ENDBRANCH  30  31
ENDBRANCH  29  30
ENDBRANCH  28  29
ENDBRANCH  27  28
ENDBRANCH   1  27
TORSDOF 23
ENDMDL
MODEL 2
REMARK VINA RESULT:      -9.3      5.644     10.552
REMARK SMILES C[NH2+][C@]1(C(=O)OCCOCCOCCOCCOC(=O)c2ccc(-c3c4nc(c(-c5c(F)c(F)c(F)c(F)c5F)c5ccc([nH]5)c(-c5c(F)c(F)c(F)c(F)c5F)c5nc(c(-c6c(F)c(F)c(F)c(F)c6F)c6ccc3[nH]6)C=C5)C=C4)cc2)CCC[C@@H](Sc2nccn2C)C1
REMARK SMILES IDX 12 1 11 2 10 3 9 4 8 5 7 6 6 7 4 8 5 9 3 10 84 11 95 12
REMARK SMILES IDX 85 13 87 14 86 15 2 16 1 17 88 20 89 21 90 22 93 23 91 24
REMARK SMILES IDX 92 25 94 26 13 27 14 28 15 29 16 30 17 31 18 32 19 33 20 34
REMARK SMILES IDX 21 35 22 36 83 37 23 38 82 39 24 40 25 41 26 42 76 43 27 44
REMARK SMILES IDX 81 45 75 46 77 47 28 48 80 49 74 50 73 51 29 53 61 54 41 55
REMARK SMILES IDX 60 56 42 57 45 58 59 59 78 60 43 61 44 62 58 64 79 65 46 66
REMARK SMILES IDX 30 67 31 68 39 69 32 70 33 71 37 72 40 73 34 74 35 75 38 76
REMARK SMILES IDX 36 77 62 78 63 79 71 80 64 81 65 82 69 83 72 84 66 85 67 86
REMARK SMILES IDX 70 87 68 88 47 89 48 90 56 91 49 92 50 93 54 94 57 95 51 96
REMARK SMILES IDX 52 97 55 98 53 99
REMARK H PARENT 2 18 2 19 77 52 45 63
REMARK Flexibility Score: inf
ROOT
ATOM      1  O   UNL A   1      41.916  22.695  28.589  1.00  0.00    -0.377 OA
ENDROOT
BRANCH   1   2
ATOM      2  C   UNL A   1      42.481  23.887  28.083  1.00  0.00     0.188 C 
BRANCH   2   3
ATOM      3  C   UNL A   1      41.485  25.025  27.791  1.00  0.00     0.188 C 
BRANCH   3   4
ATOM      4  O   UNL A   1      40.234  25.110  28.459  1.00  0.00    -0.376 OA
BRANCH   4   5
ATOM      5  C   UNL A   1      39.459  26.295  28.439  1.00  0.00     0.202 C 
BRANCH   5   6
ATOM      6  C   UNL A   1      39.331  27.195  29.683  1.00  0.00     0.261 C 
BRANCH   6   7
ATOM      7  O   UNL A   1      40.078  28.423  29.709  1.00  0.00    -0.459 OA
BRANCH   7   8
ATOM      8  C   UNL A   1      39.330  29.556  29.695  1.00  0.00     0.368 C 
ATOM      9  O   UNL A   1      39.022  30.162  28.670  1.00  0.00    -0.245 OA
BRANCH   8  10
ATOM     10  C   UNL A   1      38.925  30.073  31.114  1.00  0.00     0.195 C 
ATOM     11  C   UNL A   1      40.008  30.040  32.225  1.00  0.00     0.081 C 
ATOM     12  C   UNL A   1      38.637  31.554  30.799  1.00  0.00     0.096 C 
ATOM     13  C   UNL A   1      39.599  30.811  33.483  1.00  0.00     0.008 C 
ATOM     14  C   UNL A   1      38.265  32.388  32.020  1.00  0.00     0.061 C 
ATOM     15  C   UNL A   1      39.278  32.263  33.164  1.00  0.00     0.015 C 
BRANCH  10  16
ATOM     16  N   UNL A   1      37.613  29.473  31.504  1.00  0.00    -0.335 N 
ATOM     17  C   UNL A   1      36.473  29.642  30.621  1.00  0.00     0.331 C 
ATOM     18  H   UNL A   1      37.762  28.470  31.611  1.00  0.00     0.347 HD
ATOM     19  H   UNL A   1      37.349  29.986  32.345  1.00  0.00     0.347 HD
ENDBRANCH  10  16
BRANCH  14  20
ATOM     20  S   UNL A   1      38.008  34.136  31.522  1.00  0.00    -0.084 SA
BRANCH  20  21
ATOM     21  C   UNL A   1      36.520  34.506  32.332  1.00  0.00     0.167 A 
ATOM     22  N   UNL A   1      36.412  34.923  33.574  1.00  0.00    -0.231 NA
ATOM     23  N   UNL A   1      35.293  34.319  31.761  1.00  0.00    -0.329 N 
ATOM     24  C   UNL A   1      35.069  34.967  33.833  1.00  0.00     0.132 A 
ATOM     25  C   UNL A   1      34.351  34.598  32.721  1.00  0.00     0.108 A 
ATOM     26  C   UNL A   1      34.986  33.880  30.424  1.00  0.00     0.152 C 
ENDBRANCH  20  21
ENDBRANCH  14  20
ENDBRANCH   8  10
ENDBRANCH   7   8
ENDBRANCH   6   7
ENDBRANCH   5   6
ENDBRANCH   4   5
ENDBRANCH   3   4
ENDBRANCH   2   3
ENDBRANCH   1   2
BRANCH   1  27
ATOM     27  C   UNL A   1      41.662  21.675  27.639  1.00  0.00     0.188 C 
BRANCH  27  28
ATOM     28  C   UNL A   1      41.705  22.072  26.152  1.00  0.00     0.188 C 
BRANCH  28  29
ATOM     29  O   UNL A   1      42.798  21.508  25.441  1.00  0.00    -0.376 OA
BRANCH  29  30
ATOM     30  C   UNL A   1      44.022  22.214  25.337  1.00  0.00     0.202 C 
BRANCH  30  31
ATOM     31  C   UNL A   1      44.081  23.434  24.402  1.00  0.00     0.261 C 
BRANCH  31  32
ATOM     32  O   UNL A   1      44.064  24.726  25.024  1.00  0.00    -0.460 OA
BRANCH  32  33
ATOM     33  C   UNL A   1      45.234  25.387  25.137  1.00  0.00     0.338 C 
ATOM     34  O   UNL A   1      46.268  25.165  24.531  1.00  0.00    -0.246 OA
BRANCH  33  35
ATOM     35  C   UNL A   1      44.994  26.579  25.977  1.00  0.00     0.060 A 
ATOM     36  C   UNL A   1      46.079  27.163  26.646  1.00  0.00     0.016 A 
ATOM     37  C   UNL A   1      43.716  27.133  26.085  1.00  0.00     0.016 A 
ATOM     38  C   UNL A   1      45.882  28.283  27.452  1.00  0.00     0.010 A 
ATOM     39  C   UNL A   1      43.514  28.235  26.919  1.00  0.00     0.010 A 
ATOM     40  C   UNL A   1      44.590  28.791  27.634  1.00  0.00    -0.014 A 
BRANCH  40  41
ATOM     41  C   UNL A   1      44.332  29.742  28.742  1.00  0.00     0.031 A 
ATOM     42  C   UNL A   1      44.085  29.173  30.112  1.00  0.00     0.074 A 
ATOM     43  C   UNL A   1      44.344  31.071  28.549  1.00  0.00     0.049 A 
ATOM     44  N   UNL A   1      43.784  29.785  31.228  1.00  0.00    -0.248 NA
ATOM     45  C   UNL A   1      44.191  27.710  30.236  1.00  0.00     0.031 C 
ATOM     46  C   UNL A   1      44.623  31.740  27.282  1.00  0.00     0.029 A 
ATOM     47  N   UNL A   1      44.105  32.097  29.430  1.00  0.00    -0.354 N 
ATOM     48  C   UNL A   1      43.659  28.783  32.182  1.00  0.00     0.074 A 
ATOM     49  C   UNL A   1      43.882  27.523  31.509  1.00  0.00     0.031 C 
ATOM     50  C   UNL A   1      44.522  33.069  27.461  1.00  0.00     0.029 A 
ATOM     51  C   UNL A   1      44.138  33.339  28.847  1.00  0.00     0.049 A 
ATOM     52  H   UNL A   1      43.927  31.955  30.388  1.00  0.00     0.167 HD
ATOM     53  C   UNL A   1      43.392  28.905  33.503  1.00  0.00     0.037 A 
ATOM     54  C   UNL A   1      43.859  34.550  29.370  1.00  0.00     0.037 A 
ATOM     55  C   UNL A   1      43.163  30.161  34.165  1.00  0.00     0.049 A 
ATOM     56  C   UNL A   1      43.475  34.653  30.827  1.00  0.00     0.074 A 
ATOM     57  C   UNL A   1      42.892  30.395  35.502  1.00  0.00     0.029 A 
ATOM     58  N   UNL A   1      43.169  31.398  33.535  1.00  0.00    -0.354 N 
ATOM     59  N   UNL A   1      43.378  33.705  31.730  1.00  0.00    -0.248 NA
ATOM     60  C   UNL A   1      43.166  35.996  31.338  1.00  0.00     0.031 C 
ATOM     61  C   UNL A   1      42.670  31.766  35.667  1.00  0.00     0.029 A 
ATOM     62  C   UNL A   1      42.875  32.395  34.449  1.00  0.00     0.049 A 
ATOM     63  H   UNL A   1      43.354  31.543  32.579  1.00  0.00     0.167 HD
ATOM     64  C   UNL A   1      43.032  34.340  32.917  1.00  0.00     0.074 A 
ATOM     65  C   UNL A   1      42.949  35.755  32.623  1.00  0.00     0.031 C 
ATOM     66  C   UNL A   1      42.806  33.801  34.141  1.00  0.00     0.037 A 
BRANCH  53  67
ATOM     67  C   UNL A   1      43.298  27.642  34.309  1.00  0.00     0.064 A 
ATOM     68  C   UNL A   1      42.080  26.972  34.498  1.00  0.00     0.173 A 
ATOM     69  C   UNL A   1      44.450  27.082  34.883  1.00  0.00     0.173 A 
ATOM     70  F   UNL A   1      40.946  27.474  33.986  1.00  0.00    -0.203 F 
ATOM     71  C   UNL A   1      42.014  25.805  35.255  1.00  0.00     0.198 A 
ATOM     72  C   UNL A   1      44.386  25.896  35.609  1.00  0.00     0.198 A 
ATOM     73  F   UNL A   1      45.640  27.681  34.734  1.00  0.00    -0.203 F 
ATOM     74  F   UNL A   1      40.831  25.212  35.467  1.00  0.00    -0.200 F 
ATOM     75  C   UNL A   1      43.168  25.264  35.803  1.00  0.00     0.200 A 
ATOM     76  F   UNL A   1      45.504  25.368  36.126  1.00  0.00    -0.200 F 
ATOM     77  F   UNL A   1      43.104  24.136  36.524  1.00  0.00    -0.200 F 
ENDBRANCH  53  67
BRANCH  54  78
ATOM     78  C   UNL A   1      43.910  35.764  28.513  1.00  0.00     0.064 A 
ATOM     79  C   UNL A   1      45.111  36.459  28.307  1.00  0.00     0.173 A 
ATOM     80  C   UNL A   1      42.752  36.275  27.907  1.00  0.00     0.173 A 
ATOM     81  F   UNL A   1      46.241  36.028  28.887  1.00  0.00    -0.203 F 
ATOM     82  C   UNL A   1      45.147  37.627  27.548  1.00  0.00     0.198 A 
ATOM     83  C   UNL A   1      42.796  37.425  27.122  1.00  0.00     0.198 A 
ATOM     84  F   UNL A   1      41.575  35.654  28.075  1.00  0.00    -0.203 F 
ATOM     85  F   UNL A   1      46.298  38.302  27.416  1.00  0.00    -0.200 F 
ATOM     86  C   UNL A   1      43.990  38.106  26.951  1.00  0.00     0.200 A 
ATOM     87  F   UNL A   1      41.678  37.877  26.537  1.00  0.00    -0.200 F 
ATOM     88  F   UNL A   1      44.026  39.229  26.221  1.00  0.00    -0.200 F 
ENDBRANCH  54  78
BRANCH  66  89
ATOM     89  C   UNL A   1      42.494  34.745  35.270  1.00  0.00     0.064 A 
ATOM     90  C   UNL A   1      41.178  35.123  35.579  1.00  0.00     0.173 A 
ATOM     91  C   UNL A   1      43.525  35.240  36.083  1.00  0.00     0.173 A 
ATOM     92  F   UNL A   1      40.156  34.687  34.828  1.00  0.00    -0.203 F 
ATOM     93  C   UNL A   1      40.911  35.984  36.640  1.00  0.00     0.198 A 
ATOM     94  C   UNL A   1      43.251  36.072  37.165  1.00  0.00     0.198 A 
ATOM     95  F   UNL A   1      44.801  34.904  35.840  1.00  0.00    -0.203 F 
ATOM     96  F   UNL A   1      39.652  36.373  36.884  1.00  0.00    -0.200 F 
ATOM     97  C   UNL A   1      41.947  36.451  37.438  1.00  0.00     0.200 A 
ATOM     98  F   UNL A   1      44.251  36.506  37.946  1.00  0.00    -0.200 F 
ATOM     99  F   UNL A   1      41.685  37.271  38.465  1.00  0.00    -0.200 F 
ENDBRANCH  66  89
ENDBRANCH  40  41
ENDBRANCH  33  35
ENDBRANCH  32  33
ENDBRANCH  31  32
ENDBRANCH  30  31
ENDBRANCH  29  30
ENDBRANCH  28  29
ENDBRANCH  27  28
ENDBRANCH   1  27
TORSDOF 23
ENDMDL
MODEL 3
REMARK VINA RESULT:      -9.2      4.725     10.531
REMARK SMILES C[NH2+][C@]1(C(=O)OCCOCCOCCOCCOC(=O)c2ccc(-c3c4nc(c(-c5c(F)c(F)c(F)c(F)c5F)c5ccc([nH]5)c(-c5c(F)c(F)c(F)c(F)c5F)c5nc(c(-c6c(F)c(F)c(F)c(F)c6F)c6ccc3[nH]6)C=C5)C=C4)cc2)CCC[C@@H](Sc2nccn2C)C1
REMARK SMILES IDX 12 1 11 2 10 3 9 4 8 5 7 6 6 7 4 8 5 9 3 10 84 11 95 12
REMARK SMILES IDX 85 13 87 14 86 15 2 16 1 17 88 20 89 21 90 22 93 23 91 24
REMARK SMILES IDX 92 25 94 26 13 27 14 28 15 29 16 30 17 31 18 32 19 33 20 34
REMARK SMILES IDX 21 35 22 36 83 37 23 38 82 39 24 40 25 41 26 42 76 43 27 44
REMARK SMILES IDX 81 45 75 46 77 47 28 48 80 49 74 50 73 51 29 53 61 54 41 55
REMARK SMILES IDX 60 56 42 57 45 58 59 59 78 60 43 61 44 62 58 64 79 65 46 66
REMARK SMILES IDX 30 67 31 68 39 69 32 70 33 71 37 72 40 73 34 74 35 75 38 76
REMARK SMILES IDX 36 77 62 78 63 79 71 80 64 81 65 82 69 83 72 84 66 85 67 86
REMARK SMILES IDX 70 87 68 88 47 89 48 90 56 91 49 92 50 93 54 94 57 95 51 96
REMARK SMILES IDX 52 97 55 98 53 99
REMARK H PARENT 2 18 2 19 77 52 45 63
REMARK Flexibility Score: inf
ROOT
ATOM      1  O   UNL A   1      39.227  34.553  31.502  1.00  0.00    -0.377 OA
ENDROOT
BRANCH   1   2
ATOM      2  C   UNL A   1      39.485  33.676  32.578  1.00  0.00     0.188 C 
BRANCH   2   3
ATOM      3  C   UNL A   1      39.044  34.178  33.967  1.00  0.00     0.188 C 
BRANCH   3   4
ATOM      4  O   UNL A   1      38.547  33.288  34.956  1.00  0.00    -0.376 OA
BRANCH   4   5
ATOM      5  C   UNL A   1      38.755  31.889  34.871  1.00  0.00     0.202 C 
BRANCH   5   6
ATOM      6  C   UNL A   1      39.518  31.119  35.965  1.00  0.00     0.261 C 
BRANCH   6   7
ATOM      7  O   UNL A   1      39.809  29.730  35.737  1.00  0.00    -0.459 OA
BRANCH   7   8
ATOM      8  C   UNL A   1      41.120  29.390  35.832  1.00  0.00     0.368 C 
ATOM      9  O   UNL A   1      41.905  29.902  36.629  1.00  0.00    -0.245 OA
BRANCH   8  10
ATOM     10  C   UNL A   1      41.579  28.312  34.798  1.00  0.00     0.195 C 
ATOM     11  C   UNL A   1      42.854  28.615  33.966  1.00  0.00     0.081 C 
ATOM     12  C   UNL A   1      41.916  27.143  35.743  1.00  0.00     0.096 C 
ATOM     13  C   UNL A   1      43.366  27.397  33.191  1.00  0.00     0.008 C 
ATOM     14  C   UNL A   1      42.473  25.912  35.037  1.00  0.00     0.061 C 
ATOM     15  C   UNL A   1      43.662  26.231  34.123  1.00  0.00     0.015 C 
BRANCH  10  16
ATOM     16  N   UNL A   1      40.401  27.864  33.993  1.00  0.00    -0.335 N 
ATOM     17  C   UNL A   1      40.198  28.427  32.670  1.00  0.00     0.331 C 
ATOM     18  H   UNL A   1      40.484  26.854  33.878  1.00  0.00     0.347 HD
ATOM     19  H   UNL A   1      39.599  28.197  34.526  1.00  0.00     0.347 HD
ENDBRANCH  10  16
BRANCH  14  20
ATOM     20  S   UNL A   1      42.889  24.621  36.274  1.00  0.00    -0.084 SA
BRANCH  20  21
ATOM     21  C   UNL A   1      44.063  23.684  35.406  1.00  0.00     0.167 A 
ATOM     22  N   UNL A   1      43.790  22.763  34.509  1.00  0.00    -0.231 NA
ATOM     23  N   UNL A   1      45.406  23.770  35.640  1.00  0.00    -0.329 N 
ATOM     24  C   UNL A   1      44.993  22.201  34.180  1.00  0.00     0.132 A 
ATOM     25  C   UNL A   1      46.014  22.811  34.868  1.00  0.00     0.108 A 
ATOM     26  C   UNL A   1      46.104  24.653  36.538  1.00  0.00     0.152 C 
ENDBRANCH  20  21
ENDBRANCH  14  20
ENDBRANCH   8  10
ENDBRANCH   7   8
ENDBRANCH   6   7
ENDBRANCH   5   6
ENDBRANCH   4   5
ENDBRANCH   3   4
ENDBRANCH   2   3
ENDBRANCH   1   2
BRANCH   1  27
ATOM     27  C   UNL A   1      38.017  34.334  30.798  1.00  0.00     0.188 C 
BRANCH  27  28
ATOM     28  C   UNL A   1      37.308  32.985  31.019  1.00  0.00     0.188 C 
BRANCH  28  29
ATOM     29  O   UNL A   1      35.953  33.111  31.427  1.00  0.00    -0.376 OA
BRANCH  29  30
ATOM     30  C   UNL A   1      34.999  33.698  30.559  1.00  0.00     0.202 C 
BRANCH  30  31
ATOM     31  C   UNL A   1      34.295  32.794  29.533  1.00  0.00     0.261 C 
BRANCH  31  32
ATOM     32  O   UNL A   1      35.106  32.261  28.477  1.00  0.00    -0.460 OA
BRANCH  32  33
ATOM     33  C   UNL A   1      34.903  30.978  28.113  1.00  0.00     0.338 C 
ATOM     34  O   UNL A   1      33.901  30.504  27.607  1.00  0.00    -0.246 OA
BRANCH  33  35
ATOM     35  C   UNL A   1      36.195  30.270  28.238  1.00  0.00     0.060 A 
ATOM     36  C   UNL A   1      36.511  29.653  29.457  1.00  0.00     0.016 A 
ATOM     37  C   UNL A   1      37.075  30.191  27.157  1.00  0.00     0.016 A 
ATOM     38  C   UNL A   1      37.725  28.985  29.607  1.00  0.00     0.010 A 
ATOM     39  C   UNL A   1      38.306  29.550  27.319  1.00  0.00     0.010 A 
ATOM     40  C   UNL A   1      38.650  28.976  28.556  1.00  0.00    -0.014 A 
BRANCH  40  41
ATOM     41  C   UNL A   1      40.053  28.580  28.825  1.00  0.00     0.031 A 
ATOM     42  C   UNL A   1      40.940  29.571  29.527  1.00  0.00     0.074 A 
ATOM     43  C   UNL A   1      40.522  27.368  28.484  1.00  0.00     0.049 A 
ATOM     44  N   UNL A   1      42.211  29.487  29.827  1.00  0.00    -0.248 NA
ATOM     45  C   UNL A   1      40.304  30.830  29.944  1.00  0.00     0.031 C 
ATOM     46  C   UNL A   1      39.745  26.307  27.850  1.00  0.00     0.029 A 
ATOM     47  N   UNL A   1      41.779  26.832  28.624  1.00  0.00    -0.354 N 
ATOM     48  C   UNL A   1      42.525  30.682  30.461  1.00  0.00     0.074 A 
ATOM     49  C   UNL A   1      41.324  31.487  30.473  1.00  0.00     0.031 C 
ATOM     50  C   UNL A   1      40.548  25.250  27.636  1.00  0.00     0.029 A 
ATOM     51  C   UNL A   1      41.901  25.575  28.088  1.00  0.00     0.049 A 
ATOM     52  H   UNL A   1      42.521  27.305  29.064  1.00  0.00     0.167 HD
ATOM     53  C   UNL A   1      43.707  31.068  30.995  1.00  0.00     0.037 A 
ATOM     54  C   UNL A   1      42.990  24.791  27.955  1.00  0.00     0.037 A 
ATOM     55  C   UNL A   1      44.900  30.266  30.974  1.00  0.00     0.049 A 
ATOM     56  C   UNL A   1      44.319  25.281  28.478  1.00  0.00     0.074 A 
ATOM     57  C   UNL A   1      46.148  30.561  31.494  1.00  0.00     0.029 A 
ATOM     58  N   UNL A   1      44.995  29.010  30.391  1.00  0.00    -0.354 N 
ATOM     59  N   UNL A   1      44.607  26.403  29.095  1.00  0.00    -0.248 NA
ATOM     60  C   UNL A   1      45.474  24.392  28.289  1.00  0.00     0.031 C 
ATOM     61  C   UNL A   1      47.014  29.512  31.168  1.00  0.00     0.029 A 
ATOM     62  C   UNL A   1      46.289  28.531  30.510  1.00  0.00     0.049 A 
ATOM     63  H   UNL A   1      44.253  28.532  29.956  1.00  0.00     0.167 HD
ATOM     64  C   UNL A   1      45.962  26.338  29.397  1.00  0.00     0.074 A 
ATOM     65  C   UNL A   1      46.437  25.062  28.907  1.00  0.00     0.031 C 
ATOM     66  C   UNL A   1      46.743  27.252  30.026  1.00  0.00     0.037 A 
BRANCH  53  67
ATOM     67  C   UNL A   1      43.772  32.434  31.615  1.00  0.00     0.064 A 
ATOM     68  C   UNL A   1      44.015  33.585  30.850  1.00  0.00     0.173 A 
ATOM     69  C   UNL A   1      43.566  32.596  32.994  1.00  0.00     0.173 A 
ATOM     70  F   UNL A   1      44.237  33.484  29.531  1.00  0.00    -0.203 F 
ATOM     71  C   UNL A   1      44.078  34.842  31.446  1.00  0.00     0.198 A 
ATOM     72  C   UNL A   1      43.594  33.858  33.581  1.00  0.00     0.198 A 
ATOM     73  F   UNL A   1      43.329  31.530  33.772  1.00  0.00    -0.203 F 
ATOM     74  F   UNL A   1      44.366  35.920  30.704  1.00  0.00    -0.200 F 
ATOM     75  C   UNL A   1      43.860  34.978  32.809  1.00  0.00     0.200 A 
ATOM     76  F   UNL A   1      43.370  33.988  34.895  1.00  0.00    -0.200 F 
ATOM     77  F   UNL A   1      43.912  36.189  33.380  1.00  0.00    -0.200 F 
ENDBRANCH  53  67
BRANCH  54  78
ATOM     78  C   UNL A   1      42.882  23.470  27.280  1.00  0.00     0.064 A 
ATOM     79  C   UNL A   1      42.337  22.359  27.940  1.00  0.00     0.173 A 
ATOM     80  C   UNL A   1      43.352  23.282  25.971  1.00  0.00     0.173 A 
ATOM     81  F   UNL A   1      41.900  22.478  29.202  1.00  0.00    -0.203 F 
ATOM     82  C   UNL A   1      42.287  21.109  27.325  1.00  0.00     0.198 A 
ATOM     83  C   UNL A   1      43.271  22.040  25.347  1.00  0.00     0.198 A 
ATOM     84  F   UNL A   1      43.887  24.310  25.295  1.00  0.00    -0.203 F 
ATOM     85  F   UNL A   1      41.814  20.052  28.001  1.00  0.00    -0.200 F 
ATOM     86  C   UNL A   1      42.748  20.952  26.027  1.00  0.00     0.200 A 
ATOM     87  F   UNL A   1      43.706  21.896  24.088  1.00  0.00    -0.200 F 
ATOM     88  F   UNL A   1      42.699  19.750  25.437  1.00  0.00    -0.200 F 
ENDBRANCH  54  78
BRANCH  66  89
ATOM     89  C   UNL A   1      48.183  26.890  30.264  1.00  0.00     0.064 A 
ATOM     90  C   UNL A   1      48.581  26.114  31.364  1.00  0.00     0.173 A 
ATOM     91  C   UNL A   1      49.172  27.287  29.351  1.00  0.00     0.173 A 
ATOM     92  F   UNL A   1      47.678  25.717  32.273  1.00  0.00    -0.203 F 
ATOM     93  C   UNL A   1      49.918  25.776  31.555  1.00  0.00     0.198 A 
ATOM     94  C   UNL A   1      50.503  26.916  29.526  1.00  0.00     0.198 A 
ATOM     95  F   UNL A   1      48.847  28.021  28.276  1.00  0.00    -0.203 F 
ATOM     96  F   UNL A   1      50.282  25.079  32.640  1.00  0.00    -0.200 F 
ATOM     97  C   UNL A   1      50.876  26.169  30.631  1.00  0.00     0.200 A 
ATOM     98  F   UNL A   1      51.423  27.281  28.622  1.00  0.00    -0.200 F 
ATOM     99  F   UNL A   1      52.161  25.833  30.813  1.00  0.00    -0.200 F 
ENDBRANCH  66  89
ENDBRANCH  40  41
ENDBRANCH  33  35
ENDBRANCH  32  33
ENDBRANCH  31  32
ENDBRANCH  30  31
ENDBRANCH  29  30
ENDBRANCH  28  29
ENDBRANCH  27  28
ENDBRANCH   1  27
TORSDOF 23
ENDMDL
