MODEL 1
REMARK VINA RESULT:     -10.4      0.000      0.000
REMARK SMILES O=C(Cc1ccn[nH]1)NC[C@H]1CCCC[C@H]1C(=O)OCCOCCOCCOCCOC(=O)c1ccc(-c2c3nc(c(-c4c(F)c(F)c(F)c(F)c4F)c4ccc([nH]4)c(-c4c(F)c(F)c(F)c(F)c4F)c4nc(c(-c5c(F)c(F)c(F)c(F)c5F)c5ccc2[nH]5)C=C4)C=C3)cc1
REMARK SMILES IDX 24 1 23 2 22 3 21 4 20 5 19 6 17 7 18 8 16 9 11 10 12 11
REMARK SMILES IDX 13 12 15 13 14 14 10 15 9 16 1 17 2 18 3 20 4 21 5 22 8 23
REMARK SMILES IDX 6 24 7 25 25 27 26 28 27 29 28 30 29 31 30 32 31 33 32 34
REMARK SMILES IDX 33 35 34 36 35 37 96 38 36 39 95 40 37 41 38 42 39 43 89 44
REMARK SMILES IDX 40 45 94 46 88 47 90 48 41 49 93 50 87 51 86 52 42 54 74 55
REMARK SMILES IDX 54 56 73 57 55 58 58 59 72 60 91 61 56 62 57 63 71 65 92 66
REMARK SMILES IDX 59 67 43 68 44 69 52 70 45 71 46 72 50 73 53 74 47 75 48 76
REMARK SMILES IDX 51 77 49 78 75 79 76 80 84 81 77 82 78 83 82 84 85 85 79 86
REMARK SMILES IDX 80 87 83 88 81 89 60 90 61 91 69 92 62 93 63 94 67 95 70 96
REMARK SMILES IDX 64 97 65 98 68 99 66 100
REMARK H PARENT 9 19 8 26 90 53 58 64
REMARK Flexibility Score: inf
ROOT
ATOM      1  C   UNL A   1      34.948  30.628  27.809  1.00  0.00     0.188 C 
ENDROOT
BRANCH   1   2
ATOM      2  C   UNL A   1      34.426  29.369  27.111  1.00  0.00     0.188 C 
BRANCH   2   3
ATOM      3  O   UNL A   1      33.190  28.820  27.575  1.00  0.00    -0.376 OA
BRANCH   3   4
ATOM      4  C   UNL A   1      31.963  29.400  27.139  1.00  0.00     0.202 C 
BRANCH   4   5
ATOM      5  C   UNL A   1      31.937  29.807  25.667  1.00  0.00     0.261 C 
BRANCH   5   6
ATOM      6  O   UNL A   1      31.500  28.730  24.817  1.00  0.00    -0.463 OA
BRANCH   6   7
ATOM      7  C   UNL A   1      32.404  27.762  24.550  1.00  0.00     0.309 C 
ATOM      8  O   UNL A   1      33.414  27.914  23.874  1.00  0.00    -0.252 OA
BRANCH   7   9
ATOM      9  C   UNL A   1      32.007  26.411  25.116  1.00  0.00     0.104 C 
ATOM     10  C   UNL A   1      30.503  26.050  25.202  1.00  0.00     0.022 C 
ATOM     11  C   UNL A   1      30.375  24.725  25.996  1.00  0.00     0.006 C 
ATOM     12  C   UNL A   1      31.238  23.599  25.420  1.00  0.00     0.000 C 
ATOM     13  C   UNL A   1      32.844  25.305  24.478  1.00  0.00     0.016 C 
ATOM     14  C   UNL A   1      32.699  24.013  25.276  1.00  0.00     0.001 C 
BRANCH  10  15
ATOM     15  C   UNL A   1      29.741  25.938  23.865  1.00  0.00     0.120 C 
BRANCH  15  16
ATOM     16  N   UNL A   1      28.687  26.941  23.798  1.00  0.00    -0.355 N 
ATOM     17  O   UNL A   1      29.689  28.246  22.199  1.00  0.00    -0.275 OA
ATOM     18  C   UNL A   1      28.766  28.048  22.983  1.00  0.00     0.226 C 
ATOM     19  H   UNL A   1      27.887  26.823  24.358  1.00  0.00     0.163 HD
BRANCH  18  20
ATOM     20  C   UNL A   1      27.546  28.955  23.059  1.00  0.00     0.155 C 
BRANCH  20  21
ATOM     21  C   UNL A   1      27.794  30.278  22.413  1.00  0.00     0.044 A 
ATOM     22  C   UNL A   1      27.993  31.531  22.956  1.00  0.00     0.045 A 
ATOM     23  N   UNL A   1      27.892  30.451  21.055  1.00  0.00    -0.282 N 
ATOM     24  C   UNL A   1      28.137  32.386  21.849  1.00  0.00     0.135 A 
ATOM     25  N   UNL A   1      28.052  31.732  20.690  1.00  0.00    -0.184 NA
ATOM     26  H   UNL A   1      27.849  29.707  20.410  1.00  0.00     0.190 HD
ENDBRANCH  20  21
ENDBRANCH  18  20
ENDBRANCH  15  16
ENDBRANCH  10  15
ENDBRANCH   7   9
ENDBRANCH   6   7
ENDBRANCH   5   6
ENDBRANCH   4   5
ENDBRANCH   3   4
ENDBRANCH   2   3
ENDBRANCH   1   2
BRANCH   1  27
ATOM     27  O   UNL A   1      34.125  31.787  27.913  1.00  0.00    -0.377 OA
BRANCH  27  28
ATOM     28  C   UNL A   1      34.742  33.053  28.063  1.00  0.00     0.188 C 
BRANCH  28  29
ATOM     29  C   UNL A   1      34.354  33.799  29.345  1.00  0.00     0.188 C 
BRANCH  29  30
ATOM     30  O   UNL A   1      33.101  34.465  29.379  1.00  0.00    -0.376 OA
BRANCH  30  31
ATOM     31  C   UNL A   1      33.079  35.884  29.261  1.00  0.00     0.202 C 
BRANCH  31  32
ATOM     32  C   UNL A   1      32.776  36.770  30.484  1.00  0.00     0.261 C 
BRANCH  32  33
ATOM     33  O   UNL A   1      32.253  36.078  31.632  1.00  0.00    -0.460 OA
BRANCH  33  34
ATOM     34  C   UNL A   1      33.006  36.142  32.753  1.00  0.00     0.338 C 
ATOM     35  O   UNL A   1      32.843  36.872  33.721  1.00  0.00    -0.246 OA
BRANCH  34  36
ATOM     36  C   UNL A   1      34.108  35.172  32.679  1.00  0.00     0.060 A 
ATOM     37  C   UNL A   1      33.907  33.839  33.049  1.00  0.00     0.016 A 
ATOM     38  C   UNL A   1      35.386  35.635  32.361  1.00  0.00     0.016 A 
ATOM     39  C   UNL A   1      34.994  32.963  33.111  1.00  0.00     0.010 A 
ATOM     40  C   UNL A   1      36.467  34.753  32.394  1.00  0.00     0.010 A 
ATOM     41  C   UNL A   1      36.284  33.423  32.813  1.00  0.00    -0.014 A 
BRANCH  41  42
ATOM     42  C   UNL A   1      37.474  32.599  33.142  1.00  0.00     0.031 A 
ATOM     43  C   UNL A   1      38.188  32.865  34.440  1.00  0.00     0.074 A 
ATOM     44  C   UNL A   1      37.921  31.643  32.310  1.00  0.00     0.049 A 
ATOM     45  N   UNL A   1      39.300  32.354  34.904  1.00  0.00    -0.248 NA
ATOM     46  C   UNL A   1      37.564  33.856  35.332  1.00  0.00     0.031 C 
ATOM     47  C   UNL A   1      37.307  31.271  31.038  1.00  0.00     0.029 A 
ATOM     48  N   UNL A   1      39.016  30.819  32.412  1.00  0.00    -0.354 N 
ATOM     49  C   UNL A   1      39.520  32.979  36.123  1.00  0.00     0.074 A 
ATOM     50  C   UNL A   1      38.446  33.929  36.316  1.00  0.00     0.031 C 
ATOM     51  C   UNL A   1      38.039  30.294  30.472  1.00  0.00     0.029 A 
ATOM     52  C   UNL A   1      39.192  30.001  31.323  1.00  0.00     0.049 A 
ATOM     53  H   UNL A   1      39.617  30.814  33.192  1.00  0.00     0.167 HD
ATOM     54  C   UNL A   1      40.521  32.773  37.013  1.00  0.00     0.037 A 
ATOM     55  C   UNL A   1      40.185  29.134  31.042  1.00  0.00     0.037 A 
ATOM     56  C   UNL A   1      41.579  31.816  36.829  1.00  0.00     0.049 A 
ATOM     57  C   UNL A   1      41.317  28.957  32.024  1.00  0.00     0.074 A 
ATOM     58  C   UNL A   1      42.623  31.511  37.683  1.00  0.00     0.029 A 
ATOM     59  N   UNL A   1      41.726  31.011  35.710  1.00  0.00    -0.354 N 
ATOM     60  N   UNL A   1      41.505  29.529  33.190  1.00  0.00    -0.248 NA
ATOM     61  C   UNL A   1      42.377  28.009  31.650  1.00  0.00     0.031 C 
ATOM     62  C   UNL A   1      43.431  30.554  37.060  1.00  0.00     0.029 A 
ATOM     63  C   UNL A   1      42.857  30.223  35.842  1.00  0.00     0.049 A 
ATOM     64  H   UNL A   1      41.117  31.001  34.936  1.00  0.00     0.167 HD
ATOM     65  C   UNL A   1      42.681  28.990  33.698  1.00  0.00     0.074 A 
ATOM     66  C   UNL A   1      43.157  28.035  32.721  1.00  0.00     0.031 C 
ATOM     67  C   UNL A   1      43.309  29.262  34.868  1.00  0.00     0.037 A 
BRANCH  54  68
ATOM     68  C   UNL A   1      40.525  33.615  38.255  1.00  0.00     0.064 A 
ATOM     69  C   UNL A   1      39.730  33.297  39.366  1.00  0.00     0.173 A 
ATOM     70  C   UNL A   1      41.349  34.748  38.338  1.00  0.00     0.173 A 
ATOM     71  F   UNL A   1      38.914  32.233  39.329  1.00  0.00    -0.203 F 
ATOM     72  C   UNL A   1      39.736  34.100  40.504  1.00  0.00     0.198 A 
ATOM     73  C   UNL A   1      41.376  35.530  39.490  1.00  0.00     0.198 A 
ATOM     74  F   UNL A   1      42.131  35.095  37.306  1.00  0.00    -0.203 F 
ATOM     75  F   UNL A   1      38.927  33.808  41.531  1.00  0.00    -0.200 F 
ATOM     76  C   UNL A   1      40.563  35.211  40.568  1.00  0.00     0.200 A 
ATOM     77  F   UNL A   1      42.185  36.597  39.554  1.00  0.00    -0.200 F 
ATOM     78  F   UNL A   1      40.571  35.980  41.665  1.00  0.00    -0.200 F 
ENDBRANCH  54  68
BRANCH  55  79
ATOM     79  C   UNL A   1      40.167  28.366  29.769  1.00  0.00     0.064 A 
ATOM     80  C   UNL A   1      39.491  27.140  29.677  1.00  0.00     0.173 A 
ATOM     81  C   UNL A   1      40.849  28.819  28.631  1.00  0.00     0.173 A 
ATOM     82  F   UNL A   1      38.849  26.648  30.746  1.00  0.00    -0.203 F 
ATOM     83  C   UNL A   1      39.518  26.388  28.503  1.00  0.00     0.198 A 
ATOM     84  C   UNL A   1      40.850  28.082  27.449  1.00  0.00     0.198 A 
ATOM     85  F   UNL A   1      41.516  29.982  28.666  1.00  0.00    -0.203 F 
ATOM     86  F   UNL A   1      38.909  25.195  28.461  1.00  0.00    -0.200 F 
ATOM     87  C   UNL A   1      40.192  26.863  27.389  1.00  0.00     0.200 A 
ATOM     88  F   UNL A   1      41.495  28.547  26.370  1.00  0.00    -0.200 F 
ATOM     89  F   UNL A   1      40.218  26.139  26.261  1.00  0.00    -0.200 F 
ENDBRANCH  55  79
BRANCH  67  90
ATOM     90  C   UNL A   1      44.554  28.484  35.187  1.00  0.00     0.064 A 
ATOM     91  C   UNL A   1      44.502  27.231  35.816  1.00  0.00     0.173 A 
ATOM     92  C   UNL A   1      45.813  28.976  34.807  1.00  0.00     0.173 A 
ATOM     93  F   UNL A   1      43.325  26.721  36.210  1.00  0.00    -0.203 F 
ATOM     94  C   UNL A   1      45.666  26.511  36.073  1.00  0.00     0.198 A 
ATOM     95  C   UNL A   1      46.971  28.239  35.038  1.00  0.00     0.198 A 
ATOM     96  F   UNL A   1      45.918  30.164  34.194  1.00  0.00    -0.203 F 
ATOM     97  F   UNL A   1      45.596  25.336  36.715  1.00  0.00    -0.200 F 
ATOM     98  C   UNL A   1      46.898  27.010  35.677  1.00  0.00     0.200 A 
ATOM     99  F   UNL A   1      48.159  28.716  34.640  1.00  0.00    -0.200 F 
ATOM    100  F   UNL A   1      48.015  26.311  35.917  1.00  0.00    -0.200 F 
ENDBRANCH  67  90
ENDBRANCH  41  42
ENDBRANCH  34  36
ENDBRANCH  33  34
ENDBRANCH  32  33
ENDBRANCH  31  32
ENDBRANCH  30  31
ENDBRANCH  29  30
ENDBRANCH  28  29
ENDBRANCH  27  28
ENDBRANCH   1  27
TORSDOF 24
ENDMDL
MODEL 2
REMARK VINA RESULT:     -10.0      0.774      2.196
REMARK SMILES O=C(Cc1ccn[nH]1)NC[C@H]1CCCC[C@H]1C(=O)OCCOCCOCCOCCOC(=O)c1ccc(-c2c3nc(c(-c4c(F)c(F)c(F)c(F)c4F)c4ccc([nH]4)c(-c4c(F)c(F)c(F)c(F)c4F)c4nc(c(-c5c(F)c(F)c(F)c(F)c5F)c5ccc2[nH]5)C=C4)C=C3)cc1
REMARK SMILES IDX 24 1 23 2 22 3 21 4 20 5 19 6 17 7 18 8 16 9 11 10 12 11
REMARK SMILES IDX 13 12 15 13 14 14 10 15 9 16 1 17 2 18 3 20 4 21 5 22 8 23
REMARK SMILES IDX 6 24 7 25 25 27 26 28 27 29 28 30 29 31 30 32 31 33 32 34
REMARK SMILES IDX 33 35 34 36 35 37 96 38 36 39 95 40 37 41 38 42 39 43 89 44
REMARK SMILES IDX 40 45 94 46 88 47 90 48 41 49 93 50 87 51 86 52 42 54 74 55
REMARK SMILES IDX 54 56 73 57 55 58 58 59 72 60 91 61 56 62 57 63 71 65 92 66
REMARK SMILES IDX 59 67 43 68 44 69 52 70 45 71 46 72 50 73 53 74 47 75 48 76
REMARK SMILES IDX 51 77 49 78 75 79 76 80 84 81 77 82 78 83 82 84 85 85 79 86
REMARK SMILES IDX 80 87 83 88 81 89 60 90 61 91 69 92 62 93 63 94 67 95 70 96
REMARK SMILES IDX 64 97 65 98 68 99 66 100
REMARK H PARENT 9 19 8 26 90 53 58 64
REMARK Flexibility Score: inf
ROOT
ATOM      1  C   UNL A   1      34.835  30.302  27.909  1.00  0.00     0.188 C 
ENDROOT
BRANCH   1   2
ATOM      2  C   UNL A   1      34.292  29.025  27.262  1.00  0.00     0.188 C 
BRANCH   2   3
ATOM      3  O   UNL A   1      32.924  28.690  27.506  1.00  0.00    -0.376 OA
BRANCH   3   4
ATOM      4  C   UNL A   1      31.976  28.823  26.449  1.00  0.00     0.202 C 
BRANCH   4   5
ATOM      5  C   UNL A   1      32.582  28.833  25.047  1.00  0.00     0.261 C 
BRANCH   5   6
ATOM      6  O   UNL A   1      32.184  27.682  24.279  1.00  0.00    -0.463 OA
BRANCH   6   7
ATOM      7  C   UNL A   1      33.177  26.933  23.750  1.00  0.00     0.309 C 
ATOM      8  O   UNL A   1      33.627  27.064  22.619  1.00  0.00    -0.252 OA
BRANCH   7   9
ATOM      9  C   UNL A   1      33.648  25.832  24.684  1.00  0.00     0.104 C 
ATOM     10  C   UNL A   1      32.627  25.190  25.655  1.00  0.00     0.022 C 
ATOM     11  C   UNL A   1      33.405  24.259  26.619  1.00  0.00     0.006 C 
ATOM     12  C   UNL A   1      34.275  23.234  25.886  1.00  0.00     0.000 C 
ATOM     13  C   UNL A   1      34.460  24.796  23.911  1.00  0.00     0.016 C 
ATOM     14  C   UNL A   1      35.215  23.894  24.881  1.00  0.00     0.001 C 
BRANCH  10  15
ATOM     15  C   UNL A   1      31.453  24.419  25.015  1.00  0.00     0.120 C 
BRANCH  15  16
ATOM     16  N   UNL A   1      30.263  25.258  24.968  1.00  0.00    -0.355 N 
ATOM     17  O   UNL A   1      30.234  25.519  22.688  1.00  0.00    -0.275 OA
ATOM     18  C   UNL A   1      29.765  25.776  23.794  1.00  0.00     0.226 C 
ATOM     19  H   UNL A   1      29.797  25.464  25.810  1.00  0.00     0.163 HD
BRANCH  18  20
ATOM     20  C   UNL A   1      28.505  26.609  23.975  1.00  0.00     0.155 C 
BRANCH  20  21
ATOM     21  C   UNL A   1      28.553  27.874  23.183  1.00  0.00     0.044 A 
ATOM     22  C   UNL A   1      27.573  28.798  22.885  1.00  0.00     0.045 A 
ATOM     23  N   UNL A   1      29.698  28.358  22.600  1.00  0.00    -0.282 N 
ATOM     24  C   UNL A   1      28.211  29.755  22.076  1.00  0.00     0.135 A 
ATOM     25  N   UNL A   1      29.500  29.474  21.882  1.00  0.00    -0.184 NA
ATOM     26  H   UNL A   1      30.579  27.927  22.698  1.00  0.00     0.190 HD
ENDBRANCH  20  21
ENDBRANCH  18  20
ENDBRANCH  15  16
ENDBRANCH  10  15
ENDBRANCH   7   9
ENDBRANCH   6   7
ENDBRANCH   5   6
ENDBRANCH   4   5
ENDBRANCH   3   4
ENDBRANCH   2   3
ENDBRANCH   1   2
BRANCH   1  27
ATOM     27  O   UNL A   1      34.056  31.496  27.910  1.00  0.00    -0.377 OA
BRANCH  27  28
ATOM     28  C   UNL A   1      34.718  32.745  28.012  1.00  0.00     0.188 C 
BRANCH  28  29
ATOM     29  C   UNL A   1      34.366  33.545  29.271  1.00  0.00     0.188 C 
BRANCH  29  30
ATOM     30  O   UNL A   1      33.124  34.231  29.304  1.00  0.00    -0.376 OA
BRANCH  30  31
ATOM     31  C   UNL A   1      33.119  35.646  29.138  1.00  0.00     0.202 C 
BRANCH  31  32
ATOM     32  C   UNL A   1      32.702  36.571  30.296  1.00  0.00     0.261 C 
BRANCH  32  33
ATOM     33  O   UNL A   1      32.243  35.903  31.485  1.00  0.00    -0.460 OA
BRANCH  33  34
ATOM     34  C   UNL A   1      33.025  36.043  32.579  1.00  0.00     0.338 C 
ATOM     35  O   UNL A   1      32.886  36.836  33.500  1.00  0.00    -0.246 OA
BRANCH  34  36
ATOM     36  C   UNL A   1      34.126  35.070  32.543  1.00  0.00     0.060 A 
ATOM     37  C   UNL A   1      33.934  33.762  32.999  1.00  0.00     0.016 A 
ATOM     38  C   UNL A   1      35.397  35.511  32.170  1.00  0.00     0.016 A 
ATOM     39  C   UNL A   1      35.023  32.891  33.093  1.00  0.00     0.010 A 
ATOM     40  C   UNL A   1      36.479  34.633  32.235  1.00  0.00     0.010 A 
ATOM     41  C   UNL A   1      36.307  33.332  32.740  1.00  0.00    -0.014 A 
BRANCH  41  42
ATOM     42  C   UNL A   1      37.503  32.529  33.094  1.00  0.00     0.031 A 
ATOM     43  C   UNL A   1      38.196  32.820  34.398  1.00  0.00     0.074 A 
ATOM     44  C   UNL A   1      37.976  31.570  32.279  1.00  0.00     0.049 A 
ATOM     45  N   UNL A   1      39.309  32.332  34.883  1.00  0.00    -0.248 NA
ATOM     46  C   UNL A   1      37.546  33.812  35.271  1.00  0.00     0.031 C 
ATOM     47  C   UNL A   1      37.385  31.174  31.004  1.00  0.00     0.029 A 
ATOM     48  N   UNL A   1      39.081  30.764  32.406  1.00  0.00    -0.354 N 
ATOM     49  C   UNL A   1      39.503  32.974  36.098  1.00  0.00     0.074 A 
ATOM     50  C   UNL A   1      38.413  33.910  36.266  1.00  0.00     0.031 C 
ATOM     51  C   UNL A   1      38.139  30.202  30.459  1.00  0.00     0.029 A 
ATOM     52  C   UNL A   1      39.285  29.936  31.329  1.00  0.00     0.049 A 
ATOM     53  H   UNL A   1      39.671  30.777  33.194  1.00  0.00     0.167 HD
ATOM     54  C   UNL A   1      40.494  32.792  37.003  1.00  0.00     0.037 A 
ATOM     55  C   UNL A   1      40.294  29.081  31.071  1.00  0.00     0.037 A 
ATOM     56  C   UNL A   1      41.568  31.850  36.845  1.00  0.00     0.049 A 
ATOM     57  C   UNL A   1      41.415  28.932  32.071  1.00  0.00     0.074 A 
ATOM     58  C   UNL A   1      42.606  31.570  37.717  1.00  0.00     0.029 A 
ATOM     59  N   UNL A   1      41.743  31.034  35.738  1.00  0.00    -0.354 N 
ATOM     60  N   UNL A   1      41.578  29.520  33.232  1.00  0.00    -0.248 NA
ATOM     61  C   UNL A   1      42.494  27.996  31.722  1.00  0.00     0.031 C 
ATOM     62  C   UNL A   1      43.436  30.618  37.115  1.00  0.00     0.029 A 
ATOM     63  C   UNL A   1      42.884  30.265  35.894  1.00  0.00     0.049 A 
ATOM     64  H   UNL A   1      41.145  31.006  34.956  1.00  0.00     0.167 HD
ATOM     65  C   UNL A   1      42.755  29.004  33.762  1.00  0.00     0.074 A 
ATOM     66  C   UNL A   1      43.259  28.045  32.803  1.00  0.00     0.031 C 
ATOM     67  C   UNL A   1      43.363  29.299  34.938  1.00  0.00     0.037 A 
BRANCH  54  68
ATOM     68  C   UNL A   1      40.470  33.649  38.236  1.00  0.00     0.064 A 
ATOM     69  C   UNL A   1      41.285  34.783  38.363  1.00  0.00     0.173 A 
ATOM     70  C   UNL A   1      39.607  33.337  39.297  1.00  0.00     0.173 A 
ATOM     71  F   UNL A   1      42.139  35.114  37.382  1.00  0.00    -0.203 F 
ATOM     72  C   UNL A   1      41.260  35.557  39.521  1.00  0.00     0.198 A 
ATOM     73  C   UNL A   1      39.561  34.131  40.440  1.00  0.00     0.198 A 
ATOM     74  F   UNL A   1      38.804  32.265  39.225  1.00  0.00    -0.203 F 
ATOM     75  F   UNL A   1      42.088  36.604  39.642  1.00  0.00    -0.200 F 
ATOM     76  C   UNL A   1      40.395  35.235  40.555  1.00  0.00     0.200 A 
ATOM     77  F   UNL A   1      38.716  33.825  41.433  1.00  0.00    -0.200 F 
ATOM     78  F   UNL A   1      40.368  35.982  41.666  1.00  0.00    -0.200 F 
ENDBRANCH  54  68
BRANCH  55  79
ATOM     79  C   UNL A   1      40.304  28.298  29.807  1.00  0.00     0.064 A 
ATOM     80  C   UNL A   1      41.001  28.758  28.680  1.00  0.00     0.173 A 
ATOM     81  C   UNL A   1      39.594  27.095  29.686  1.00  0.00     0.173 A 
ATOM     82  F   UNL A   1      41.671  29.919  28.736  1.00  0.00    -0.203 F 
ATOM     83  C   UNL A   1      40.967  28.058  27.476  1.00  0.00     0.198 A 
ATOM     84  C   UNL A   1      39.586  26.380  28.491  1.00  0.00     0.198 A 
ATOM     85  F   UNL A   1      38.906  26.613  30.731  1.00  0.00    -0.203 F 
ATOM     86  F   UNL A   1      41.597  28.549  26.400  1.00  0.00    -0.200 F 
ATOM     87  C   UNL A   1      40.265  26.866  27.384  1.00  0.00     0.200 A 
ATOM     88  F   UNL A   1      38.913  25.223  28.407  1.00  0.00    -0.200 F 
ATOM     89  F   UNL A   1      40.232  26.193  26.226  1.00  0.00    -0.200 F 
ENDBRANCH  55  79
BRANCH  67  90
ATOM     90  C   UNL A   1      44.615  28.543  35.282  1.00  0.00     0.064 A 
ATOM     91  C   UNL A   1      45.888  29.032  34.955  1.00  0.00     0.173 A 
ATOM     92  C   UNL A   1      44.539  27.338  35.999  1.00  0.00     0.173 A 
ATOM     93  F   UNL A   1      46.015  30.173  34.260  1.00  0.00    -0.203 F 
ATOM     94  C   UNL A   1      47.037  28.332  35.313  1.00  0.00     0.198 A 
ATOM     95  C   UNL A   1      45.691  26.657  36.382  1.00  0.00     0.198 A 
ATOM     96  F   UNL A   1      43.347  26.831  36.346  1.00  0.00    -0.203 F 
ATOM     97  F   UNL A   1      48.242  28.796  34.951  1.00  0.00    -0.200 F 
ATOM     98  C   UNL A   1      46.939  27.150  36.033  1.00  0.00     0.200 A 
ATOM     99  F   UNL A   1      45.594  25.524  37.092  1.00  0.00    -0.200 F 
ATOM    100  F   UNL A   1      48.047  26.483  36.385  1.00  0.00    -0.200 F 
ENDBRANCH  67  90
ENDBRANCH  41  42
ENDBRANCH  34  36
ENDBRANCH  33  34
ENDBRANCH  32  33
ENDBRANCH  31  32
ENDBRANCH  30  31
ENDBRANCH  29  30
ENDBRANCH  28  29
ENDBRANCH  27  28
ENDBRANCH   1  27
TORSDOF 24
ENDMDL
MODEL 3
REMARK VINA RESULT:      -9.5      4.231     10.192
REMARK SMILES O=C(Cc1ccn[nH]1)NC[C@H]1CCCC[C@H]1C(=O)OCCOCCOCCOCCOC(=O)c1ccc(-c2c3nc(c(-c4c(F)c(F)c(F)c(F)c4F)c4ccc([nH]4)c(-c4c(F)c(F)c(F)c(F)c4F)c4nc(c(-c5c(F)c(F)c(F)c(F)c5F)c5ccc2[nH]5)C=C4)C=C3)cc1
REMARK SMILES IDX 24 1 23 2 22 3 21 4 20 5 19 6 17 7 18 8 16 9 11 10 12 11
REMARK SMILES IDX 13 12 15 13 14 14 10 15 9 16 1 17 2 18 3 20 4 21 5 22 8 23
REMARK SMILES IDX 6 24 7 25 25 27 26 28 27 29 28 30 29 31 30 32 31 33 32 34
REMARK SMILES IDX 33 35 34 36 35 37 96 38 36 39 95 40 37 41 38 42 39 43 89 44
REMARK SMILES IDX 40 45 94 46 88 47 90 48 41 49 93 50 87 51 86 52 42 54 74 55
REMARK SMILES IDX 54 56 73 57 55 58 58 59 72 60 91 61 56 62 57 63 71 65 92 66
REMARK SMILES IDX 59 67 43 68 44 69 52 70 45 71 46 72 50 73 53 74 47 75 48 76
REMARK SMILES IDX 51 77 49 78 75 79 76 80 84 81 77 82 78 83 82 84 85 85 79 86
REMARK SMILES IDX 80 87 83 88 81 89 60 90 61 91 69 92 62 93 63 94 67 95 70 96
REMARK SMILES IDX 64 97 65 98 68 99 66 100
REMARK H PARENT 9 19 8 26 90 53 58 64
REMARK Flexibility Score: inf
ROOT
ATOM      1  C   UNL A   1      40.044  23.241  26.707  1.00  0.00     0.188 C 
ENDROOT
BRANCH   1   2
ATOM      2  C   UNL A   1      38.572  23.658  26.770  1.00  0.00     0.188 C 
BRANCH   2   3
ATOM      3  O   UNL A   1      37.650  22.959  25.932  1.00  0.00    -0.376 OA
BRANCH   3   4
ATOM      4  C   UNL A   1      36.500  23.644  25.439  1.00  0.00     0.202 C 
BRANCH   4   5
ATOM      5  C   UNL A   1      36.173  23.366  23.973  1.00  0.00     0.261 C 
BRANCH   5   6
ATOM      6  O   UNL A   1      35.234  24.318  23.439  1.00  0.00    -0.463 OA
BRANCH   6   7
ATOM      7  C   UNL A   1      33.922  24.028  23.593  1.00  0.00     0.309 C 
ATOM      8  O   UNL A   1      33.410  22.944  23.343  1.00  0.00    -0.252 OA
BRANCH   7   9
ATOM      9  C   UNL A   1      33.103  25.223  24.046  1.00  0.00     0.104 C 
ATOM     10  C   UNL A   1      31.808  24.974  24.858  1.00  0.00     0.022 C 
ATOM     11  C   UNL A   1      31.071  26.330  25.008  1.00  0.00     0.006 C 
ATOM     12  C   UNL A   1      31.958  27.428  25.600  1.00  0.00     0.000 C 
ATOM     13  C   UNL A   1      34.008  26.272  24.685  1.00  0.00     0.016 C 
ATOM     14  C   UNL A   1      33.260  27.594  24.822  1.00  0.00     0.001 C 
BRANCH  10  15
ATOM     15  C   UNL A   1      31.975  24.311  26.242  1.00  0.00     0.120 C 
BRANCH  15  16
ATOM     16  N   UNL A   1      32.935  23.219  26.167  1.00  0.00    -0.355 N 
ATOM     17  O   UNL A   1      32.596  22.443  28.299  1.00  0.00    -0.275 OA
ATOM     18  C   UNL A   1      33.196  22.384  27.230  1.00  0.00     0.226 C 
ATOM     19  H   UNL A   1      33.418  23.073  25.322  1.00  0.00     0.163 HD
BRANCH  18  20
ATOM     20  C   UNL A   1      34.221  21.302  26.924  1.00  0.00     0.155 C 
BRANCH  20  21
ATOM     21  C   UNL A   1      33.650  20.217  26.073  1.00  0.00     0.044 A 
ATOM     22  C   UNL A   1      33.691  20.015  24.708  1.00  0.00     0.045 A 
ATOM     23  N   UNL A   1      32.953  19.146  26.577  1.00  0.00    -0.282 N 
ATOM     24  C   UNL A   1      32.945  18.842  24.493  1.00  0.00     0.135 A 
ATOM     25  N   UNL A   1      32.475  18.326  25.628  1.00  0.00    -0.184 NA
ATOM     26  H   UNL A   1      32.817  18.995  27.541  1.00  0.00     0.190 HD
ENDBRANCH  20  21
ENDBRANCH  18  20
ENDBRANCH  15  16
ENDBRANCH  10  15
ENDBRANCH   7   9
ENDBRANCH   6   7
ENDBRANCH   5   6
ENDBRANCH   4   5
ENDBRANCH   3   4
ENDBRANCH   2   3
ENDBRANCH   1   2
BRANCH   1  27
ATOM     27  O   UNL A   1      40.516  22.145  27.486  1.00  0.00    -0.377 OA
BRANCH  27  28
ATOM     28  C   UNL A   1      41.891  21.809  27.433  1.00  0.00     0.188 C 
BRANCH  28  29
ATOM     29  C   UNL A   1      42.241  20.737  26.395  1.00  0.00     0.188 C 
BRANCH  29  30
ATOM     30  O   UNL A   1      43.056  21.111  25.294  1.00  0.00    -0.376 OA
BRANCH  30  31
ATOM     31  C   UNL A   1      43.038  22.469  24.861  1.00  0.00     0.202 C 
BRANCH  31  32
ATOM     32  C   UNL A   1      44.340  23.289  24.796  1.00  0.00     0.261 C 
BRANCH  32  33
ATOM     33  O   UNL A   1      44.168  24.701  24.578  1.00  0.00    -0.460 OA
BRANCH  33  34
ATOM     34  C   UNL A   1      44.912  25.514  25.361  1.00  0.00     0.338 C 
ATOM     35  O   UNL A   1      46.123  25.681  25.328  1.00  0.00    -0.246 OA
BRANCH  34  36
ATOM     36  C   UNL A   1      44.048  26.226  26.316  1.00  0.00     0.060 A 
ATOM     37  C   UNL A   1      44.183  27.605  26.503  1.00  0.00     0.016 A 
ATOM     38  C   UNL A   1      43.189  25.481  27.124  1.00  0.00     0.016 A 
ATOM     39  C   UNL A   1      43.459  28.244  27.513  1.00  0.00     0.010 A 
ATOM     40  C   UNL A   1      42.443  26.123  28.113  1.00  0.00     0.010 A 
ATOM     41  C   UNL A   1      42.607  27.501  28.343  1.00  0.00    -0.014 A 
BRANCH  41  42
ATOM     42  C   UNL A   1      42.054  28.098  29.584  1.00  0.00     0.031 A 
ATOM     43  C   UNL A   1      40.733  28.815  29.501  1.00  0.00     0.074 A 
ATOM     44  C   UNL A   1      42.705  28.017  30.757  1.00  0.00     0.049 A 
ATOM     45  N   UNL A   1      40.095  29.502  30.414  1.00  0.00    -0.248 NA
ATOM     46  C   UNL A   1      40.046  28.761  28.200  1.00  0.00     0.031 C 
ATOM     47  C   UNL A   1      43.975  27.331  30.976  1.00  0.00     0.029 A 
ATOM     48  N   UNL A   1      42.384  28.538  31.987  1.00  0.00    -0.354 N 
ATOM     49  C   UNL A   1      38.949  29.979  29.792  1.00  0.00     0.074 A 
ATOM     50  C   UNL A   1      38.993  29.533  28.416  1.00  0.00     0.031 C 
ATOM     51  C   UNL A   1      44.332  27.478  32.265  1.00  0.00     0.029 A 
ATOM     52  C   UNL A   1      43.334  28.301  32.950  1.00  0.00     0.049 A 
ATOM     53  H   UNL A   1      41.552  29.034  32.163  1.00  0.00     0.167 HD
ATOM     54  C   UNL A   1      37.942  30.713  30.321  1.00  0.00     0.037 A 
ATOM     55  C   UNL A   1      43.397  28.723  34.228  1.00  0.00     0.037 A 
ATOM     56  C   UNL A   1      37.889  31.142  31.692  1.00  0.00     0.049 A 
ATOM     57  C   UNL A   1      42.288  29.583  34.782  1.00  0.00     0.074 A 
ATOM     58  C   UNL A   1      36.899  31.866  32.333  1.00  0.00     0.029 A 
ATOM     59  N   UNL A   1      38.875  30.888  32.634  1.00  0.00    -0.354 N 
ATOM     60  N   UNL A   1      41.193  30.006  34.198  1.00  0.00    -0.248 NA
ATOM     61  C   UNL A   1      42.425  30.023  36.179  1.00  0.00     0.031 C 
ATOM     62  C   UNL A   1      37.307  32.090  33.652  1.00  0.00     0.029 A 
ATOM     63  C   UNL A   1      38.525  31.458  33.847  1.00  0.00     0.049 A 
ATOM     64  H   UNL A   1      39.699  30.377  32.466  1.00  0.00     0.167 HD
ATOM     65  C   UNL A   1      40.500  30.732  35.160  1.00  0.00     0.074 A 
ATOM     66  C   UNL A   1      41.291  30.681  36.370  1.00  0.00     0.031 C 
ATOM     67  C   UNL A   1      39.315  31.382  35.050  1.00  0.00     0.037 A 
BRANCH  54  68
ATOM     68  C   UNL A   1      36.824  31.115  29.402  1.00  0.00     0.064 A 
ATOM     69  C   UNL A   1      35.846  30.200  28.985  1.00  0.00     0.173 A 
ATOM     70  C   UNL A   1      36.724  32.438  28.947  1.00  0.00     0.173 A 
ATOM     71  F   UNL A   1      35.907  28.920  29.381  1.00  0.00    -0.203 F 
ATOM     72  C   UNL A   1      34.826  30.588  28.120  1.00  0.00     0.198 A 
ATOM     73  C   UNL A   1      35.684  32.830  28.107  1.00  0.00     0.198 A 
ATOM     74  F   UNL A   1      37.631  33.353  29.318  1.00  0.00    -0.203 F 
ATOM     75  F   UNL A   1      33.935  29.684  27.691  1.00  0.00    -0.200 F 
ATOM     76  C   UNL A   1      34.742  31.902  27.687  1.00  0.00     0.200 A 
ATOM     77  F   UNL A   1      35.598  34.103  27.700  1.00  0.00    -0.200 F 
ATOM     78  F   UNL A   1      33.757  32.275  26.858  1.00  0.00    -0.200 F 
ENDBRANCH  54  68
BRANCH  55  79
ATOM     79  C   UNL A   1      44.556  28.348  35.082  1.00  0.00     0.064 A 
ATOM     80  C   UNL A   1      44.521  27.192  35.877  1.00  0.00     0.173 A 
ATOM     81  C   UNL A   1      45.705  29.148  35.148  1.00  0.00     0.173 A 
ATOM     82  F   UNL A   1      43.433  26.409  35.871  1.00  0.00    -0.203 F 
ATOM     83  C   UNL A   1      45.581  26.866  36.722  1.00  0.00     0.198 A 
ATOM     84  C   UNL A   1      46.777  28.805  35.970  1.00  0.00     0.198 A 
ATOM     85  F   UNL A   1      45.788  30.267  34.413  1.00  0.00    -0.203 F 
ATOM     86  F   UNL A   1      45.498  25.787  37.511  1.00  0.00    -0.200 F 
ATOM     87  C   UNL A   1      46.710  27.670  36.762  1.00  0.00     0.200 A 
ATOM     88  F   UNL A   1      47.871  29.579  36.001  1.00  0.00    -0.200 F 
ATOM     89  F   UNL A   1      47.729  27.356  37.575  1.00  0.00    -0.200 F 
ENDBRANCH  55  79
BRANCH  67  90
ATOM     90  C   UNL A   1      38.771  32.051  36.280  1.00  0.00     0.064 A 
ATOM     91  C   UNL A   1      38.033  31.343  37.241  1.00  0.00     0.173 A 
ATOM     92  C   UNL A   1      39.040  33.406  36.527  1.00  0.00     0.173 A 
ATOM     93  F   UNL A   1      37.738  30.049  37.047  1.00  0.00    -0.203 F 
ATOM     94  C   UNL A   1      37.565  31.974  38.391  1.00  0.00     0.198 A 
ATOM     95  C   UNL A   1      38.598  34.026  37.693  1.00  0.00     0.198 A 
ATOM     96  F   UNL A   1      39.750  34.127  35.646  1.00  0.00    -0.203 F 
ATOM     97  F   UNL A   1      36.824  31.290  39.274  1.00  0.00    -0.200 F 
ATOM     98  C   UNL A   1      37.855  33.311  38.620  1.00  0.00     0.200 A 
ATOM     99  F   UNL A   1      38.893  35.313  37.920  1.00  0.00    -0.200 F 
ATOM    100  F   UNL A   1      37.412  33.914  39.733  1.00  0.00    -0.200 F 
ENDBRANCH  67  90
ENDBRANCH  41  42
ENDBRANCH  34  36
ENDBRANCH  33  34
ENDBRANCH  32  33
ENDBRANCH  31  32
ENDBRANCH  30  31
ENDBRANCH  29  30
ENDBRANCH  28  29
ENDBRANCH  27  28
ENDBRANCH   1  27
TORSDOF 24
ENDMDL
