MODEL 1
REMARK VINA RESULT:      -6.8      0.000      0.000
REMARK SMILES CCCCCCNC(=O)Oc1cccc(-c2ccc([C@@H](C)C(=O)OCCOCCOCCOCCOC(=O)c3ccc(-c4c5nc(c(-c6c(F)c(F)c(F)c(F)c6F)c6ccc([nH]6)c(-c6c(F)c(F)c(F)c(F)c6F)c6nc(c(-c7c(F)c(F)c(F)c(F)c7F)c7ccc4[nH]7)C=C6)C=C5)cc3)cc2N)c1
REMARK SMILES IDX 26 1 25 2 24 3 22 4 23 5 20 6 21 7 19 8 16 9 17 10 103 11
REMARK SMILES IDX 18 12 102 13 15 14 11 15 12 16 105 17 13 18 14 19 10 20 8 21
REMARK SMILES IDX 7 22 9 24 6 25 5 26 4 27 3 28 2 29 1 30 104 31 27 34 28 35
REMARK SMILES IDX 29 36 30 37 31 38 32 39 33 40 34 41 35 42 36 43 37 44 38 45
REMARK SMILES IDX 39 46 40 47 101 48 41 49 100 50 42 51 43 52 44 53 94 54
REMARK SMILES IDX 45 55 99 56 93 57 95 58 46 59 98 60 92 61 91 62 47 64 79 65
REMARK SMILES IDX 59 66 78 67 60 68 63 69 77 70 96 71 61 72 62 73 76 75 97 76
REMARK SMILES IDX 64 77 48 78 49 79 57 80 50 81 51 82 55 83 58 84 52 85 53 86
REMARK SMILES IDX 56 87 54 88 80 89 81 90 89 91 82 92 83 93 87 94 90 95 84 96
REMARK SMILES IDX 85 97 88 98 86 99 65 100 66 101 74 102 67 103 68 104 72 105
REMARK SMILES IDX 75 106 69 107 70 108 73 109 71 110
REMARK H PARENT 7 23 104 32 104 33 95 63 63 74
REMARK Flexibility Score: inf
ROOT
ATOM      1  C   UNL A   1      45.153  39.803  38.447  1.00  0.00     0.202 C 
ENDROOT
BRANCH   1   2
ATOM      2  C   UNL A   1      44.540  38.395  38.570  1.00  0.00     0.261 C 
BRANCH   2   3
ATOM      3  O   UNL A   1      43.702  37.942  37.484  1.00  0.00    -0.463 OA
BRANCH   3   4
ATOM      4  C   UNL A   1      44.332  37.303  36.471  1.00  0.00     0.313 C 
ATOM      5  O   UNL A   1      45.429  36.760  36.596  1.00  0.00    -0.252 OA
BRANCH   4   6
ATOM      6  C   UNL A   1      43.621  37.317  35.119  1.00  0.00     0.126 C 
ATOM      7  C   UNL A   1      43.386  38.768  34.716  1.00  0.00     0.025 C 
BRANCH   6   8
ATOM      8  C   UNL A   1      42.380  36.460  34.857  1.00  0.00    -0.032 A 
ATOM      9  C   UNL A   1      40.136  34.766  34.261  1.00  0.00     0.005 A 
ATOM     10  C   UNL A   1      40.104  35.719  35.304  1.00  0.00     0.011 A 
ATOM     11  C   UNL A   1      41.320  34.678  33.495  1.00  0.00     0.040 A 
ATOM     12  C   UNL A   1      41.199  36.554  35.594  1.00  0.00     0.005 A 
ATOM     13  C   UNL A   1      42.416  35.507  33.813  1.00  0.00     0.030 A 
BRANCH   9  14
ATOM     14  C   UNL A   1      38.922  33.962  33.956  1.00  0.00    -0.013 A 
ATOM     15  C   UNL A   1      36.774  33.644  32.848  1.00  0.00     0.133 A 
ATOM     16  C   UNL A   1      36.540  32.477  33.571  1.00  0.00     0.047 A 
ATOM     17  C   UNL A   1      37.953  34.381  33.024  1.00  0.00     0.056 A 
ATOM     18  C   UNL A   1      37.502  32.031  34.472  1.00  0.00     0.004 A 
ATOM     19  C   UNL A   1      38.674  32.771  34.665  1.00  0.00     0.009 A 
BRANCH  15  20
ATOM     20  O   UNL A   1      35.697  34.123  32.076  1.00  0.00    -0.410 OA
BRANCH  20  21
ATOM     21  C   UNL A   1      34.761  33.231  31.576  1.00  0.00     0.412 C 
ATOM     22  N   UNL A   1      34.960  32.919  30.258  1.00  0.00    -0.321 N 
ATOM     23  H   UNL A   1      34.343  32.260  29.866  1.00  0.00     0.167 HD
ATOM     24  O   UNL A   1      33.824  32.750  32.202  1.00  0.00    -0.224 OA
BRANCH  22  25
ATOM     25  C   UNL A   1      35.982  33.450  29.371  1.00  0.00     0.119 C 
BRANCH  25  26
ATOM     26  C   UNL A   1      36.027  32.717  28.029  1.00  0.00     0.021 C 
BRANCH  26  27
ATOM     27  C   UNL A   1      34.964  31.626  27.846  1.00  0.00     0.002 C 
BRANCH  27  28
ATOM     28  C   UNL A   1      35.486  30.184  27.843  1.00  0.00    -0.000 C 
BRANCH  28  29
ATOM     29  C   UNL A   1      36.909  29.996  28.374  1.00  0.00    -0.003 C 
ATOM     30  C   UNL A   1      36.957  29.463  29.798  1.00  0.00     0.004 C 
ENDBRANCH  28  29
ENDBRANCH  27  28
ENDBRANCH  26  27
ENDBRANCH  25  26
ENDBRANCH  22  25
ENDBRANCH  20  21
ENDBRANCH  15  20
ENDBRANCH   9  14
BRANCH  11  31
ATOM     31  N   UNL A   1      41.493  33.717  32.497  1.00  0.00    -0.398 N 
ATOM     32  H   UNL A   1      40.740  33.473  31.912  1.00  0.00     0.156 HD
ATOM     33  H   UNL A   1      42.369  33.283  32.377  1.00  0.00     0.156 HD
ENDBRANCH  11  31
ENDBRANCH   6   8
ENDBRANCH   4   6
ENDBRANCH   3   4
ENDBRANCH   2   3
ENDBRANCH   1   2
BRANCH   1  34
ATOM     34  O   UNL A   1      44.710  40.712  37.449  1.00  0.00    -0.376 OA
BRANCH  34  35
ATOM     35  C   UNL A   1      45.638  41.524  36.743  1.00  0.00     0.188 C 
BRANCH  35  36
ATOM     36  C   UNL A   1      45.160  42.660  35.826  1.00  0.00     0.188 C 
BRANCH  36  37
ATOM     37  O   UNL A   1      44.344  42.256  34.747  1.00  0.00    -0.377 OA
BRANCH  37  38
ATOM     38  C   UNL A   1      43.050  42.829  34.692  1.00  0.00     0.188 C 
BRANCH  38  39
ATOM     39  C   UNL A   1      42.344  42.828  33.324  1.00  0.00     0.188 C 
BRANCH  39  40
ATOM     40  O   UNL A   1      41.994  41.532  32.853  1.00  0.00    -0.376 OA
BRANCH  40  41
ATOM     41  C   UNL A   1      42.796  40.930  31.846  1.00  0.00     0.202 C 
BRANCH  41  42
ATOM     42  C   UNL A   1      42.706  41.472  30.410  1.00  0.00     0.261 C 
BRANCH  42  43
ATOM     43  O   UNL A   1      42.513  40.508  29.368  1.00  0.00    -0.460 OA
BRANCH  43  44
ATOM     44  C   UNL A   1      43.382  40.490  28.336  1.00  0.00     0.338 C 
ATOM     45  O   UNL A   1      43.853  41.438  27.747  1.00  0.00    -0.246 OA
BRANCH  44  46
ATOM     46  C   UNL A   1      43.844  39.089  28.185  1.00  0.00     0.060 A 
ATOM     47  C   UNL A   1      44.502  38.469  29.257  1.00  0.00     0.016 A 
ATOM     48  C   UNL A   1      43.625  38.395  26.994  1.00  0.00     0.016 A 
ATOM     49  C   UNL A   1      44.988  37.167  29.124  1.00  0.00     0.010 A 
ATOM     50  C   UNL A   1      44.137  37.103  26.850  1.00  0.00     0.010 A 
ATOM     51  C   UNL A   1      44.857  36.501  27.899  1.00  0.00    -0.014 A 
BRANCH  51  52
ATOM     52  C   UNL A   1      45.682  35.300  27.614  1.00  0.00     0.031 A 
ATOM     53  C   UNL A   1      45.045  33.953  27.823  1.00  0.00     0.074 A 
ATOM     54  C   UNL A   1      46.956  35.387  27.194  1.00  0.00     0.049 A 
ATOM     55  N   UNL A   1      45.580  32.759  27.790  1.00  0.00    -0.248 NA
ATOM     56  C   UNL A   1      43.602  33.958  28.119  1.00  0.00     0.031 C 
ATOM     57  C   UNL A   1      47.664  36.626  26.889  1.00  0.00     0.029 A 
ATOM     58  N   UNL A   1      47.887  34.401  26.974  1.00  0.00    -0.354 N 
ATOM     59  C   UNL A   1      44.546  31.879  28.083  1.00  0.00     0.074 A 
ATOM     60  C   UNL A   1      43.359  32.671  28.310  1.00  0.00     0.031 C 
ATOM     61  C   UNL A   1      48.930  36.329  26.547  1.00  0.00     0.029 A 
ATOM     62  C   UNL A   1      49.132  34.884  26.655  1.00  0.00     0.049 A 
ATOM     63  H   UNL A   1      47.682  33.440  27.039  1.00  0.00     0.167 HD
ATOM     64  C   UNL A   1      44.585  30.528  28.156  1.00  0.00     0.037 A 
ATOM     65  C   UNL A   1      50.305  34.232  26.509  1.00  0.00     0.037 A 
ATOM     66  C   UNL A   1      45.770  29.746  27.933  1.00  0.00     0.049 A 
ATOM     67  C   UNL A   1      50.345  32.733  26.684  1.00  0.00     0.074 A 
ATOM     68  C   UNL A   1      45.917  28.371  27.978  1.00  0.00     0.029 A 
ATOM     69  N   UNL A   1      47.016  30.274  27.629  1.00  0.00    -0.354 N 
ATOM     70  N   UNL A   1      49.367  31.902  26.958  1.00  0.00    -0.248 NA
ATOM     71  C   UNL A   1      51.654  32.077  26.532  1.00  0.00     0.031 C 
ATOM     72  C   UNL A   1      47.265  28.071  27.765  1.00  0.00     0.029 A 
ATOM     73  C   UNL A   1      47.943  29.252  27.508  1.00  0.00     0.049 A 
ATOM     74  H   UNL A   1      47.213  31.231  27.517  1.00  0.00     0.167 HD
ATOM     75  C   UNL A   1      49.931  30.631  26.961  1.00  0.00     0.074 A 
ATOM     76  C   UNL A   1      51.337  30.797  26.668  1.00  0.00     0.031 C 
ATOM     77  C   UNL A   1      49.335  29.433  27.180  1.00  0.00     0.037 A 
BRANCH  64  78
ATOM     78  C   UNL A   1      43.319  29.815  28.533  1.00  0.00     0.064 A 
ATOM     79  C   UNL A   1      42.371  29.427  27.574  1.00  0.00     0.173 A 
ATOM     80  C   UNL A   1      43.067  29.487  29.875  1.00  0.00     0.173 A 
ATOM     81  F   UNL A   1      42.556  29.730  26.281  1.00  0.00    -0.203 F 
ATOM     82  C   UNL A   1      41.205  28.764  27.948  1.00  0.00     0.198 A 
ATOM     83  C   UNL A   1      41.918  28.794  30.240  1.00  0.00     0.198 A 
ATOM     84  F   UNL A   1      43.942  29.832  30.832  1.00  0.00    -0.203 F 
ATOM     85  F   UNL A   1      40.289  28.450  27.023  1.00  0.00    -0.200 F 
ATOM     86  C   UNL A   1      40.984  28.439  29.278  1.00  0.00     0.200 A 
ATOM     87  F   UNL A   1      41.713  28.467  31.525  1.00  0.00    -0.200 F 
ATOM     88  F   UNL A   1      39.866  27.792  29.635  1.00  0.00    -0.200 F 
ENDBRANCH  64  78
BRANCH  65  89
ATOM     89  C   UNL A   1      51.549  34.990  26.204  1.00  0.00     0.064 A 
ATOM     90  C   UNL A   1      52.384  35.454  27.230  1.00  0.00     0.173 A 
ATOM     91  C   UNL A   1      51.910  35.298  24.883  1.00  0.00     0.173 A 
ATOM     92  F   UNL A   1      52.069  35.211  28.511  1.00  0.00    -0.203 F 
ATOM     93  C   UNL A   1      53.519  36.215  26.949  1.00  0.00     0.198 A 
ATOM     94  C   UNL A   1      53.063  36.030  24.603  1.00  0.00     0.198 A 
ATOM     95  F   UNL A   1      51.146  34.885  23.862  1.00  0.00    -0.203 F 
ATOM     96  F   UNL A   1      54.266  36.694  27.954  1.00  0.00    -0.200 F 
ATOM     97  C   UNL A   1      53.860  36.498  25.636  1.00  0.00     0.200 A 
ATOM     98  F   UNL A   1      53.394  36.292  23.330  1.00  0.00    -0.200 F 
ATOM     99  F   UNL A   1      54.949  37.229  25.366  1.00  0.00    -0.200 F 
ENDBRANCH  65  89
BRANCH  77 100
ATOM    100  C   UNL A   1      50.168  28.191  27.030  1.00  0.00     0.064 A 
ATOM    101  C   UNL A   1      50.399  27.593  25.784  1.00  0.00     0.173 A 
ATOM    102  C   UNL A   1      50.817  27.647  28.151  1.00  0.00     0.173 A 
ATOM    103  F   UNL A   1      49.795  28.067  24.685  1.00  0.00    -0.203 F 
ATOM    104  C   UNL A   1      51.237  26.486  25.668  1.00  0.00     0.198 A 
ATOM    105  C   UNL A   1      51.679  26.562  28.025  1.00  0.00     0.198 A 
ATOM    106  F   UNL A   1      50.636  28.188  29.366  1.00  0.00    -0.203 F 
ATOM    107  F   UNL A   1      51.416  25.907  24.472  1.00  0.00    -0.200 F 
ATOM    108  C   UNL A   1      51.885  25.980  26.785  1.00  0.00     0.200 A 
ATOM    109  F   UNL A   1      52.320  26.089  29.104  1.00  0.00    -0.200 F 
ATOM    110  F   UNL A   1      52.709  24.929  26.666  1.00  0.00    -0.200 F 
ENDBRANCH  77 100
ENDBRANCH  51  52
ENDBRANCH  44  46
ENDBRANCH  43  44
ENDBRANCH  42  43
ENDBRANCH  41  42
ENDBRANCH  40  41
ENDBRANCH  39  40
ENDBRANCH  38  39
ENDBRANCH  37  38
ENDBRANCH  36  37
ENDBRANCH  35  36
ENDBRANCH  34  35
ENDBRANCH   1  34
TORSDOF 30
ENDMDL
MODEL 2
REMARK VINA RESULT:      -6.7      9.437     14.990
REMARK SMILES CCCCCCNC(=O)Oc1cccc(-c2ccc([C@@H](C)C(=O)OCCOCCOCCOCCOC(=O)c3ccc(-c4c5nc(c(-c6c(F)c(F)c(F)c(F)c6F)c6ccc([nH]6)c(-c6c(F)c(F)c(F)c(F)c6F)c6nc(c(-c7c(F)c(F)c(F)c(F)c7F)c7ccc4[nH]7)C=C6)C=C5)cc3)cc2N)c1
REMARK SMILES IDX 26 1 25 2 24 3 22 4 23 5 20 6 21 7 19 8 16 9 17 10 103 11
REMARK SMILES IDX 18 12 102 13 15 14 11 15 12 16 105 17 13 18 14 19 10 20 8 21
REMARK SMILES IDX 7 22 9 24 6 25 5 26 4 27 3 28 2 29 1 30 104 31 27 34 28 35
REMARK SMILES IDX 29 36 30 37 31 38 32 39 33 40 34 41 35 42 36 43 37 44 38 45
REMARK SMILES IDX 39 46 40 47 101 48 41 49 100 50 42 51 43 52 44 53 94 54
REMARK SMILES IDX 45 55 99 56 93 57 95 58 46 59 98 60 92 61 91 62 47 64 79 65
REMARK SMILES IDX 59 66 78 67 60 68 63 69 77 70 96 71 61 72 62 73 76 75 97 76
REMARK SMILES IDX 64 77 48 78 49 79 57 80 50 81 51 82 55 83 58 84 52 85 53 86
REMARK SMILES IDX 56 87 54 88 80 89 81 90 89 91 82 92 83 93 87 94 90 95 84 96
REMARK SMILES IDX 85 97 88 98 86 99 65 100 66 101 74 102 67 103 68 104 72 105
REMARK SMILES IDX 75 106 69 107 70 108 73 109 71 110
REMARK H PARENT 7 23 104 32 104 33 95 63 63 74
REMARK Flexibility Score: inf
ROOT
ATOM      1  C   UNL A   1      49.608  26.489  35.001  1.00  0.00     0.202 C 
ENDROOT
BRANCH   1   2
ATOM      2  C   UNL A   1      48.854  26.219  36.318  1.00  0.00     0.261 C 
BRANCH   2   3
ATOM      3  O   UNL A   1      48.406  27.368  37.070  1.00  0.00    -0.463 OA
BRANCH   3   4
ATOM      4  C   UNL A   1      47.250  27.217  37.758  1.00  0.00     0.313 C 
ATOM      5  O   UNL A   1      46.161  27.612  37.341  1.00  0.00    -0.252 OA
BRANCH   4   6
ATOM      6  C   UNL A   1      47.363  26.553  39.129  1.00  0.00     0.126 C 
ATOM      7  C   UNL A   1      48.575  27.136  39.846  1.00  0.00     0.025 C 
BRANCH   6   8
ATOM      8  C   UNL A   1      47.301  25.032  39.289  1.00  0.00    -0.032 A 
ATOM      9  C   UNL A   1      47.344  22.177  39.617  1.00  0.00     0.005 A 
ATOM     10  C   UNL A   1      46.138  22.902  39.490  1.00  0.00     0.011 A 
ATOM     11  C   UNL A   1      48.553  22.907  39.563  1.00  0.00     0.040 A 
ATOM     12  C   UNL A   1      46.114  24.299  39.323  1.00  0.00     0.005 A 
ATOM     13  C   UNL A   1      48.510  24.309  39.416  1.00  0.00     0.030 A 
BRANCH   9  14
ATOM     14  C   UNL A   1      47.308  20.693  39.720  1.00  0.00    -0.013 A 
ATOM     15  C   UNL A   1      46.116  18.583  39.989  1.00  0.00     0.133 A 
ATOM     16  C   UNL A   1      47.316  17.887  40.111  1.00  0.00     0.047 A 
ATOM     17  C   UNL A   1      46.101  19.969  39.786  1.00  0.00     0.056 A 
ATOM     18  C   UNL A   1      48.518  18.581  40.015  1.00  0.00     0.004 A 
ATOM     19  C   UNL A   1      48.510  19.968  39.828  1.00  0.00     0.009 A 
BRANCH  15  20
ATOM     20  O   UNL A   1      44.942  17.850  40.255  1.00  0.00    -0.410 OA
BRANCH  20  21
ATOM     21  C   UNL A   1      44.500  17.713  41.561  1.00  0.00     0.412 C 
ATOM     22  N   UNL A   1      43.483  16.807  41.697  1.00  0.00    -0.321 N 
ATOM     23  H   UNL A   1      43.159  16.647  42.613  1.00  0.00     0.167 HD
ATOM     24  O   UNL A   1      44.932  18.324  42.532  1.00  0.00    -0.224 OA
BRANCH  22  25
ATOM     25  C   UNL A   1      42.827  16.053  40.643  1.00  0.00     0.119 C 
BRANCH  25  26
ATOM     26  C   UNL A   1      42.767  14.555  40.946  1.00  0.00     0.021 C 
BRANCH  26  27
ATOM     27  C   UNL A   1      41.496  14.088  41.667  1.00  0.00     0.002 C 
BRANCH  27  28
ATOM     28  C   UNL A   1      41.163  12.598  41.528  1.00  0.00    -0.000 C 
BRANCH  28  29
ATOM     29  C   UNL A   1      40.864  11.863  42.838  1.00  0.00    -0.003 C 
ATOM     30  C   UNL A   1      42.108  11.316  43.522  1.00  0.00     0.004 C 
ENDBRANCH  28  29
ENDBRANCH  27  28
ENDBRANCH  26  27
ENDBRANCH  25  26
ENDBRANCH  22  25
ENDBRANCH  20  21
ENDBRANCH  15  20
ENDBRANCH   9  14
BRANCH  11  31
ATOM     31  N   UNL A   1      49.797  22.306  39.761  1.00  0.00    -0.398 N 
ATOM     32  H   UNL A   1      50.118  22.127  40.674  1.00  0.00     0.156 HD
ATOM     33  H   UNL A   1      50.355  22.060  38.987  1.00  0.00     0.156 HD
ENDBRANCH  11  31
ENDBRANCH   6   8
ENDBRANCH   4   6
ENDBRANCH   3   4
ENDBRANCH   2   3
ENDBRANCH   1   2
BRANCH   1  34
ATOM     34  O   UNL A   1      49.546  25.571  33.920  1.00  0.00    -0.376 OA
BRANCH  34  35
ATOM     35  C   UNL A   1      50.030  24.242  34.065  1.00  0.00     0.188 C 
BRANCH  35  36
ATOM     36  C   UNL A   1      51.342  23.953  34.807  1.00  0.00     0.188 C 
BRANCH  36  37
ATOM     37  O   UNL A   1      52.217  23.060  34.150  1.00  0.00    -0.377 OA
BRANCH  37  38
ATOM     38  C   UNL A   1      52.195  21.717  34.600  1.00  0.00     0.188 C 
BRANCH  38  39
ATOM     39  C   UNL A   1      52.007  21.491  36.112  1.00  0.00     0.188 C 
BRANCH  39  40
ATOM     40  O   UNL A   1      50.941  20.607  36.437  1.00  0.00    -0.376 OA
BRANCH  40  41
ATOM     41  C   UNL A   1      49.842  20.499  35.543  1.00  0.00     0.202 C 
BRANCH  41  42
ATOM     42  C   UNL A   1      48.417  20.616  36.111  1.00  0.00     0.261 C 
BRANCH  42  43
ATOM     43  O   UNL A   1      47.419  21.157  35.237  1.00  0.00    -0.460 OA
BRANCH  43  44
ATOM     44  C   UNL A   1      46.167  21.324  35.712  1.00  0.00     0.338 C 
ATOM     45  O   UNL A   1      45.605  20.674  36.565  1.00  0.00    -0.246 OA
BRANCH  44  46
ATOM     46  C   UNL A   1      45.663  22.604  35.160  1.00  0.00     0.060 A 
ATOM     47  C   UNL A   1      44.707  22.575  34.134  1.00  0.00     0.016 A 
ATOM     48  C   UNL A   1      46.131  23.823  35.655  1.00  0.00     0.016 A 
ATOM     49  C   UNL A   1      44.251  23.767  33.565  1.00  0.00     0.010 A 
ATOM     50  C   UNL A   1      45.697  25.013  35.066  1.00  0.00     0.010 A 
ATOM     51  C   UNL A   1      44.788  24.987  33.991  1.00  0.00    -0.014 A 
BRANCH  51  52
ATOM     52  C   UNL A   1      44.615  26.206  33.162  1.00  0.00     0.031 A 
ATOM     53  C   UNL A   1      45.660  26.489  32.115  1.00  0.00     0.074 A 
ATOM     54  C   UNL A   1      43.580  27.047  33.327  1.00  0.00     0.049 A 
ATOM     55  N   UNL A   1      45.827  27.546  31.364  1.00  0.00    -0.248 NA
ATOM     56  C   UNL A   1      46.658  25.429  31.895  1.00  0.00     0.031 C 
ATOM     57  C   UNL A   1      42.470  26.851  34.254  1.00  0.00     0.029 A 
ATOM     58  N   UNL A   1      43.311  28.253  32.725  1.00  0.00    -0.354 N 
ATOM     59  C   UNL A   1      46.959  27.288  30.602  1.00  0.00     0.074 A 
ATOM     60  C   UNL A   1      47.451  25.985  30.993  1.00  0.00     0.031 C 
ATOM     61  C   UNL A   1      41.651  27.916  34.181  1.00  0.00     0.029 A 
ATOM     62  C   UNL A   1      42.205  28.886  33.237  1.00  0.00     0.049 A 
ATOM     63  H   UNL A   1      43.858  28.627  31.998  1.00  0.00     0.167 HD
ATOM     64  C   UNL A   1      47.539  28.068  29.660  1.00  0.00     0.037 A 
ATOM     65  C   UNL A   1      41.724  30.124  32.996  1.00  0.00     0.037 A 
ATOM     66  C   UNL A   1      47.047  29.364  29.279  1.00  0.00     0.049 A 
ATOM     67  C   UNL A   1      42.438  31.015  32.007  1.00  0.00     0.074 A 
ATOM     68  C   UNL A   1      47.556  30.235  28.332  1.00  0.00     0.029 A 
ATOM     69  N   UNL A   1      45.933  29.978  29.833  1.00  0.00    -0.354 N 
ATOM     70  N   UNL A   1      43.506  30.768  31.286  1.00  0.00    -0.248 NA
ATOM     71  C   UNL A   1      41.880  32.361  31.798  1.00  0.00     0.031 C 
ATOM     72  C   UNL A   1      46.789  31.403  28.359  1.00  0.00     0.029 A 
ATOM     73  C   UNL A   1      45.755  31.228  29.265  1.00  0.00     0.049 A 
ATOM     74  H   UNL A   1      45.357  29.585  30.527  1.00  0.00     0.167 HD
ATOM     75  C   UNL A   1      43.716  31.901  30.507  1.00  0.00     0.074 A 
ATOM     76  C   UNL A   1      42.669  32.840  30.846  1.00  0.00     0.031 C 
ATOM     77  C   UNL A   1      44.685  32.138  29.589  1.00  0.00     0.037 A 
BRANCH  64  78
ATOM     78  C   UNL A   1      48.791  27.559  29.009  1.00  0.00     0.064 A 
ATOM     79  C   UNL A   1      48.761  26.819  27.818  1.00  0.00     0.173 A 
ATOM     80  C   UNL A   1      50.045  27.846  29.571  1.00  0.00     0.173 A 
ATOM     81  F   UNL A   1      47.588  26.504  27.248  1.00  0.00    -0.203 F 
ATOM     82  C   UNL A   1      49.937  26.360  27.230  1.00  0.00     0.198 A 
ATOM     83  C   UNL A   1      51.219  27.415  28.962  1.00  0.00     0.198 A 
ATOM     84  F   UNL A   1      50.132  28.553  30.708  1.00  0.00    -0.203 F 
ATOM     85  F   UNL A   1      49.881  25.609  26.122  1.00  0.00    -0.200 F 
ATOM     86  C   UNL A   1      51.165  26.666  27.797  1.00  0.00     0.200 A 
ATOM     87  F   UNL A   1      52.406  27.726  29.504  1.00  0.00    -0.200 F 
ATOM     88  F   UNL A   1      52.296  26.232  27.225  1.00  0.00    -0.200 F 
ENDBRANCH  64  78
BRANCH  65  89
ATOM     89  C   UNL A   1      40.518  30.612  33.718  1.00  0.00     0.064 A 
ATOM     90  C   UNL A   1      39.238  30.481  33.162  1.00  0.00     0.173 A 
ATOM     91  C   UNL A   1      40.624  31.254  34.962  1.00  0.00     0.173 A 
ATOM     92  F   UNL A   1      39.086  29.901  31.963  1.00  0.00    -0.203 F 
ATOM     93  C   UNL A   1      38.114  30.991  33.811  1.00  0.00     0.198 A 
ATOM     94  C   UNL A   1      39.495  31.734  35.624  1.00  0.00     0.198 A 
ATOM     95  F   UNL A   1      41.824  31.413  35.538  1.00  0.00    -0.203 F 
ATOM     96  F   UNL A   1      36.910  30.903  33.228  1.00  0.00    -0.200 F 
ATOM     97  C   UNL A   1      38.243  31.613  35.043  1.00  0.00     0.200 A 
ATOM     98  F   UNL A   1      39.624  32.324  36.821  1.00  0.00    -0.200 F 
ATOM     99  F   UNL A   1      37.163  32.103  35.665  1.00  0.00    -0.200 F 
ENDBRANCH  65  89
BRANCH  77 100
ATOM    100  C   UNL A   1      44.624  33.424  28.814  1.00  0.00     0.064 A 
ATOM    101  C   UNL A   1      45.152  34.623  29.314  1.00  0.00     0.173 A 
ATOM    102  C   UNL A   1      44.104  33.429  27.509  1.00  0.00     0.173 A 
ATOM    103  F   UNL A   1      45.651  34.674  30.557  1.00  0.00    -0.203 F 
ATOM    104  C   UNL A   1      45.148  35.782  28.541  1.00  0.00     0.198 A 
ATOM    105  C   UNL A   1      44.133  34.580  26.729  1.00  0.00     0.198 A 
ATOM    106  F   UNL A   1      43.595  32.306  26.980  1.00  0.00    -0.203 F 
ATOM    107  F   UNL A   1      45.626  36.926  29.051  1.00  0.00    -0.200 F 
ATOM    108  C   UNL A   1      44.650  35.757  27.247  1.00  0.00     0.200 A 
ATOM    109  F   UNL A   1      43.670  34.548  25.471  1.00  0.00    -0.200 F 
ATOM    110  F   UNL A   1      44.669  36.869  26.498  1.00  0.00    -0.200 F 
ENDBRANCH  77 100
ENDBRANCH  51  52
ENDBRANCH  44  46
ENDBRANCH  43  44
ENDBRANCH  42  43
ENDBRANCH  41  42
ENDBRANCH  40  41
ENDBRANCH  39  40
ENDBRANCH  38  39
ENDBRANCH  37  38
ENDBRANCH  36  37
ENDBRANCH  35  36
ENDBRANCH  34  35
ENDBRANCH   1  34
TORSDOF 30
ENDMDL
MODEL 3
REMARK VINA RESULT:      -6.6      8.990     14.911
REMARK SMILES CCCCCCNC(=O)Oc1cccc(-c2ccc([C@@H](C)C(=O)OCCOCCOCCOCCOC(=O)c3ccc(-c4c5nc(c(-c6c(F)c(F)c(F)c(F)c6F)c6ccc([nH]6)c(-c6c(F)c(F)c(F)c(F)c6F)c6nc(c(-c7c(F)c(F)c(F)c(F)c7F)c7ccc4[nH]7)C=C6)C=C5)cc3)cc2N)c1
REMARK SMILES IDX 26 1 25 2 24 3 22 4 23 5 20 6 21 7 19 8 16 9 17 10 103 11
REMARK SMILES IDX 18 12 102 13 15 14 11 15 12 16 105 17 13 18 14 19 10 20 8 21
REMARK SMILES IDX 7 22 9 24 6 25 5 26 4 27 3 28 2 29 1 30 104 31 27 34 28 35
REMARK SMILES IDX 29 36 30 37 31 38 32 39 33 40 34 41 35 42 36 43 37 44 38 45
REMARK SMILES IDX 39 46 40 47 101 48 41 49 100 50 42 51 43 52 44 53 94 54
REMARK SMILES IDX 45 55 99 56 93 57 95 58 46 59 98 60 92 61 91 62 47 64 79 65
REMARK SMILES IDX 59 66 78 67 60 68 63 69 77 70 96 71 61 72 62 73 76 75 97 76
REMARK SMILES IDX 64 77 48 78 49 79 57 80 50 81 51 82 55 83 58 84 52 85 53 86
REMARK SMILES IDX 56 87 54 88 80 89 81 90 89 91 82 92 83 93 87 94 90 95 84 96
REMARK SMILES IDX 85 97 88 98 86 99 65 100 66 101 74 102 67 103 68 104 72 105
REMARK SMILES IDX 75 106 69 107 70 108 73 109 71 110
REMARK H PARENT 7 23 104 32 104 33 95 63 63 74
REMARK Flexibility Score: inf
ROOT
ATOM      1  C   UNL A   1      49.311  26.670  35.168  1.00  0.00     0.202 C 
ENDROOT
BRANCH   1   2
ATOM      2  C   UNL A   1      48.468  26.399  36.429  1.00  0.00     0.261 C 
BRANCH   2   3
ATOM      3  O   UNL A   1      47.652  27.483  36.924  1.00  0.00    -0.463 OA
BRANCH   3   4
ATOM      4  C   UNL A   1      46.559  27.129  37.639  1.00  0.00     0.313 C 
ATOM      5  O   UNL A   1      45.407  27.329  37.253  1.00  0.00    -0.252 OA
BRANCH   4   6
ATOM      6  C   UNL A   1      46.821  26.488  39.001  1.00  0.00     0.126 C 
ATOM      7  C   UNL A   1      47.642  27.462  39.839  1.00  0.00     0.025 C 
BRANCH   6   8
ATOM      8  C   UNL A   1      47.359  25.061  39.123  1.00  0.00    -0.032 A 
ATOM      9  C   UNL A   1      48.486  22.436  39.447  1.00  0.00     0.005 A 
ATOM     10  C   UNL A   1      47.244  22.649  38.808  1.00  0.00     0.011 A 
ATOM     11  C   UNL A   1      49.179  23.574  39.919  1.00  0.00     0.040 A 
ATOM     12  C   UNL A   1      46.693  23.933  38.642  1.00  0.00     0.005 A 
ATOM     13  C   UNL A   1      48.602  24.851  39.764  1.00  0.00     0.030 A 
BRANCH   9  14
ATOM     14  C   UNL A   1      49.051  21.063  39.528  1.00  0.00    -0.013 A 
ATOM     15  C   UNL A   1      49.421  18.953  40.693  1.00  0.00     0.133 A 
ATOM     16  C   UNL A   1      50.316  18.535  39.713  1.00  0.00     0.047 A 
ATOM     17  C   UNL A   1      48.782  20.197  40.607  1.00  0.00     0.056 A 
ATOM     18  C   UNL A   1      50.569  19.362  38.623  1.00  0.00     0.004 A 
ATOM     19  C   UNL A   1      49.947  20.613  38.539  1.00  0.00     0.009 A 
BRANCH  15  20
ATOM     20  O   UNL A   1      49.334  18.143  41.843  1.00  0.00    -0.410 OA
BRANCH  20  21
ATOM     21  C   UNL A   1      48.276  18.312  42.723  1.00  0.00     0.412 C 
ATOM     22  N   UNL A   1      47.254  17.424  42.519  1.00  0.00    -0.321 N 
ATOM     23  H   UNL A   1      46.495  17.480  43.143  1.00  0.00     0.167 HD
ATOM     24  O   UNL A   1      48.205  19.161  43.603  1.00  0.00    -0.224 OA
BRANCH  22  25
ATOM     25  C   UNL A   1      47.164  16.406  41.487  1.00  0.00     0.119 C 
BRANCH  25  26
ATOM     26  C   UNL A   1      46.462  16.914  40.226  1.00  0.00     0.021 C 
BRANCH  26  27
ATOM     27  C   UNL A   1      44.931  16.980  40.315  1.00  0.00     0.002 C 
BRANCH  27  28
ATOM     28  C   UNL A   1      44.172  15.964  39.452  1.00  0.00    -0.000 C 
BRANCH  28  29
ATOM     29  C   UNL A   1      42.657  15.919  39.666  1.00  0.00    -0.003 C 
ATOM     30  C   UNL A   1      42.185  14.660  40.379  1.00  0.00     0.004 C 
ENDBRANCH  28  29
ENDBRANCH  27  28
ENDBRANCH  26  27
ENDBRANCH  25  26
ENDBRANCH  22  25
ENDBRANCH  20  21
ENDBRANCH  15  20
ENDBRANCH   9  14
BRANCH  11  31
ATOM     31  N   UNL A   1      50.371  23.475  40.639  1.00  0.00    -0.398 N 
ATOM     32  H   UNL A   1      50.873  24.288  40.876  1.00  0.00     0.156 HD
ATOM     33  H   UNL A   1      50.711  22.592  40.912  1.00  0.00     0.156 HD
ENDBRANCH  11  31
ENDBRANCH   6   8
ENDBRANCH   4   6
ENDBRANCH   3   4
ENDBRANCH   2   3
ENDBRANCH   1   2
BRANCH   1  34
ATOM     34  O   UNL A   1      48.987  26.063  33.926  1.00  0.00    -0.376 OA
BRANCH  34  35
ATOM     35  C   UNL A   1      49.392  24.731  33.640  1.00  0.00     0.188 C 
BRANCH  35  36
ATOM     36  C   UNL A   1      50.761  24.204  34.091  1.00  0.00     0.188 C 
BRANCH  36  37
ATOM     37  O   UNL A   1      51.478  23.481  33.111  1.00  0.00    -0.377 OA
BRANCH  37  38
ATOM     38  C   UNL A   1      51.390  22.070  33.185  1.00  0.00     0.188 C 
BRANCH  38  39
ATOM     39  C   UNL A   1      51.557  21.432  34.577  1.00  0.00     0.188 C 
BRANCH  39  40
ATOM     40  O   UNL A   1      50.625  20.394  34.855  1.00  0.00    -0.376 OA
BRANCH  40  41
ATOM     41  C   UNL A   1      49.383  20.384  34.165  1.00  0.00     0.202 C 
BRANCH  41  42
ATOM     42  C   UNL A   1      48.085  20.321  34.986  1.00  0.00     0.261 C 
BRANCH  42  43
ATOM     43  O   UNL A   1      46.918  20.905  34.393  1.00  0.00    -0.460 OA
BRANCH  43  44
ATOM     44  C   UNL A   1      45.905  21.284  35.199  1.00  0.00     0.338 C 
ATOM     45  O   UNL A   1      45.553  20.772  36.238  1.00  0.00    -0.246 OA
BRANCH  44  46
ATOM     46  C   UNL A   1      45.425  22.595  34.701  1.00  0.00     0.060 A 
ATOM     47  C   UNL A   1      44.451  22.627  33.692  1.00  0.00     0.016 A 
ATOM     48  C   UNL A   1      45.932  23.783  35.231  1.00  0.00     0.016 A 
ATOM     49  C   UNL A   1      44.017  23.849  33.173  1.00  0.00     0.010 A 
ATOM     50  C   UNL A   1      45.519  25.005  34.691  1.00  0.00     0.010 A 
ATOM     51  C   UNL A   1      44.592  25.039  33.632  1.00  0.00    -0.014 A 
BRANCH  51  52
ATOM     52  C   UNL A   1      44.436  26.291  32.849  1.00  0.00     0.031 A 
ATOM     53  C   UNL A   1      45.433  26.552  31.752  1.00  0.00     0.074 A 
ATOM     54  C   UNL A   1      43.458  27.178  33.098  1.00  0.00     0.049 A 
ATOM     55  N   UNL A   1      45.613  27.623  31.022  1.00  0.00    -0.248 NA
ATOM     56  C   UNL A   1      46.360  25.451  31.443  1.00  0.00     0.031 C 
ATOM     57  C   UNL A   1      42.393  27.010  34.083  1.00  0.00     0.029 A 
ATOM     58  N   UNL A   1      43.218  28.414  32.548  1.00  0.00    -0.354 N 
ATOM     59  C   UNL A   1      46.684  27.331  30.188  1.00  0.00     0.074 A 
ATOM     60  C   UNL A   1      47.128  25.994  30.512  1.00  0.00     0.031 C 
ATOM     61  C   UNL A   1      41.629  28.116  34.088  1.00  0.00     0.029 A 
ATOM     62  C   UNL A   1      42.179  29.086  33.141  1.00  0.00     0.049 A 
ATOM     63  H   UNL A   1      43.743  28.782  31.801  1.00  0.00     0.167 HD
ATOM     64  C   UNL A   1      47.249  28.110  29.236  1.00  0.00     0.037 A 
ATOM     65  C   UNL A   1      41.750  30.354  32.964  1.00  0.00     0.037 A 
ATOM     66  C   UNL A   1      46.805  29.441  28.921  1.00  0.00     0.049 A 
ATOM     67  C   UNL A   1      42.453  31.238  31.960  1.00  0.00     0.074 A 
ATOM     68  C   UNL A   1      47.305  30.313  27.972  1.00  0.00     0.029 A 
ATOM     69  N   UNL A   1      45.759  30.093  29.557  1.00  0.00    -0.354 N 
ATOM     70  N   UNL A   1      43.463  30.960  31.171  1.00  0.00    -0.248 NA
ATOM     71  C   UNL A   1      41.956  32.616  31.822  1.00  0.00     0.031 C 
ATOM     72  C   UNL A   1      46.603  31.518  28.076  1.00  0.00     0.029 A 
ATOM     73  C   UNL A   1      45.615  31.368  29.036  1.00  0.00     0.049 A 
ATOM     74  H   UNL A   1      45.203  29.708  30.272  1.00  0.00     0.167 HD
ATOM     75  C   UNL A   1      43.688  32.104  30.414  1.00  0.00     0.074 A 
ATOM     76  C   UNL A   1      42.713  33.084  30.840  1.00  0.00     0.031 C 
ATOM     77  C   UNL A   1      44.614  32.320  29.447  1.00  0.00     0.037 A 
BRANCH  64  78
ATOM     78  C   UNL A   1      48.434  27.559  28.499  1.00  0.00     0.064 A 
ATOM     79  C   UNL A   1      49.744  27.712  28.977  1.00  0.00     0.173 A 
ATOM     80  C   UNL A   1      48.250  26.837  27.308  1.00  0.00     0.173 A 
ATOM     81  F   UNL A   1      49.975  28.407  30.100  1.00  0.00    -0.203 F 
ATOM     82  C   UNL A   1      50.827  27.189  28.276  1.00  0.00     0.198 A 
ATOM     83  C   UNL A   1      49.332  26.286  26.629  1.00  0.00     0.198 A 
ATOM     84  F   UNL A   1      47.018  26.658  26.808  1.00  0.00    -0.203 F 
ATOM     85  F   UNL A   1      52.074  27.393  28.723  1.00  0.00    -0.200 F 
ATOM     86  C   UNL A   1      50.620  26.469  27.109  1.00  0.00     0.200 A 
ATOM     87  F   UNL A   1      49.128  25.577  25.510  1.00  0.00    -0.200 F 
ATOM     88  F   UNL A   1      51.663  25.957  26.441  1.00  0.00    -0.200 F 
ENDBRANCH  64  78
BRANCH  65  89
ATOM     89  C   UNL A   1      40.615  30.880  33.769  1.00  0.00     0.064 A 
ATOM     90  C   UNL A   1      40.826  31.440  35.038  1.00  0.00     0.173 A 
ATOM     91  C   UNL A   1      39.293  30.802  33.305  1.00  0.00     0.173 A 
ATOM     92  F   UNL A   1      42.067  31.512  35.540  1.00  0.00    -0.203 F 
ATOM     93  C   UNL A   1      39.757  31.879  35.819  1.00  0.00     0.198 A 
ATOM     94  C   UNL A   1      38.230  31.272  34.073  1.00  0.00     0.198 A 
ATOM     95  F   UNL A   1      39.033  30.271  32.102  1.00  0.00    -0.203 F 
ATOM     96  F   UNL A   1      39.984  32.356  37.051  1.00  0.00    -0.200 F 
ATOM     97  C   UNL A   1      38.461  31.800  35.334  1.00  0.00     0.200 A 
ATOM     98  F   UNL A   1      36.979  31.204  33.595  1.00  0.00    -0.200 F 
ATOM     99  F   UNL A   1      37.435  32.221  36.085  1.00  0.00    -0.200 F 
ENDBRANCH  65  89
BRANCH  77 100
ATOM    100  C   UNL A   1      44.577  33.631  28.715  1.00  0.00     0.064 A 
ATOM    101  C   UNL A   1      45.172  34.792  29.229  1.00  0.00     0.173 A 
ATOM    102  C   UNL A   1      44.009  33.698  27.431  1.00  0.00     0.173 A 
ATOM    103  F   UNL A   1      45.719  34.785  30.453  1.00  0.00    -0.203 F 
ATOM    104  C   UNL A   1      45.186  35.974  28.492  1.00  0.00     0.198 A 
ATOM    105  C   UNL A   1      44.056  34.871  26.685  1.00  0.00     0.198 A 
ATOM    106  F   UNL A   1      43.435  32.613  26.889  1.00  0.00    -0.203 F 
ATOM    107  F   UNL A   1      45.730  37.081  29.017  1.00  0.00    -0.200 F 
ATOM    108  C   UNL A   1      44.640  36.009  27.218  1.00  0.00     0.200 A 
ATOM    109  F   UNL A   1      43.545  34.896  25.445  1.00  0.00    -0.200 F 
ATOM    110  F   UNL A   1      44.676  37.142  26.501  1.00  0.00    -0.200 F 
ENDBRANCH  77 100
ENDBRANCH  51  52
ENDBRANCH  44  46
ENDBRANCH  43  44
ENDBRANCH  42  43
ENDBRANCH  41  42
ENDBRANCH  40  41
ENDBRANCH  39  40
ENDBRANCH  38  39
ENDBRANCH  37  38
ENDBRANCH  36  37
ENDBRANCH  35  36
ENDBRANCH  34  35
ENDBRANCH   1  34
TORSDOF 30
ENDMDL
