MODEL 1
REMARK VINA RESULT:     -10.4      0.000      0.000
REMARK SMILES Cc1ccc(S(=O)(=O)n2cc(C(=O)C(=O)N[C@@H](Cc3c[nH]c4ccccc34)C(=O)OCCOCCOCCOCCOC(=O)c3ccc(-c4c5nc(c(-c6c(F)c(F)c(F)c(F)c6F)c6ccc([nH]6)c(-c6c(F)c(F)c(F)c(F)c6F)c6nc(c(-c7c(F)c(F)c(F)c(F)c7F)c7ccc4[nH]7)C=C6)C=C5)cc3)c3ccccc32)cc1
REMARK SMILES IDX 34 1 33 2 32 3 31 4 30 5 28 6 29 7 17 8 16 9 14 10 15 11
REMARK SMILES IDX 12 13 13 14 11 15 9 16 10 17 113 18 108 19 112 20 109 21
REMARK SMILES IDX 111 22 110 23 6 24 7 25 8 26 5 27 1 28 2 29 3 30 115 31 4 32
REMARK SMILES IDX 114 33 18 34 19 35 20 36 27 37 21 38 22 39 26 40 23 42 25 43
REMARK SMILES IDX 24 44 35 45 36 46 37 47 38 48 39 49 40 50 41 51 42 52 43 53
REMARK SMILES IDX 44 54 45 55 46 56 107 57 47 58 106 59 48 60 49 61 50 62
REMARK SMILES IDX 100 63 51 64 105 65 99 66 101 67 52 68 104 69 98 70 97 71
REMARK SMILES IDX 53 73 85 74 65 75 84 76 66 77 69 78 83 79 102 80 67 81 68 82
REMARK SMILES IDX 82 84 103 85 70 86 54 87 55 88 63 89 56 90 57 91 61 92 64 93
REMARK SMILES IDX 58 94 59 95 62 96 60 97 86 98 87 99 95 100 88 101 89 102
REMARK SMILES IDX 93 103 96 104 90 105 91 106 94 107 92 108 71 109 72 110
REMARK SMILES IDX 80 111 73 112 74 113 78 114 81 115 75 116 76 117 79 118
REMARK SMILES IDX 77 119
REMARK H PARENT 16 12 21 41 101 72 69 83
REMARK Flexibility Score: inf
ROOT
ATOM      1  C   UNL A   1      36.871  30.131  28.899  1.00  0.00     0.188 C 
ENDROOT
BRANCH   1   2
ATOM      2  O   UNL A   1      36.137  29.862  27.708  1.00  0.00    -0.376 OA
BRANCH   2   3
ATOM      3  C   UNL A   1      34.757  30.187  27.655  1.00  0.00     0.202 C 
BRANCH   3   4
ATOM      4  C   UNL A   1      34.144  29.702  26.374  1.00  0.00     0.261 C 
BRANCH   4   5
ATOM      5  O   UNL A   1      32.863  29.193  26.627  1.00  0.00    -0.462 OA
BRANCH   5   6
ATOM      6  C   UNL A   1      32.825  27.854  26.417  1.00  0.00     0.329 C 
ATOM      7  O   UNL A   1      33.753  27.054  26.497  1.00  0.00    -0.250 OA
BRANCH   6   8
ATOM      8  C   UNL A   1      31.524  27.548  25.737  1.00  0.00     0.197 C 
BRANCH   8   9
ATOM      9  N   UNL A   1      30.580  26.760  26.570  1.00  0.00    -0.335 N 
ATOM     10  C   UNL A   1      29.888  25.601  26.213  1.00  0.00     0.293 C 
ATOM     11  O   UNL A   1      28.955  25.165  26.877  1.00  0.00    -0.265 OA
ATOM     12  H   UNL A   1      30.423  27.096  27.482  1.00  0.00     0.164 HD
BRANCH  10  13
ATOM     13  C   UNL A   1      30.391  24.825  25.007  1.00  0.00     0.252 C 
ATOM     14  O   UNL A   1      29.901  25.200  23.941  1.00  0.00    -0.283 OA
BRANCH  13  15
ATOM     15  C   UNL A   1      31.258  23.643  24.969  1.00  0.00     0.054 A 
ATOM     16  N   UNL A   1      32.153  21.617  24.615  1.00  0.00    -0.240 N 
ATOM     17  C   UNL A   1      31.183  22.301  25.365  1.00  0.00     0.117 A 
ATOM     18  C   UNL A   1      32.708  22.555  23.722  1.00  0.00     0.065 A 
ATOM     19  C   UNL A   1      32.543  23.764  24.366  1.00  0.00     0.012 A 
ATOM     20  C   UNL A   1      33.607  22.416  22.651  1.00  0.00     0.028 A 
ATOM     21  C   UNL A   1      33.462  24.805  24.119  1.00  0.00     0.011 A 
ATOM     22  C   UNL A   1      34.548  23.429  22.464  1.00  0.00     0.002 A 
ATOM     23  C   UNL A   1      34.513  24.588  23.229  1.00  0.00     0.001 A 
BRANCH  16  24
ATOM     24  S   UNL A   1      33.397  20.524  25.133  1.00  0.00     0.268 S 
ATOM     25  O   UNL A   1      33.223  19.380  24.250  1.00  0.00    -0.201 OA
ATOM     26  O   UNL A   1      33.074  20.438  26.555  1.00  0.00    -0.201 OA
BRANCH  24  27
ATOM     27  C   UNL A   1      35.130  20.709  25.266  1.00  0.00     0.088 A 
ATOM     28  C   UNL A   1      39.082  22.371  25.753  1.00  0.00     0.044 C 
ATOM     29  C   UNL A   1      37.736  21.719  25.632  1.00  0.00    -0.051 A 
ATOM     30  C   UNL A   1      36.661  22.436  26.126  1.00  0.00     0.005 A 
ATOM     31  C   UNL A   1      37.502  20.473  25.003  1.00  0.00     0.005 A 
ATOM     32  C   UNL A   1      35.394  21.920  25.965  1.00  0.00     0.022 A 
ATOM     33  C   UNL A   1      36.192  19.956  24.807  1.00  0.00     0.022 A 
ENDBRANCH  24  27
ENDBRANCH  16  24
ENDBRANCH  13  15
ENDBRANCH  10  13
ENDBRANCH   8   9
BRANCH   8  34
ATOM     34  C   UNL A   1      31.046  28.964  25.295  1.00  0.00     0.074 C 
BRANCH  34  35
ATOM     35  C   UNL A   1      30.647  29.170  23.848  1.00  0.00    -0.020 A 
ATOM     36  C   UNL A   1      31.068  28.447  22.742  1.00  0.00     0.087 A 
ATOM     37  C   UNL A   1      29.700  30.126  23.361  1.00  0.00     0.003 A 
ATOM     38  N   UNL A   1      30.395  28.906  21.638  1.00  0.00    -0.361 N 
ATOM     39  C   UNL A   1      29.565  29.944  21.986  1.00  0.00     0.046 A 
ATOM     40  C   UNL A   1      28.945  31.140  23.981  1.00  0.00     0.010 A 
ATOM     41  H   UNL A   1      30.494  28.544  20.727  1.00  0.00     0.166 HD
ATOM     42  C   UNL A   1      28.705  30.724  21.206  1.00  0.00     0.026 A 
ATOM     43  C   UNL A   1      28.145  31.980  23.210  1.00  0.00     0.001 A 
ATOM     44  C   UNL A   1      28.014  31.763  21.843  1.00  0.00     0.002 A 
ENDBRANCH  34  35
ENDBRANCH   8  34
ENDBRANCH   6   8
ENDBRANCH   5   6
ENDBRANCH   4   5
ENDBRANCH   3   4
ENDBRANCH   2   3
ENDBRANCH   1   2
BRANCH   1  45
ATOM     45  C   UNL A   1      36.127  31.256  29.671  1.00  0.00     0.188 C 
BRANCH  45  46
ATOM     46  O   UNL A   1      36.586  32.583  29.364  1.00  0.00    -0.377 OA
BRANCH  46  47
ATOM     47  C   UNL A   1      35.793  33.725  29.706  1.00  0.00     0.188 C 
BRANCH  47  48
ATOM     48  C   UNL A   1      34.392  33.464  30.259  1.00  0.00     0.188 C 
BRANCH  48  49
ATOM     49  O   UNL A   1      34.194  34.036  31.544  1.00  0.00    -0.376 OA
BRANCH  49  50
ATOM     50  C   UNL A   1      34.453  33.176  32.651  1.00  0.00     0.202 C 
BRANCH  50  51
ATOM     51  C   UNL A   1      35.171  33.899  33.798  1.00  0.00     0.261 C 
BRANCH  51  52
ATOM     52  O   UNL A   1      36.386  33.189  34.108  1.00  0.00    -0.460 OA
BRANCH  52  53
ATOM     53  C   UNL A   1      37.510  33.684  33.506  1.00  0.00     0.338 C 
ATOM     54  O   UNL A   1      37.871  34.830  33.532  1.00  0.00    -0.246 OA
BRANCH  53  55
ATOM     55  C   UNL A   1      38.048  32.662  32.548  1.00  0.00     0.060 A 
ATOM     56  C   UNL A   1      37.770  31.312  32.796  1.00  0.00     0.016 A 
ATOM     57  C   UNL A   1      39.094  33.002  31.693  1.00  0.00     0.016 A 
ATOM     58  C   UNL A   1      38.656  30.330  32.344  1.00  0.00     0.010 A 
ATOM     59  C   UNL A   1      40.059  32.045  31.406  1.00  0.00     0.010 A 
ATOM     60  C   UNL A   1      39.889  30.704  31.781  1.00  0.00    -0.014 A 
BRANCH  60  61
ATOM     61  C   UNL A   1      41.090  29.819  31.914  1.00  0.00     0.031 A 
ATOM     62  C   UNL A   1      41.341  28.629  30.970  1.00  0.00     0.074 A 
ATOM     63  C   UNL A   1      42.064  30.501  32.569  1.00  0.00     0.049 A 
ATOM     64  N   UNL A   1      42.284  27.718  31.042  1.00  0.00    -0.248 NA
ATOM     65  C   UNL A   1      40.371  28.281  29.922  1.00  0.00     0.031 C 
ATOM     66  C   UNL A   1      43.284  31.155  32.141  1.00  0.00     0.029 A 
ATOM     67  N   UNL A   1      42.149  30.670  33.943  1.00  0.00    -0.354 N 
ATOM     68  C   UNL A   1      42.185  26.876  29.912  1.00  0.00     0.074 A 
ATOM     69  C   UNL A   1      40.897  27.189  29.362  1.00  0.00     0.031 C 
ATOM     70  C   UNL A   1      44.173  31.269  33.121  1.00  0.00     0.029 A 
ATOM     71  C   UNL A   1      43.501  30.710  34.245  1.00  0.00     0.049 A 
ATOM     72  H   UNL A   1      41.399  30.747  34.576  1.00  0.00     0.167 HD
ATOM     73  C   UNL A   1      43.206  26.073  29.440  1.00  0.00     0.037 A 
ATOM     74  C   UNL A   1      44.144  30.579  35.399  1.00  0.00     0.037 A 
ATOM     75  C   UNL A   1      44.377  26.003  30.347  1.00  0.00     0.049 A 
ATOM     76  C   UNL A   1      44.952  29.304  35.272  1.00  0.00     0.074 A 
ATOM     77  C   UNL A   1      45.743  25.969  30.121  1.00  0.00     0.029 A 
ATOM     78  N   UNL A   1      44.238  26.075  31.745  1.00  0.00    -0.354 N 
ATOM     79  N   UNL A   1      44.967  28.490  34.220  1.00  0.00    -0.248 NA
ATOM     80  C   UNL A   1      45.737  28.787  36.378  1.00  0.00     0.031 C 
ATOM     81  C   UNL A   1      46.416  26.092  31.364  1.00  0.00     0.029 A 
ATOM     82  C   UNL A   1      45.468  26.189  32.375  1.00  0.00     0.049 A 
ATOM     83  H   UNL A   1      43.375  26.049  32.218  1.00  0.00     0.167 HD
ATOM     84  C   UNL A   1      45.607  27.304  34.565  1.00  0.00     0.074 A 
ATOM     85  C   UNL A   1      46.128  27.597  35.896  1.00  0.00     0.031 C 
ATOM     86  C   UNL A   1      45.645  26.131  33.826  1.00  0.00     0.037 A 
BRANCH  73  87
ATOM     87  C   UNL A   1      43.279  25.426  27.989  1.00  0.00     0.064 A 
ATOM     88  C   UNL A   1      42.631  24.193  27.683  1.00  0.00     0.173 A 
ATOM     89  C   UNL A   1      44.045  25.905  26.894  1.00  0.00     0.173 A 
ATOM     90  F   UNL A   1      41.804  23.602  28.554  1.00  0.00    -0.203 F 
ATOM     91  C   UNL A   1      42.773  23.507  26.458  1.00  0.00     0.198 A 
ATOM     92  C   UNL A   1      44.093  25.275  25.631  1.00  0.00     0.198 A 
ATOM     93  F   UNL A   1      44.839  26.974  26.990  1.00  0.00    -0.203 F 
ATOM     94  F   UNL A   1      42.205  22.303  26.294  1.00  0.00    -0.200 F 
ATOM     95  C   UNL A   1      43.479  24.063  25.419  1.00  0.00     0.200 A 
ATOM     96  F   UNL A   1      44.765  25.856  24.625  1.00  0.00    -0.200 F 
ATOM     97  F   UNL A   1      43.569  23.444  24.233  1.00  0.00    -0.200 F 
ENDBRANCH  73  87
BRANCH  74  98
ATOM     98  C   UNL A   1      43.888  31.791  36.249  1.00  0.00     0.064 A 
ATOM     99  C   UNL A   1      43.015  31.615  37.352  1.00  0.00     0.173 A 
ATOM    100  C   UNL A   1      45.029  32.580  36.516  1.00  0.00     0.173 A 
ATOM    101  F   UNL A   1      41.901  30.896  37.198  1.00  0.00    -0.203 F 
ATOM    102  C   UNL A   1      43.387  31.953  38.664  1.00  0.00     0.198 A 
ATOM    103  C   UNL A   1      45.425  32.871  37.833  1.00  0.00     0.198 A 
ATOM    104  F   UNL A   1      45.927  32.783  35.539  1.00  0.00    -0.203 F 
ATOM    105  F   UNL A   1      42.610  31.601  39.699  1.00  0.00    -0.200 F 
ATOM    106  C   UNL A   1      44.625  32.517  38.907  1.00  0.00     0.200 A 
ATOM    107  F   UNL A   1      46.665  33.326  38.063  1.00  0.00    -0.200 F 
ATOM    108  F   UNL A   1      45.081  32.639  40.164  1.00  0.00    -0.200 F 
ENDBRANCH  74  98
BRANCH  86 109
ATOM    109  C   UNL A   1      45.973  24.717  34.370  1.00  0.00     0.064 A 
ATOM    110  C   UNL A   1      45.060  23.651  34.407  1.00  0.00     0.173 A 
ATOM    111  C   UNL A   1      47.310  24.335  34.705  1.00  0.00     0.173 A 
ATOM    112  F   UNL A   1      43.798  23.786  33.989  1.00  0.00    -0.203 F 
ATOM    113  C   UNL A   1      45.427  22.355  34.804  1.00  0.00     0.198 A 
ATOM    114  C   UNL A   1      47.681  23.033  35.043  1.00  0.00     0.198 A 
ATOM    115  F   UNL A   1      48.340  25.186  34.676  1.00  0.00    -0.203 F 
ATOM    116  F   UNL A   1      44.492  21.396  34.851  1.00  0.00    -0.200 F 
ATOM    117  C   UNL A   1      46.736  22.042  35.104  1.00  0.00     0.200 A 
ATOM    118  F   UNL A   1      48.972  22.751  35.278  1.00  0.00    -0.200 F 
ATOM    119  F   UNL A   1      47.089  20.789  35.411  1.00  0.00    -0.200 F 
ENDBRANCH  86 109
ENDBRANCH  60  61
ENDBRANCH  53  55
ENDBRANCH  52  53
ENDBRANCH  51  52
ENDBRANCH  50  51
ENDBRANCH  49  50
ENDBRANCH  48  49
ENDBRANCH  47  48
ENDBRANCH  46  47
ENDBRANCH  45  46
ENDBRANCH   1  45
TORSDOF 27
ENDMDL
MODEL 2
REMARK VINA RESULT:      -9.0      2.948      5.837
REMARK SMILES Cc1ccc(S(=O)(=O)n2cc(C(=O)C(=O)N[C@@H](Cc3c[nH]c4ccccc34)C(=O)OCCOCCOCCOCCOC(=O)c3ccc(-c4c5nc(c(-c6c(F)c(F)c(F)c(F)c6F)c6ccc([nH]6)c(-c6c(F)c(F)c(F)c(F)c6F)c6nc(c(-c7c(F)c(F)c(F)c(F)c7F)c7ccc4[nH]7)C=C6)C=C5)cc3)c3ccccc32)cc1
REMARK SMILES IDX 34 1 33 2 32 3 31 4 30 5 28 6 29 7 17 8 16 9 14 10 15 11
REMARK SMILES IDX 12 13 13 14 11 15 9 16 10 17 113 18 108 19 112 20 109 21
REMARK SMILES IDX 111 22 110 23 6 24 7 25 8 26 5 27 1 28 2 29 3 30 115 31 4 32
REMARK SMILES IDX 114 33 18 34 19 35 20 36 27 37 21 38 22 39 26 40 23 42 25 43
REMARK SMILES IDX 24 44 35 45 36 46 37 47 38 48 39 49 40 50 41 51 42 52 43 53
REMARK SMILES IDX 44 54 45 55 46 56 107 57 47 58 106 59 48 60 49 61 50 62
REMARK SMILES IDX 100 63 51 64 105 65 99 66 101 67 52 68 104 69 98 70 97 71
REMARK SMILES IDX 53 73 85 74 65 75 84 76 66 77 69 78 83 79 102 80 67 81 68 82
REMARK SMILES IDX 82 84 103 85 70 86 54 87 55 88 63 89 56 90 57 91 61 92 64 93
REMARK SMILES IDX 58 94 59 95 62 96 60 97 86 98 87 99 95 100 88 101 89 102
REMARK SMILES IDX 93 103 96 104 90 105 91 106 94 107 92 108 71 109 72 110
REMARK SMILES IDX 80 111 73 112 74 113 78 114 81 115 75 116 76 117 79 118
REMARK SMILES IDX 77 119
REMARK H PARENT 16 12 21 41 101 72 69 83
REMARK Flexibility Score: inf
ROOT
ATOM      1  C   UNL A   1      36.785  29.785  29.853  1.00  0.00     0.188 C 
ENDROOT
BRANCH   1   2
ATOM      2  O   UNL A   1      36.187  29.387  28.623  1.00  0.00    -0.376 OA
BRANCH   2   3
ATOM      3  C   UNL A   1      34.823  29.692  28.383  1.00  0.00     0.202 C 
BRANCH   3   4
ATOM      4  C   UNL A   1      34.477  29.489  26.938  1.00  0.00     0.261 C 
BRANCH   4   5
ATOM      5  O   UNL A   1      33.188  28.947  26.832  1.00  0.00    -0.462 OA
BRANCH   5   6
ATOM      6  C   UNL A   1      33.237  27.664  26.397  1.00  0.00     0.329 C 
ATOM      7  O   UNL A   1      34.210  26.915  26.374  1.00  0.00    -0.250 OA
BRANCH   6   8
ATOM      8  C   UNL A   1      31.976  27.408  25.627  1.00  0.00     0.197 C 
BRANCH   8   9
ATOM      9  N   UNL A   1      30.865  26.870  26.454  1.00  0.00    -0.335 N 
ATOM     10  C   UNL A   1      30.044  25.776  26.174  1.00  0.00     0.293 C 
ATOM     11  O   UNL A   1      29.008  25.560  26.792  1.00  0.00    -0.265 OA
ATOM     12  H   UNL A   1      30.686  27.342  27.299  1.00  0.00     0.164 HD
BRANCH  10  13
ATOM     13  C   UNL A   1      30.525  24.787  25.125  1.00  0.00     0.252 C 
ATOM     14  O   UNL A   1      29.850  24.795  24.094  1.00  0.00    -0.283 OA
BRANCH  13  15
ATOM     15  C   UNL A   1      31.574  23.768  25.232  1.00  0.00     0.054 A 
ATOM     16  N   UNL A   1      32.761  21.865  25.233  1.00  0.00    -0.240 N 
ATOM     17  C   UNL A   1      31.781  22.577  25.942  1.00  0.00     0.117 A 
ATOM     18  C   UNL A   1      33.035  22.607  24.067  1.00  0.00     0.065 A 
ATOM     19  C   UNL A   1      32.739  23.907  24.423  1.00  0.00     0.012 A 
ATOM     20  C   UNL A   1      33.813  22.322  22.932  1.00  0.00     0.028 A 
ATOM     21  C   UNL A   1      33.427  24.965  23.795  1.00  0.00     0.011 A 
ATOM     22  C   UNL A   1      34.534  23.373  22.364  1.00  0.00     0.002 A 
ATOM     23  C   UNL A   1      34.388  24.674  22.828  1.00  0.00     0.001 A 
BRANCH  16  24
ATOM     24  S   UNL A   1      34.229  21.128  25.792  1.00  0.00     0.268 S 
ATOM     25  O   UNL A   1      34.341  19.937  24.963  1.00  0.00    -0.201 OA
ATOM     26  O   UNL A   1      33.928  21.031  27.218  1.00  0.00    -0.201 OA
BRANCH  24  27
ATOM     27  C   UNL A   1      35.866  21.730  25.908  1.00  0.00     0.088 A 
ATOM     28  C   UNL A   1      39.313  24.321  26.066  1.00  0.00     0.044 C 
ATOM     29  C   UNL A   1      38.154  23.367  26.075  1.00  0.00    -0.051 A 
ATOM     30  C   UNL A   1      36.917  23.908  26.374  1.00  0.00     0.005 A 
ATOM     31  C   UNL A   1      38.244  21.994  25.745  1.00  0.00     0.005 A 
ATOM     32  C   UNL A   1      35.809  23.093  26.315  1.00  0.00     0.022 A 
ATOM     33  C   UNL A   1      37.096  21.159  25.652  1.00  0.00     0.022 A 
ENDBRANCH  24  27
ENDBRANCH  16  24
ENDBRANCH  13  15
ENDBRANCH  10  13
ENDBRANCH   8   9
BRANCH   8  34
ATOM     34  C   UNL A   1      31.727  28.785  24.940  1.00  0.00     0.074 C 
BRANCH  34  35
ATOM     35  C   UNL A   1      30.633  28.881  23.897  1.00  0.00    -0.020 A 
ATOM     36  C   UNL A   1      30.215  27.897  23.014  1.00  0.00     0.087 A 
ATOM     37  C   UNL A   1      29.777  30.006  23.673  1.00  0.00     0.003 A 
ATOM     38  N   UNL A   1      29.139  28.373  22.307  1.00  0.00    -0.361 N 
ATOM     39  C   UNL A   1      28.862  29.665  22.679  1.00  0.00     0.046 A 
ATOM     40  C   UNL A   1      29.708  31.294  24.236  1.00  0.00     0.010 A 
ATOM     41  H   UNL A   1      28.640  27.861  21.630  1.00  0.00     0.166 HD
ATOM     42  C   UNL A   1      27.879  30.553  22.227  1.00  0.00     0.026 A 
ATOM     43  C   UNL A   1      28.789  32.219  23.744  1.00  0.00     0.001 A 
ATOM     44  C   UNL A   1      27.876  31.846  22.765  1.00  0.00     0.002 A 
ENDBRANCH  34  35
ENDBRANCH   8  34
ENDBRANCH   6   8
ENDBRANCH   5   6
ENDBRANCH   4   5
ENDBRANCH   3   4
ENDBRANCH   2   3
ENDBRANCH   1   2
BRANCH   1  45
ATOM     45  C   UNL A   1      35.996  31.013  30.389  1.00  0.00     0.188 C 
BRANCH  45  46
ATOM     46  O   UNL A   1      36.793  32.197  30.556  1.00  0.00    -0.377 OA
BRANCH  46  47
ATOM     47  C   UNL A   1      36.212  33.494  30.392  1.00  0.00     0.188 C 
BRANCH  47  48
ATOM     48  C   UNL A   1      34.685  33.587  30.416  1.00  0.00     0.188 C 
BRANCH  48  49
ATOM     49  O   UNL A   1      34.189  34.146  31.624  1.00  0.00    -0.376 OA
BRANCH  49  50
ATOM     50  C   UNL A   1      34.172  33.273  32.750  1.00  0.00     0.202 C 
BRANCH  50  51
ATOM     51  C   UNL A   1      34.759  33.929  34.007  1.00  0.00     0.261 C 
BRANCH  51  52
ATOM     52  O   UNL A   1      35.790  33.075  34.539  1.00  0.00    -0.460 OA
BRANCH  52  53
ATOM     53  C   UNL A   1      37.062  33.397  34.147  1.00  0.00     0.338 C 
ATOM     54  O   UNL A   1      37.377  34.385  33.541  1.00  0.00    -0.246 OA
BRANCH  53  55
ATOM     55  C   UNL A   1      37.945  32.194  34.300  1.00  0.00     0.060 A 
ATOM     56  C   UNL A   1      37.858  31.456  35.487  1.00  0.00     0.016 A 
ATOM     57  C   UNL A   1      39.067  32.056  33.486  1.00  0.00     0.016 A 
ATOM     58  C   UNL A   1      38.971  30.740  35.938  1.00  0.00     0.010 A 
ATOM     59  C   UNL A   1      40.218  31.497  34.026  1.00  0.00     0.010 A 
ATOM     60  C   UNL A   1      40.209  30.885  35.288  1.00  0.00    -0.014 A 
BRANCH  60  61
ATOM     61  C   UNL A   1      41.492  30.741  36.047  1.00  0.00     0.031 A 
ATOM     62  C   UNL A   1      42.209  29.388  36.197  1.00  0.00     0.074 A 
ATOM     63  C   UNL A   1      42.109  31.950  36.092  1.00  0.00     0.049 A 
ATOM     64  N   UNL A   1      43.269  29.104  36.918  1.00  0.00    -0.248 NA
ATOM     65  C   UNL A   1      41.627  28.160  35.637  1.00  0.00     0.031 C 
ATOM     66  C   UNL A   1      43.237  32.521  35.385  1.00  0.00     0.029 A 
ATOM     67  N   UNL A   1      41.809  32.979  36.972  1.00  0.00    -0.354 N 
ATOM     68  C   UNL A   1      43.632  27.760  36.678  1.00  0.00     0.074 A 
ATOM     69  C   UNL A   1      42.488  27.210  36.008  1.00  0.00     0.031 C 
ATOM     70  C   UNL A   1      43.809  33.516  36.053  1.00  0.00     0.029 A 
ATOM     71  C   UNL A   1      43.004  33.636  37.222  1.00  0.00     0.049 A 
ATOM     72  H   UNL A   1      40.925  33.199  37.344  1.00  0.00     0.167 HD
ATOM     73  C   UNL A   1      44.880  27.227  36.935  1.00  0.00     0.037 A 
ATOM     74  C   UNL A   1      43.349  34.494  38.174  1.00  0.00     0.037 A 
ATOM     75  C   UNL A   1      45.774  28.138  37.690  1.00  0.00     0.049 A 
ATOM     76  C   UNL A   1      44.406  33.786  38.996  1.00  0.00     0.074 A 
ATOM     77  C   UNL A   1      47.131  28.407  37.609  1.00  0.00     0.029 A 
ATOM     78  N   UNL A   1      45.276  29.044  38.644  1.00  0.00    -0.354 N 
ATOM     79  N   UNL A   1      44.850  32.548  38.798  1.00  0.00    -0.248 NA
ATOM     80  C   UNL A   1      44.976  34.391  40.187  1.00  0.00     0.031 C 
ATOM     81  C   UNL A   1      47.429  29.509  38.452  1.00  0.00     0.029 A 
ATOM     82  C   UNL A   1      46.258  29.923  39.075  1.00  0.00     0.049 A 
ATOM     83  H   UNL A   1      44.346  29.053  38.967  1.00  0.00     0.167 HD
ATOM     84  C   UNL A   1      45.612  32.152  39.894  1.00  0.00     0.074 A 
ATOM     85  C   UNL A   1      45.709  33.379  40.677  1.00  0.00     0.031 C 
ATOM     86  C   UNL A   1      46.073  30.874  40.171  1.00  0.00     0.037 A 
BRANCH  73  87
ATOM     87  C   UNL A   1      45.447  25.867  36.336  1.00  0.00     0.064 A 
ATOM     88  C   UNL A   1      46.090  25.818  35.064  1.00  0.00     0.173 A 
ATOM     89  C   UNL A   1      45.304  24.575  36.904  1.00  0.00     0.173 A 
ATOM     90  F   UNL A   1      46.386  26.933  34.386  1.00  0.00    -0.203 F 
ATOM     91  C   UNL A   1      46.491  24.625  34.425  1.00  0.00     0.198 A 
ATOM     92  C   UNL A   1      45.807  23.394  36.314  1.00  0.00     0.198 A 
ATOM     93  F   UNL A   1      44.619  24.361  38.030  1.00  0.00    -0.203 F 
ATOM     94  F   UNL A   1      46.999  24.666  33.184  1.00  0.00    -0.200 F 
ATOM     95  C   UNL A   1      46.378  23.414  35.064  1.00  0.00     0.200 A 
ATOM     96  F   UNL A   1      45.711  22.229  36.974  1.00  0.00    -0.200 F 
ATOM     97  F   UNL A   1      46.810  22.283  34.486  1.00  0.00    -0.200 F 
ENDBRANCH  73  87
BRANCH  74  98
ATOM     98  C   UNL A   1      42.645  35.800  37.942  1.00  0.00     0.064 A 
ATOM     99  C   UNL A   1      41.583  36.111  38.826  1.00  0.00     0.173 A 
ATOM    100  C   UNL A   1      43.497  36.885  37.633  1.00  0.00     0.173 A 
ATOM    101  F   UNL A   1      40.715  35.157  39.169  1.00  0.00    -0.203 F 
ATOM    102  C   UNL A   1      41.540  37.312  39.555  1.00  0.00     0.198 A 
ATOM    103  C   UNL A   1      43.484  38.065  38.398  1.00  0.00     0.198 A 
ATOM    104  F   UNL A   1      44.546  36.683  36.821  1.00  0.00    -0.203 F 
ATOM    105  F   UNL A   1      40.620  37.487  40.516  1.00  0.00    -0.200 F 
ATOM    106  C   UNL A   1      42.535  38.256  39.388  1.00  0.00     0.200 A 
ATOM    107  F   UNL A   1      44.507  38.926  38.297  1.00  0.00    -0.200 F 
ATOM    108  F   UNL A   1      42.630  39.299  40.229  1.00  0.00    -0.200 F 
ENDBRANCH  74  98
BRANCH  86 109
ATOM    109  C   UNL A   1      46.534  30.347  41.554  1.00  0.00     0.064 A 
ATOM    110  C   UNL A   1      47.793  30.604  42.120  1.00  0.00     0.173 A 
ATOM    111  C   UNL A   1      45.624  29.707  42.453  1.00  0.00     0.173 A 
ATOM    112  F   UNL A   1      48.723  31.320  41.481  1.00  0.00    -0.203 F 
ATOM    113  C   UNL A   1      48.132  30.203  43.422  1.00  0.00     0.198 A 
ATOM    114  C   UNL A   1      45.948  29.361  43.766  1.00  0.00     0.198 A 
ATOM    115  F   UNL A   1      44.358  29.425  42.130  1.00  0.00    -0.203 F 
ATOM    116  F   UNL A   1      49.367  30.449  43.882  1.00  0.00    -0.200 F 
ATOM    117  C   UNL A   1      47.208  29.599  44.249  1.00  0.00     0.200 A 
ATOM    118  F   UNL A   1      45.010  28.823  44.560  1.00  0.00    -0.200 F 
ATOM    119  F   UNL A   1      47.519  29.285  45.512  1.00  0.00    -0.200 F 
ENDBRANCH  86 109
ENDBRANCH  60  61
ENDBRANCH  53  55
ENDBRANCH  52  53
ENDBRANCH  51  52
ENDBRANCH  50  51
ENDBRANCH  49  50
ENDBRANCH  48  49
ENDBRANCH  47  48
ENDBRANCH  46  47
ENDBRANCH  45  46
ENDBRANCH   1  45
TORSDOF 27
ENDMDL
MODEL 3
REMARK VINA RESULT:      -8.9      2.087      3.061
REMARK SMILES Cc1ccc(S(=O)(=O)n2cc(C(=O)C(=O)N[C@@H](Cc3c[nH]c4ccccc34)C(=O)OCCOCCOCCOCCOC(=O)c3ccc(-c4c5nc(c(-c6c(F)c(F)c(F)c(F)c6F)c6ccc([nH]6)c(-c6c(F)c(F)c(F)c(F)c6F)c6nc(c(-c7c(F)c(F)c(F)c(F)c7F)c7ccc4[nH]7)C=C6)C=C5)cc3)c3ccccc32)cc1
REMARK SMILES IDX 34 1 33 2 32 3 31 4 30 5 28 6 29 7 17 8 16 9 14 10 15 11
REMARK SMILES IDX 12 13 13 14 11 15 9 16 10 17 113 18 108 19 112 20 109 21
REMARK SMILES IDX 111 22 110 23 6 24 7 25 8 26 5 27 1 28 2 29 3 30 115 31 4 32
REMARK SMILES IDX 114 33 18 34 19 35 20 36 27 37 21 38 22 39 26 40 23 42 25 43
REMARK SMILES IDX 24 44 35 45 36 46 37 47 38 48 39 49 40 50 41 51 42 52 43 53
REMARK SMILES IDX 44 54 45 55 46 56 107 57 47 58 106 59 48 60 49 61 50 62
REMARK SMILES IDX 100 63 51 64 105 65 99 66 101 67 52 68 104 69 98 70 97 71
REMARK SMILES IDX 53 73 85 74 65 75 84 76 66 77 69 78 83 79 102 80 67 81 68 82
REMARK SMILES IDX 82 84 103 85 70 86 54 87 55 88 63 89 56 90 57 91 61 92 64 93
REMARK SMILES IDX 58 94 59 95 62 96 60 97 86 98 87 99 95 100 88 101 89 102
REMARK SMILES IDX 93 103 96 104 90 105 91 106 94 107 92 108 71 109 72 110
REMARK SMILES IDX 80 111 73 112 74 113 78 114 81 115 75 116 76 117 79 118
REMARK SMILES IDX 77 119
REMARK H PARENT 16 12 21 41 101 72 69 83
REMARK Flexibility Score: inf
ROOT
ATOM      1  C   UNL A   1      36.699  29.964  29.823  1.00  0.00     0.188 C 
ENDROOT
BRANCH   1   2
ATOM      2  O   UNL A   1      36.132  29.419  28.636  1.00  0.00    -0.376 OA
BRANCH   2   3
ATOM      3  C   UNL A   1      34.806  29.769  28.275  1.00  0.00     0.202 C 
BRANCH   3   4
ATOM      4  C   UNL A   1      34.504  29.340  26.870  1.00  0.00     0.261 C 
BRANCH   4   5
ATOM      5  O   UNL A   1      33.167  28.928  26.778  1.00  0.00    -0.462 OA
BRANCH   5   6
ATOM      6  C   UNL A   1      33.087  27.627  26.408  1.00  0.00     0.329 C 
ATOM      7  O   UNL A   1      33.990  26.795  26.383  1.00  0.00    -0.250 OA
BRANCH   6   8
ATOM      8  C   UNL A   1      31.773  27.444  25.708  1.00  0.00     0.197 C 
BRANCH   8   9
ATOM      9  N   UNL A   1      30.720  26.827  26.554  1.00  0.00    -0.335 N 
ATOM     10  C   UNL A   1      29.883  25.757  26.231  1.00  0.00     0.293 C 
ATOM     11  O   UNL A   1      28.891  25.478  26.893  1.00  0.00    -0.265 OA
ATOM     12  H   UNL A   1      30.597  27.219  27.448  1.00  0.00     0.164 HD
BRANCH  10  13
ATOM     13  C   UNL A   1      30.295  24.869  25.067  1.00  0.00     0.252 C 
ATOM     14  O   UNL A   1      29.648  25.074  24.039  1.00  0.00    -0.283 OA
BRANCH  13  15
ATOM     15  C   UNL A   1      31.242  23.750  25.053  1.00  0.00     0.054 A 
ATOM     16  N   UNL A   1      32.241  21.754  24.836  1.00  0.00    -0.240 N 
ATOM     17  C   UNL A   1      31.336  22.476  25.629  1.00  0.00     0.117 A 
ATOM     18  C   UNL A   1      32.583  22.587  23.752  1.00  0.00     0.065 A 
ATOM     19  C   UNL A   1      32.413  23.864  24.249  1.00  0.00     0.012 A 
ATOM     20  C   UNL A   1      33.328  22.353  22.584  1.00  0.00     0.028 A 
ATOM     21  C   UNL A   1      33.198  24.913  23.729  1.00  0.00     0.011 A 
ATOM     22  C   UNL A   1      34.146  23.386  22.123  1.00  0.00     0.002 A 
ATOM     23  C   UNL A   1      34.125  24.638  22.725  1.00  0.00     0.001 A 
BRANCH  16  24
ATOM     24  S   UNL A   1      33.633  20.825  25.296  1.00  0.00     0.268 S 
ATOM     25  O   UNL A   1      33.633  19.729  24.339  1.00  0.00    -0.201 OA
ATOM     26  O   UNL A   1      33.323  20.599  26.705  1.00  0.00    -0.201 OA
BRANCH  24  27
ATOM     27  C   UNL A   1      35.319  21.256  25.461  1.00  0.00     0.088 A 
ATOM     28  C   UNL A   1      38.990  23.475  25.932  1.00  0.00     0.044 C 
ATOM     29  C   UNL A   1      37.749  22.637  25.822  1.00  0.00    -0.051 A 
ATOM     30  C   UNL A   1      36.570  23.231  26.234  1.00  0.00     0.005 A 
ATOM     31  C   UNL A   1      37.709  21.331  25.280  1.00  0.00     0.005 A 
ATOM     32  C   UNL A   1      35.392  22.537  26.078  1.00  0.00     0.022 A 
ATOM     33  C   UNL A   1      36.489  20.626  25.087  1.00  0.00     0.022 A 
ENDBRANCH  24  27
ENDBRANCH  16  24
ENDBRANCH  13  15
ENDBRANCH  10  13
ENDBRANCH   8   9
BRANCH   8  34
ATOM     34  C   UNL A   1      31.484  28.882  25.177  1.00  0.00     0.074 C 
BRANCH  34  35
ATOM     35  C   UNL A   1      30.666  29.030  23.911  1.00  0.00    -0.020 A 
ATOM     36  C   UNL A   1      30.541  28.121  22.872  1.00  0.00     0.087 A 
ATOM     37  C   UNL A   1      29.812  30.130  23.582  1.00  0.00     0.003 A 
ATOM     38  N   UNL A   1      29.634  28.614  21.967  1.00  0.00    -0.361 N 
ATOM     39  C   UNL A   1      29.186  29.848  22.369  1.00  0.00     0.046 A 
ATOM     40  C   UNL A   1      29.520  31.351  24.220  1.00  0.00     0.010 A 
ATOM     41  H   UNL A   1      29.348  28.149  21.147  1.00  0.00     0.166 HD
ATOM     42  C   UNL A   1      28.279  30.729  21.769  1.00  0.00     0.026 A 
ATOM     43  C   UNL A   1      28.682  32.275  23.600  1.00  0.00     0.001 A 
ATOM     44  C   UNL A   1      28.058  31.960  22.399  1.00  0.00     0.002 A 
ENDBRANCH  34  35
ENDBRANCH   8  34
ENDBRANCH   6   8
ENDBRANCH   5   6
ENDBRANCH   4   5
ENDBRANCH   3   4
ENDBRANCH   2   3
ENDBRANCH   1   2
BRANCH   1  45
ATOM     45  C   UNL A   1      35.853  31.205  30.226  1.00  0.00     0.188 C 
BRANCH  45  46
ATOM     46  O   UNL A   1      36.539  32.459  30.077  1.00  0.00    -0.377 OA
BRANCH  46  47
ATOM     47  C   UNL A   1      35.808  33.662  29.817  1.00  0.00     0.188 C 
BRANCH  47  48
ATOM     48  C   UNL A   1      34.305  33.643  30.099  1.00  0.00     0.188 C 
BRANCH  48  49
ATOM     49  O   UNL A   1      33.955  34.393  31.254  1.00  0.00    -0.376 OA
BRANCH  49  50
ATOM     50  C   UNL A   1      33.971  33.677  32.486  1.00  0.00     0.202 C 
BRANCH  50  51
ATOM     51  C   UNL A   1      34.695  34.446  33.599  1.00  0.00     0.261 C 
BRANCH  51  52
ATOM     52  O   UNL A   1      35.771  33.631  34.102  1.00  0.00    -0.460 OA
BRANCH  52  53
ATOM     53  C   UNL A   1      37.024  34.047  33.737  1.00  0.00     0.338 C 
ATOM     54  O   UNL A   1      37.375  35.190  33.619  1.00  0.00    -0.246 OA
BRANCH  53  55
ATOM     55  C   UNL A   1      37.794  32.877  33.198  1.00  0.00     0.060 A 
ATOM     56  C   UNL A   1      37.715  31.659  33.885  1.00  0.00     0.016 A 
ATOM     57  C   UNL A   1      38.840  33.094  32.305  1.00  0.00     0.016 A 
ATOM     58  C   UNL A   1      38.779  30.756  33.816  1.00  0.00     0.010 A 
ATOM     59  C   UNL A   1      39.965  32.283  32.384  1.00  0.00     0.010 A 
ATOM     60  C   UNL A   1      39.979  31.135  33.189  1.00  0.00    -0.014 A 
BRANCH  60  61
ATOM     61  C   UNL A   1      41.290  30.572  33.644  1.00  0.00     0.031 A 
ATOM     62  C   UNL A   1      41.977  29.401  32.919  1.00  0.00     0.074 A 
ATOM     63  C   UNL A   1      41.942  31.516  34.371  1.00  0.00     0.049 A 
ATOM     64  N   UNL A   1      43.059  28.747  33.272  1.00  0.00    -0.248 NA
ATOM     65  C   UNL A   1      41.337  28.748  31.767  1.00  0.00     0.031 C 
ATOM     66  C   UNL A   1      43.053  32.402  34.088  1.00  0.00     0.029 A 
ATOM     67  N   UNL A   1      41.709  31.813  35.705  1.00  0.00    -0.354 N 
ATOM     68  C   UNL A   1      43.374  27.814  32.258  1.00  0.00     0.074 A 
ATOM     69  C   UNL A   1      42.188  27.769  31.452  1.00  0.00     0.031 C 
ATOM     70  C   UNL A   1      43.680  32.802  35.188  1.00  0.00     0.029 A 
ATOM     71  C   UNL A   1      42.931  32.195  36.236  1.00  0.00     0.049 A 
ATOM     72  H   UNL A   1      40.847  31.763  36.180  1.00  0.00     0.167 HD
ATOM     73  C   UNL A   1      44.618  27.239  32.081  1.00  0.00     0.037 A 
ATOM     74  C   UNL A   1      43.340  32.315  37.493  1.00  0.00     0.037 A 
ATOM     75  C   UNL A   1      45.569  27.522  33.183  1.00  0.00     0.049 A 
ATOM     76  C   UNL A   1      44.412  31.261  37.674  1.00  0.00     0.074 A 
ATOM     77  C   UNL A   1      46.927  27.792  33.210  1.00  0.00     0.029 A 
ATOM     78  N   UNL A   1      45.138  27.675  34.514  1.00  0.00    -0.354 N 
ATOM     79  N   UNL A   1      44.814  30.389  36.753  1.00  0.00    -0.248 NA
ATOM     80  C   UNL A   1      45.050  31.036  38.959  1.00  0.00     0.031 C 
ATOM     81  C   UNL A   1      47.292  28.172  34.528  1.00  0.00     0.029 A 
ATOM     82  C   UNL A   1      46.161  28.126  35.333  1.00  0.00     0.049 A 
ATOM     83  H   UNL A   1      44.223  27.485  34.825  1.00  0.00     0.167 HD
ATOM     84  C   UNL A   1      45.612  29.420  37.354  1.00  0.00     0.074 A 
ATOM     85  C   UNL A   1      45.777  29.935  38.708  1.00  0.00     0.031 C 
ATOM     86  C   UNL A   1      46.050  28.232  36.788  1.00  0.00     0.037 A 
BRANCH  73  87
ATOM     87  C   UNL A   1      45.121  26.510  30.760  1.00  0.00     0.064 A 
ATOM     88  C   UNL A   1      44.790  25.152  30.479  1.00  0.00     0.173 A 
ATOM     89  C   UNL A   1      46.006  27.048  29.789  1.00  0.00     0.173 A 
ATOM     90  F   UNL A   1      43.915  24.475  31.233  1.00  0.00    -0.203 F 
ATOM     91  C   UNL A   1      45.316  24.416  29.396  1.00  0.00     0.198 A 
ATOM     92  C   UNL A   1      46.441  26.345  28.643  1.00  0.00     0.198 A 
ATOM     93  F   UNL A   1      46.552  28.260  29.914  1.00  0.00    -0.203 F 
ATOM     94  F   UNL A   1      45.025  23.112  29.266  1.00  0.00    -0.200 F 
ATOM     95  C   UNL A   1      46.118  25.022  28.459  1.00  0.00     0.200 A 
ATOM     96  F   UNL A   1      47.198  26.970  27.729  1.00  0.00    -0.200 F 
ATOM     97  F   UNL A   1      46.574  24.343  27.396  1.00  0.00    -0.200 F 
ENDBRANCH  73  87
BRANCH  74  98
ATOM     98  C   UNL A   1      42.662  33.498  38.124  1.00  0.00     0.064 A 
ATOM     99  C   UNL A   1      43.021  34.773  37.621  1.00  0.00     0.173 A 
ATOM    100  C   UNL A   1      41.282  33.326  38.374  1.00  0.00     0.173 A 
ATOM    101  F   UNL A   1      44.304  35.039  37.365  1.00  0.00    -0.203 F 
ATOM    102  C   UNL A   1      42.067  35.688  37.145  1.00  0.00     0.198 A 
ATOM    103  C   UNL A   1      40.328  34.217  37.853  1.00  0.00     0.198 A 
ATOM    104  F   UNL A   1      40.842  32.143  38.830  1.00  0.00    -0.203 F 
ATOM    105  F   UNL A   1      42.457  36.803  36.509  1.00  0.00    -0.200 F 
ATOM    106  C   UNL A   1      40.722  35.373  37.199  1.00  0.00     0.200 A 
ATOM    107  F   UNL A   1      39.037  33.856  37.822  1.00  0.00    -0.200 F 
ATOM    108  F   UNL A   1      39.821  36.131  36.554  1.00  0.00    -0.200 F 
ENDBRANCH  74  98
BRANCH  86 109
ATOM    109  C   UNL A   1      46.557  26.985  37.556  1.00  0.00     0.064 A 
ATOM    110  C   UNL A   1      47.856  26.845  38.071  1.00  0.00     0.173 A 
ATOM    111  C   UNL A   1      45.665  25.946  37.968  1.00  0.00     0.173 A 
ATOM    112  F   UNL A   1      48.786  27.792  37.911  1.00  0.00    -0.203 F 
ATOM    113  C   UNL A   1      48.243  25.748  38.857  1.00  0.00     0.198 A 
ATOM    114  C   UNL A   1      46.040  24.886  38.797  1.00  0.00     0.198 A 
ATOM    115  F   UNL A   1      44.371  25.921  37.635  1.00  0.00    -0.203 F 
ATOM    116  F   UNL A   1      49.511  25.663  39.282  1.00  0.00    -0.200 F 
ATOM    117  C   UNL A   1      47.335  24.781  39.234  1.00  0.00     0.200 A 
ATOM    118  F   UNL A   1      45.120  23.992  39.188  1.00  0.00    -0.200 F 
ATOM    119  F   UNL A   1      47.697  23.777  40.042  1.00  0.00    -0.200 F 
ENDBRANCH  86 109
ENDBRANCH  60  61
ENDBRANCH  53  55
ENDBRANCH  52  53
ENDBRANCH  51  52
ENDBRANCH  50  51
ENDBRANCH  49  50
ENDBRANCH  48  49
ENDBRANCH  47  48
ENDBRANCH  46  47
ENDBRANCH  45  46
ENDBRANCH   1  45
TORSDOF 27
ENDMDL
