MODEL 1
REMARK VINA RESULT:     -11.5      0.000      0.000
REMARK SMILES CCC(CC)(NC(=O)Nc1cc(Cl)cc(Cl)c1)C(=O)OCCOCCOCCOCCOC(=O)c1ccc(-c2c3nc(c(-c4c(F)c(F)c(F)c(F)c4F)c4ccc([nH]4)c(-c4c(F)c(F)c(F)c(F)c4F)c4nc(c(-c5c(F)c(F)c(F)c(F)c5F)c5ccc2[nH]5)C=C4)C=C3)cc1
REMARK SMILES IDX 26 1 25 2 24 3 23 4 22 5 21 6 20 7 18 8 19 9 3 10 2 11 1 12
REMARK SMILES IDX 4 13 5 14 6 15 7 16 8 18 9 19 10 21 11 22 17 23 12 24 15 25
REMARK SMILES IDX 13 26 14 27 16 28 27 29 28 30 29 31 30 32 31 33 32 34 33 35
REMARK SMILES IDX 34 36 35 37 36 38 97 39 37 40 96 41 38 42 39 43 40 44 90 45
REMARK SMILES IDX 41 46 95 47 89 48 91 49 42 50 94 51 88 52 87 53 43 55 75 56
REMARK SMILES IDX 55 57 74 58 56 59 59 60 73 61 92 62 57 63 58 64 72 66 93 67
REMARK SMILES IDX 60 68 44 69 45 70 53 71 46 72 47 73 51 74 54 75 48 76 49 77
REMARK SMILES IDX 52 78 50 79 76 80 77 81 85 82 78 83 79 84 83 85 86 86 80 87
REMARK SMILES IDX 81 88 84 89 82 90 61 91 62 92 70 93 63 94 64 95 68 96 71 97
REMARK SMILES IDX 65 98 66 99 69 100 67 101
REMARK H PARENT 6 17 9 20 91 54 59 65
REMARK Flexibility Score: inf
ROOT
ATOM      1  O   UNL A   1      33.911  31.367  27.301  1.00  0.00    -0.377 OA
ENDROOT
BRANCH   1   2
ATOM      2  C   UNL A   1      32.566  31.445  26.879  1.00  0.00     0.188 C 
BRANCH   2   3
ATOM      3  C   UNL A   1      31.886  30.169  26.296  1.00  0.00     0.188 C 
BRANCH   3   4
ATOM      4  O   UNL A   1      31.490  29.041  27.124  1.00  0.00    -0.376 OA
BRANCH   4   5
ATOM      5  C   UNL A   1      31.666  27.605  27.072  1.00  0.00     0.202 C 
BRANCH   5   6
ATOM      6  C   UNL A   1      30.726  26.466  26.191  1.00  0.00     0.261 C 
BRANCH   6   7
ATOM      7  O   UNL A   1      30.994  25.907  24.802  1.00  0.00    -0.461 OA
BRANCH   7   8
ATOM      8  C   UNL A   1      31.566  26.391  23.591  1.00  0.00     0.331 C 
ATOM      9  O   UNL A   1      30.891  26.843  22.670  1.00  0.00    -0.249 OA
BRANCH   8  10
ATOM     10  C   UNL A   1      33.262  26.232  23.498  1.00  0.00     0.139 C 
BRANCH  10  11
ATOM     11  C   UNL A   1      34.313  25.050  23.745  1.00  0.00     0.037 C 
ATOM     12  C   UNL A   1      35.034  24.804  25.042  1.00  0.00     0.007 C 
ENDBRANCH  10  11
BRANCH  10  13
ATOM     13  C   UNL A   1      33.798  27.510  24.181  1.00  0.00     0.037 C 
ATOM     14  C   UNL A   1      34.020  28.750  23.319  1.00  0.00     0.007 C 
ENDBRANCH  10  13
BRANCH  10  15
ATOM     15  N   UNL A   1      33.280  26.237  22.082  1.00  0.00    -0.322 N 
ATOM     16  C   UNL A   1      32.994  25.057  21.491  1.00  0.00     0.320 C 
ATOM     17  H   UNL A   1      33.489  27.047  21.563  1.00  0.00     0.166 HD
ATOM     18  O   UNL A   1      32.686  25.130  20.302  1.00  0.00    -0.248 OA
ATOM     19  N   UNL A   1      32.955  23.856  22.200  1.00  0.00    -0.308 N 
ATOM     20  H   UNL A   1      33.382  23.209  21.595  1.00  0.00     0.171 HD
BRANCH  19  21
ATOM     21  C   UNL A   1      32.606  23.058  23.383  1.00  0.00     0.045 A 
ATOM     22  C   UNL A   1      31.544  23.176  24.285  1.00  0.00     0.046 A 
ATOM     23  C   UNL A   1      33.274  21.821  23.477  1.00  0.00     0.046 A 
ATOM     24  C   UNL A   1      31.294  22.260  25.322  1.00  0.00     0.044 A 
ATOM     25  C   UNL A   1      32.945  20.838  24.424  1.00  0.00     0.044 A 
ATOM     26  Cl  UNL A   1      30.036  22.581  26.457  1.00  0.00    -0.084 Cl
ATOM     27  C   UNL A   1      31.995  21.078  25.398  1.00  0.00     0.041 A 
ATOM     28  Cl  UNL A   1      33.689  19.289  24.334  1.00  0.00    -0.084 Cl
ENDBRANCH  19  21
ENDBRANCH  10  15
ENDBRANCH   8  10
ENDBRANCH   7   8
ENDBRANCH   6   7
ENDBRANCH   5   6
ENDBRANCH   4   5
ENDBRANCH   3   4
ENDBRANCH   2   3
ENDBRANCH   1   2
BRANCH   1  29
ATOM     29  C   UNL A   1      34.307  32.326  28.252  1.00  0.00     0.188 C 
BRANCH  29  30
ATOM     30  C   UNL A   1      33.364  33.526  28.390  1.00  0.00     0.188 C 
BRANCH  30  31
ATOM     31  O   UNL A   1      33.287  34.273  29.595  1.00  0.00    -0.376 OA
BRANCH  31  32
ATOM     32  C   UNL A   1      34.440  34.476  30.390  1.00  0.00     0.202 C 
BRANCH  32  33
ATOM     33  C   UNL A   1      34.448  33.813  31.780  1.00  0.00     0.261 C 
BRANCH  33  34
ATOM     34  O   UNL A   1      34.742  32.407  31.825  1.00  0.00    -0.460 OA
BRANCH  34  35
ATOM     35  C   UNL A   1      35.775  32.025  32.603  1.00  0.00     0.338 C 
ATOM     36  O   UNL A   1      35.975  32.329  33.778  1.00  0.00    -0.246 OA
BRANCH  35  37
ATOM     37  C   UNL A   1      36.596  31.025  31.882  1.00  0.00     0.060 A 
ATOM     38  C   UNL A   1      37.606  30.345  32.583  1.00  0.00     0.016 A 
ATOM     39  C   UNL A   1      36.406  30.780  30.520  1.00  0.00     0.016 A 
ATOM     40  C   UNL A   1      38.469  29.481  31.923  1.00  0.00     0.010 A 
ATOM     41  C   UNL A   1      37.318  29.965  29.840  1.00  0.00     0.010 A 
ATOM     42  C   UNL A   1      38.393  29.374  30.531  1.00  0.00    -0.014 A 
BRANCH  42  43
ATOM     43  C   UNL A   1      39.631  28.990  29.812  1.00  0.00     0.031 A 
ATOM     44  C   UNL A   1      40.723  30.027  29.720  1.00  0.00     0.074 A 
ATOM     45  C   UNL A   1      39.836  27.746  29.354  1.00  0.00     0.049 A 
ATOM     46  N   UNL A   1      41.901  29.958  29.155  1.00  0.00    -0.248 NA
ATOM     47  C   UNL A   1      40.445  31.324  30.363  1.00  0.00     0.031 C 
ATOM     48  C   UNL A   1      38.897  26.634  29.466  1.00  0.00     0.029 A 
ATOM     49  N   UNL A   1      40.920  27.210  28.704  1.00  0.00    -0.354 N 
ATOM     50  C   UNL A   1      42.487  31.202  29.357  1.00  0.00     0.074 A 
ATOM     51  C   UNL A   1      41.531  32.017  30.070  1.00  0.00     0.031 C 
ATOM     52  C   UNL A   1      39.444  25.545  28.897  1.00  0.00     0.029 A 
ATOM     53  C   UNL A   1      40.755  25.895  28.350  1.00  0.00     0.049 A 
ATOM     54  H   UNL A   1      41.739  27.722  28.510  1.00  0.00     0.167 HD
ATOM     55  C   UNL A   1      43.717  31.628  28.987  1.00  0.00     0.037 A 
ATOM     56  C   UNL A   1      41.567  25.082  27.647  1.00  0.00     0.037 A 
ATOM     57  C   UNL A   1      44.668  30.811  28.285  1.00  0.00     0.049 A 
ATOM     58  C   UNL A   1      42.895  25.609  27.161  1.00  0.00     0.074 A 
ATOM     59  C   UNL A   1      45.946  31.136  27.870  1.00  0.00     0.029 A 
ATOM     60  N   UNL A   1      44.438  29.502  27.886  1.00  0.00    -0.354 N 
ATOM     61  N   UNL A   1      43.448  26.782  27.357  1.00  0.00    -0.248 NA
ATOM     62  C   UNL A   1      43.714  24.689  26.359  1.00  0.00     0.031 C 
ATOM     63  C   UNL A   1      46.463  30.049  27.158  1.00  0.00     0.029 A 
ATOM     64  C   UNL A   1      45.537  29.017  27.198  1.00  0.00     0.049 A 
ATOM     65  H   UNL A   1      43.614  28.993  28.065  1.00  0.00     0.167 HD
ATOM     66  C   UNL A   1      44.691  26.729  26.738  1.00  0.00     0.074 A 
ATOM     67  C   UNL A   1      44.816  25.402  26.171  1.00  0.00     0.031 C 
ATOM     68  C   UNL A   1      45.648  27.689  26.650  1.00  0.00     0.037 A 
BRANCH  55  69
ATOM     69  C   UNL A   1      44.074  33.057  29.285  1.00  0.00     0.064 A 
ATOM     70  C   UNL A   1      44.605  33.454  30.522  1.00  0.00     0.173 A 
ATOM     71  C   UNL A   1      43.884  34.047  28.309  1.00  0.00     0.173 A 
ATOM     72  F   UNL A   1      44.791  32.552  31.499  1.00  0.00    -0.203 F 
ATOM     73  C   UNL A   1      44.897  34.791  30.782  1.00  0.00     0.198 A 
ATOM     74  C   UNL A   1      44.211  35.377  28.559  1.00  0.00     0.198 A 
ATOM     75  F   UNL A   1      43.379  33.725  27.108  1.00  0.00    -0.203 F 
ATOM     76  F   UNL A   1      45.343  35.156  31.992  1.00  0.00    -0.200 F 
ATOM     77  C   UNL A   1      44.707  35.750  29.798  1.00  0.00     0.200 A 
ATOM     78  F   UNL A   1      44.040  36.298  27.600  1.00  0.00    -0.200 F 
ATOM     79  F   UNL A   1      44.993  37.035  30.047  1.00  0.00    -0.200 F 
ENDBRANCH  55  69
BRANCH  56  80
ATOM     80  C   UNL A   1      41.149  23.685  27.348  1.00  0.00     0.064 A 
ATOM     81  C   UNL A   1      41.825  22.592  27.908  1.00  0.00     0.173 A 
ATOM     82  C   UNL A   1      40.086  23.414  26.473  1.00  0.00     0.173 A 
ATOM     83  F   UNL A   1      42.866  22.797  28.728  1.00  0.00    -0.203 F 
ATOM     84  C   UNL A   1      41.469  21.284  27.588  1.00  0.00     0.198 A 
ATOM     85  C   UNL A   1      39.710  22.105  26.179  1.00  0.00     0.198 A 
ATOM     86  F   UNL A   1      39.409  24.423  25.905  1.00  0.00    -0.203 F 
ATOM     87  F   UNL A   1      42.168  20.258  28.095  1.00  0.00    -0.200 F 
ATOM     88  C   UNL A   1      40.408  21.040  26.730  1.00  0.00     0.200 A 
ATOM     89  F   UNL A   1      38.676  21.876  25.359  1.00  0.00    -0.200 F 
ATOM     90  F   UNL A   1      40.064  19.782  26.424  1.00  0.00    -0.200 F 
ENDBRANCH  56  80
BRANCH  68  91
ATOM     91  C   UNL A   1      46.936  27.321  25.966  1.00  0.00     0.064 A 
ATOM     92  C   UNL A   1      48.002  26.726  26.656  1.00  0.00     0.173 A 
ATOM     93  C   UNL A   1      47.092  27.544  24.588  1.00  0.00     0.173 A 
ATOM     94  F   UNL A   1      47.911  26.500  27.975  1.00  0.00    -0.203 F 
ATOM     95  C   UNL A   1      49.189  26.405  26.001  1.00  0.00     0.198 A 
ATOM     96  C   UNL A   1      48.264  27.185  23.930  1.00  0.00     0.198 A 
ATOM     97  F   UNL A   1      46.100  28.099  23.875  1.00  0.00    -0.203 F 
ATOM     98  F   UNL A   1      50.218  25.897  26.695  1.00  0.00    -0.200 F 
ATOM     99  C   UNL A   1      49.317  26.628  24.639  1.00  0.00     0.200 A 
ATOM    100  F   UNL A   1      48.377  27.383  22.609  1.00  0.00    -0.200 F 
ATOM    101  F   UNL A   1      50.458  26.314  24.011  1.00  0.00    -0.200 F 
ENDBRANCH  68  91
ENDBRANCH  42  43
ENDBRANCH  35  37
ENDBRANCH  34  35
ENDBRANCH  33  34
ENDBRANCH  32  33
ENDBRANCH  31  32
ENDBRANCH  30  31
ENDBRANCH  29  30
ENDBRANCH   1  29
TORSDOF 24
ENDMDL
MODEL 2
REMARK VINA RESULT:     -11.0      1.831      7.579
REMARK SMILES CCC(CC)(NC(=O)Nc1cc(Cl)cc(Cl)c1)C(=O)OCCOCCOCCOCCOC(=O)c1ccc(-c2c3nc(c(-c4c(F)c(F)c(F)c(F)c4F)c4ccc([nH]4)c(-c4c(F)c(F)c(F)c(F)c4F)c4nc(c(-c5c(F)c(F)c(F)c(F)c5F)c5ccc2[nH]5)C=C4)C=C3)cc1
REMARK SMILES IDX 26 1 25 2 24 3 23 4 22 5 21 6 20 7 18 8 19 9 3 10 2 11 1 12
REMARK SMILES IDX 4 13 5 14 6 15 7 16 8 18 9 19 10 21 11 22 17 23 12 24 15 25
REMARK SMILES IDX 13 26 14 27 16 28 27 29 28 30 29 31 30 32 31 33 32 34 33 35
REMARK SMILES IDX 34 36 35 37 36 38 97 39 37 40 96 41 38 42 39 43 40 44 90 45
REMARK SMILES IDX 41 46 95 47 89 48 91 49 42 50 94 51 88 52 87 53 43 55 75 56
REMARK SMILES IDX 55 57 74 58 56 59 59 60 73 61 92 62 57 63 58 64 72 66 93 67
REMARK SMILES IDX 60 68 44 69 45 70 53 71 46 72 47 73 51 74 54 75 48 76 49 77
REMARK SMILES IDX 52 78 50 79 76 80 77 81 85 82 78 83 79 84 83 85 86 86 80 87
REMARK SMILES IDX 81 88 84 89 82 90 61 91 62 92 70 93 63 94 64 95 68 96 71 97
REMARK SMILES IDX 65 98 66 99 69 100 67 101
REMARK H PARENT 6 17 9 20 91 54 59 65
REMARK Flexibility Score: inf
ROOT
ATOM      1  O   UNL A   1      34.327  31.061  27.645  1.00  0.00    -0.377 OA
ENDROOT
BRANCH   1   2
ATOM      2  C   UNL A   1      32.966  31.248  27.316  1.00  0.00     0.188 C 
BRANCH   2   3
ATOM      3  C   UNL A   1      32.363  30.442  26.127  1.00  0.00     0.188 C 
BRANCH   3   4
ATOM      4  O   UNL A   1      32.905  29.165  25.686  1.00  0.00    -0.376 OA
BRANCH   4   5
ATOM      5  C   UNL A   1      33.981  28.742  24.815  1.00  0.00     0.202 C 
BRANCH   5   6
ATOM      6  C   UNL A   1      33.873  28.299  23.157  1.00  0.00     0.261 C 
BRANCH   6   7
ATOM      7  O   UNL A   1      33.354  26.995  22.569  1.00  0.00    -0.461 OA
BRANCH   7   8
ATOM      8  C   UNL A   1      33.432  25.613  22.903  1.00  0.00     0.331 C 
ATOM      9  O   UNL A   1      33.837  24.760  22.118  1.00  0.00    -0.249 OA
BRANCH   8  10
ATOM     10  C   UNL A   1      32.855  25.229  24.462  1.00  0.00     0.139 C 
BRANCH  10  11
ATOM     11  C   UNL A   1      31.545  25.581  25.313  1.00  0.00     0.037 C 
ATOM     12  C   UNL A   1      31.554  26.055  26.741  1.00  0.00     0.007 C 
ENDBRANCH  10  11
BRANCH  10  13
ATOM     13  C   UNL A   1      34.089  25.406  25.374  1.00  0.00     0.037 C 
ATOM     14  C   UNL A   1      35.197  24.358  25.302  1.00  0.00     0.007 C 
ENDBRANCH  10  13
BRANCH  10  15
ATOM     15  N   UNL A   1      32.531  23.895  24.117  1.00  0.00    -0.322 N 
ATOM     16  C   UNL A   1      31.323  23.720  23.538  1.00  0.00     0.320 C 
ATOM     17  H   UNL A   1      33.144  23.145  24.290  1.00  0.00     0.166 HD
ATOM     18  O   UNL A   1      31.179  22.650  22.947  1.00  0.00    -0.248 OA
ATOM     19  N   UNL A   1      30.348  24.718  23.526  1.00  0.00    -0.308 N 
ATOM     20  H   UNL A   1      29.510  24.232  23.695  1.00  0.00     0.171 HD
BRANCH  19  21
ATOM     21  C   UNL A   1      29.926  26.118  23.390  1.00  0.00     0.045 A 
ATOM     22  C   UNL A   1      30.485  27.177  22.667  1.00  0.00     0.046 A 
ATOM     23  C   UNL A   1      28.612  26.382  23.826  1.00  0.00     0.046 A 
ATOM     24  C   UNL A   1      29.897  28.449  22.563  1.00  0.00     0.044 A 
ATOM     25  C   UNL A   1      27.961  27.607  23.609  1.00  0.00     0.044 A 
ATOM     26  Cl  UNL A   1      30.745  29.717  21.757  1.00  0.00    -0.084 Cl
ATOM     27  C   UNL A   1      28.623  28.674  23.034  1.00  0.00     0.041 A 
ATOM     28  Cl  UNL A   1      26.294  27.764  24.008  1.00  0.00    -0.084 Cl
ENDBRANCH  19  21
ENDBRANCH  10  15
ENDBRANCH   8  10
ENDBRANCH   7   8
ENDBRANCH   6   7
ENDBRANCH   5   6
ENDBRANCH   4   5
ENDBRANCH   3   4
ENDBRANCH   2   3
ENDBRANCH   1   2
BRANCH   1  29
ATOM     29  C   UNL A   1      34.876  32.010  28.526  1.00  0.00     0.188 C 
BRANCH  29  30
ATOM     30  C   UNL A   1      34.009  33.253  28.760  1.00  0.00     0.188 C 
BRANCH  30  31
ATOM     31  O   UNL A   1      33.847  33.810  30.055  1.00  0.00    -0.376 OA
BRANCH  31  32
ATOM     32  C   UNL A   1      34.973  34.058  30.877  1.00  0.00     0.202 C 
BRANCH  32  33
ATOM     33  C   UNL A   1      35.044  33.283  32.207  1.00  0.00     0.261 C 
BRANCH  33  34
ATOM     34  O   UNL A   1      35.446  31.905  32.131  1.00  0.00    -0.460 OA
BRANCH  34  35
ATOM     35  C   UNL A   1      36.513  31.540  32.872  1.00  0.00     0.338 C 
ATOM     36  O   UNL A   1      36.699  31.759  34.068  1.00  0.00    -0.246 OA
BRANCH  35  37
ATOM     37  C   UNL A   1      37.402  30.672  32.066  1.00  0.00     0.060 A 
ATOM     38  C   UNL A   1      38.485  30.041  32.698  1.00  0.00     0.016 A 
ATOM     39  C   UNL A   1      37.201  30.505  30.694  1.00  0.00     0.016 A 
ATOM     40  C   UNL A   1      39.406  29.306  31.961  1.00  0.00     0.010 A 
ATOM     41  C   UNL A   1      38.165  29.827  29.940  1.00  0.00     0.010 A 
ATOM     42  C   UNL A   1      39.305  29.290  30.568  1.00  0.00    -0.014 A 
BRANCH  42  43
ATOM     43  C   UNL A   1      40.554  29.071  29.800  1.00  0.00     0.031 A 
ATOM     44  C   UNL A   1      40.731  27.724  29.144  1.00  0.00     0.074 A 
ATOM     45  C   UNL A   1      41.447  30.051  29.591  1.00  0.00     0.049 A 
ATOM     46  N   UNL A   1      41.718  27.269  28.416  1.00  0.00    -0.248 NA
ATOM     47  C   UNL A   1      39.635  26.758  29.333  1.00  0.00     0.031 C 
ATOM     48  C   UNL A   1      41.340  31.417  30.092  1.00  0.00     0.029 A 
ATOM     49  N   UNL A   1      42.624  30.039  28.886  1.00  0.00    -0.354 N 
ATOM     50  C   UNL A   1      41.369  25.965  28.085  1.00  0.00     0.074 A 
ATOM     51  C   UNL A   1      40.096  25.689  28.708  1.00  0.00     0.031 C 
ATOM     52  C   UNL A   1      42.415  32.115  29.684  1.00  0.00     0.029 A 
ATOM     53  C   UNL A   1      43.300  31.232  28.923  1.00  0.00     0.049 A 
ATOM     54  H   UNL A   1      42.953  29.248  28.400  1.00  0.00     0.167 HD
ATOM     55  C   UNL A   1      42.045  25.076  27.321  1.00  0.00     0.037 A 
ATOM     56  C   UNL A   1      44.505  31.558  28.416  1.00  0.00     0.037 A 
ATOM     57  C   UNL A   1      43.308  25.357  26.695  1.00  0.00     0.049 A 
ATOM     58  C   UNL A   1      45.286  30.519  27.648  1.00  0.00     0.074 A 
ATOM     59  C   UNL A   1      44.076  24.535  25.892  1.00  0.00     0.029 A 
ATOM     60  N   UNL A   1      43.993  26.559  26.811  1.00  0.00    -0.354 N 
ATOM     61  N   UNL A   1      44.951  29.291  27.333  1.00  0.00    -0.248 NA
ATOM     62  C   UNL A   1      46.613  30.921  27.162  1.00  0.00     0.031 C 
ATOM     63  C   UNL A   1      45.259  25.213  25.580  1.00  0.00     0.029 A 
ATOM     64  C   UNL A   1      45.192  26.487  26.123  1.00  0.00     0.049 A 
ATOM     65  H   UNL A   1      43.673  27.346  27.309  1.00  0.00     0.167 HD
ATOM     66  C   UNL A   1      46.006  28.787  26.580  1.00  0.00     0.074 A 
ATOM     67  C   UNL A   1      46.985  29.849  26.476  1.00  0.00     0.031 C 
ATOM     68  C   UNL A   1      46.151  27.559  26.020  1.00  0.00     0.037 A 
BRANCH  55  69
ATOM     69  C   UNL A   1      41.458  23.701  27.174  1.00  0.00     0.064 A 
ATOM     70  C   UNL A   1      42.047  22.568  27.757  1.00  0.00     0.173 A 
ATOM     71  C   UNL A   1      40.279  23.516  26.435  1.00  0.00     0.173 A 
ATOM     72  F   UNL A   1      43.185  22.683  28.458  1.00  0.00    -0.203 F 
ATOM     73  C   UNL A   1      41.498  21.300  27.576  1.00  0.00     0.198 A 
ATOM     74  C   UNL A   1      39.713  22.253  26.287  1.00  0.00     0.198 A 
ATOM     75  F   UNL A   1      39.673  24.564  25.855  1.00  0.00    -0.203 F 
ATOM     76  F   UNL A   1      42.113  20.225  28.089  1.00  0.00    -0.200 F 
ATOM     77  C   UNL A   1      40.328  21.145  26.848  1.00  0.00     0.200 A 
ATOM     78  F   UNL A   1      38.573  22.109  25.595  1.00  0.00    -0.200 F 
ATOM     79  F   UNL A   1      39.798  19.926  26.679  1.00  0.00    -0.200 F 
ENDBRANCH  55  69
BRANCH  56  80
ATOM     80  C   UNL A   1      45.057  32.925  28.621  1.00  0.00     0.064 A 
ATOM     81  C   UNL A   1      44.902  33.922  27.649  1.00  0.00     0.173 A 
ATOM     82  C   UNL A   1      45.779  33.252  29.779  1.00  0.00     0.173 A 
ATOM     83  F   UNL A   1      44.245  33.651  26.511  1.00  0.00    -0.203 F 
ATOM     84  C   UNL A   1      45.464  35.186  27.816  1.00  0.00     0.198 A 
ATOM     85  C   UNL A   1      46.313  34.527  29.961  1.00  0.00     0.198 A 
ATOM     86  F   UNL A   1      45.962  32.334  30.740  1.00  0.00    -0.203 F 
ATOM     87  F   UNL A   1      45.346  36.103  26.845  1.00  0.00    -0.200 F 
ATOM     88  C   UNL A   1      46.163  35.490  28.974  1.00  0.00     0.200 A 
ATOM     89  F   UNL A   1      46.976  34.818  31.087  1.00  0.00    -0.200 F 
ATOM     90  F   UNL A   1      46.701  36.706  29.136  1.00  0.00    -0.200 F 
ENDBRANCH  56  80
BRANCH  68  91
ATOM     91  C   UNL A   1      47.384  27.315  25.196  1.00  0.00     0.064 A 
ATOM     92  C   UNL A   1      47.462  27.681  23.844  1.00  0.00     0.173 A 
ATOM     93  C   UNL A   1      48.520  26.730  25.781  1.00  0.00     0.173 A 
ATOM     94  F   UNL A   1      46.404  28.234  23.232  1.00  0.00    -0.203 F 
ATOM     95  C   UNL A   1      48.613  27.434  23.100  1.00  0.00     0.198 A 
ATOM     96  C   UNL A   1      49.682  26.522  25.044  1.00  0.00     0.198 A 
ATOM     97  F   UNL A   1      48.507  26.371  27.073  1.00  0.00    -0.203 F 
ATOM     98  F   UNL A   1      48.640  27.734  21.793  1.00  0.00    -0.200 F 
ATOM     99  C   UNL A   1      49.723  26.862  23.701  1.00  0.00     0.200 A 
ATOM    100  F   UNL A   1      50.761  25.987  25.633  1.00  0.00    -0.200 F 
ATOM    101  F   UNL A   1      50.831  26.630  22.983  1.00  0.00    -0.200 F 
ENDBRANCH  68  91
ENDBRANCH  42  43
ENDBRANCH  35  37
ENDBRANCH  34  35
ENDBRANCH  33  34
ENDBRANCH  32  33
ENDBRANCH  31  32
ENDBRANCH  30  31
ENDBRANCH  29  30
ENDBRANCH   1  29
TORSDOF 24
ENDMDL
MODEL 3
REMARK VINA RESULT:     -11.0      5.591     10.546
REMARK SMILES CCC(CC)(NC(=O)Nc1cc(Cl)cc(Cl)c1)C(=O)OCCOCCOCCOCCOC(=O)c1ccc(-c2c3nc(c(-c4c(F)c(F)c(F)c(F)c4F)c4ccc([nH]4)c(-c4c(F)c(F)c(F)c(F)c4F)c4nc(c(-c5c(F)c(F)c(F)c(F)c5F)c5ccc2[nH]5)C=C4)C=C3)cc1
REMARK SMILES IDX 26 1 25 2 24 3 23 4 22 5 21 6 20 7 18 8 19 9 3 10 2 11 1 12
REMARK SMILES IDX 4 13 5 14 6 15 7 16 8 18 9 19 10 21 11 22 17 23 12 24 15 25
REMARK SMILES IDX 13 26 14 27 16 28 27 29 28 30 29 31 30 32 31 33 32 34 33 35
REMARK SMILES IDX 34 36 35 37 36 38 97 39 37 40 96 41 38 42 39 43 40 44 90 45
REMARK SMILES IDX 41 46 95 47 89 48 91 49 42 50 94 51 88 52 87 53 43 55 75 56
REMARK SMILES IDX 55 57 74 58 56 59 59 60 73 61 92 62 57 63 58 64 72 66 93 67
REMARK SMILES IDX 60 68 44 69 45 70 53 71 46 72 47 73 51 74 54 75 48 76 49 77
REMARK SMILES IDX 52 78 50 79 76 80 77 81 85 82 78 83 79 84 83 85 86 86 80 87
REMARK SMILES IDX 81 88 84 89 82 90 61 91 62 92 70 93 63 94 64 95 68 96 71 97
REMARK SMILES IDX 65 98 66 99 69 100 67 101
REMARK H PARENT 6 17 9 20 91 54 59 65
REMARK Flexibility Score: inf
ROOT
ATOM      1  O   UNL A   1      40.657  21.412  25.965  1.00  0.00    -0.377 OA
ENDROOT
BRANCH   1   2
ATOM      2  C   UNL A   1      39.522  22.057  26.504  1.00  0.00     0.188 C 
BRANCH   2   3
ATOM      3  C   UNL A   1      38.249  22.203  25.616  1.00  0.00     0.188 C 
BRANCH   3   4
ATOM      4  O   UNL A   1      37.429  21.068  25.224  1.00  0.00    -0.376 OA
BRANCH   4   5
ATOM      5  C   UNL A   1      36.037  20.697  25.364  1.00  0.00     0.202 C 
BRANCH   5   6
ATOM      6  C   UNL A   1      34.690  21.344  24.512  1.00  0.00     0.261 C 
BRANCH   6   7
ATOM      7  O   UNL A   1      34.438  22.793  24.123  1.00  0.00    -0.461 OA
BRANCH   7   8
ATOM      8  C   UNL A   1      34.607  24.067  24.736  1.00  0.00     0.331 C 
ATOM      9  O   UNL A   1      35.677  24.441  25.211  1.00  0.00    -0.249 OA
BRANCH   8  10
ATOM     10  C   UNL A   1      33.186  25.007  24.817  1.00  0.00     0.139 C 
BRANCH  10  11
ATOM     11  C   UNL A   1      31.868  25.162  23.921  1.00  0.00     0.037 C 
ATOM     12  C   UNL A   1      31.721  24.643  22.517  1.00  0.00     0.007 C 
ENDBRANCH  10  11
BRANCH  10  13
ATOM     13  C   UNL A   1      33.689  26.419  25.190  1.00  0.00     0.037 C 
ATOM     14  C   UNL A   1      34.025  27.388  24.058  1.00  0.00     0.007 C 
ENDBRANCH  10  13
BRANCH  10  15
ATOM     15  N   UNL A   1      32.632  24.250  25.877  1.00  0.00    -0.322 N 
ATOM     16  C   UNL A   1      31.629  24.847  26.557  1.00  0.00     0.320 C 
ATOM     17  H   UNL A   1      32.958  23.350  26.106  1.00  0.00     0.166 HD
ATOM     18  O   UNL A   1      30.939  24.090  27.239  1.00  0.00    -0.248 OA
ATOM     19  N   UNL A   1      31.336  26.204  26.419  1.00  0.00    -0.308 N 
ATOM     20  H   UNL A   1      31.136  26.498  27.336  1.00  0.00     0.171 HD
BRANCH  19  21
ATOM     21  C   UNL A   1      31.171  27.420  25.613  1.00  0.00     0.045 A 
ATOM     22  C   UNL A   1      30.403  27.664  24.469  1.00  0.00     0.046 A 
ATOM     23  C   UNL A   1      31.633  28.602  26.227  1.00  0.00     0.046 A 
ATOM     24  C   UNL A   1      30.278  28.927  23.866  1.00  0.00     0.044 A 
ATOM     25  C   UNL A   1      31.398  29.884  25.705  1.00  0.00     0.044 A 
ATOM     26  Cl  UNL A   1      29.414  29.080  22.381  1.00  0.00    -0.084 Cl
ATOM     27  C   UNL A   1      30.775  30.052  24.484  1.00  0.00     0.041 A 
ATOM     28  Cl  UNL A   1      31.835  31.269  26.627  1.00  0.00    -0.084 Cl
ENDBRANCH  19  21
ENDBRANCH  10  15
ENDBRANCH   8  10
ENDBRANCH   7   8
ENDBRANCH   6   7
ENDBRANCH   5   6
ENDBRANCH   4   5
ENDBRANCH   3   4
ENDBRANCH   2   3
ENDBRANCH   1   2
BRANCH   1  29
ATOM     29  C   UNL A   1      41.338  20.546  26.840  1.00  0.00     0.188 C 
BRANCH  29  30
ATOM     30  C   UNL A   1      42.400  19.661  26.178  1.00  0.00     0.188 C 
BRANCH  30  31
ATOM     31  O   UNL A   1      43.120  20.097  25.035  1.00  0.00    -0.376 OA
BRANCH  31  32
ATOM     32  C   UNL A   1      44.202  21.000  25.167  1.00  0.00     0.202 C 
BRANCH  32  33
ATOM     33  C   UNL A   1      44.019  22.396  24.542  1.00  0.00     0.261 C 
BRANCH  33  34
ATOM     34  O   UNL A   1      43.449  23.413  25.384  1.00  0.00    -0.460 OA
BRANCH  34  35
ATOM     35  C   UNL A   1      44.148  24.559  25.513  1.00  0.00     0.338 C 
ATOM     36  O   UNL A   1      44.728  25.182  24.625  1.00  0.00    -0.246 OA
BRANCH  35  37
ATOM     37  C   UNL A   1      43.994  25.082  26.890  1.00  0.00     0.060 A 
ATOM     38  C   UNL A   1      42.935  24.606  27.680  1.00  0.00     0.016 A 
ATOM     39  C   UNL A   1      44.857  26.058  27.394  1.00  0.00     0.016 A 
ATOM     40  C   UNL A   1      42.688  25.147  28.936  1.00  0.00     0.010 A 
ATOM     41  C   UNL A   1      44.568  26.654  28.627  1.00  0.00     0.010 A 
ATOM     42  C   UNL A   1      43.440  26.245  29.364  1.00  0.00    -0.014 A 
BRANCH  42  43
ATOM     43  C   UNL A   1      42.804  27.164  30.337  1.00  0.00     0.031 A 
ATOM     44  C   UNL A   1      43.480  27.323  31.677  1.00  0.00     0.074 A 
ATOM     45  C   UNL A   1      41.738  27.917  30.021  1.00  0.00     0.049 A 
ATOM     46  N   UNL A   1      43.143  28.058  32.705  1.00  0.00    -0.248 NA
ATOM     47  C   UNL A   1      44.714  26.544  31.879  1.00  0.00     0.031 C 
ATOM     48  C   UNL A   1      41.056  27.922  28.731  1.00  0.00     0.029 A 
ATOM     49  N   UNL A   1      41.049  28.834  30.774  1.00  0.00    -0.354 N 
ATOM     50  C   UNL A   1      44.108  27.811  33.674  1.00  0.00     0.074 A 
ATOM     51  C   UNL A   1      45.027  26.841  33.128  1.00  0.00     0.031 C 
ATOM     52  C   UNL A   1      40.037  28.798  28.782  1.00  0.00     0.029 A 
ATOM     53  C   UNL A   1      39.977  29.387  30.120  1.00  0.00     0.049 A 
ATOM     54  H   UNL A   1      41.300  29.073  31.695  1.00  0.00     0.167 HD
ATOM     55  C   UNL A   1      44.222  28.350  34.910  1.00  0.00     0.037 A 
ATOM     56  C   UNL A   1      39.046  30.253  30.567  1.00  0.00     0.037 A 
ATOM     57  C   UNL A   1      43.309  29.322  35.447  1.00  0.00     0.049 A 
ATOM     58  C   UNL A   1      39.140  30.769  31.983  1.00  0.00     0.074 A 
ATOM     59  C   UNL A   1      43.336  29.942  36.682  1.00  0.00     0.029 A 
ATOM     60  N   UNL A   1      42.195  29.809  34.777  1.00  0.00    -0.354 N 
ATOM     61  N   UNL A   1      40.055  30.538  32.894  1.00  0.00    -0.248 NA
ATOM     62  C   UNL A   1      38.070  31.672  32.427  1.00  0.00     0.031 C 
ATOM     63  C   UNL A   1      42.200  30.751  36.787  1.00  0.00     0.029 A 
ATOM     64  C   UNL A   1      41.507  30.696  35.587  1.00  0.00     0.049 A 
ATOM     65  H   UNL A   1      41.933  29.560  33.861  1.00  0.00     0.167 HD
ATOM     66  C   UNL A   1      39.693  31.294  34.002  1.00  0.00     0.074 A 
ATOM     67  C   UNL A   1      38.481  32.002  33.643  1.00  0.00     0.031 C 
ATOM     68  C   UNL A   1      40.308  31.400  35.208  1.00  0.00     0.037 A 
BRANCH  55  69
ATOM     69  C   UNL A   1      45.341  27.854  35.781  1.00  0.00     0.064 A 
ATOM     70  C   UNL A   1      46.598  28.478  35.814  1.00  0.00     0.173 A 
ATOM     71  C   UNL A   1      45.148  26.732  36.603  1.00  0.00     0.173 A 
ATOM     72  F   UNL A   1      46.845  29.543  35.036  1.00  0.00    -0.203 F 
ATOM     73  C   UNL A   1      47.628  27.976  36.607  1.00  0.00     0.198 A 
ATOM     74  C   UNL A   1      46.168  26.256  37.422  1.00  0.00     0.198 A 
ATOM     75  F   UNL A   1      43.966  26.096  36.612  1.00  0.00    -0.203 F 
ATOM     76  F   UNL A   1      48.839  28.551  36.574  1.00  0.00    -0.200 F 
ATOM     77  C   UNL A   1      47.410  26.871  37.416  1.00  0.00     0.200 A 
ATOM     78  F   UNL A   1      45.948  25.197  38.214  1.00  0.00    -0.200 F 
ATOM     79  F   UNL A   1      48.399  26.392  38.182  1.00  0.00    -0.200 F 
ENDBRANCH  55  69
BRANCH  56  80
ATOM     80  C   UNL A   1      37.937  30.686  29.674  1.00  0.00     0.064 A 
ATOM     81  C   UNL A   1      37.879  31.994  29.174  1.00  0.00     0.173 A 
ATOM     82  C   UNL A   1      36.897  29.810  29.329  1.00  0.00     0.173 A 
ATOM     83  F   UNL A   1      38.834  32.878  29.498  1.00  0.00    -0.203 F 
ATOM     84  C   UNL A   1      36.814  32.415  28.381  1.00  0.00     0.198 A 
ATOM     85  C   UNL A   1      35.848  30.223  28.509  1.00  0.00     0.198 A 
ATOM     86  F   UNL A   1      36.900  28.549  29.785  1.00  0.00    -0.203 F 
ATOM     87  F   UNL A   1      36.756  33.687  27.961  1.00  0.00    -0.200 F 
ATOM     88  C   UNL A   1      35.803  31.529  28.043  1.00  0.00     0.200 A 
ATOM     89  F   UNL A   1      34.881  29.358  28.176  1.00  0.00    -0.200 F 
ATOM     90  F   UNL A   1      34.780  31.933  27.278  1.00  0.00    -0.200 F 
ENDBRANCH  56  80
BRANCH  68  91
ATOM     91  C   UNL A   1      39.717  32.358  36.205  1.00  0.00     0.064 A 
ATOM     92  C   UNL A   1      40.202  33.665  36.363  1.00  0.00     0.173 A 
ATOM     93  C   UNL A   1      38.625  31.967  36.997  1.00  0.00     0.173 A 
ATOM     94  F   UNL A   1      41.250  34.087  35.639  1.00  0.00    -0.203 F 
ATOM     95  C   UNL A   1      39.644  34.528  37.301  1.00  0.00     0.198 A 
ATOM     96  C   UNL A   1      38.043  32.846  37.905  1.00  0.00     0.198 A 
ATOM     97  F   UNL A   1      38.111  30.733  36.881  1.00  0.00    -0.203 F 
ATOM     98  F   UNL A   1      40.167  35.750  37.479  1.00  0.00    -0.200 F 
ATOM     99  C   UNL A   1      38.562  34.122  38.067  1.00  0.00     0.200 A 
ATOM    100  F   UNL A   1      36.984  32.457  38.630  1.00  0.00    -0.200 F 
ATOM    101  F   UNL A   1      38.023  34.957  38.966  1.00  0.00    -0.200 F 
ENDBRANCH  68  91
ENDBRANCH  42  43
ENDBRANCH  35  37
ENDBRANCH  34  35
ENDBRANCH  33  34
ENDBRANCH  32  33
ENDBRANCH  31  32
ENDBRANCH  30  31
ENDBRANCH  29  30
ENDBRANCH   1  29
TORSDOF 24
ENDMDL
