MODEL 1
REMARK VINA RESULT:      -9.8      0.000      0.000
REMARK SMILES Cc1ccc(C(=O)N2CCC3(CCC(=O)N(CC(=O)OCCOCCOCCOCCOC(=O)c4ccc(-c5c6nc(c(-c7c(F)c(F)c(F)c(F)c7F)c7ccc([nH]7)c(-c7c(F)c(F)c(F)c(F)c7F)c7nc(c(-c8c(F)c(F)c(F)c(F)c8F)c8ccc5[nH]8)C=C7)C=C6)cc4)C3)CC2)cc1O
REMARK SMILES IDX 25 1 24 2 23 3 22 4 21 5 20 6 18 7 19 8 17 9 16 10 6 11 7 12
REMARK SMILES IDX 8 13 9 14 100 15 10 16 99 17 11 18 12 19 98 20 13 21 14 22
REMARK SMILES IDX 15 23 5 24 1 25 2 26 3 27 102 28 4 29 101 30 103 31 26 33
REMARK SMILES IDX 27 34 28 35 29 36 30 37 31 38 32 39 33 40 34 41 35 42 36 43
REMARK SMILES IDX 97 44 37 45 96 46 38 47 39 48 40 49 90 50 41 51 95 52 89 53
REMARK SMILES IDX 91 54 42 55 94 56 88 57 87 58 43 60 75 61 55 62 74 63 56 64
REMARK SMILES IDX 59 65 73 66 92 67 57 68 58 69 72 71 93 72 60 73 44 74 45 75
REMARK SMILES IDX 53 76 46 77 47 78 51 79 54 80 48 81 49 82 52 83 50 84 76 85
REMARK SMILES IDX 77 86 85 87 78 88 79 89 83 90 86 91 80 92 81 93 84 94 82 95
REMARK SMILES IDX 61 96 62 97 70 98 63 99 64 100 68 101 71 102 65 103 66 104
REMARK SMILES IDX 69 105 67 106
REMARK H PARENT 103 32 91 59 59 70
REMARK Flexibility Score: inf
ROOT
ATOM      1  C   UNL A   1      35.769  33.430  29.077  1.00  0.00     0.188 C 
ENDROOT
BRANCH   1   2
ATOM      2  C   UNL A   1      34.909  32.182  28.876  1.00  0.00     0.188 C 
BRANCH   2   3
ATOM      3  O   UNL A   1      35.540  30.948  28.561  1.00  0.00    -0.376 OA
BRANCH   3   4
ATOM      4  C   UNL A   1      34.841  29.966  27.796  1.00  0.00     0.202 C 
BRANCH   4   5
ATOM      5  C   UNL A   1      33.613  30.373  26.946  1.00  0.00     0.261 C 
BRANCH   5   6
ATOM      6  O   UNL A   1      32.879  29.286  26.319  1.00  0.00    -0.462 OA
BRANCH   6   7
ATOM      7  C   UNL A   1      32.127  29.585  25.232  1.00  0.00     0.325 C 
ATOM      8  O   UNL A   1      31.166  30.352  25.261  1.00  0.00    -0.250 OA
BRANCH   7   9
ATOM      9  C   UNL A   1      32.606  28.986  23.882  1.00  0.00     0.242 C 
BRANCH   9  10
ATOM     10  N   UNL A   1      31.836  28.037  23.049  1.00  0.00    -0.331 N 
ATOM     11  C   UNL A   1      32.511  22.711  26.778  1.00  0.00     0.253 C 
ATOM     12  O   UNL A   1      32.160  22.632  27.952  1.00  0.00    -0.269 OA
ATOM     13  N   UNL A   1      31.893  23.569  25.882  1.00  0.00    -0.339 N 
ATOM     14  C   UNL A   1      31.477  24.867  26.369  1.00  0.00     0.120 C 
ATOM     15  C   UNL A   1      31.445  23.192  24.545  1.00  0.00     0.120 C 
ATOM     16  C   UNL A   1      32.027  25.922  25.412  1.00  0.00     0.030 C 
ATOM     17  C   UNL A   1      31.821  24.251  23.508  1.00  0.00     0.030 C 
ATOM     18  C   UNL A   1      31.528  25.707  23.957  1.00  0.00    -0.008 C 
ATOM     19  C   UNL A   1      29.995  25.974  23.880  1.00  0.00     0.019 C 
ATOM     20  C   UNL A   1      32.286  26.660  22.970  1.00  0.00     0.127 C 
ATOM     21  C   UNL A   1      29.695  27.464  24.025  1.00  0.00     0.101 C 
ATOM     22  C   UNL A   1      30.452  28.111  22.889  1.00  0.00     0.223 C 
ATOM     23  O   UNL A   1      29.903  28.268  21.804  1.00  0.00    -0.275 OA
BRANCH  11  24
ATOM     24  C   UNL A   1      33.771  22.039  26.346  1.00  0.00     0.043 A 
ATOM     25  C   UNL A   1      37.387  20.415  24.628  1.00  0.00     0.048 C 
ATOM     26  C   UNL A   1      36.151  20.988  25.254  1.00  0.00    -0.009 A 
ATOM     27  C   UNL A   1      34.929  20.343  25.045  1.00  0.00     0.008 A 
ATOM     28  C   UNL A   1      36.159  22.170  26.005  1.00  0.00     0.119 A 
ATOM     29  C   UNL A   1      33.752  20.880  25.564  1.00  0.00     0.014 A 
ATOM     30  C   UNL A   1      34.988  22.687  26.560  1.00  0.00     0.060 A 
BRANCH  28  31
ATOM     31  O   UNL A   1      37.293  22.902  26.212  1.00  0.00    -0.508 OA
ATOM     32  H   UNL A   1      37.534  23.157  27.082  1.00  0.00     0.293 HD
ENDBRANCH  28  31
ENDBRANCH  11  24
ENDBRANCH   9  10
ENDBRANCH   7   9
ENDBRANCH   6   7
ENDBRANCH   5   6
ENDBRANCH   4   5
ENDBRANCH   3   4
ENDBRANCH   2   3
ENDBRANCH   1   2
BRANCH   1  33
ATOM     33  O   UNL A   1      35.016  34.593  29.329  1.00  0.00    -0.377 OA
BRANCH  33  34
ATOM     34  C   UNL A   1      33.988  34.549  30.301  1.00  0.00     0.188 C 
BRANCH  34  35
ATOM     35  C   UNL A   1      34.373  35.004  31.709  1.00  0.00     0.188 C 
BRANCH  35  36
ATOM     36  O   UNL A   1      35.659  34.548  32.107  1.00  0.00    -0.376 OA
BRANCH  36  37
ATOM     37  C   UNL A   1      35.762  33.439  32.990  1.00  0.00     0.202 C 
BRANCH  37  38
ATOM     38  C   UNL A   1      35.448  32.013  32.498  1.00  0.00     0.261 C 
BRANCH  38  39
ATOM     39  O   UNL A   1      36.369  30.960  32.827  1.00  0.00    -0.460 OA
BRANCH  39  40
ATOM     40  C   UNL A   1      36.907  30.212  31.852  1.00  0.00     0.338 C 
ATOM     41  O   UNL A   1      36.394  29.268  31.271  1.00  0.00    -0.246 OA
BRANCH  40  42
ATOM     42  C   UNL A   1      38.187  30.841  31.460  1.00  0.00     0.060 A 
ATOM     43  C   UNL A   1      38.450  31.070  30.102  1.00  0.00     0.016 A 
ATOM     44  C   UNL A   1      39.132  31.189  32.429  1.00  0.00     0.016 A 
ATOM     45  C   UNL A   1      39.678  31.604  29.706  1.00  0.00     0.010 A 
ATOM     46  C   UNL A   1      40.369  31.700  32.029  1.00  0.00     0.010 A 
ATOM     47  C   UNL A   1      40.662  31.873  30.664  1.00  0.00    -0.014 A 
BRANCH  47  48
ATOM     48  C   UNL A   1      42.063  32.130  30.248  1.00  0.00     0.031 A 
ATOM     49  C   UNL A   1      42.521  33.561  30.155  1.00  0.00     0.074 A 
ATOM     50  C   UNL A   1      42.909  31.130  29.948  1.00  0.00     0.049 A 
ATOM     51  N   UNL A   1      43.637  34.053  29.686  1.00  0.00    -0.248 NA
ATOM     52  C   UNL A   1      41.579  34.577  30.655  1.00  0.00     0.031 C 
ATOM     53  C   UNL A   1      42.608  29.706  30.058  1.00  0.00     0.029 A 
ATOM     54  N   UNL A   1      44.196  31.167  29.466  1.00  0.00    -0.354 N 
ATOM     55  C   UNL A   1      43.524  35.431  29.814  1.00  0.00     0.074 A 
ATOM     56  C   UNL A   1      42.223  35.701  30.385  1.00  0.00     0.031 C 
ATOM     57  C   UNL A   1      43.670  29.002  29.629  1.00  0.00     0.029 A 
ATOM     58  C   UNL A   1      44.707  29.928  29.170  1.00  0.00     0.049 A 
ATOM     59  H   UNL A   1      44.702  32.003  29.344  1.00  0.00     0.167 HD
ATOM     60  C   UNL A   1      44.427  36.385  29.486  1.00  0.00     0.037 A 
ATOM     61  C   UNL A   1      45.859  29.586  28.561  1.00  0.00     0.037 A 
ATOM     62  C   UNL A   1      45.720  36.107  28.919  1.00  0.00     0.049 A 
ATOM     63  C   UNL A   1      46.814  30.671  28.123  1.00  0.00     0.074 A 
ATOM     64  C   UNL A   1      46.714  37.002  28.562  1.00  0.00     0.029 A 
ATOM     65  N   UNL A   1      46.194  34.840  28.618  1.00  0.00    -0.354 N 
ATOM     66  N   UNL A   1      46.708  31.972  28.252  1.00  0.00    -0.248 NA
ATOM     67  C   UNL A   1      48.049  30.241  27.449  1.00  0.00     0.031 C 
ATOM     68  C   UNL A   1      47.761  36.279  27.984  1.00  0.00     0.029 A 
ATOM     69  C   UNL A   1      47.454  34.929  28.053  1.00  0.00     0.049 A 
ATOM     70  H   UNL A   1      45.705  34.000  28.782  1.00  0.00     0.167 HD
ATOM     71  C   UNL A   1      47.876  32.509  27.724  1.00  0.00     0.074 A 
ATOM     72  C   UNL A   1      48.678  31.394  27.268  1.00  0.00     0.031 C 
ATOM     73  C   UNL A   1      48.253  33.807  27.632  1.00  0.00     0.037 A 
BRANCH  60  74
ATOM     74  C   UNL A   1      44.035  37.819  29.691  1.00  0.00     0.064 A 
ATOM     75  C   UNL A   1      44.265  38.485  30.904  1.00  0.00     0.173 A 
ATOM     76  C   UNL A   1      43.458  38.550  28.641  1.00  0.00     0.173 A 
ATOM     77  F   UNL A   1      44.801  37.830  31.944  1.00  0.00    -0.203 F 
ATOM     78  C   UNL A   1      43.909  39.823  31.066  1.00  0.00     0.198 A 
ATOM     79  C   UNL A   1      43.136  39.896  28.794  1.00  0.00     0.198 A 
ATOM     80  F   UNL A   1      43.219  37.963  27.459  1.00  0.00    -0.203 F 
ATOM     81  F   UNL A   1      44.095  40.426  32.248  1.00  0.00    -0.200 F 
ATOM     82  C   UNL A   1      43.355  40.529  30.008  1.00  0.00     0.200 A 
ATOM     83  F   UNL A   1      42.616  40.580  27.766  1.00  0.00    -0.200 F 
ATOM     84  F   UNL A   1      43.026  41.819  30.161  1.00  0.00    -0.200 F 
ENDBRANCH  60  74
BRANCH  61  85
ATOM     85  C   UNL A   1      46.171  28.154  28.299  1.00  0.00     0.064 A 
ATOM     86  C   UNL A   1      45.725  27.516  27.133  1.00  0.00     0.173 A 
ATOM     87  C   UNL A   1      46.895  27.385  29.224  1.00  0.00     0.173 A 
ATOM     88  F   UNL A   1      45.005  28.198  26.230  1.00  0.00    -0.203 F 
ATOM     89  C   UNL A   1      45.968  26.161  26.914  1.00  0.00     0.198 A 
ATOM     90  C   UNL A   1      47.167  26.039  28.988  1.00  0.00     0.198 A 
ATOM     91  F   UNL A   1      47.342  27.943  30.360  1.00  0.00    -0.203 F 
ATOM     92  F   UNL A   1      45.479  25.563  25.819  1.00  0.00    -0.200 F 
ATOM     93  C   UNL A   1      46.694  25.425  27.839  1.00  0.00     0.200 A 
ATOM     94  F   UNL A   1      47.880  25.336  29.879  1.00  0.00    -0.200 F 
ATOM     95  F   UNL A   1      46.928  24.123  27.629  1.00  0.00    -0.200 F 
ENDBRANCH  61  85
BRANCH  73  96
ATOM     96  C   UNL A   1      49.622  34.107  27.088  1.00  0.00     0.064 A 
ATOM     97  C   UNL A   1      50.780  33.973  27.866  1.00  0.00     0.173 A 
ATOM     98  C   UNL A   1      49.776  34.454  25.736  1.00  0.00     0.173 A 
ATOM     99  F   UNL A   1      50.688  33.656  29.166  1.00  0.00    -0.203 F 
ATOM    100  C   UNL A   1      52.041  34.190  27.315  1.00  0.00     0.198 A 
ATOM    101  C   UNL A   1      51.039  34.638  25.180  1.00  0.00     0.198 A 
ATOM    102  F   UNL A   1      48.701  34.587  24.945  1.00  0.00    -0.203 F 
ATOM    103  F   UNL A   1      53.133  34.093  28.086  1.00  0.00    -0.200 F 
ATOM    104  C   UNL A   1      52.170  34.509  25.971  1.00  0.00     0.200 A 
ATOM    105  F   UNL A   1      51.161  34.926  23.877  1.00  0.00    -0.200 F 
ATOM    106  F   UNL A   1      53.386  34.697  25.438  1.00  0.00    -0.200 F 
ENDBRANCH  73  96
ENDBRANCH  47  48
ENDBRANCH  40  42
ENDBRANCH  39  40
ENDBRANCH  38  39
ENDBRANCH  37  38
ENDBRANCH  36  37
ENDBRANCH  35  36
ENDBRANCH  34  35
ENDBRANCH  33  34
ENDBRANCH   1  33
TORSDOF 23
ENDMDL
MODEL 2
REMARK VINA RESULT:      -9.6      2.005      3.096
REMARK SMILES Cc1ccc(C(=O)N2CCC3(CCC(=O)N(CC(=O)OCCOCCOCCOCCOC(=O)c4ccc(-c5c6nc(c(-c7c(F)c(F)c(F)c(F)c7F)c7ccc([nH]7)c(-c7c(F)c(F)c(F)c(F)c7F)c7nc(c(-c8c(F)c(F)c(F)c(F)c8F)c8ccc5[nH]8)C=C7)C=C6)cc4)C3)CC2)cc1O
REMARK SMILES IDX 25 1 24 2 23 3 22 4 21 5 20 6 18 7 19 8 17 9 16 10 6 11 7 12
REMARK SMILES IDX 8 13 9 14 100 15 10 16 99 17 11 18 12 19 98 20 13 21 14 22
REMARK SMILES IDX 15 23 5 24 1 25 2 26 3 27 102 28 4 29 101 30 103 31 26 33
REMARK SMILES IDX 27 34 28 35 29 36 30 37 31 38 32 39 33 40 34 41 35 42 36 43
REMARK SMILES IDX 97 44 37 45 96 46 38 47 39 48 40 49 90 50 41 51 95 52 89 53
REMARK SMILES IDX 91 54 42 55 94 56 88 57 87 58 43 60 75 61 55 62 74 63 56 64
REMARK SMILES IDX 59 65 73 66 92 67 57 68 58 69 72 71 93 72 60 73 44 74 45 75
REMARK SMILES IDX 53 76 46 77 47 78 51 79 54 80 48 81 49 82 52 83 50 84 76 85
REMARK SMILES IDX 77 86 85 87 78 88 79 89 83 90 86 91 80 92 81 93 84 94 82 95
REMARK SMILES IDX 61 96 62 97 70 98 63 99 64 100 68 101 71 102 65 103 66 104
REMARK SMILES IDX 69 105 67 106
REMARK H PARENT 103 32 91 59 59 70
REMARK Flexibility Score: inf
ROOT
ATOM      1  C   UNL A   1      35.599  32.693  30.676  1.00  0.00     0.188 C 
ENDROOT
BRANCH   1   2
ATOM      2  C   UNL A   1      35.615  33.395  29.318  1.00  0.00     0.188 C 
BRANCH   2   3
ATOM      3  O   UNL A   1      34.748  32.937  28.289  1.00  0.00    -0.376 OA
BRANCH   3   4
ATOM      4  C   UNL A   1      34.442  31.546  28.183  1.00  0.00     0.202 C 
BRANCH   4   5
ATOM      5  C   UNL A   1      33.346  31.066  27.201  1.00  0.00     0.261 C 
BRANCH   5   6
ATOM      6  O   UNL A   1      33.633  29.843  26.468  1.00  0.00    -0.462 OA
BRANCH   6   7
ATOM      7  C   UNL A   1      32.711  28.853  26.518  1.00  0.00     0.325 C 
ATOM      8  O   UNL A   1      32.694  27.984  27.389  1.00  0.00    -0.250 OA
BRANCH   7   9
ATOM      9  C   UNL A   1      31.574  28.921  25.463  1.00  0.00     0.242 C 
BRANCH   9  10
ATOM     10  N   UNL A   1      31.686  28.469  24.059  1.00  0.00    -0.331 N 
ATOM     11  C   UNL A   1      32.239  22.049  25.153  1.00  0.00     0.253 C 
ATOM     12  O   UNL A   1      31.412  21.370  25.756  1.00  0.00    -0.269 OA
ATOM     13  N   UNL A   1      31.885  23.198  24.463  1.00  0.00    -0.339 N 
ATOM     14  C   UNL A   1      30.869  24.047  25.047  1.00  0.00     0.120 C 
ATOM     15  C   UNL A   1      32.305  23.513  23.102  1.00  0.00     0.120 C 
ATOM     16  C   UNL A   1      31.414  25.473  25.079  1.00  0.00     0.030 C 
ATOM     17  C   UNL A   1      32.749  24.971  22.975  1.00  0.00     0.030 C 
ATOM     18  C   UNL A   1      31.795  25.984  23.662  1.00  0.00    -0.008 C 
ATOM     19  C   UNL A   1      30.510  26.153  22.799  1.00  0.00     0.019 C 
ATOM     20  C   UNL A   1      32.559  27.350  23.758  1.00  0.00     0.127 C 
ATOM     21  C   UNL A   1      29.688  27.347  23.278  1.00  0.00     0.101 C 
ATOM     22  C   UNL A   1      30.627  28.523  23.153  1.00  0.00     0.223 C 
ATOM     23  O   UNL A   1      30.660  29.167  22.110  1.00  0.00    -0.275 OA
BRANCH  11  24
ATOM     24  C   UNL A   1      33.692  21.767  25.340  1.00  0.00     0.043 A 
ATOM     25  C   UNL A   1      37.979  21.230  25.394  1.00  0.00     0.048 C 
ATOM     26  C   UNL A   1      36.493  21.432  25.408  1.00  0.00    -0.009 A 
ATOM     27  C   UNL A   1      35.673  20.443  24.858  1.00  0.00     0.008 A 
ATOM     28  C   UNL A   1      35.890  22.593  25.909  1.00  0.00     0.119 A 
ATOM     29  C   UNL A   1      34.292  20.624  24.803  1.00  0.00     0.014 A 
ATOM     30  C   UNL A   1      34.505  22.759  25.892  1.00  0.00     0.060 A 
BRANCH  28  31
ATOM     31  O   UNL A   1      36.611  23.639  26.409  1.00  0.00    -0.508 OA
ATOM     32  H   UNL A   1      37.533  23.546  26.553  1.00  0.00     0.293 HD
ENDBRANCH  28  31
ENDBRANCH  11  24
ENDBRANCH   9  10
ENDBRANCH   7   9
ENDBRANCH   6   7
ENDBRANCH   5   6
ENDBRANCH   4   5
ENDBRANCH   3   4
ENDBRANCH   2   3
ENDBRANCH   1   2
BRANCH   1  33
ATOM     33  O   UNL A   1      36.843  32.134  31.030  1.00  0.00    -0.377 OA
BRANCH  33  34
ATOM     34  C   UNL A   1      37.984  32.452  30.257  1.00  0.00     0.188 C 
BRANCH  34  35
ATOM     35  C   UNL A   1      38.697  31.275  29.592  1.00  0.00     0.188 C 
BRANCH  35  36
ATOM     36  O   UNL A   1      37.810  30.414  28.890  1.00  0.00    -0.376 OA
BRANCH  36  37
ATOM     37  C   UNL A   1      37.444  29.170  29.470  1.00  0.00     0.202 C 
BRANCH  37  38
ATOM     38  C   UNL A   1      38.072  28.708  30.799  1.00  0.00     0.261 C 
BRANCH  38  39
ATOM     39  O   UNL A   1      38.914  27.544  30.788  1.00  0.00    -0.460 OA
BRANCH  39  40
ATOM     40  C   UNL A   1      39.594  27.220  29.678  1.00  0.00     0.338 C 
ATOM     41  O   UNL A   1      39.327  26.341  28.873  1.00  0.00    -0.246 OA
BRANCH  40  42
ATOM     42  C   UNL A   1      40.646  28.241  29.485  1.00  0.00     0.060 A 
ATOM     43  C   UNL A   1      40.902  28.726  28.195  1.00  0.00     0.016 A 
ATOM     44  C   UNL A   1      41.391  28.705  30.572  1.00  0.00     0.016 A 
ATOM     45  C   UNL A   1      41.934  29.642  27.981  1.00  0.00     0.010 A 
ATOM     46  C   UNL A   1      42.439  29.603  30.353  1.00  0.00     0.010 A 
ATOM     47  C   UNL A   1      42.740  30.045  29.052  1.00  0.00    -0.014 A 
BRANCH  47  48
ATOM     48  C   UNL A   1      44.021  30.751  28.802  1.00  0.00     0.031 A 
ATOM     49  C   UNL A   1      43.998  32.256  28.748  1.00  0.00     0.074 A 
ATOM     50  C   UNL A   1      45.174  30.086  28.616  1.00  0.00     0.049 A 
ATOM     51  N   UNL A   1      44.942  33.094  28.409  1.00  0.00    -0.248 NA
ATOM     52  C   UNL A   1      42.728  32.899  29.122  1.00  0.00     0.031 C 
ATOM     53  C   UNL A   1      45.339  28.638  28.705  1.00  0.00     0.029 A 
ATOM     54  N   UNL A   1      46.426  30.550  28.289  1.00  0.00    -0.354 N 
ATOM     55  C   UNL A   1      44.376  34.358  28.507  1.00  0.00     0.074 A 
ATOM     56  C   UNL A   1      43.000  34.178  28.917  1.00  0.00     0.031 C 
ATOM     57  C   UNL A   1      46.613  28.327  28.413  1.00  0.00     0.029 A 
ATOM     58  C   UNL A   1      47.341  29.550  28.070  1.00  0.00     0.049 A 
ATOM     59  H   UNL A   1      46.645  31.507  28.219  1.00  0.00     0.167 HD
ATOM     60  C   UNL A   1      44.953  35.561  28.278  1.00  0.00     0.037 A 
ATOM     61  C   UNL A   1      48.604  29.615  27.606  1.00  0.00     0.037 A 
ATOM     62  C   UNL A   1      46.322  35.731  27.871  1.00  0.00     0.049 A 
ATOM     63  C   UNL A   1      49.200  30.962  27.271  1.00  0.00     0.074 A 
ATOM     64  C   UNL A   1      47.008  36.907  27.625  1.00  0.00     0.029 A 
ATOM     65  N   UNL A   1      47.212  34.692  27.643  1.00  0.00    -0.354 N 
ATOM     66  N   UNL A   1      48.665  32.155  27.373  1.00  0.00    -0.248 NA
ATOM     67  C   UNL A   1      50.578  30.972  26.753  1.00  0.00     0.031 C 
ATOM     68  C   UNL A   1      48.292  36.578  27.183  1.00  0.00     0.029 A 
ATOM     69  C   UNL A   1      48.432  35.199  27.230  1.00  0.00     0.049 A 
ATOM     70  H   UNL A   1      47.006  33.736  27.757  1.00  0.00     0.167 HD
ATOM     71  C   UNL A   1      49.650  33.055  26.980  1.00  0.00     0.074 A 
ATOM     72  C   UNL A   1      50.816  32.271  26.635  1.00  0.00     0.031 C 
ATOM     73  C   UNL A   1      49.595  34.407  26.919  1.00  0.00     0.037 A 
BRANCH  60  74
ATOM     74  C   UNL A   1      44.097  36.786  28.419  1.00  0.00     0.064 A 
ATOM     75  C   UNL A   1      44.174  37.620  29.545  1.00  0.00     0.173 A 
ATOM     76  C   UNL A   1      43.215  37.153  27.391  1.00  0.00     0.173 A 
ATOM     77  F   UNL A   1      44.991  37.308  30.562  1.00  0.00    -0.203 F 
ATOM     78  C   UNL A   1      43.383  38.762  29.645  1.00  0.00     0.198 A 
ATOM     79  C   UNL A   1      42.451  38.314  27.479  1.00  0.00     0.198 A 
ATOM     80  F   UNL A   1      43.104  36.392  26.291  1.00  0.00    -0.203 F 
ATOM     81  F   UNL A   1      43.440  39.519  30.750  1.00  0.00    -0.200 F 
ATOM     82  C   UNL A   1      42.530  39.113  28.609  1.00  0.00     0.200 A 
ATOM     83  F   UNL A   1      41.641  38.658  26.469  1.00  0.00    -0.200 F 
ATOM     84  F   UNL A   1      41.780  40.220  28.702  1.00  0.00    -0.200 F 
ENDBRANCH  60  74
BRANCH  61  85
ATOM     85  C   UNL A   1      49.391  28.368  27.398  1.00  0.00     0.064 A 
ATOM     86  C   UNL A   1      50.279  27.900  28.376  1.00  0.00     0.173 A 
ATOM     87  C   UNL A   1      49.295  27.637  26.203  1.00  0.00     0.173 A 
ATOM     88  F   UNL A   1      50.430  28.577  29.524  1.00  0.00    -0.203 F 
ATOM     89  C   UNL A   1      51.058  26.764  28.158  1.00  0.00     0.198 A 
ATOM     90  C   UNL A   1      50.048  26.483  26.001  1.00  0.00     0.198 A 
ATOM     91  F   UNL A   1      48.464  28.043  25.231  1.00  0.00    -0.203 F 
ATOM     92  F   UNL A   1      51.942  26.373  29.086  1.00  0.00    -0.200 F 
ATOM     93  C   UNL A   1      50.937  26.053  26.974  1.00  0.00     0.200 A 
ATOM     94  F   UNL A   1      49.918  25.793  24.860  1.00  0.00    -0.200 F 
ATOM     95  F   UNL A   1      51.686  24.962  26.764  1.00  0.00    -0.200 F 
ENDBRANCH  61  85
BRANCH  73  96
ATOM     96  C   UNL A   1      50.845  35.147  26.537  1.00  0.00     0.064 A 
ATOM     97  C   UNL A   1      51.081  35.588  25.228  1.00  0.00     0.173 A 
ATOM     98  C   UNL A   1      51.784  35.491  27.525  1.00  0.00     0.173 A 
ATOM     99  F   UNL A   1      50.223  35.277  24.245  1.00  0.00    -0.203 F 
ATOM    100  C   UNL A   1      52.217  36.334  24.918  1.00  0.00     0.198 A 
ATOM    101  C   UNL A   1      52.900  36.264  27.218  1.00  0.00     0.198 A 
ATOM    102  F   UNL A   1      51.602  35.102  28.795  1.00  0.00    -0.203 F 
ATOM    103  F   UNL A   1      52.442  36.714  23.652  1.00  0.00    -0.200 F 
ATOM    104  C   UNL A   1      53.118  36.681  25.914  1.00  0.00     0.200 A 
ATOM    105  F   UNL A   1      53.757  36.615  28.186  1.00  0.00    -0.200 F 
ATOM    106  F   UNL A   1      54.199  37.416  25.617  1.00  0.00    -0.200 F 
ENDBRANCH  73  96
ENDBRANCH  47  48
ENDBRANCH  40  42
ENDBRANCH  39  40
ENDBRANCH  38  39
ENDBRANCH  37  38
ENDBRANCH  36  37
ENDBRANCH  35  36
ENDBRANCH  34  35
ENDBRANCH  33  34
ENDBRANCH   1  33
TORSDOF 23
ENDMDL
MODEL 3
REMARK VINA RESULT:      -9.3      8.227     10.501
REMARK SMILES Cc1ccc(C(=O)N2CCC3(CCC(=O)N(CC(=O)OCCOCCOCCOCCOC(=O)c4ccc(-c5c6nc(c(-c7c(F)c(F)c(F)c(F)c7F)c7ccc([nH]7)c(-c7c(F)c(F)c(F)c(F)c7F)c7nc(c(-c8c(F)c(F)c(F)c(F)c8F)c8ccc5[nH]8)C=C7)C=C6)cc4)C3)CC2)cc1O
REMARK SMILES IDX 25 1 24 2 23 3 22 4 21 5 20 6 18 7 19 8 17 9 16 10 6 11 7 12
REMARK SMILES IDX 8 13 9 14 100 15 10 16 99 17 11 18 12 19 98 20 13 21 14 22
REMARK SMILES IDX 15 23 5 24 1 25 2 26 3 27 102 28 4 29 101 30 103 31 26 33
REMARK SMILES IDX 27 34 28 35 29 36 30 37 31 38 32 39 33 40 34 41 35 42 36 43
REMARK SMILES IDX 97 44 37 45 96 46 38 47 39 48 40 49 90 50 41 51 95 52 89 53
REMARK SMILES IDX 91 54 42 55 94 56 88 57 87 58 43 60 75 61 55 62 74 63 56 64
REMARK SMILES IDX 59 65 73 66 92 67 57 68 58 69 72 71 93 72 60 73 44 74 45 75
REMARK SMILES IDX 53 76 46 77 47 78 51 79 54 80 48 81 49 82 52 83 50 84 76 85
REMARK SMILES IDX 77 86 85 87 78 88 79 89 83 90 86 91 80 92 81 93 84 94 82 95
REMARK SMILES IDX 61 96 62 97 70 98 63 99 64 100 68 101 71 102 65 103 66 104
REMARK SMILES IDX 69 105 67 106
REMARK H PARENT 103 32 91 59 59 70
REMARK Flexibility Score: inf
ROOT
ATOM      1  C   UNL A   1      34.838  34.467  29.275  1.00  0.00     0.188 C 
ENDROOT
BRANCH   1   2
ATOM      2  C   UNL A   1      34.254  33.204  28.641  1.00  0.00     0.188 C 
BRANCH   2   3
ATOM      3  O   UNL A   1      35.129  32.154  28.253  1.00  0.00    -0.376 OA
BRANCH   3   4
ATOM      4  C   UNL A   1      34.595  30.886  27.869  1.00  0.00     0.202 C 
BRANCH   4   5
ATOM      5  C   UNL A   1      33.202  30.802  27.200  1.00  0.00     0.261 C 
BRANCH   5   6
ATOM      6  O   UNL A   1      32.953  29.624  26.384  1.00  0.00    -0.462 OA
BRANCH   6   7
ATOM      7  C   UNL A   1      32.224  29.790  25.254  1.00  0.00     0.325 C 
ATOM      8  O   UNL A   1      31.230  30.511  25.187  1.00  0.00    -0.250 OA
BRANCH   7   9
ATOM      9  C   UNL A   1      32.773  29.096  23.978  1.00  0.00     0.242 C 
BRANCH   9  10
ATOM     10  N   UNL A   1      31.990  28.217  23.082  1.00  0.00    -0.331 N 
ATOM     11  C   UNL A   1      32.825  22.584  26.289  1.00  0.00     0.253 C 
ATOM     12  O   UNL A   1      32.506  22.393  27.461  1.00  0.00    -0.269 OA
ATOM     13  N   UNL A   1      32.173  23.511  25.492  1.00  0.00    -0.339 N 
ATOM     14  C   UNL A   1      31.756  24.753  26.106  1.00  0.00     0.120 C 
ATOM     15  C   UNL A   1      31.693  23.252  24.139  1.00  0.00     0.120 C 
ATOM     16  C   UNL A   1      32.269  25.899  25.236  1.00  0.00     0.030 C 
ATOM     17  C   UNL A   1      32.029  24.406  23.193  1.00  0.00     0.030 C 
ATOM     18  C   UNL A   1      31.732  25.811  23.781  1.00  0.00    -0.008 C 
ATOM     19  C   UNL A   1      30.195  26.063  23.769  1.00  0.00     0.019 C 
ATOM     20  C   UNL A   1      32.453  26.859  22.865  1.00  0.00     0.127 C 
ATOM     21  C   UNL A   1      29.883  27.530  24.057  1.00  0.00     0.101 C 
ATOM     22  C   UNL A   1      30.602  28.287  22.966  1.00  0.00     0.223 C 
ATOM     23  O   UNL A   1      30.022  28.536  21.915  1.00  0.00    -0.275 OA
BRANCH  11  24
ATOM     24  C   UNL A   1      34.079  21.970  25.765  1.00  0.00     0.043 A 
ATOM     25  C   UNL A   1      37.785  19.986  24.768  1.00  0.00     0.048 C 
ATOM     26  C   UNL A   1      36.482  20.657  25.087  1.00  0.00    -0.009 A 
ATOM     27  C   UNL A   1      36.493  21.999  25.476  1.00  0.00     0.008 A 
ATOM     28  C   UNL A   1      35.255  19.982  25.055  1.00  0.00     0.119 A 
ATOM     29  C   UNL A   1      35.306  22.636  25.835  1.00  0.00     0.014 A 
ATOM     30  C   UNL A   1      34.061  20.630  25.374  1.00  0.00     0.060 A 
BRANCH  28  31
ATOM     31  O   UNL A   1      35.151  18.656  24.746  1.00  0.00    -0.508 OA
ATOM     32  H   UNL A   1      35.903  18.187  24.440  1.00  0.00     0.293 HD
ENDBRANCH  28  31
ENDBRANCH  11  24
ENDBRANCH   9  10
ENDBRANCH   7   9
ENDBRANCH   6   7
ENDBRANCH   5   6
ENDBRANCH   4   5
ENDBRANCH   3   4
ENDBRANCH   2   3
ENDBRANCH   1   2
BRANCH   1  33
ATOM     33  O   UNL A   1      33.874  35.462  29.526  1.00  0.00    -0.377 OA
BRANCH  33  34
ATOM     34  C   UNL A   1      33.134  35.414  30.731  1.00  0.00     0.188 C 
BRANCH  34  35
ATOM     35  C   UNL A   1      33.407  36.534  31.735  1.00  0.00     0.188 C 
BRANCH  35  36
ATOM     36  O   UNL A   1      34.593  36.325  32.489  1.00  0.00    -0.376 OA
BRANCH  36  37
ATOM     37  C   UNL A   1      34.532  35.558  33.684  1.00  0.00     0.202 C 
BRANCH  37  38
ATOM     38  C   UNL A   1      35.090  34.121  33.723  1.00  0.00     0.261 C 
BRANCH  38  39
ATOM     39  O   UNL A   1      35.636  33.635  34.959  1.00  0.00    -0.460 OA
BRANCH  39  40
ATOM     40  C   UNL A   1      36.813  32.991  34.964  1.00  0.00     0.338 C 
ATOM     41  O   UNL A   1      37.168  32.087  34.224  1.00  0.00    -0.246 OA
BRANCH  40  42
ATOM     42  C   UNL A   1      37.701  33.689  35.919  1.00  0.00     0.060 A 
ATOM     43  C   UNL A   1      38.630  34.621  35.435  1.00  0.00     0.016 A 
ATOM     44  C   UNL A   1      37.629  33.412  37.286  1.00  0.00     0.016 A 
ATOM     45  C   UNL A   1      39.521  35.244  36.311  1.00  0.00     0.010 A 
ATOM     46  C   UNL A   1      38.536  34.018  38.158  1.00  0.00     0.010 A 
ATOM     47  C   UNL A   1      39.512  34.906  37.670  1.00  0.00    -0.014 A 
BRANCH  47  48
ATOM     48  C   UNL A   1      40.639  35.303  38.548  1.00  0.00     0.031 A 
ATOM     49  C   UNL A   1      40.514  36.590  39.319  1.00  0.00     0.074 A 
ATOM     50  C   UNL A   1      41.752  34.557  38.657  1.00  0.00     0.049 A 
ATOM     51  N   UNL A   1      41.404  37.225  40.037  1.00  0.00    -0.248 NA
ATOM     52  C   UNL A   1      39.201  37.255  39.262  1.00  0.00     0.031 C 
ATOM     53  C   UNL A   1      41.969  33.265  38.013  1.00  0.00     0.029 A 
ATOM     54  N   UNL A   1      42.921  34.797  39.338  1.00  0.00    -0.354 N 
ATOM     55  C   UNL A   1      40.767  38.369  40.498  1.00  0.00     0.074 A 
ATOM     56  C   UNL A   1      39.424  38.355  39.963  1.00  0.00     0.031 C 
ATOM     57  C   UNL A   1      43.209  32.836  38.307  1.00  0.00     0.029 A 
ATOM     58  C   UNL A   1      43.887  33.846  39.120  1.00  0.00     0.049 A 
ATOM     59  H   UNL A   1      43.053  35.576  39.924  1.00  0.00     0.167 HD
ATOM     60  C   UNL A   1      41.261  39.344  41.298  1.00  0.00     0.037 A 
ATOM     61  C   UNL A   1      45.181  33.818  39.498  1.00  0.00     0.037 A 
ATOM     62  C   UNL A   1      42.598  39.349  41.827  1.00  0.00     0.049 A 
ATOM     63  C   UNL A   1      45.735  34.960  40.317  1.00  0.00     0.074 A 
ATOM     64  C   UNL A   1      43.193  40.284  42.657  1.00  0.00     0.029 A 
ATOM     65  N   UNL A   1      43.553  38.377  41.569  1.00  0.00    -0.354 N 
ATOM     66  N   UNL A   1      45.130  36.037  40.758  1.00  0.00    -0.248 NA
ATOM     67  C   UNL A   1      47.157  34.885  40.689  1.00  0.00     0.031 C 
ATOM     68  C   UNL A   1      44.526  39.911  42.846  1.00  0.00     0.029 A 
ATOM     69  C   UNL A   1      44.741  38.703  42.200  1.00  0.00     0.049 A 
ATOM     70  H   UNL A   1      43.407  37.574  41.018  1.00  0.00     0.167 HD
ATOM     71  C   UNL A   1      46.077  36.738  41.494  1.00  0.00     0.074 A 
ATOM     72  C   UNL A   1      47.301  35.968  41.440  1.00  0.00     0.031 C 
ATOM     73  C   UNL A   1      45.943  37.910  42.162  1.00  0.00     0.037 A 
BRANCH  60  74
ATOM     74  C   UNL A   1      40.366  40.507  41.617  1.00  0.00     0.064 A 
ATOM     75  C   UNL A   1      39.600  40.553  42.791  1.00  0.00     0.173 A 
ATOM     76  C   UNL A   1      40.309  41.611  40.753  1.00  0.00     0.173 A 
ATOM     77  F   UNL A   1      39.607  39.518  43.644  1.00  0.00    -0.203 F 
ATOM     78  C   UNL A   1      38.791  41.651  43.076  1.00  0.00     0.198 A 
ATOM     79  C   UNL A   1      39.527  42.722  41.058  1.00  0.00     0.198 A 
ATOM     80  F   UNL A   1      41.025  41.620  39.618  1.00  0.00    -0.203 F 
ATOM     81  F   UNL A   1      38.031  41.654  44.179  1.00  0.00    -0.200 F 
ATOM     82  C   UNL A   1      38.763  42.738  42.214  1.00  0.00     0.200 A 
ATOM     83  F   UNL A   1      39.515  43.777  40.232  1.00  0.00    -0.200 F 
ATOM     84  F   UNL A   1      37.994  43.799  42.496  1.00  0.00    -0.200 F 
ENDBRANCH  60  74
BRANCH  61  85
ATOM     85  C   UNL A   1      46.057  32.688  39.088  1.00  0.00     0.064 A 
ATOM     86  C   UNL A   1      46.214  31.558  39.903  1.00  0.00     0.173 A 
ATOM     87  C   UNL A   1      46.781  32.727  37.886  1.00  0.00     0.173 A 
ATOM     88  F   UNL A   1      45.567  31.483  41.076  1.00  0.00    -0.203 F 
ATOM     89  C   UNL A   1      47.079  30.525  39.546  1.00  0.00     0.198 A 
ATOM     90  C   UNL A   1      47.619  31.678  37.513  1.00  0.00     0.198 A 
ATOM     91  F   UNL A   1      46.673  33.786  37.069  1.00  0.00    -0.203 F 
ATOM     92  F   UNL A   1      47.256  29.485  40.373  1.00  0.00    -0.200 F 
ATOM     93  C   UNL A   1      47.776  30.583  38.348  1.00  0.00     0.200 A 
ATOM     94  F   UNL A   1      48.280  31.733  36.349  1.00  0.00    -0.200 F 
ATOM     95  F   UNL A   1      48.608  29.590  38.004  1.00  0.00    -0.200 F 
ENDBRANCH  61  85
BRANCH  73  96
ATOM     96  C   UNL A   1      47.117  38.408  42.956  1.00  0.00     0.064 A 
ATOM     97  C   UNL A   1      48.043  39.319  42.428  1.00  0.00     0.173 A 
ATOM     98  C   UNL A   1      47.266  38.025  44.299  1.00  0.00     0.173 A 
ATOM     99  F   UNL A   1      47.953  39.708  41.148  1.00  0.00    -0.203 F 
ATOM    100  C   UNL A   1      49.082  39.818  43.211  1.00  0.00     0.198 A 
ATOM    101  C   UNL A   1      48.285  38.551  45.088  1.00  0.00     0.198 A 
ATOM    102  F   UNL A   1      46.403  37.162  44.856  1.00  0.00    -0.203 F 
ATOM    103  F   UNL A   1      49.977  40.659  42.676  1.00  0.00    -0.200 F 
ATOM    104  C   UNL A   1      49.195  39.443  44.542  1.00  0.00     0.200 A 
ATOM    105  F   UNL A   1      48.380  38.202  46.379  1.00  0.00    -0.200 F 
ATOM    106  F   UNL A   1      50.183  39.940  45.299  1.00  0.00    -0.200 F 
ENDBRANCH  73  96
ENDBRANCH  47  48
ENDBRANCH  40  42
ENDBRANCH  39  40
ENDBRANCH  38  39
ENDBRANCH  37  38
ENDBRANCH  36  37
ENDBRANCH  35  36
ENDBRANCH  34  35
ENDBRANCH  33  34
ENDBRANCH   1  33
TORSDOF 23
ENDMDL
