MODEL 1
REMARK VINA RESULT:     -10.8      0.000      0.000
REMARK SMILES CCc1cc(OC(F)(F)F)cc2c1O[C@@H](C(F)(F)F)C(C(=O)OCCOCCOCCOCCOC(=O)c1ccc(-c3c4nc(c(-c5c(F)c(F)c(F)c(F)c5F)c5ccc([nH]5)c(-c5c(F)c(F)c(F)c(F)c5F)c5nc(c(-c6c(F)c(F)c(F)c(F)c6F)c6ccc3[nH]6)C=C5)C=C4)cc1)=C2
REMARK SMILES IDX 29 1 28 2 27 3 26 4 25 5 24 6 23 7 21 8 22 9 20 10 3 11 4 12
REMARK SMILES IDX 13 13 5 14 12 15 14 16 11 17 101 18 15 19 2 20 1 21 6 22
REMARK SMILES IDX 7 23 8 24 9 25 10 26 16 27 17 28 18 29 19 30 30 31 31 32
REMARK SMILES IDX 32 33 33 34 34 35 35 36 36 37 37 38 38 39 39 40 100 41 40 42
REMARK SMILES IDX 99 43 41 44 42 45 43 46 93 47 44 48 98 49 92 50 94 51 45 52
REMARK SMILES IDX 97 53 91 54 90 55 46 57 78 58 58 59 77 60 59 61 62 62 76 63
REMARK SMILES IDX 95 64 60 65 61 66 75 68 96 69 63 70 47 71 48 72 56 73 49 74
REMARK SMILES IDX 50 75 54 76 57 77 51 78 52 79 55 80 53 81 79 82 80 83 88 84
REMARK SMILES IDX 81 85 82 86 86 87 89 88 83 89 84 90 87 91 85 92 64 93 65 94
REMARK SMILES IDX 73 95 66 96 67 97 71 98 74 99 68 100 69 101 72 102 70 103
REMARK H PARENT 94 56 62 67
REMARK Flexibility Score: inf
ROOT
ATOM      1  O   UNL A   1      34.000  20.156  25.692  1.00  0.00    -0.377 OA
ENDROOT
BRANCH   1   2
ATOM      2  C   UNL A   1      33.789  20.909  26.872  1.00  0.00     0.188 C 
BRANCH   2   3
ATOM      3  C   UNL A   1      32.871  22.140  26.797  1.00  0.00     0.188 C 
BRANCH   3   4
ATOM      4  O   UNL A   1      32.780  22.737  25.507  1.00  0.00    -0.376 OA
BRANCH   4   5
ATOM      5  C   UNL A   1      31.636  22.380  24.742  1.00  0.00     0.202 C 
BRANCH   5   6
ATOM      6  C   UNL A   1      31.748  22.803  23.274  1.00  0.00     0.261 C 
BRANCH   6   7
ATOM      7  O   UNL A   1      31.450  24.192  23.055  1.00  0.00    -0.460 OA
BRANCH   7   8
ATOM      8  C   UNL A   1      32.491  24.984  22.720  1.00  0.00     0.338 C 
ATOM      9  O   UNL A   1      33.495  24.638  22.123  1.00  0.00    -0.246 OA
BRANCH   8  10
ATOM     10  C   UNL A   1      32.181  26.379  23.066  1.00  0.00     0.087 C 
ATOM     11  C   UNL A   1      30.959  30.053  24.637  1.00  0.00    -0.002 A 
ATOM     12  C   UNL A   1      30.085  30.852  23.870  1.00  0.00     0.054 A 
ATOM     13  C   UNL A   1      31.347  28.818  24.106  1.00  0.00     0.131 A 
ATOM     14  C   UNL A   1      29.625  30.438  22.615  1.00  0.00     0.130 A 
ATOM     15  C   UNL A   1      30.891  28.388  22.847  1.00  0.00     0.021 A 
ATOM     16  O   UNL A   1      32.117  27.989  24.881  1.00  0.00    -0.475 OA
ATOM     17  C   UNL A   1      30.051  29.212  22.098  1.00  0.00     0.058 A 
ATOM     18  C   UNL A   1      31.211  27.031  22.402  1.00  0.00     0.027 C 
ATOM     19  C   UNL A   1      32.975  27.094  24.129  1.00  0.00     0.316 C 
BRANCH  11  20
ATOM     20  C   UNL A   1      31.330  30.552  26.020  1.00  0.00     0.036 C 
ATOM     21  C   UNL A   1      31.103  32.024  26.343  1.00  0.00     0.009 C 
ENDBRANCH  11  20
BRANCH  14  22
ATOM     22  O   UNL A   1      28.760  31.126  21.811  1.00  0.00    -0.406 OA
BRANCH  22  23
ATOM     23  C   UNL A   1      28.263  32.363  22.299  1.00  0.00     0.573 C 
ATOM     24  F   UNL A   1      29.266  33.176  22.696  1.00  0.00    -0.132 F 
ATOM     25  F   UNL A   1      27.520  32.987  21.361  1.00  0.00    -0.132 F 
ATOM     26  F   UNL A   1      27.472  32.121  23.368  1.00  0.00    -0.132 F 
ENDBRANCH  22  23
ENDBRANCH  14  22
BRANCH  19  27
ATOM     27  C   UNL A   1      33.805  26.281  25.136  1.00  0.00     0.430 C 
ATOM     28  F   UNL A   1      33.042  25.389  25.811  1.00  0.00    -0.167 F 
ATOM     29  F   UNL A   1      34.735  25.539  24.475  1.00  0.00    -0.167 F 
ATOM     30  F   UNL A   1      34.466  27.046  26.025  1.00  0.00    -0.167 F 
ENDBRANCH  19  27
ENDBRANCH   8  10
ENDBRANCH   7   8
ENDBRANCH   6   7
ENDBRANCH   5   6
ENDBRANCH   4   5
ENDBRANCH   3   4
ENDBRANCH   2   3
ENDBRANCH   1   2
BRANCH   1  31
ATOM     31  C   UNL A   1      35.215  20.318  24.969  1.00  0.00     0.188 C 
BRANCH  31  32
ATOM     32  C   UNL A   1      36.281  21.345  25.404  1.00  0.00     0.188 C 
BRANCH  32  33
ATOM     33  O   UNL A   1      37.523  21.247  24.720  1.00  0.00    -0.376 OA
BRANCH  33  34
ATOM     34  C   UNL A   1      38.113  19.955  24.677  1.00  0.00     0.202 C 
BRANCH  34  35
ATOM     35  C   UNL A   1      39.048  19.684  25.860  1.00  0.00     0.261 C 
BRANCH  35  36
ATOM     36  O   UNL A   1      40.254  20.465  25.852  1.00  0.00    -0.460 OA
BRANCH  36  37
ATOM     37  C   UNL A   1      40.966  20.493  27.000  1.00  0.00     0.338 C 
ATOM     38  O   UNL A   1      41.507  19.560  27.562  1.00  0.00    -0.246 OA
BRANCH  37  39
ATOM     39  C   UNL A   1      41.145  21.906  27.380  1.00  0.00     0.060 A 
ATOM     40  C   UNL A   1      40.495  22.893  26.629  1.00  0.00     0.016 A 
ATOM     41  C   UNL A   1      41.941  22.250  28.476  1.00  0.00     0.016 A 
ATOM     42  C   UNL A   1      40.672  24.237  26.951  1.00  0.00     0.010 A 
ATOM     43  C   UNL A   1      42.134  23.597  28.785  1.00  0.00     0.010 A 
ATOM     44  C   UNL A   1      41.529  24.595  28.002  1.00  0.00    -0.014 A 
BRANCH  44  45
ATOM     45  C   UNL A   1      41.968  26.001  28.138  1.00  0.00     0.031 A 
ATOM     46  C   UNL A   1      43.305  26.380  27.565  1.00  0.00     0.074 A 
ATOM     47  C   UNL A   1      41.198  26.923  28.738  1.00  0.00     0.049 A 
ATOM     48  N   UNL A   1      43.912  27.539  27.562  1.00  0.00    -0.248 NA
ATOM     49  C   UNL A   1      44.060  25.303  26.905  1.00  0.00     0.031 C 
ATOM     50  C   UNL A   1      39.875  26.681  29.309  1.00  0.00     0.029 A 
ATOM     51  N   UNL A   1      41.430  28.255  28.971  1.00  0.00    -0.354 N 
ATOM     52  C   UNL A   1      45.113  27.329  26.899  1.00  0.00     0.074 A 
ATOM     53  C   UNL A   1      45.168  25.929  26.543  1.00  0.00     0.031 C 
ATOM     54  C   UNL A   1      39.415  27.829  29.838  1.00  0.00     0.029 A 
ATOM     55  C   UNL A   1      40.420  28.877  29.662  1.00  0.00     0.049 A 
ATOM     56  H   UNL A   1      42.244  28.721  28.672  1.00  0.00     0.167 HD
ATOM     57  C   UNL A   1      46.080  28.228  26.601  1.00  0.00     0.037 A 
ATOM     58  C   UNL A   1      40.331  30.144  30.110  1.00  0.00     0.037 A 
ATOM     59  C   UNL A   1      46.033  29.618  26.966  1.00  0.00     0.049 A 
ATOM     60  C   UNL A   1      41.456  31.109  29.828  1.00  0.00     0.074 A 
ATOM     61  C   UNL A   1      46.954  30.613  26.696  1.00  0.00     0.029 A 
ATOM     62  N   UNL A   1      45.008  30.204  27.693  1.00  0.00    -0.354 N 
ATOM     63  N   UNL A   1      42.568  30.917  29.162  1.00  0.00    -0.248 NA
ATOM     64  C   UNL A   1      41.308  32.473  30.361  1.00  0.00     0.031 C 
ATOM     65  C   UNL A   1      46.509  31.793  27.302  1.00  0.00     0.029 A 
ATOM     66  C   UNL A   1      45.287  31.544  27.906  1.00  0.00     0.049 A 
ATOM     67  H   UNL A   1      44.200  29.738  28.011  1.00  0.00     0.167 HD
ATOM     68  C   UNL A   1      43.237  32.135  29.171  1.00  0.00     0.074 A 
ATOM     69  C   UNL A   1      42.399  33.066  29.898  1.00  0.00     0.031 C 
ATOM     70  C   UNL A   1      44.438  32.456  28.629  1.00  0.00     0.037 A 
BRANCH  57  71
ATOM     71  C   UNL A   1      47.282  27.723  25.863  1.00  0.00     0.064 A 
ATOM     72  C   UNL A   1      47.317  27.680  24.460  1.00  0.00     0.173 A 
ATOM     73  C   UNL A   1      48.417  27.291  26.564  1.00  0.00     0.173 A 
ATOM     74  F   UNL A   1      46.248  28.064  23.746  1.00  0.00    -0.203 F 
ATOM     75  C   UNL A   1      48.438  27.201  23.787  1.00  0.00     0.198 A 
ATOM     76  C   UNL A   1      49.546  26.837  25.887  1.00  0.00     0.198 A 
ATOM     77  F   UNL A   1      48.432  27.311  27.904  1.00  0.00    -0.203 F 
ATOM     78  F   UNL A   1      48.433  27.125  22.450  1.00  0.00    -0.200 F 
ATOM     79  C   UNL A   1      49.553  26.786  24.500  1.00  0.00     0.200 A 
ATOM     80  F   UNL A   1      50.626  26.444  26.576  1.00  0.00    -0.200 F 
ATOM     81  F   UNL A   1      50.632  26.329  23.851  1.00  0.00    -0.200 F 
ENDBRANCH  57  71
BRANCH  58  82
ATOM     82  C   UNL A   1      39.136  30.581  30.877  1.00  0.00     0.064 A 
ATOM     83  C   UNL A   1      39.078  30.436  32.271  1.00  0.00     0.173 A 
ATOM     84  C   UNL A   1      38.015  31.122  30.231  1.00  0.00     0.173 A 
ATOM     85  F   UNL A   1      40.114  29.897  32.931  1.00  0.00    -0.203 F 
ATOM     86  C   UNL A   1      37.938  30.798  32.986  1.00  0.00     0.198 A 
ATOM     87  C   UNL A   1      36.887  31.508  30.950  1.00  0.00     0.198 A 
ATOM     88  F   UNL A   1      38.017  31.277  28.899  1.00  0.00    -0.203 F 
ATOM     89  F   UNL A   1      37.892  30.605  34.311  1.00  0.00    -0.200 F 
ATOM     90  C   UNL A   1      36.845  31.339  32.326  1.00  0.00     0.200 A 
ATOM     91  F   UNL A   1      35.835  32.038  30.309  1.00  0.00    -0.200 F 
ATOM     92  F   UNL A   1      35.748  31.685  33.013  1.00  0.00    -0.200 F 
ENDBRANCH  58  82
BRANCH  70  93
ATOM     93  C   UNL A   1      44.904  33.876  28.772  1.00  0.00     0.064 A 
ATOM     94  C   UNL A   1      45.739  34.272  29.828  1.00  0.00     0.173 A 
ATOM     95  C   UNL A   1      44.549  34.840  27.817  1.00  0.00     0.173 A 
ATOM     96  F   UNL A   1      46.094  33.390  30.774  1.00  0.00    -0.203 F 
ATOM     97  C   UNL A   1      46.181  35.588  29.934  1.00  0.00     0.198 A 
ATOM     98  C   UNL A   1      45.018  36.147  27.910  1.00  0.00     0.198 A 
ATOM     99  F   UNL A   1      43.761  34.510  26.783  1.00  0.00    -0.203 F 
ATOM    100  F   UNL A   1      46.940  35.955  30.976  1.00  0.00    -0.200 F 
ATOM    101  C   UNL A   1      45.826  36.522  28.972  1.00  0.00     0.200 A 
ATOM    102  F   UNL A   1      44.686  37.045  26.973  1.00  0.00    -0.200 F 
ATOM    103  F   UNL A   1      46.259  37.786  29.073  1.00  0.00    -0.200 F 
ENDBRANCH  70  93
ENDBRANCH  44  45
ENDBRANCH  37  39
ENDBRANCH  36  37
ENDBRANCH  35  36
ENDBRANCH  34  35
ENDBRANCH  33  34
ENDBRANCH  32  33
ENDBRANCH  31  32
ENDBRANCH   1  31
TORSDOF 24
ENDMDL
MODEL 2
REMARK VINA RESULT:     -10.4      0.585      6.982
REMARK SMILES CCc1cc(OC(F)(F)F)cc2c1O[C@@H](C(F)(F)F)C(C(=O)OCCOCCOCCOCCOC(=O)c1ccc(-c3c4nc(c(-c5c(F)c(F)c(F)c(F)c5F)c5ccc([nH]5)c(-c5c(F)c(F)c(F)c(F)c5F)c5nc(c(-c6c(F)c(F)c(F)c(F)c6F)c6ccc3[nH]6)C=C5)C=C4)cc1)=C2
REMARK SMILES IDX 29 1 28 2 27 3 26 4 25 5 24 6 23 7 21 8 22 9 20 10 3 11 4 12
REMARK SMILES IDX 13 13 5 14 12 15 14 16 11 17 101 18 15 19 2 20 1 21 6 22
REMARK SMILES IDX 7 23 8 24 9 25 10 26 16 27 17 28 18 29 19 30 30 31 31 32
REMARK SMILES IDX 32 33 33 34 34 35 35 36 36 37 37 38 38 39 39 40 100 41 40 42
REMARK SMILES IDX 99 43 41 44 42 45 43 46 93 47 44 48 98 49 92 50 94 51 45 52
REMARK SMILES IDX 97 53 91 54 90 55 46 57 78 58 58 59 77 60 59 61 62 62 76 63
REMARK SMILES IDX 95 64 60 65 61 66 75 68 96 69 63 70 47 71 48 72 56 73 49 74
REMARK SMILES IDX 50 75 54 76 57 77 51 78 52 79 55 80 53 81 79 82 80 83 88 84
REMARK SMILES IDX 81 85 82 86 86 87 89 88 83 89 84 90 87 91 85 92 64 93 65 94
REMARK SMILES IDX 73 95 66 96 67 97 71 98 74 99 68 100 69 101 72 102 70 103
REMARK H PARENT 94 56 62 67
REMARK Flexibility Score: inf
ROOT
ATOM      1  O   UNL A   1      34.295  22.630  25.227  1.00  0.00    -0.377 OA
ENDROOT
BRANCH   1   2
ATOM      2  C   UNL A   1      33.761  22.250  26.481  1.00  0.00     0.188 C 
BRANCH   2   3
ATOM      3  C   UNL A   1      32.244  22.373  26.695  1.00  0.00     0.188 C 
BRANCH   3   4
ATOM      4  O   UNL A   1      31.473  22.382  25.497  1.00  0.00    -0.376 OA
BRANCH   4   5
ATOM      5  C   UNL A   1      30.653  23.528  25.300  1.00  0.00     0.202 C 
BRANCH   5   6
ATOM      6  C   UNL A   1      30.982  24.277  24.005  1.00  0.00     0.261 C 
BRANCH   6   7
ATOM      7  O   UNL A   1      32.349  24.127  23.589  1.00  0.00    -0.460 OA
BRANCH   7   8
ATOM      8  C   UNL A   1      32.799  25.012  22.674  1.00  0.00     0.338 C 
ATOM      9  O   UNL A   1      33.355  24.743  21.624  1.00  0.00    -0.246 OA
BRANCH   8  10
ATOM     10  C   UNL A   1      32.400  26.372  23.066  1.00  0.00     0.087 C 
ATOM     11  C   UNL A   1      30.923  29.903  24.743  1.00  0.00    -0.002 A 
ATOM     12  C   UNL A   1      30.027  30.683  23.982  1.00  0.00     0.054 A 
ATOM     13  C   UNL A   1      31.397  28.715  24.176  1.00  0.00     0.131 A 
ATOM     14  C   UNL A   1      29.629  30.297  22.697  1.00  0.00     0.130 A 
ATOM     15  C   UNL A   1      31.003  28.313  22.887  1.00  0.00     0.021 A 
ATOM     16  O   UNL A   1      32.190  27.899  24.941  1.00  0.00    -0.475 OA
ATOM     17  C   UNL A   1      30.139  29.119  22.146  1.00  0.00     0.058 A 
ATOM     18  C   UNL A   1      31.413  26.996  22.398  1.00  0.00     0.027 C 
ATOM     19  C   UNL A   1      33.120  27.086  24.181  1.00  0.00     0.316 C 
BRANCH  11  20
ATOM     20  C   UNL A   1      31.224  30.363  26.156  1.00  0.00     0.036 C 
ATOM     21  C   UNL A   1      31.446  31.851  26.401  1.00  0.00     0.009 C 
ENDBRANCH  11  20
BRANCH  14  22
ATOM     22  O   UNL A   1      28.749  30.968  21.895  1.00  0.00    -0.406 OA
BRANCH  22  23
ATOM     23  C   UNL A   1      28.180  32.162  22.410  1.00  0.00     0.573 C 
ATOM     24  F   UNL A   1      27.624  32.906  21.430  1.00  0.00    -0.132 F 
ATOM     25  F   UNL A   1      27.250  31.886  23.349  1.00  0.00    -0.132 F 
ATOM     26  F   UNL A   1      29.157  32.894  22.989  1.00  0.00    -0.132 F 
ENDBRANCH  22  23
ENDBRANCH  14  22
BRANCH  19  27
ATOM     27  C   UNL A   1      33.966  26.279  25.180  1.00  0.00     0.430 C 
ATOM     28  F   UNL A   1      34.896  25.521  24.553  1.00  0.00    -0.167 F 
ATOM     29  F   UNL A   1      34.665  27.126  25.982  1.00  0.00    -0.167 F 
ATOM     30  F   UNL A   1      33.231  25.487  25.984  1.00  0.00    -0.167 F 
ENDBRANCH  19  27
ENDBRANCH   8  10
ENDBRANCH   7   8
ENDBRANCH   6   7
ENDBRANCH   5   6
ENDBRANCH   4   5
ENDBRANCH   3   4
ENDBRANCH   2   3
ENDBRANCH   1   2
BRANCH   1  31
ATOM     31  C   UNL A   1      34.920  21.649  24.408  1.00  0.00     0.188 C 
BRANCH  31  32
ATOM     32  C   UNL A   1      35.498  20.348  25.006  1.00  0.00     0.188 C 
BRANCH  32  33
ATOM     33  O   UNL A   1      36.828  20.453  25.498  1.00  0.00    -0.376 OA
BRANCH  33  34
ATOM     34  C   UNL A   1      37.837  19.839  24.708  1.00  0.00     0.202 C 
BRANCH  34  35
ATOM     35  C   UNL A   1      39.152  19.638  25.467  1.00  0.00     0.261 C 
BRANCH  35  36
ATOM     36  O   UNL A   1      39.402  20.617  26.488  1.00  0.00    -0.460 OA
BRANCH  36  37
ATOM     37  C   UNL A   1      40.634  20.615  27.042  1.00  0.00     0.338 C 
ATOM     38  O   UNL A   1      41.407  19.679  27.132  1.00  0.00    -0.246 OA
BRANCH  37  39
ATOM     39  C   UNL A   1      40.981  22.010  27.367  1.00  0.00     0.060 A 
ATOM     40  C   UNL A   1      40.447  23.037  26.579  1.00  0.00     0.016 A 
ATOM     41  C   UNL A   1      41.818  22.299  28.448  1.00  0.00     0.016 A 
ATOM     42  C   UNL A   1      40.783  24.362  26.849  1.00  0.00     0.010 A 
ATOM     43  C   UNL A   1      42.170  23.624  28.704  1.00  0.00     0.010 A 
ATOM     44  C   UNL A   1      41.683  24.656  27.884  1.00  0.00    -0.014 A 
BRANCH  44  45
ATOM     45  C   UNL A   1      42.285  26.005  27.964  1.00  0.00     0.031 A 
ATOM     46  C   UNL A   1      41.506  27.083  28.664  1.00  0.00     0.074 A 
ATOM     47  C   UNL A   1      43.496  26.267  27.446  1.00  0.00     0.049 A 
ATOM     48  N   UNL A   1      41.812  28.340  28.859  1.00  0.00    -0.248 NA
ATOM     49  C   UNL A   1      40.201  26.688  29.220  1.00  0.00     0.031 C 
ATOM     50  C   UNL A   1      44.355  25.300  26.767  1.00  0.00     0.029 A 
ATOM     51  N   UNL A   1      44.208  27.439  27.407  1.00  0.00    -0.354 N 
ATOM     52  C   UNL A   1      40.744  28.880  29.561  1.00  0.00     0.074 A 
ATOM     53  C   UNL A   1      39.766  27.829  29.729  1.00  0.00     0.031 C 
ATOM     54  C   UNL A   1      45.478  25.923  26.368  1.00  0.00     0.029 A 
ATOM     55  C   UNL A   1      45.405  27.333  26.745  1.00  0.00     0.049 A 
ATOM     56  H   UNL A   1      43.891  28.276  27.816  1.00  0.00     0.167 HD
ATOM     57  C   UNL A   1      40.596  30.139  30.035  1.00  0.00     0.037 A 
ATOM     58  C   UNL A   1      46.326  28.277  26.466  1.00  0.00     0.037 A 
ATOM     59  C   UNL A   1      41.562  31.189  29.857  1.00  0.00     0.049 A 
ATOM     60  C   UNL A   1      46.104  29.691  26.942  1.00  0.00     0.074 A 
ATOM     61  C   UNL A   1      41.514  32.493  30.314  1.00  0.00     0.029 A 
ATOM     62  N   UNL A   1      42.749  31.052  29.154  1.00  0.00    -0.354 N 
ATOM     63  N   UNL A   1      45.113  30.185  27.644  1.00  0.00    -0.248 NA
ATOM     64  C   UNL A   1      47.135  30.679  26.588  1.00  0.00     0.031 C 
ATOM     65  C   UNL A   1      42.650  33.160  29.844  1.00  0.00     0.029 A 
ATOM     66  C   UNL A   1      43.431  32.258  29.139  1.00  0.00     0.049 A 
ATOM     67  H   UNL A   1      43.062  30.221  28.726  1.00  0.00     0.167 HD
ATOM     68  C   UNL A   1      45.413  31.528  27.839  1.00  0.00     0.074 A 
ATOM     69  C   UNL A   1      46.686  31.769  27.193  1.00  0.00     0.031 C 
ATOM     70  C   UNL A   1      44.699  32.478  28.493  1.00  0.00     0.037 A 
BRANCH  57  71
ATOM     71  C   UNL A   1      39.330  30.450  30.773  1.00  0.00     0.064 A 
ATOM     72  C   UNL A   1      39.227  30.274  32.162  1.00  0.00     0.173 A 
ATOM     73  C   UNL A   1      38.211  30.944  30.086  1.00  0.00     0.173 A 
ATOM     74  F   UNL A   1      40.263  29.785  32.859  1.00  0.00    -0.203 F 
ATOM     75  C   UNL A   1      38.041  30.560  32.832  1.00  0.00     0.198 A 
ATOM     76  C   UNL A   1      37.035  31.253  30.765  1.00  0.00     0.198 A 
ATOM     77  F   UNL A   1      38.259  31.127  28.759  1.00  0.00    -0.203 F 
ATOM     78  F   UNL A   1      37.949  30.341  34.151  1.00  0.00    -0.200 F 
ATOM     79  C   UNL A   1      36.949  31.055  32.135  1.00  0.00     0.200 A 
ATOM     80  F   UNL A   1      35.983  31.739  30.091  1.00  0.00    -0.200 F 
ATOM     81  F   UNL A   1      35.809  31.333  32.783  1.00  0.00    -0.200 F 
ENDBRANCH  57  71
BRANCH  58  82
ATOM     82  C   UNL A   1      47.544  27.924  25.691  1.00  0.00     0.064 A 
ATOM     83  C   UNL A   1      47.517  27.861  24.290  1.00  0.00     0.173 A 
ATOM     84  C   UNL A   1      48.749  27.612  26.335  1.00  0.00     0.173 A 
ATOM     85  F   UNL A   1      46.379  28.122  23.630  1.00  0.00    -0.203 F 
ATOM     86  C   UNL A   1      48.645  27.480  23.565  1.00  0.00     0.198 A 
ATOM     87  C   UNL A   1      49.883  27.257  25.608  1.00  0.00     0.198 A 
ATOM     88  F   UNL A   1      48.826  27.652  27.673  1.00  0.00    -0.203 F 
ATOM     89  F   UNL A   1      48.579  27.381  22.231  1.00  0.00    -0.200 F 
ATOM     90  C   UNL A   1      49.829  27.184  24.224  1.00  0.00     0.200 A 
ATOM     91  F   UNL A   1      51.028  26.980  26.248  1.00  0.00    -0.200 F 
ATOM     92  F   UNL A   1      50.912  26.816  23.527  1.00  0.00    -0.200 F 
ENDBRANCH  58  82
BRANCH  70  93
ATOM     93  C   UNL A   1      45.289  33.856  28.569  1.00  0.00     0.064 A 
ATOM     94  C   UNL A   1      46.181  34.218  29.589  1.00  0.00     0.173 A 
ATOM     95  C   UNL A   1      44.995  34.811  27.584  1.00  0.00     0.173 A 
ATOM     96  F   UNL A   1      46.483  33.345  30.562  1.00  0.00    -0.203 F 
ATOM     97  C   UNL A   1      46.737  35.494  29.634  1.00  0.00     0.198 A 
ATOM     98  C   UNL A   1      45.575  36.075  27.615  1.00  0.00     0.198 A 
ATOM     99  F   UNL A   1      44.155  34.511  26.581  1.00  0.00    -0.203 F 
ATOM    100  F   UNL A   1      47.551  35.833  30.643  1.00  0.00    -0.200 F 
ATOM    101  C   UNL A   1      46.439  36.419  28.643  1.00  0.00     0.200 A 
ATOM    102  F   UNL A   1      45.298  36.963  26.650  1.00  0.00    -0.200 F 
ATOM    103  F   UNL A   1      46.981  37.643  28.684  1.00  0.00    -0.200 F 
ENDBRANCH  70  93
ENDBRANCH  44  45
ENDBRANCH  37  39
ENDBRANCH  36  37
ENDBRANCH  35  36
ENDBRANCH  34  35
ENDBRANCH  33  34
ENDBRANCH  32  33
ENDBRANCH  31  32
ENDBRANCH   1  31
TORSDOF 24
ENDMDL
MODEL 3
REMARK VINA RESULT:     -10.1      2.000      3.413
REMARK SMILES CCc1cc(OC(F)(F)F)cc2c1O[C@@H](C(F)(F)F)C(C(=O)OCCOCCOCCOCCOC(=O)c1ccc(-c3c4nc(c(-c5c(F)c(F)c(F)c(F)c5F)c5ccc([nH]5)c(-c5c(F)c(F)c(F)c(F)c5F)c5nc(c(-c6c(F)c(F)c(F)c(F)c6F)c6ccc3[nH]6)C=C5)C=C4)cc1)=C2
REMARK SMILES IDX 29 1 28 2 27 3 26 4 25 5 24 6 23 7 21 8 22 9 20 10 3 11 4 12
REMARK SMILES IDX 13 13 5 14 12 15 14 16 11 17 101 18 15 19 2 20 1 21 6 22
REMARK SMILES IDX 7 23 8 24 9 25 10 26 16 27 17 28 18 29 19 30 30 31 31 32
REMARK SMILES IDX 32 33 33 34 34 35 35 36 36 37 37 38 38 39 39 40 100 41 40 42
REMARK SMILES IDX 99 43 41 44 42 45 43 46 93 47 44 48 98 49 92 50 94 51 45 52
REMARK SMILES IDX 97 53 91 54 90 55 46 57 78 58 58 59 77 60 59 61 62 62 76 63
REMARK SMILES IDX 95 64 60 65 61 66 75 68 96 69 63 70 47 71 48 72 56 73 49 74
REMARK SMILES IDX 50 75 54 76 57 77 51 78 52 79 55 80 53 81 79 82 80 83 88 84
REMARK SMILES IDX 81 85 82 86 86 87 89 88 83 89 84 90 87 91 85 92 64 93 65 94
REMARK SMILES IDX 73 95 66 96 67 97 71 98 74 99 68 100 69 101 72 102 70 103
REMARK H PARENT 94 56 62 67
REMARK Flexibility Score: inf
ROOT
ATOM      1  O   UNL A   1      33.099  24.068  21.923  1.00  0.00    -0.377 OA
ENDROOT
BRANCH   1   2
ATOM      2  C   UNL A   1      32.189  24.920  22.591  1.00  0.00     0.188 C 
BRANCH   2   3
ATOM      3  C   UNL A   1      31.685  26.171  21.854  1.00  0.00     0.188 C 
BRANCH   3   4
ATOM      4  O   UNL A   1      32.667  27.185  21.664  1.00  0.00    -0.376 OA
BRANCH   4   5
ATOM      5  C   UNL A   1      32.402  28.428  22.303  1.00  0.00     0.202 C 
BRANCH   5   6
ATOM      6  C   UNL A   1      30.905  28.709  22.458  1.00  0.00     0.261 C 
BRANCH   6   7
ATOM      7  O   UNL A   1      30.567  29.336  23.706  1.00  0.00    -0.460 OA
BRANCH   7   8
ATOM      8  C   UNL A   1      30.971  28.699  24.826  1.00  0.00     0.338 C 
ATOM      9  O   UNL A   1      30.720  27.546  25.130  1.00  0.00    -0.246 OA
BRANCH   8  10
ATOM     10  C   UNL A   1      31.887  29.566  25.583  1.00  0.00     0.087 C 
ATOM     11  C   UNL A   1      34.337  31.581  28.304  1.00  0.00    -0.002 A 
ATOM     12  C   UNL A   1      34.037  32.925  28.607  1.00  0.00     0.054 A 
ATOM     13  C   UNL A   1      33.499  30.913  27.404  1.00  0.00     0.131 A 
ATOM     14  C   UNL A   1      32.947  33.582  28.025  1.00  0.00     0.130 A 
ATOM     15  C   UNL A   1      32.399  31.560  26.813  1.00  0.00     0.021 A 
ATOM     16  O   UNL A   1      33.720  29.580  27.174  1.00  0.00    -0.475 OA
ATOM     17  C   UNL A   1      32.143  32.899  27.109  1.00  0.00     0.058 A 
ATOM     18  C   UNL A   1      31.473  30.778  25.991  1.00  0.00     0.027 C 
ATOM     19  C   UNL A   1      33.299  29.120  25.865  1.00  0.00     0.316 C 
BRANCH  11  20
ATOM     20  C   UNL A   1      35.486  30.934  29.052  1.00  0.00     0.036 C 
ATOM     21  C   UNL A   1      36.363  29.934  28.308  1.00  0.00     0.009 C 
ENDBRANCH  11  20
BRANCH  14  22
ATOM     22  O   UNL A   1      32.561  34.869  28.273  1.00  0.00    -0.406 OA
BRANCH  22  23
ATOM     23  C   UNL A   1      33.542  35.754  28.793  1.00  0.00     0.573 C 
ATOM     24  F   UNL A   1      33.006  36.950  29.116  1.00  0.00    -0.132 F 
ATOM     25  F   UNL A   1      34.143  35.222  29.879  1.00  0.00    -0.132 F 
ATOM     26  F   UNL A   1      34.486  35.959  27.849  1.00  0.00    -0.132 F 
ENDBRANCH  22  23
ENDBRANCH  14  22
BRANCH  19  27
ATOM     27  C   UNL A   1      33.665  27.631  25.747  1.00  0.00     0.430 C 
ATOM     28  F   UNL A   1      32.712  26.836  26.286  1.00  0.00    -0.167 F 
ATOM     29  F   UNL A   1      33.738  27.277  24.436  1.00  0.00    -0.167 F 
ATOM     30  F   UNL A   1      34.851  27.327  26.307  1.00  0.00    -0.167 F 
ENDBRANCH  19  27
ENDBRANCH   8  10
ENDBRANCH   7   8
ENDBRANCH   6   7
ENDBRANCH   5   6
ENDBRANCH   4   5
ENDBRANCH   3   4
ENDBRANCH   2   3
ENDBRANCH   1   2
BRANCH   1  31
ATOM     31  C   UNL A   1      33.682  22.978  22.629  1.00  0.00     0.188 C 
BRANCH  31  32
ATOM     32  C   UNL A   1      34.701  23.207  23.766  1.00  0.00     0.188 C 
BRANCH  32  33
ATOM     33  O   UNL A   1      35.476  22.067  24.115  1.00  0.00    -0.376 OA
BRANCH  33  34
ATOM     34  C   UNL A   1      36.886  22.216  24.020  1.00  0.00     0.202 C 
BRANCH  34  35
ATOM     35  C   UNL A   1      37.654  21.178  24.843  1.00  0.00     0.261 C 
BRANCH  35  36
ATOM     36  O   UNL A   1      38.114  21.654  26.118  1.00  0.00    -0.460 OA
BRANCH  36  37
ATOM     37  C   UNL A   1      39.438  21.548  26.364  1.00  0.00     0.338 C 
ATOM     38  O   UNL A   1      40.182  20.636  26.054  1.00  0.00    -0.246 OA
BRANCH  37  39
ATOM     39  C   UNL A   1      39.894  22.834  26.924  1.00  0.00     0.060 A 
ATOM     40  C   UNL A   1      39.208  24.002  26.570  1.00  0.00     0.016 A 
ATOM     41  C   UNL A   1      40.983  22.880  27.798  1.00  0.00     0.016 A 
ATOM     42  C   UNL A   1      39.637  25.233  27.064  1.00  0.00     0.010 A 
ATOM     43  C   UNL A   1      41.424  24.115  28.275  1.00  0.00     0.010 A 
ATOM     44  C   UNL A   1      40.775  25.297  27.881  1.00  0.00    -0.014 A 
BRANCH  44  45
ATOM     45  C   UNL A   1      41.415  26.607  28.136  1.00  0.00     0.031 A 
ATOM     46  C   UNL A   1      42.803  26.828  27.603  1.00  0.00     0.074 A 
ATOM     47  C   UNL A   1      40.780  27.581  28.809  1.00  0.00     0.049 A 
ATOM     48  N   UNL A   1      43.575  27.880  27.701  1.00  0.00    -0.248 NA
ATOM     49  C   UNL A   1      43.401  25.709  26.857  1.00  0.00     0.031 C 
ATOM     50  C   UNL A   1      39.427  27.492  29.352  1.00  0.00     0.029 A 
ATOM     51  N   UNL A   1      41.203  28.839  29.155  1.00  0.00    -0.354 N 
ATOM     52  C   UNL A   1      44.742  27.549  27.027  1.00  0.00     0.074 A 
ATOM     53  C   UNL A   1      44.595  26.191  26.555  1.00  0.00     0.031 C 
ATOM     54  C   UNL A   1      39.133  28.648  29.975  1.00  0.00     0.029 A 
ATOM     55  C   UNL A   1      40.285  29.545  29.891  1.00  0.00     0.049 A 
ATOM     56  H   UNL A   1      42.082  29.201  28.899  1.00  0.00     0.167 HD
ATOM     57  C   UNL A   1      45.837  28.315  26.810  1.00  0.00     0.037 A 
ATOM     58  C   UNL A   1      40.377  30.770  30.444  1.00  0.00     0.037 A 
ATOM     59  C   UNL A   1      45.990  29.661  27.291  1.00  0.00     0.049 A 
ATOM     60  C   UNL A   1      41.637  31.577  30.250  1.00  0.00     0.074 A 
ATOM     61  C   UNL A   1      47.053  30.527  27.110  1.00  0.00     0.029 A 
ATOM     62  N   UNL A   1      45.051  30.332  28.060  1.00  0.00    -0.354 N 
ATOM     63  N   UNL A   1      42.720  31.276  29.574  1.00  0.00    -0.248 NA
ATOM     64  C   UNL A   1      41.684  32.898  30.895  1.00  0.00     0.031 C 
ATOM     65  C   UNL A   1      46.778  31.706  27.811  1.00  0.00     0.029 A 
ATOM     66  C   UNL A   1      45.522  31.593  28.386  1.00  0.00     0.049 A 
ATOM     67  H   UNL A   1      44.178  29.966  28.335  1.00  0.00     0.167 HD
ATOM     68  C   UNL A   1      43.562  32.376  29.689  1.00  0.00     0.074 A 
ATOM     69  C   UNL A   1      42.859  33.358  30.488  1.00  0.00     0.031 C 
ATOM     70  C   UNL A   1      44.805  32.558  29.180  1.00  0.00     0.037 A 
BRANCH  57  71
ATOM     71  C   UNL A   1      46.962  27.700  26.037  1.00  0.00     0.064 A 
ATOM     72  C   UNL A   1      47.025  27.787  24.637  1.00  0.00     0.173 A 
ATOM     73  C   UNL A   1      47.998  27.028  26.702  1.00  0.00     0.173 A 
ATOM     74  F   UNL A   1      46.047  28.401  23.954  1.00  0.00    -0.203 F 
ATOM     75  C   UNL A   1      48.073  27.202  23.931  1.00  0.00     0.198 A 
ATOM     76  C   UNL A   1      49.059  26.468  25.994  1.00  0.00     0.198 A 
ATOM     77  F   UNL A   1      47.983  26.917  28.038  1.00  0.00    -0.203 F 
ATOM     78  F   UNL A   1      48.089  27.257  22.592  1.00  0.00    -0.200 F 
ATOM     79  C   UNL A   1      49.092  26.550  24.610  1.00  0.00     0.200 A 
ATOM     80  F   UNL A   1      50.046  25.845  26.652  1.00  0.00    -0.200 F 
ATOM     81  F   UNL A   1      50.102  25.992  23.928  1.00  0.00    -0.200 F 
ENDBRANCH  57  71
BRANCH  58  82
ATOM     82  C   UNL A   1      39.248  31.315  31.241  1.00  0.00     0.064 A 
ATOM     83  C   UNL A   1      39.055  30.935  32.577  1.00  0.00     0.173 A 
ATOM     84  C   UNL A   1      38.320  32.201  30.674  1.00  0.00     0.173 A 
ATOM     85  F   UNL A   1      39.900  30.068  33.154  1.00  0.00    -0.203 F 
ATOM     86  C   UNL A   1      37.967  31.406  33.310  1.00  0.00     0.198 A 
ATOM     87  C   UNL A   1      37.248  32.691  31.416  1.00  0.00     0.198 A 
ATOM     88  F   UNL A   1      38.456  32.591  29.399  1.00  0.00    -0.203 F 
ATOM     89  F   UNL A   1      37.780  30.990  34.569  1.00  0.00    -0.200 F 
ATOM     90  C   UNL A   1      37.067  32.288  32.730  1.00  0.00     0.200 A 
ATOM     91  F   UNL A   1      36.385  33.550  30.854  1.00  0.00    -0.200 F 
ATOM     92  F   UNL A   1      36.020  32.739  33.434  1.00  0.00    -0.200 F 
ENDBRANCH  58  82
BRANCH  70  93
ATOM     93  C   UNL A   1      45.475  33.876  29.445  1.00  0.00     0.064 A 
ATOM     94  C   UNL A   1      46.233  34.095  30.604  1.00  0.00     0.173 A 
ATOM     95  C   UNL A   1      45.394  34.915  28.505  1.00  0.00     0.173 A 
ATOM     96  F   UNL A   1      46.328  33.137  31.539  1.00  0.00    -0.203 F 
ATOM     97  C   UNL A   1      46.866  35.315  30.824  1.00  0.00     0.198 A 
ATOM     98  C   UNL A   1      46.053  36.123  28.715  1.00  0.00     0.198 A 
ATOM     99  F   UNL A   1      44.690  34.752  27.376  1.00  0.00    -0.203 F 
ATOM    100  F   UNL A   1      47.547  35.519  31.960  1.00  0.00    -0.200 F 
ATOM    101  C   UNL A   1      46.781  36.325  29.877  1.00  0.00     0.200 A 
ATOM    102  F   UNL A   1      45.982  37.092  27.792  1.00  0.00    -0.200 F 
ATOM    103  F   UNL A   1      47.398  37.496  30.088  1.00  0.00    -0.200 F 
ENDBRANCH  70  93
ENDBRANCH  44  45
ENDBRANCH  37  39
ENDBRANCH  36  37
ENDBRANCH  35  36
ENDBRANCH  34  35
ENDBRANCH  33  34
ENDBRANCH  32  33
ENDBRANCH  31  32
ENDBRANCH   1  31
TORSDOF 24
ENDMDL
