MODEL 1
REMARK VINA RESULT:     -10.6      0.000      0.000
REMARK SMILES C[C@@]1(CN2C[C@H](C(=O)OCCOCCOCCOCCOC(=O)c3ccc(-c4c5nc(c(-c6c(F)c(F)c(F)c(F)c6F)c6ccc([nH]6)c(-c6c(F)c(F)c(F)c(F)c6F)c6nc(c(-c7c(F)c(F)c(F)c(F)c7F)c7ccc4[nH]7)C=C6)C=C5)cc3)CCC2=O)CCCO1
REMARK SMILES IDX 15 1 14 2 13 3 12 4 11 5 10 6 9 7 7 8 8 9 6 10 4 11 5 12
REMARK SMILES IDX 89 13 88 14 90 15 87 16 3 17 2 18 1 19 91 20 94 21 92 22
REMARK SMILES IDX 93 23 16 24 17 25 18 26 19 27 20 28 21 29 22 30 23 31 24 32
REMARK SMILES IDX 25 33 86 34 26 35 85 36 27 37 28 38 29 39 79 40 30 41 84 42
REMARK SMILES IDX 78 43 80 44 31 45 83 46 77 47 76 48 32 50 64 51 44 52 63 53
REMARK SMILES IDX 45 54 48 55 62 56 81 57 46 58 47 59 61 61 82 62 49 63 33 64
REMARK SMILES IDX 34 65 42 66 35 67 36 68 40 69 43 70 37 71 38 72 41 73 39 74
REMARK SMILES IDX 65 75 66 76 74 77 67 78 68 79 72 80 75 81 69 82 70 83 73 84
REMARK SMILES IDX 71 85 50 86 51 87 59 88 52 89 53 90 57 91 60 92 54 93 55 94
REMARK SMILES IDX 58 95 56 96
REMARK H PARENT 80 49 48 60
REMARK Flexibility Score: inf
ROOT
ATOM      1  O   UNL A   1      32.008  27.389  26.784  1.00  0.00    -0.377 OA
ENDROOT
BRANCH   1   2
ATOM      2  C   UNL A   1      31.650  27.094  25.441  1.00  0.00     0.188 C 
BRANCH   2   3
ATOM      3  C   UNL A   1      32.126  25.817  24.691  1.00  0.00     0.188 C 
BRANCH   3   4
ATOM      4  O   UNL A   1      31.523  24.598  25.102  1.00  0.00    -0.376 OA
BRANCH   4   5
ATOM      5  C   UNL A   1      31.426  24.330  26.490  1.00  0.00     0.202 C 
BRANCH   5   6
ATOM      6  C   UNL A   1      32.367  23.227  27.007  1.00  0.00     0.261 C 
BRANCH   6   7
ATOM      7  O   UNL A   1      33.718  23.315  26.513  1.00  0.00    -0.463 OA
BRANCH   7   8
ATOM      8  C   UNL A   1      34.432  22.170  26.647  1.00  0.00     0.310 C 
ATOM      9  O   UNL A   1      34.307  21.441  27.622  1.00  0.00    -0.252 OA
BRANCH   8  10
ATOM     10  C   UNL A   1      35.356  21.912  25.447  1.00  0.00     0.119 C 
ATOM     11  N   UNL A   1      33.765  20.272  24.599  1.00  0.00    -0.339 N 
ATOM     12  C   UNL A   1      35.151  20.473  25.009  1.00  0.00     0.134 C 
ATOM     13  C   UNL A   1      33.016  21.260  23.974  1.00  0.00     0.222 C 
ATOM     14  C   UNL A   1      33.743  22.520  23.555  1.00  0.00     0.101 C 
ATOM     15  O   UNL A   1      31.805  21.173  23.771  1.00  0.00    -0.275 OA
ATOM     16  C   UNL A   1      35.112  22.741  24.182  1.00  0.00     0.027 C 
BRANCH  11  17
ATOM     17  C   UNL A   1      33.090  19.076  25.085  1.00  0.00     0.154 C 
BRANCH  17  18
ATOM     18  C   UNL A   1      33.273  17.848  24.168  1.00  0.00     0.083 C 
ATOM     19  C   UNL A   1      32.760  18.116  22.756  1.00  0.00     0.044 C 
ATOM     20  C   UNL A   1      32.589  16.632  24.791  1.00  0.00     0.039 C 
ATOM     21  O   UNL A   1      34.677  17.507  24.100  1.00  0.00    -0.373 OA
ATOM     22  C   UNL A   1      33.663  16.070  25.692  1.00  0.00     0.031 C 
ATOM     23  C   UNL A   1      34.932  16.370  24.928  1.00  0.00     0.161 C 
ENDBRANCH  17  18
ENDBRANCH  11  17
ENDBRANCH   8  10
ENDBRANCH   7   8
ENDBRANCH   6   7
ENDBRANCH   5   6
ENDBRANCH   4   5
ENDBRANCH   3   4
ENDBRANCH   2   3
ENDBRANCH   1   2
BRANCH   1  24
ATOM     24  C   UNL A   1      31.686  28.673  27.281  1.00  0.00     0.188 C 
BRANCH  24  25
ATOM     25  C   UNL A   1      31.930  29.803  26.264  1.00  0.00     0.188 C 
BRANCH  25  26
ATOM     26  O   UNL A   1      32.421  30.988  26.865  1.00  0.00    -0.376 OA
BRANCH  26  27
ATOM     27  C   UNL A   1      31.669  32.186  26.810  1.00  0.00     0.202 C 
BRANCH  27  28
ATOM     28  C   UNL A   1      32.217  33.570  27.208  1.00  0.00     0.261 C 
BRANCH  28  29
ATOM     29  O   UNL A   1      33.112  33.665  28.319  1.00  0.00    -0.460 OA
BRANCH  29  30
ATOM     30  C   UNL A   1      34.289  34.294  28.154  1.00  0.00     0.338 C 
ATOM     31  O   UNL A   1      34.478  35.470  27.899  1.00  0.00    -0.246 OA
BRANCH  30  32
ATOM     32  C   UNL A   1      35.335  33.319  28.534  1.00  0.00     0.060 A 
ATOM     33  C   UNL A   1      34.982  31.990  28.814  1.00  0.00     0.016 A 
ATOM     34  C   UNL A   1      36.675  33.713  28.544  1.00  0.00     0.016 A 
ATOM     35  C   UNL A   1      35.967  31.054  29.127  1.00  0.00     0.010 A 
ATOM     36  C   UNL A   1      37.656  32.790  28.902  1.00  0.00     0.010 A 
ATOM     37  C   UNL A   1      37.300  31.469  29.229  1.00  0.00    -0.014 A 
BRANCH  37  38
ATOM     38  C   UNL A   1      38.284  30.640  29.960  1.00  0.00     0.031 A 
ATOM     39  C   UNL A   1      38.491  30.959  31.414  1.00  0.00     0.074 A 
ATOM     40  C   UNL A   1      39.004  29.680  29.356  1.00  0.00     0.049 A 
ATOM     41  N   UNL A   1      39.413  30.541  32.237  1.00  0.00    -0.248 NA
ATOM     42  C   UNL A   1      37.528  31.900  32.015  1.00  0.00     0.031 C 
ATOM     43  C   UNL A   1      38.848  29.245  27.970  1.00  0.00     0.029 A 
ATOM     44  N   UNL A   1      40.039  28.917  29.837  1.00  0.00    -0.354 N 
ATOM     45  C   UNL A   1      39.158  31.187  33.440  1.00  0.00     0.074 A 
ATOM     46  C   UNL A   1      38.006  32.034  33.240  1.00  0.00     0.031 C 
ATOM     47  C   UNL A   1      39.782  28.316  27.700  1.00  0.00     0.029 A 
ATOM     48  C   UNL A   1      40.628  28.128  28.879  1.00  0.00     0.049 A 
ATOM     49  H   UNL A   1      40.331  28.934  30.776  1.00  0.00     0.167 HD
ATOM     50  C   UNL A   1      39.832  31.082  34.607  1.00  0.00     0.037 A 
ATOM     51  C   UNL A   1      41.749  27.381  28.945  1.00  0.00     0.037 A 
ATOM     52  C   UNL A   1      40.976  30.235  34.794  1.00  0.00     0.049 A 
ATOM     53  C   UNL A   1      42.528  27.337  30.240  1.00  0.00     0.074 A 
ATOM     54  C   UNL A   1      41.726  30.041  35.938  1.00  0.00     0.029 A 
ATOM     55  N   UNL A   1      41.538  29.445  33.801  1.00  0.00    -0.354 N 
ATOM     56  N   UNL A   1      42.278  27.936  31.379  1.00  0.00    -0.248 NA
ATOM     57  C   UNL A   1      43.748  26.516  30.256  1.00  0.00     0.031 C 
ATOM     58  C   UNL A   1      42.779  29.179  35.624  1.00  0.00     0.029 A 
ATOM     59  C   UNL A   1      42.640  28.778  34.303  1.00  0.00     0.049 A 
ATOM     60  H   UNL A   1      41.203  29.371  32.879  1.00  0.00     0.167 HD
ATOM     61  C   UNL A   1      43.276  27.527  32.256  1.00  0.00     0.074 A 
ATOM     62  C   UNL A   1      44.139  26.631  31.518  1.00  0.00     0.031 C 
ATOM     63  C   UNL A   1      43.459  27.857  33.558  1.00  0.00     0.037 A 
BRANCH  50  64
ATOM     64  C   UNL A   1      39.376  31.929  35.756  1.00  0.00     0.064 A 
ATOM     65  C   UNL A   1      39.839  33.240  35.939  1.00  0.00     0.173 A 
ATOM     66  C   UNL A   1      38.429  31.432  36.665  1.00  0.00     0.173 A 
ATOM     67  F   UNL A   1      40.761  33.753  35.111  1.00  0.00    -0.203 F 
ATOM     68  C   UNL A   1      39.379  34.018  36.998  1.00  0.00     0.198 A 
ATOM     69  C   UNL A   1      37.948  32.224  37.703  1.00  0.00     0.198 A 
ATOM     70  F   UNL A   1      37.959  30.183  36.536  1.00  0.00    -0.203 F 
ATOM     71  F   UNL A   1      39.864  35.254  37.178  1.00  0.00    -0.200 F 
ATOM     72  C   UNL A   1      38.426  33.514  37.872  1.00  0.00     0.200 A 
ATOM     73  F   UNL A   1      37.018  31.739  38.537  1.00  0.00    -0.200 F 
ATOM     74  F   UNL A   1      37.972  34.271  38.880  1.00  0.00    -0.200 F 
ENDBRANCH  50  64
BRANCH  51  75
ATOM     75  C   UNL A   1      42.232  26.640  27.748  1.00  0.00     0.064 A 
ATOM     76  C   UNL A   1      41.813  25.325  27.494  1.00  0.00     0.173 A 
ATOM     77  C   UNL A   1      43.158  27.208  26.861  1.00  0.00     0.173 A 
ATOM     78  F   UNL A   1      40.948  24.725  28.325  1.00  0.00    -0.203 F 
ATOM     79  C   UNL A   1      42.325  24.600  26.419  1.00  0.00     0.198 A 
ATOM     80  C   UNL A   1      43.643  26.494  25.767  1.00  0.00     0.198 A 
ATOM     81  F   UNL A   1      43.595  28.462  27.056  1.00  0.00    -0.203 F 
ATOM     82  F   UNL A   1      41.956  23.324  26.239  1.00  0.00    -0.200 F 
ATOM     83  C   UNL A   1      43.237  25.186  25.554  1.00  0.00     0.200 A 
ATOM     84  F   UNL A   1      44.513  27.070  24.926  1.00  0.00    -0.200 F 
ATOM     85  F   UNL A   1      43.732  24.486  24.524  1.00  0.00    -0.200 F 
ENDBRANCH  51  75
BRANCH  63  86
ATOM     86  C   UNL A   1      44.576  27.188  34.306  1.00  0.00     0.064 A 
ATOM     87  C   UNL A   1      45.835  27.785  34.453  1.00  0.00     0.173 A 
ATOM     88  C   UNL A   1      44.341  25.973  34.971  1.00  0.00     0.173 A 
ATOM     89  F   UNL A   1      46.112  28.939  33.829  1.00  0.00    -0.203 F 
ATOM     90  C   UNL A   1      46.822  27.184  35.232  1.00  0.00     0.198 A 
ATOM     91  C   UNL A   1      45.318  25.394  35.774  1.00  0.00     0.198 A 
ATOM     92  F   UNL A   1      43.147  25.368  34.871  1.00  0.00    -0.203 F 
ATOM     93  F   UNL A   1      48.030  27.756  35.335  1.00  0.00    -0.200 F 
ATOM     94  C   UNL A   1      46.558  25.998  35.901  1.00  0.00     0.200 A 
ATOM     95  F   UNL A   1      45.052  24.259  36.435  1.00  0.00    -0.200 F 
ATOM     96  F   UNL A   1      47.502  25.436  36.669  1.00  0.00    -0.200 F 
ENDBRANCH  63  86
ENDBRANCH  37  38
ENDBRANCH  30  32
ENDBRANCH  29  30
ENDBRANCH  28  29
ENDBRANCH  27  28
ENDBRANCH  26  27
ENDBRANCH  25  26
ENDBRANCH  24  25
ENDBRANCH   1  24
TORSDOF 22
ENDMDL
MODEL 2
REMARK VINA RESULT:     -10.5      2.402      4.017
REMARK SMILES C[C@@]1(CN2C[C@H](C(=O)OCCOCCOCCOCCOC(=O)c3ccc(-c4c5nc(c(-c6c(F)c(F)c(F)c(F)c6F)c6ccc([nH]6)c(-c6c(F)c(F)c(F)c(F)c6F)c6nc(c(-c7c(F)c(F)c(F)c(F)c7F)c7ccc4[nH]7)C=C6)C=C5)cc3)CCC2=O)CCCO1
REMARK SMILES IDX 15 1 14 2 13 3 12 4 11 5 10 6 9 7 7 8 8 9 6 10 4 11 5 12
REMARK SMILES IDX 89 13 88 14 90 15 87 16 3 17 2 18 1 19 91 20 94 21 92 22
REMARK SMILES IDX 93 23 16 24 17 25 18 26 19 27 20 28 21 29 22 30 23 31 24 32
REMARK SMILES IDX 25 33 86 34 26 35 85 36 27 37 28 38 29 39 79 40 30 41 84 42
REMARK SMILES IDX 78 43 80 44 31 45 83 46 77 47 76 48 32 50 64 51 44 52 63 53
REMARK SMILES IDX 45 54 48 55 62 56 81 57 46 58 47 59 61 61 82 62 49 63 33 64
REMARK SMILES IDX 34 65 42 66 35 67 36 68 40 69 43 70 37 71 38 72 41 73 39 74
REMARK SMILES IDX 65 75 66 76 74 77 67 78 68 79 72 80 75 81 69 82 70 83 73 84
REMARK SMILES IDX 71 85 50 86 51 87 59 88 52 89 53 90 57 91 60 92 54 93 55 94
REMARK SMILES IDX 58 95 56 96
REMARK H PARENT 80 49 48 60
REMARK Flexibility Score: inf
ROOT
ATOM      1  O   UNL A   1      34.331  31.220  27.286  1.00  0.00    -0.377 OA
ENDROOT
BRANCH   1   2
ATOM      2  C   UNL A   1      34.377  29.828  27.566  1.00  0.00     0.188 C 
BRANCH   2   3
ATOM      3  C   UNL A   1      34.342  28.733  26.462  1.00  0.00     0.188 C 
BRANCH   3   4
ATOM      4  O   UNL A   1      33.368  28.914  25.443  1.00  0.00    -0.376 OA
BRANCH   4   5
ATOM      5  C   UNL A   1      33.656  28.428  24.144  1.00  0.00     0.202 C 
BRANCH   5   6
ATOM      6  C   UNL A   1      32.512  28.573  23.125  1.00  0.00     0.261 C 
BRANCH   6   7
ATOM      7  O   UNL A   1      31.306  27.867  23.478  1.00  0.00    -0.463 OA
BRANCH   7   8
ATOM      8  C   UNL A   1      31.210  26.628  22.934  1.00  0.00     0.310 C 
ATOM      9  O   UNL A   1      31.894  26.288  21.979  1.00  0.00    -0.252 OA
BRANCH   8  10
ATOM     10  C   UNL A   1      30.191  25.744  23.668  1.00  0.00     0.119 C 
ATOM     11  N   UNL A   1      32.019  24.378  24.522  1.00  0.00    -0.339 N 
ATOM     12  C   UNL A   1      30.775  24.346  23.759  1.00  0.00     0.134 C 
ATOM     13  C   UNL A   1      32.225  25.245  25.586  1.00  0.00     0.222 C 
ATOM     14  C   UNL A   1      31.036  26.051  26.063  1.00  0.00     0.101 C 
ATOM     15  O   UNL A   1      33.316  25.405  26.133  1.00  0.00    -0.275 OA
ATOM     16  C   UNL A   1      29.850  26.117  25.113  1.00  0.00     0.027 C 
BRANCH  11  17
ATOM     17  C   UNL A   1      33.152  23.638  23.982  1.00  0.00     0.154 C 
BRANCH  17  18
ATOM     18  C   UNL A   1      33.084  22.120  24.250  1.00  0.00     0.083 C 
ATOM     19  C   UNL A   1      32.315  21.388  23.154  1.00  0.00     0.044 C 
ATOM     20  C   UNL A   1      32.474  21.866  25.628  1.00  0.00     0.039 C 
ATOM     21  O   UNL A   1      34.426  21.585  24.318  1.00  0.00    -0.373 OA
ATOM     22  C   UNL A   1      33.675  21.934  26.541  1.00  0.00     0.031 C 
ATOM     23  C   UNL A   1      34.780  21.360  25.684  1.00  0.00     0.161 C 
ENDBRANCH  17  18
ENDBRANCH  11  17
ENDBRANCH   8  10
ENDBRANCH   7   8
ENDBRANCH   6   7
ENDBRANCH   5   6
ENDBRANCH   4   5
ENDBRANCH   3   4
ENDBRANCH   2   3
ENDBRANCH   1   2
BRANCH   1  24
ATOM     24  C   UNL A   1      34.207  32.105  28.382  1.00  0.00     0.188 C 
BRANCH  24  25
ATOM     25  C   UNL A   1      33.488  33.420  28.030  1.00  0.00     0.188 C 
BRANCH  25  26
ATOM     26  O   UNL A   1      33.398  34.310  29.129  1.00  0.00    -0.376 OA
BRANCH  26  27
ATOM     27  C   UNL A   1      33.205  35.696  28.916  1.00  0.00     0.202 C 
BRANCH  27  28
ATOM     28  C   UNL A   1      32.883  36.705  30.035  1.00  0.00     0.261 C 
BRANCH  28  29
ATOM     29  O   UNL A   1      32.116  36.269  31.159  1.00  0.00    -0.460 OA
BRANCH  29  30
ATOM     30  C   UNL A   1      32.650  36.371  32.390  1.00  0.00     0.338 C 
ATOM     31  O   UNL A   1      32.246  37.037  33.326  1.00  0.00    -0.246 OA
BRANCH  30  32
ATOM     32  C   UNL A   1      33.729  35.360  32.458  1.00  0.00     0.060 A 
ATOM     33  C   UNL A   1      33.424  34.038  32.818  1.00  0.00     0.016 A 
ATOM     34  C   UNL A   1      35.030  35.713  32.094  1.00  0.00     0.016 A 
ATOM     35  C   UNL A   1      34.426  33.068  32.839  1.00  0.00     0.010 A 
ATOM     36  C   UNL A   1      36.041  34.756  32.159  1.00  0.00     0.010 A 
ATOM     37  C   UNL A   1      35.747  33.442  32.566  1.00  0.00    -0.014 A 
BRANCH  37  38
ATOM     38  C   UNL A   1      36.868  32.573  32.988  1.00  0.00     0.031 A 
ATOM     39  C   UNL A   1      37.507  32.889  34.312  1.00  0.00     0.074 A 
ATOM     40  C   UNL A   1      37.339  31.581  32.215  1.00  0.00     0.049 A 
ATOM     41  N   UNL A   1      38.613  32.433  34.835  1.00  0.00    -0.248 NA
ATOM     42  C   UNL A   1      36.802  33.872  35.155  1.00  0.00     0.031 C 
ATOM     43  C   UNL A   1      36.764  31.149  30.944  1.00  0.00     0.029 A 
ATOM     44  N   UNL A   1      38.438  30.775  32.383  1.00  0.00    -0.354 N 
ATOM     45  C   UNL A   1      38.749  33.094  36.048  1.00  0.00     0.074 A 
ATOM     46  C   UNL A   1      37.625  33.990  36.183  1.00  0.00     0.031 C 
ATOM     47  C   UNL A   1      37.539  30.178  30.426  1.00  0.00     0.029 A 
ATOM     48  C   UNL A   1      38.687  29.958  31.307  1.00  0.00     0.049 A 
ATOM     49  H   UNL A   1      38.994  30.783  33.194  1.00  0.00     0.167 HD
ATOM     50  C   UNL A   1      39.732  32.964  36.967  1.00  0.00     0.037 A 
ATOM     51  C   UNL A   1      39.746  29.163  31.052  1.00  0.00     0.037 A 
ATOM     52  C   UNL A   1      40.846  32.068  36.823  1.00  0.00     0.049 A 
ATOM     53  C   UNL A   1      40.869  29.090  32.061  1.00  0.00     0.074 A 
ATOM     54  C   UNL A   1      41.891  31.846  37.699  1.00  0.00     0.029 A 
ATOM     55  N   UNL A   1      41.058  31.251  35.722  1.00  0.00    -0.354 N 
ATOM     56  N   UNL A   1      40.991  29.704  33.214  1.00  0.00    -0.248 NA
ATOM     57  C   UNL A   1      42.005  28.216  31.731  1.00  0.00     0.031 C 
ATOM     58  C   UNL A   1      42.769  30.938  37.103  1.00  0.00     0.029 A 
ATOM     59  C   UNL A   1      42.231  30.539  35.888  1.00  0.00     0.049 A 
ATOM     60  H   UNL A   1      40.463  31.189  34.940  1.00  0.00     0.167 HD
ATOM     61  C   UNL A   1      42.185  29.255  33.766  1.00  0.00     0.074 A 
ATOM     62  C   UNL A   1      42.755  28.319  32.820  1.00  0.00     0.031 C 
ATOM     63  C   UNL A   1      42.756  29.580  34.950  1.00  0.00     0.037 A 
BRANCH  50  64
ATOM     64  C   UNL A   1      39.670  33.833  38.186  1.00  0.00     0.064 A 
ATOM     65  C   UNL A   1      40.332  35.068  38.249  1.00  0.00     0.173 A 
ATOM     66  C   UNL A   1      38.901  33.442  39.292  1.00  0.00     0.173 A 
ATOM     67  F   UNL A   1      41.097  35.478  37.227  1.00  0.00    -0.203 F 
ATOM     68  C   UNL A   1      40.236  35.873  39.381  1.00  0.00     0.198 A 
ATOM     69  C   UNL A   1      38.781  34.264  40.409  1.00  0.00     0.198 A 
ATOM     70  F   UNL A   1      38.252  32.268  39.283  1.00  0.00    -0.203 F 
ATOM     71  F   UNL A   1      40.909  37.031  39.436  1.00  0.00    -0.200 F 
ATOM     72  C   UNL A   1      39.452  35.476  40.455  1.00  0.00     0.200 A 
ATOM     73  F   UNL A   1      38.012  33.883  41.439  1.00  0.00    -0.200 F 
ATOM     74  F   UNL A   1      39.347  36.259  41.536  1.00  0.00    -0.200 F 
ENDBRANCH  50  64
BRANCH  51  75
ATOM     75  C   UNL A   1      39.824  28.398  29.779  1.00  0.00     0.064 A 
ATOM     76  C   UNL A   1      39.283  27.108  29.675  1.00  0.00     0.173 A 
ATOM     77  C   UNL A   1      40.483  28.915  28.654  1.00  0.00     0.173 A 
ATOM     78  F   UNL A   1      38.664  26.555  30.730  1.00  0.00    -0.203 F 
ATOM     79  C   UNL A   1      39.425  26.356  28.510  1.00  0.00     0.198 A 
ATOM     80  C   UNL A   1      40.595  28.177  27.478  1.00  0.00     0.198 A 
ATOM     81  F   UNL A   1      41.022  30.144  28.696  1.00  0.00    -0.203 F 
ATOM     82  F   UNL A   1      38.954  25.102  28.462  1.00  0.00    -0.200 F 
ATOM     83  C   UNL A   1      40.078  26.893  27.410  1.00  0.00     0.200 A 
ATOM     84  F   UNL A   1      41.215  28.705  26.413  1.00  0.00    -0.200 F 
ATOM     85  F   UNL A   1      40.219  26.168  26.292  1.00  0.00    -0.200 F 
ENDBRANCH  51  75
BRANCH  63  86
ATOM     86  C   UNL A   1      44.015  28.866  35.347  1.00  0.00     0.064 A 
ATOM     87  C   UNL A   1      45.285  29.366  35.030  1.00  0.00     0.173 A 
ATOM     88  C   UNL A   1      43.941  27.714  36.148  1.00  0.00     0.173 A 
ATOM     89  F   UNL A   1      45.409  30.456  34.260  1.00  0.00    -0.203 F 
ATOM     90  C   UNL A   1      46.437  28.732  35.493  1.00  0.00     0.198 A 
ATOM     91  C   UNL A   1      45.093  27.104  36.635  1.00  0.00     0.198 A 
ATOM     92  F   UNL A   1      42.748  27.204  36.489  1.00  0.00    -0.203 F 
ATOM     93  F   UNL A   1      47.643  29.208  35.153  1.00  0.00    -0.200 F 
ATOM     94  C   UNL A   1      46.339  27.611  36.304  1.00  0.00     0.200 A 
ATOM     95  F   UNL A   1      44.993  26.034  37.436  1.00  0.00    -0.200 F 
ATOM     96  F   UNL A   1      47.449  27.019  36.768  1.00  0.00    -0.200 F 
ENDBRANCH  63  86
ENDBRANCH  37  38
ENDBRANCH  30  32
ENDBRANCH  29  30
ENDBRANCH  28  29
ENDBRANCH  27  28
ENDBRANCH  26  27
ENDBRANCH  25  26
ENDBRANCH  24  25
ENDBRANCH   1  24
TORSDOF 22
ENDMDL
MODEL 3
REMARK VINA RESULT:     -10.5      1.553      3.055
REMARK SMILES C[C@@]1(CN2C[C@H](C(=O)OCCOCCOCCOCCOC(=O)c3ccc(-c4c5nc(c(-c6c(F)c(F)c(F)c(F)c6F)c6ccc([nH]6)c(-c6c(F)c(F)c(F)c(F)c6F)c6nc(c(-c7c(F)c(F)c(F)c(F)c7F)c7ccc4[nH]7)C=C6)C=C5)cc3)CCC2=O)CCCO1
REMARK SMILES IDX 15 1 14 2 13 3 12 4 11 5 10 6 9 7 7 8 8 9 6 10 4 11 5 12
REMARK SMILES IDX 89 13 88 14 90 15 87 16 3 17 2 18 1 19 91 20 94 21 92 22
REMARK SMILES IDX 93 23 16 24 17 25 18 26 19 27 20 28 21 29 22 30 23 31 24 32
REMARK SMILES IDX 25 33 86 34 26 35 85 36 27 37 28 38 29 39 79 40 30 41 84 42
REMARK SMILES IDX 78 43 80 44 31 45 83 46 77 47 76 48 32 50 64 51 44 52 63 53
REMARK SMILES IDX 45 54 48 55 62 56 81 57 46 58 47 59 61 61 82 62 49 63 33 64
REMARK SMILES IDX 34 65 42 66 35 67 36 68 40 69 43 70 37 71 38 72 41 73 39 74
REMARK SMILES IDX 65 75 66 76 74 77 67 78 68 79 72 80 75 81 69 82 70 83 73 84
REMARK SMILES IDX 71 85 50 86 51 87 59 88 52 89 53 90 57 91 60 92 54 93 55 94
REMARK SMILES IDX 58 95 56 96
REMARK H PARENT 80 49 48 60
REMARK Flexibility Score: inf
ROOT
ATOM      1  O   UNL A   1      31.893  26.984  27.278  1.00  0.00    -0.377 OA
ENDROOT
BRANCH   1   2
ATOM      2  C   UNL A   1      30.872  26.399  26.482  1.00  0.00     0.188 C 
BRANCH   2   3
ATOM      3  C   UNL A   1      30.786  24.874  26.188  1.00  0.00     0.188 C 
BRANCH   3   4
ATOM      4  O   UNL A   1      31.183  24.017  27.249  1.00  0.00    -0.376 OA
BRANCH   4   5
ATOM      5  C   UNL A   1      32.510  23.520  27.252  1.00  0.00     0.202 C 
BRANCH   5   6
ATOM      6  C   UNL A   1      32.659  22.056  26.802  1.00  0.00     0.261 C 
BRANCH   6   7
ATOM      7  O   UNL A   1      33.627  21.848  25.755  1.00  0.00    -0.463 OA
BRANCH   7   8
ATOM      8  C   UNL A   1      33.131  22.007  24.503  1.00  0.00     0.310 C 
ATOM      9  O   UNL A   1      31.930  21.973  24.275  1.00  0.00    -0.252 OA
BRANCH   8  10
ATOM     10  C   UNL A   1      34.235  22.251  23.463  1.00  0.00     0.119 C 
ATOM     11  N   UNL A   1      33.548  24.584  23.310  1.00  0.00    -0.339 N 
ATOM     12  C   UNL A   1      33.763  23.361  22.542  1.00  0.00     0.134 C 
ATOM     13  C   UNL A   1      34.326  24.929  24.406  1.00  0.00     0.222 C 
ATOM     14  C   UNL A   1      35.546  24.078  24.684  1.00  0.00     0.101 C 
ATOM     15  O   UNL A   1      34.061  25.862  25.164  1.00  0.00    -0.275 OA
ATOM     16  C   UNL A   1      35.594  22.729  23.982  1.00  0.00     0.027 C 
BRANCH  11  17
ATOM     17  C   UNL A   1      32.323  25.330  23.049  1.00  0.00     0.154 C 
BRANCH  17  18
ATOM     18  C   UNL A   1      32.441  26.317  21.868  1.00  0.00     0.083 C 
ATOM     19  C   UNL A   1      32.528  25.589  20.530  1.00  0.00     0.044 C 
ATOM     20  C   UNL A   1      33.641  27.238  22.084  1.00  0.00     0.039 C 
ATOM     21  O   UNL A   1      31.285  27.187  21.855  1.00  0.00    -0.373 OA
ATOM     22  C   UNL A   1      33.057  28.358  22.912  1.00  0.00     0.031 C 
ATOM     23  C   UNL A   1      31.645  28.466  22.382  1.00  0.00     0.161 C 
ENDBRANCH  17  18
ENDBRANCH  11  17
ENDBRANCH   8  10
ENDBRANCH   7   8
ENDBRANCH   6   7
ENDBRANCH   5   6
ENDBRANCH   4   5
ENDBRANCH   3   4
ENDBRANCH   2   3
ENDBRANCH   1   2
BRANCH   1  24
ATOM     24  C   UNL A   1      31.777  28.359  27.586  1.00  0.00     0.188 C 
BRANCH  24  25
ATOM     25  C   UNL A   1      31.779  29.268  26.343  1.00  0.00     0.188 C 
BRANCH  25  26
ATOM     26  O   UNL A   1      32.387  30.526  26.582  1.00  0.00    -0.376 OA
BRANCH  26  27
ATOM     27  C   UNL A   1      31.627  31.717  26.503  1.00  0.00     0.202 C 
BRANCH  27  28
ATOM     28  C   UNL A   1      32.143  33.102  26.939  1.00  0.00     0.261 C 
BRANCH  28  29
ATOM     29  O   UNL A   1      32.982  33.195  28.092  1.00  0.00    -0.460 OA
BRANCH  29  30
ATOM     30  C   UNL A   1      34.126  33.898  28.009  1.00  0.00     0.338 C 
ATOM     31  O   UNL A   1      34.255  35.092  27.802  1.00  0.00    -0.246 OA
BRANCH  30  32
ATOM     32  C   UNL A   1      35.209  32.974  28.412  1.00  0.00     0.060 A 
ATOM     33  C   UNL A   1      34.925  31.617  28.629  1.00  0.00     0.016 A 
ATOM     34  C   UNL A   1      36.520  33.447  28.507  1.00  0.00     0.016 A 
ATOM     35  C   UNL A   1      35.948  30.731  28.963  1.00  0.00     0.010 A 
ATOM     36  C   UNL A   1      37.536  32.572  28.886  1.00  0.00     0.010 A 
ATOM     37  C   UNL A   1      37.246  31.221  29.150  1.00  0.00    -0.014 A 
BRANCH  37  38
ATOM     38  C   UNL A   1      38.240  30.426  29.904  1.00  0.00     0.031 A 
ATOM     39  C   UNL A   1      38.433  30.782  31.352  1.00  0.00     0.074 A 
ATOM     40  C   UNL A   1      38.981  29.467  29.326  1.00  0.00     0.049 A 
ATOM     41  N   UNL A   1      39.358  30.399  32.189  1.00  0.00    -0.248 NA
ATOM     42  C   UNL A   1      37.450  31.718  31.926  1.00  0.00     0.031 C 
ATOM     43  C   UNL A   1      38.841  28.999  27.949  1.00  0.00     0.029 A 
ATOM     44  N   UNL A   1      40.027  28.734  29.829  1.00  0.00    -0.354 N 
ATOM     45  C   UNL A   1      39.084  31.067  33.376  1.00  0.00     0.074 A 
ATOM     46  C   UNL A   1      37.918  31.888  33.151  1.00  0.00     0.031 C 
ATOM     47  C   UNL A   1      39.794  28.081  27.705  1.00  0.00     0.029 A 
ATOM     48  C   UNL A   1      40.637  27.935  28.892  1.00  0.00     0.049 A 
ATOM     49  H   UNL A   1      40.314  28.777  30.770  1.00  0.00     0.167 HD
ATOM     50  C   UNL A   1      39.752  31.000  34.548  1.00  0.00     0.037 A 
ATOM     51  C   UNL A   1      41.770  27.210  28.981  1.00  0.00     0.037 A 
ATOM     52  C   UNL A   1      40.911  30.178  34.761  1.00  0.00     0.049 A 
ATOM     53  C   UNL A   1      42.543  27.209  30.281  1.00  0.00     0.074 A 
ATOM     54  C   UNL A   1      41.658  30.023  35.913  1.00  0.00     0.029 A 
ATOM     55  N   UNL A   1      41.493  29.376  33.789  1.00  0.00    -0.354 N 
ATOM     56  N   UNL A   1      42.275  27.829  31.405  1.00  0.00    -0.248 NA
ATOM     57  C   UNL A   1      43.777  26.410  30.322  1.00  0.00     0.031 C 
ATOM     58  C   UNL A   1      42.728  29.173  35.624  1.00  0.00     0.029 A 
ATOM     59  C   UNL A   1      42.604  28.741  34.312  1.00  0.00     0.049 A 
ATOM     60  H   UNL A   1      41.164  29.276  32.867  1.00  0.00     0.167 HD
ATOM     61  C   UNL A   1      43.274  27.457  32.297  1.00  0.00     0.074 A 
ATOM     62  C   UNL A   1      44.158  26.561  31.583  1.00  0.00     0.031 C 
ATOM     63  C   UNL A   1      43.443  27.819  33.592  1.00  0.00     0.037 A 
BRANCH  50  64
ATOM     64  C   UNL A   1      39.275  31.863  35.676  1.00  0.00     0.064 A 
ATOM     65  C   UNL A   1      39.675  33.201  35.805  1.00  0.00     0.173 A 
ATOM     66  C   UNL A   1      38.368  31.353  36.619  1.00  0.00     0.173 A 
ATOM     67  F   UNL A   1      40.556  33.729  34.943  1.00  0.00    -0.203 F 
ATOM     68  C   UNL A   1      39.195  33.993  36.845  1.00  0.00     0.198 A 
ATOM     69  C   UNL A   1      37.866  32.157  37.638  1.00  0.00     0.198 A 
ATOM     70  F   UNL A   1      37.959  30.078  36.542  1.00  0.00    -0.203 F 
ATOM     71  F   UNL A   1      39.621  35.257  36.974  1.00  0.00    -0.200 F 
ATOM     72  C   UNL A   1      38.283  33.474  37.753  1.00  0.00     0.200 A 
ATOM     73  F   UNL A   1      36.975  31.657  38.505  1.00  0.00    -0.200 F 
ATOM     74  F   UNL A   1      37.809  34.243  38.743  1.00  0.00    -0.200 F 
ENDBRANCH  50  64
BRANCH  51  75
ATOM     75  C   UNL A   1      42.274  26.451  27.804  1.00  0.00     0.064 A 
ATOM     76  C   UNL A   1      41.877  25.126  27.574  1.00  0.00     0.173 A 
ATOM     77  C   UNL A   1      43.198  27.015  26.912  1.00  0.00     0.173 A 
ATOM     78  F   UNL A   1      41.014  24.530  28.411  1.00  0.00    -0.203 F 
ATOM     79  C   UNL A   1      42.408  24.386  26.519  1.00  0.00     0.198 A 
ATOM     80  C   UNL A   1      43.702  26.285  25.837  1.00  0.00     0.198 A 
ATOM     81  F   UNL A   1      43.615  28.279  27.084  1.00  0.00    -0.203 F 
ATOM     82  F   UNL A   1      42.059  23.101  26.362  1.00  0.00    -0.200 F 
ATOM     83  C   UNL A   1      43.318  24.967  25.648  1.00  0.00     0.200 A 
ATOM     84  F   UNL A   1      44.571  26.857  24.991  1.00  0.00    -0.200 F 
ATOM     85  F   UNL A   1      43.832  24.254  24.637  1.00  0.00    -0.200 F 
ENDBRANCH  51  75
BRANCH  63  86
ATOM     86  C   UNL A   1      44.568  27.187  34.361  1.00  0.00     0.064 A 
ATOM     87  C   UNL A   1      45.819  27.805  34.492  1.00  0.00     0.173 A 
ATOM     88  C   UNL A   1      44.348  25.990  35.061  1.00  0.00     0.173 A 
ATOM     89  F   UNL A   1      46.082  28.944  33.834  1.00  0.00    -0.203 F 
ATOM     90  C   UNL A   1      46.813  27.241  35.289  1.00  0.00     0.198 A 
ATOM     91  C   UNL A   1      45.331  25.447  35.882  1.00  0.00     0.198 A 
ATOM     92  F   UNL A   1      43.162  25.366  34.977  1.00  0.00    -0.203 F 
ATOM     93  F   UNL A   1      48.012  27.831  35.377  1.00  0.00    -0.200 F 
ATOM     94  C   UNL A   1      46.563  26.072  35.993  1.00  0.00     0.200 A 
ATOM     95  F   UNL A   1      45.079  24.329  36.576  1.00  0.00    -0.200 F 
ATOM     96  F   UNL A   1      47.513  25.545  36.779  1.00  0.00    -0.200 F 
ENDBRANCH  63  86
ENDBRANCH  37  38
ENDBRANCH  30  32
ENDBRANCH  29  30
ENDBRANCH  28  29
ENDBRANCH  27  28
ENDBRANCH  26  27
ENDBRANCH  25  26
ENDBRANCH  24  25
ENDBRANCH   1  24
TORSDOF 22
ENDMDL
