MODEL 1
REMARK VINA RESULT:     -10.7      0.000      0.000
REMARK SMILES CCN1C(=O)C[C@@H](C(=O)Nc2cccc(C(=O)OCCOCCOCCOCCOC(=O)c3ccc(-c4c5nc(c(-c6c(F)c(F)c(F)c(F)c6F)c6ccc([nH]6)c(-c6c(F)c(F)c(F)c(F)c6F)c6nc(c(-c7c(F)c(F)c(F)c(F)c7F)c7ccc4[nH]7)C=C6)C=C5)cc3)c2)S/C1=[NH+]/c1ccccc1
REMARK SMILES IDX 23 1 22 2 21 3 20 4 19 5 18 6 16 7 17 8 15 9 11 10 12 11
REMARK SMILES IDX 96 12 13 13 14 14 10 15 8 16 9 17 7 19 3 20 4 21 98 22 5 23
REMARK SMILES IDX 6 24 97 25 99 26 2 28 1 29 100 30 101 31 105 32 102 33
REMARK SMILES IDX 104 34 103 35 24 36 25 37 26 38 27 39 28 40 29 41 30 42
REMARK SMILES IDX 31 43 32 44 33 45 34 46 95 47 35 48 94 49 36 50 37 51 38 52
REMARK SMILES IDX 88 53 39 54 93 55 87 56 89 57 40 58 92 59 86 60 85 61 41 63
REMARK SMILES IDX 73 64 53 65 72 66 54 67 57 68 71 69 90 70 55 71 56 72 70 74
REMARK SMILES IDX 91 75 58 76 42 77 43 78 51 79 44 80 45 81 49 82 52 83 46 84
REMARK SMILES IDX 47 85 50 86 48 87 74 88 75 89 83 90 76 91 77 92 81 93 84 94
REMARK SMILES IDX 78 95 79 96 82 97 80 98 59 99 60 100 68 101 61 102 62 103
REMARK SMILES IDX 66 104 69 105 63 106 64 107 67 108 65 109
REMARK H PARENT 10 18 99 27 89 62 57 73
REMARK Flexibility Score: inf
ROOT
ATOM      1  C   UNL A   1      30.781  24.407  26.023  1.00  0.00     0.188 C 
ENDROOT
BRANCH   1   2
ATOM      2  C   UNL A   1      31.560  23.517  27.013  1.00  0.00     0.188 C 
BRANCH   2   3
ATOM      3  O   UNL A   1      32.090  22.342  26.423  1.00  0.00    -0.376 OA
BRANCH   3   4
ATOM      4  C   UNL A   1      31.422  21.702  25.351  1.00  0.00     0.202 C 
BRANCH   4   5
ATOM      5  C   UNL A   1      32.150  21.170  24.111  1.00  0.00     0.261 C 
BRANCH   5   6
ATOM      6  O   UNL A   1      32.220  19.753  23.938  1.00  0.00    -0.460 OA
BRANCH   6   7
ATOM      7  C   UNL A   1      32.754  18.975  24.897  1.00  0.00     0.338 C 
ATOM      8  O   UNL A   1      32.174  18.156  25.584  1.00  0.00    -0.246 OA
BRANCH   7   9
ATOM      9  C   UNL A   1      34.223  19.218  24.895  1.00  0.00     0.062 A 
ATOM     10  C   UNL A   1      36.086  20.764  25.125  1.00  0.00     0.042 A 
ATOM     11  C   UNL A   1      36.966  19.719  24.844  1.00  0.00     0.026 A 
ATOM     12  C   UNL A   1      34.724  20.517  25.045  1.00  0.00     0.041 A 
ATOM     13  C   UNL A   1      36.479  18.423  24.626  1.00  0.00     0.003 A 
ATOM     14  C   UNL A   1      35.107  18.163  24.691  1.00  0.00     0.016 A 
BRANCH  10  15
ATOM     15  N   UNL A   1      36.616  22.012  25.487  1.00  0.00    -0.325 N 
ATOM     16  C   UNL A   1      36.206  23.300  25.262  1.00  0.00     0.238 C 
ATOM     17  O   UNL A   1      36.982  24.188  25.642  1.00  0.00    -0.273 OA
ATOM     18  H   UNL A   1      37.450  21.949  26.007  1.00  0.00     0.169 HD
BRANCH  16  19
ATOM     19  C   UNL A   1      34.836  23.703  24.679  1.00  0.00     0.160 C 
ATOM     20  N   UNL A   1      33.521  25.503  22.724  1.00  0.00    -0.191 N 
ATOM     21  C   UNL A   1      33.515  24.129  22.591  1.00  0.00     0.311 C 
ATOM     22  C   UNL A   1      33.448  26.068  23.992  1.00  0.00     0.319 C 
ATOM     23  O   UNL A   1      32.687  23.514  21.923  1.00  0.00    -0.247 OA
ATOM     24  C   UNL A   1      34.683  23.422  23.206  1.00  0.00     0.153 C 
ATOM     25  S   UNL A   1      34.346  25.317  25.304  1.00  0.00    -0.024 SA
ATOM     26  N   UNL A   1      32.806  27.119  24.399  1.00  0.00    -0.235 N 
ATOM     27  H   UNL A   1      33.052  27.484  25.280  1.00  0.00     0.313 HD
BRANCH  20  28
ATOM     28  C   UNL A   1      33.279  26.298  21.508  1.00  0.00     0.243 C 
ATOM     29  C   UNL A   1      32.179  25.819  20.566  1.00  0.00     0.054 C 
ENDBRANCH  20  28
BRANCH  26  30
ATOM     30  C   UNL A   1      31.796  27.774  23.696  1.00  0.00     0.125 A 
ATOM     31  C   UNL A   1      32.084  28.960  23.014  1.00  0.00     0.051 A 
ATOM     32  C   UNL A   1      30.467  27.340  23.758  1.00  0.00     0.051 A 
ATOM     33  C   UNL A   1      31.080  29.642  22.323  1.00  0.00     0.004 A 
ATOM     34  C   UNL A   1      29.467  27.998  23.041  1.00  0.00     0.004 A 
ATOM     35  C   UNL A   1      29.777  29.146  22.317  1.00  0.00     0.000 A 
ENDBRANCH  26  30
ENDBRANCH  16  19
ENDBRANCH  10  15
ENDBRANCH   7   9
ENDBRANCH   6   7
ENDBRANCH   5   6
ENDBRANCH   4   5
ENDBRANCH   3   4
ENDBRANCH   2   3
ENDBRANCH   1   2
BRANCH   1  36
ATOM     36  O   UNL A   1      30.484  25.703  26.519  1.00  0.00    -0.377 OA
BRANCH  36  37
ATOM     37  C   UNL A   1      31.507  26.416  27.215  1.00  0.00     0.188 C 
BRANCH  37  38
ATOM     38  C   UNL A   1      31.388  27.926  27.541  1.00  0.00     0.188 C 
BRANCH  38  39
ATOM     39  O   UNL A   1      32.019  28.790  26.611  1.00  0.00    -0.376 OA
BRANCH  39  40
ATOM     40  C   UNL A   1      31.780  30.183  26.671  1.00  0.00     0.202 C 
BRANCH  40  41
ATOM     41  C   UNL A   1      32.942  31.074  27.129  1.00  0.00     0.261 C 
BRANCH  41  42
ATOM     42  O   UNL A   1      34.087  30.386  27.648  1.00  0.00    -0.460 OA
BRANCH  42  43
ATOM     43  C   UNL A   1      34.836  31.040  28.559  1.00  0.00     0.338 C 
ATOM     44  O   UNL A   1      34.487  31.958  29.284  1.00  0.00    -0.246 OA
BRANCH  43  45
ATOM     45  C   UNL A   1      36.124  30.330  28.668  1.00  0.00     0.060 A 
ATOM     46  C   UNL A   1      36.430  29.650  29.854  1.00  0.00     0.016 A 
ATOM     47  C   UNL A   1      37.020  30.334  27.598  1.00  0.00     0.016 A 
ATOM     48  C   UNL A   1      37.658  29.003  29.987  1.00  0.00     0.010 A 
ATOM     49  C   UNL A   1      38.258  29.706  27.740  1.00  0.00     0.010 A 
ATOM     50  C   UNL A   1      38.595  29.070  28.949  1.00  0.00    -0.014 A 
BRANCH  50  51
ATOM     51  C   UNL A   1      39.999  28.667  29.199  1.00  0.00     0.031 A 
ATOM     52  C   UNL A   1      40.891  29.626  29.937  1.00  0.00     0.074 A 
ATOM     53  C   UNL A   1      40.467  27.473  28.797  1.00  0.00     0.049 A 
ATOM     54  N   UNL A   1      42.165  29.534  30.216  1.00  0.00    -0.248 NA
ATOM     55  C   UNL A   1      40.257  30.863  30.420  1.00  0.00     0.031 C 
ATOM     56  C   UNL A   1      39.687  26.445  28.114  1.00  0.00     0.029 A 
ATOM     57  N   UNL A   1      41.726  26.934  28.897  1.00  0.00    -0.354 N 
ATOM     58  C   UNL A   1      42.485  30.701  30.897  1.00  0.00     0.074 A 
ATOM     59  C   UNL A   1      41.282  31.501  30.963  1.00  0.00     0.031 C 
ATOM     60  C   UNL A   1      40.490  25.401  27.841  1.00  0.00     0.029 A 
ATOM     61  C   UNL A   1      41.845  25.706  28.296  1.00  0.00     0.049 A 
ATOM     62  H   UNL A   1      42.470  27.385  29.357  1.00  0.00     0.167 HD
ATOM     63  C   UNL A   1      43.675  31.068  31.428  1.00  0.00     0.037 A 
ATOM     64  C   UNL A   1      42.935  24.935  28.111  1.00  0.00     0.037 A 
ATOM     65  C   UNL A   1      44.869  30.270  31.357  1.00  0.00     0.049 A 
ATOM     66  C   UNL A   1      44.269  25.405  28.641  1.00  0.00     0.074 A 
ATOM     67  C   UNL A   1      46.122  30.542  31.876  1.00  0.00     0.029 A 
ATOM     68  N   UNL A   1      44.960  29.043  30.715  1.00  0.00    -0.354 N 
ATOM     69  N   UNL A   1      44.562  26.495  29.308  1.00  0.00    -0.248 NA
ATOM     70  C   UNL A   1      45.425  24.531  28.392  1.00  0.00     0.031 C 
ATOM     71  C   UNL A   1      46.986  29.513  31.493  1.00  0.00     0.029 A 
ATOM     72  C   UNL A   1      46.257  28.562  30.798  1.00  0.00     0.049 A 
ATOM     73  H   UNL A   1      44.214  28.582  30.266  1.00  0.00     0.167 HD
ATOM     74  C   UNL A   1      45.922  26.422  29.588  1.00  0.00     0.074 A 
ATOM     75  C   UNL A   1      46.393  25.173  29.030  1.00  0.00     0.031 C 
ATOM     76  C   UNL A   1      46.709  27.308  30.248  1.00  0.00     0.037 A 
BRANCH  63  77
ATOM     77  C   UNL A   1      43.751  32.408  32.102  1.00  0.00     0.064 A 
ATOM     78  C   UNL A   1      43.636  32.547  33.493  1.00  0.00     0.173 A 
ATOM     79  C   UNL A   1      43.977  33.568  31.345  1.00  0.00     0.173 A 
ATOM     80  F   UNL A   1      43.405  31.472  34.263  1.00  0.00    -0.203 F 
ATOM     81  C   UNL A   1      43.718  33.799  34.099  1.00  0.00     0.198 A 
ATOM     82  C   UNL A   1      44.091  34.814  31.956  1.00  0.00     0.198 A 
ATOM     83  F   UNL A   1      44.096  33.494  30.011  1.00  0.00    -0.203 F 
ATOM     84  F   UNL A   1      43.553  33.912  35.424  1.00  0.00    -0.200 F 
ATOM     85  C   UNL A   1      43.953  34.929  33.332  1.00  0.00     0.200 A 
ATOM     86  F   UNL A   1      44.333  35.903  31.214  1.00  0.00    -0.200 F 
ATOM     87  F   UNL A   1      44.042  36.132  33.916  1.00  0.00    -0.200 F 
ENDBRANCH  63  77
BRANCH  64  88
ATOM     88  C   UNL A   1      42.822  23.647  27.377  1.00  0.00     0.064 A 
ATOM     89  C   UNL A   1      42.378  22.482  28.020  1.00  0.00     0.173 A 
ATOM     90  C   UNL A   1      43.191  23.544  26.027  1.00  0.00     0.173 A 
ATOM     91  F   UNL A   1      42.043  22.521  29.318  1.00  0.00    -0.203 F 
ATOM     92  C   UNL A   1      42.330  21.262  27.348  1.00  0.00     0.198 A 
ATOM     93  C   UNL A   1      43.111  22.331  25.347  1.00  0.00     0.198 A 
ATOM     94  F   UNL A   1      43.633  24.625  25.367  1.00  0.00    -0.203 F 
ATOM     95  F   UNL A   1      41.961  20.154  28.004  1.00  0.00    -0.200 F 
ATOM     96  C   UNL A   1      42.691  21.188  26.010  1.00  0.00     0.200 A 
ATOM     97  F   UNL A   1      43.456  22.264  24.054  1.00  0.00    -0.200 F 
ATOM     98  F   UNL A   1      42.650  20.013  25.367  1.00  0.00    -0.200 F 
ENDBRANCH  64  88
BRANCH  76  99
ATOM     99  C   UNL A   1      48.152  26.940  30.451  1.00  0.00     0.064 A 
ATOM    100  C   UNL A   1      48.579  26.192  31.558  1.00  0.00     0.173 A 
ATOM    101  C   UNL A   1      49.115  27.303  29.495  1.00  0.00     0.173 A 
ATOM    102  F   UNL A   1      47.703  25.828  32.506  1.00  0.00    -0.203 F 
ATOM    103  C   UNL A   1      49.920  25.848  31.715  1.00  0.00     0.198 A 
ATOM    104  C   UNL A   1      50.447  26.925  29.637  1.00  0.00     0.198 A 
ATOM    105  F   UNL A   1      48.760  28.009  28.411  1.00  0.00    -0.203 F 
ATOM    106  F   UNL A   1      50.313  25.178  32.808  1.00  0.00    -0.200 F 
ATOM    107  C   UNL A   1      50.850  26.206  30.751  1.00  0.00     0.200 A 
ATOM    108  F   UNL A   1      51.340  27.257  28.694  1.00  0.00    -0.200 F 
ATOM    109  F   UNL A   1      52.138  25.865  30.900  1.00  0.00    -0.200 F 
ENDBRANCH  76  99
ENDBRANCH  50  51
ENDBRANCH  43  45
ENDBRANCH  42  43
ENDBRANCH  41  42
ENDBRANCH  40  41
ENDBRANCH  39  40
ENDBRANCH  38  39
ENDBRANCH  37  38
ENDBRANCH  36  37
ENDBRANCH   1  36
TORSDOF 24
ENDMDL
MODEL 2
REMARK VINA RESULT:     -10.0      1.384      2.205
REMARK SMILES CCN1C(=O)C[C@@H](C(=O)Nc2cccc(C(=O)OCCOCCOCCOCCOC(=O)c3ccc(-c4c5nc(c(-c6c(F)c(F)c(F)c(F)c6F)c6ccc([nH]6)c(-c6c(F)c(F)c(F)c(F)c6F)c6nc(c(-c7c(F)c(F)c(F)c(F)c7F)c7ccc4[nH]7)C=C6)C=C5)cc3)c2)S/C1=[NH+]/c1ccccc1
REMARK SMILES IDX 23 1 22 2 21 3 20 4 19 5 18 6 16 7 17 8 15 9 11 10 12 11
REMARK SMILES IDX 96 12 13 13 14 14 10 15 8 16 9 17 7 19 3 20 4 21 98 22 5 23
REMARK SMILES IDX 6 24 97 25 99 26 2 28 1 29 100 30 101 31 105 32 102 33
REMARK SMILES IDX 104 34 103 35 24 36 25 37 26 38 27 39 28 40 29 41 30 42
REMARK SMILES IDX 31 43 32 44 33 45 34 46 95 47 35 48 94 49 36 50 37 51 38 52
REMARK SMILES IDX 88 53 39 54 93 55 87 56 89 57 40 58 92 59 86 60 85 61 41 63
REMARK SMILES IDX 73 64 53 65 72 66 54 67 57 68 71 69 90 70 55 71 56 72 70 74
REMARK SMILES IDX 91 75 58 76 42 77 43 78 51 79 44 80 45 81 49 82 52 83 46 84
REMARK SMILES IDX 47 85 50 86 48 87 74 88 75 89 83 90 76 91 77 92 81 93 84 94
REMARK SMILES IDX 78 95 79 96 82 97 80 98 59 99 60 100 68 101 61 102 62 103
REMARK SMILES IDX 66 104 69 105 63 106 64 107 67 108 65 109
REMARK H PARENT 10 18 99 27 89 62 57 73
REMARK Flexibility Score: inf
ROOT
ATOM      1  C   UNL A   1      31.023  24.882  26.364  1.00  0.00     0.188 C 
ENDROOT
BRANCH   1   2
ATOM      2  C   UNL A   1      30.028  23.770  26.758  1.00  0.00     0.188 C 
BRANCH   2   3
ATOM      3  O   UNL A   1      30.322  22.514  26.170  1.00  0.00    -0.376 OA
BRANCH   3   4
ATOM      4  C   UNL A   1      31.403  22.367  25.269  1.00  0.00     0.202 C 
BRANCH   4   5
ATOM      5  C   UNL A   1      32.399  21.203  25.341  1.00  0.00     0.261 C 
BRANCH   5   6
ATOM      6  O   UNL A   1      32.127  20.046  24.548  1.00  0.00    -0.460 OA
BRANCH   6   7
ATOM      7  C   UNL A   1      32.715  18.870  24.834  1.00  0.00     0.338 C 
ATOM      8  O   UNL A   1      32.170  17.791  24.964  1.00  0.00    -0.246 OA
BRANCH   7   9
ATOM      9  C   UNL A   1      34.185  19.105  24.859  1.00  0.00     0.062 A 
ATOM     10  C   UNL A   1      36.051  20.640  25.127  1.00  0.00     0.042 A 
ATOM     11  C   UNL A   1      36.931  19.592  24.856  1.00  0.00     0.026 A 
ATOM     12  C   UNL A   1      34.690  20.401  25.023  1.00  0.00     0.041 A 
ATOM     13  C   UNL A   1      36.440  18.299  24.623  1.00  0.00     0.003 A 
ATOM     14  C   UNL A   1      35.067  18.046  24.664  1.00  0.00     0.016 A 
BRANCH  10  15
ATOM     15  N   UNL A   1      36.582  21.883  25.505  1.00  0.00    -0.325 N 
ATOM     16  C   UNL A   1      36.176  23.174  25.289  1.00  0.00     0.238 C 
ATOM     17  O   UNL A   1      36.951  24.057  25.683  1.00  0.00    -0.273 OA
ATOM     18  H   UNL A   1      37.412  21.813  26.029  1.00  0.00     0.169 HD
BRANCH  16  19
ATOM     19  C   UNL A   1      34.811  23.586  24.702  1.00  0.00     0.160 C 
ATOM     20  N   UNL A   1      33.514  25.388  22.737  1.00  0.00    -0.191 N 
ATOM     21  C   UNL A   1      33.498  24.014  22.609  1.00  0.00     0.311 C 
ATOM     22  C   UNL A   1      33.442  25.959  24.003  1.00  0.00     0.319 C 
ATOM     23  O   UNL A   1      32.667  23.403  21.942  1.00  0.00    -0.247 OA
ATOM     24  C   UNL A   1      34.659  23.301  23.230  1.00  0.00     0.153 C 
ATOM     25  S   UNL A   1      34.331  25.206  25.319  1.00  0.00    -0.024 SA
ATOM     26  N   UNL A   1      32.807  27.016  24.404  1.00  0.00    -0.235 N 
ATOM     27  H   UNL A   1      33.054  27.383  25.285  1.00  0.00     0.313 HD
BRANCH  20  28
ATOM     28  C   UNL A   1      33.281  26.181  21.518  1.00  0.00     0.243 C 
ATOM     29  C   UNL A   1      32.088  25.794  20.650  1.00  0.00     0.054 C 
ENDBRANCH  20  28
BRANCH  26  30
ATOM     30  C   UNL A   1      31.804  27.677  23.697  1.00  0.00     0.125 A 
ATOM     31  C   UNL A   1      32.090  28.884  23.055  1.00  0.00     0.051 A 
ATOM     32  C   UNL A   1      30.480  27.223  23.716  1.00  0.00     0.051 A 
ATOM     33  C   UNL A   1      31.093  29.572  22.359  1.00  0.00     0.004 A 
ATOM     34  C   UNL A   1      29.487  27.886  22.995  1.00  0.00     0.004 A 
ATOM     35  C   UNL A   1      29.797  29.058  22.310  1.00  0.00     0.000 A 
ENDBRANCH  26  30
ENDBRANCH  16  19
ENDBRANCH  10  15
ENDBRANCH   7   9
ENDBRANCH   6   7
ENDBRANCH   5   6
ENDBRANCH   4   5
ENDBRANCH   3   4
ENDBRANCH   2   3
ENDBRANCH   1   2
BRANCH   1  36
ATOM     36  O   UNL A   1      30.663  26.172  26.829  1.00  0.00    -0.377 OA
BRANCH  36  37
ATOM     37  C   UNL A   1      31.690  27.028  27.330  1.00  0.00     0.188 C 
BRANCH  37  38
ATOM     38  C   UNL A   1      31.455  28.535  27.602  1.00  0.00     0.188 C 
BRANCH  38  39
ATOM     39  O   UNL A   1      31.327  29.339  26.441  1.00  0.00    -0.376 OA
BRANCH  39  40
ATOM     40  C   UNL A   1      32.165  30.466  26.271  1.00  0.00     0.202 C 
BRANCH  40  41
ATOM     41  C   UNL A   1      33.624  30.328  26.726  1.00  0.00     0.261 C 
BRANCH  41  42
ATOM     42  O   UNL A   1      33.944  30.934  27.984  1.00  0.00    -0.460 OA
BRANCH  42  43
ATOM     43  C   UNL A   1      35.037  31.724  28.026  1.00  0.00     0.338 C 
ATOM     44  O   UNL A   1      35.075  32.941  27.941  1.00  0.00    -0.246 OA
BRANCH  43  45
ATOM     45  C   UNL A   1      36.187  30.872  28.380  1.00  0.00     0.060 A 
ATOM     46  C   UNL A   1      36.138  30.112  29.555  1.00  0.00     0.016 A 
ATOM     47  C   UNL A   1      37.308  30.825  27.548  1.00  0.00     0.016 A 
ATOM     48  C   UNL A   1      37.231  29.329  29.923  1.00  0.00     0.010 A 
ATOM     49  C   UNL A   1      38.410  30.059  27.929  1.00  0.00     0.010 A 
ATOM     50  C   UNL A   1      38.389  29.338  29.136  1.00  0.00    -0.014 A 
BRANCH  50  51
ATOM     51  C   UNL A   1      39.648  28.772  29.676  1.00  0.00     0.031 A 
ATOM     52  C   UNL A   1      40.329  29.502  30.800  1.00  0.00     0.074 A 
ATOM     53  C   UNL A   1      40.167  27.630  29.192  1.00  0.00     0.049 A 
ATOM     54  N   UNL A   1      41.466  29.248  31.392  1.00  0.00    -0.248 NA
ATOM     55  C   UNL A   1      39.629  30.687  31.323  1.00  0.00     0.031 C 
ATOM     56  C   UNL A   1      39.575  26.813  28.136  1.00  0.00     0.029 A 
ATOM     57  N   UNL A   1      41.324  26.972  29.524  1.00  0.00    -0.354 N 
ATOM     58  C   UNL A   1      41.623  30.243  32.347  1.00  0.00     0.074 A 
ATOM     59  C   UNL A   1      40.481  31.124  32.238  1.00  0.00     0.031 C 
ATOM     60  C   UNL A   1      40.383  25.766  27.894  1.00  0.00     0.029 A 
ATOM     61  C   UNL A   1      41.564  25.863  28.751  1.00  0.00     0.049 A 
ATOM     62  H   UNL A   1      41.923  27.266  30.247  1.00  0.00     0.167 HD
ATOM     63  C   UNL A   1      42.625  30.403  33.243  1.00  0.00     0.037 A 
ATOM     64  C   UNL A   1      42.633  25.042  28.723  1.00  0.00     0.037 A 
ATOM     65  C   UNL A   1      43.760  29.525  33.345  1.00  0.00     0.049 A 
ATOM     66  C   UNL A   1      43.777  25.289  29.677  1.00  0.00     0.074 A 
ATOM     67  C   UNL A   1      44.823  29.588  34.228  1.00  0.00     0.029 A 
ATOM     68  N   UNL A   1      43.985  28.427  32.526  1.00  0.00    -0.354 N 
ATOM     69  N   UNL A   1      43.909  26.214  30.597  1.00  0.00    -0.248 NA
ATOM     70  C   UNL A   1      44.923  24.372  29.587  1.00  0.00     0.031 C 
ATOM     71  C   UNL A   1      45.722  28.569  33.902  1.00  0.00     0.029 A 
ATOM     72  C   UNL A   1      45.186  27.825  32.864  1.00  0.00     0.049 A 
ATOM     73  H   UNL A   1      43.381  28.122  31.811  1.00  0.00     0.167 HD
ATOM     74  C   UNL A   1      45.129  25.971  31.216  1.00  0.00     0.074 A 
ATOM     75  C   UNL A   1      45.694  24.802  30.576  1.00  0.00     0.031 C 
ATOM     76  C   UNL A   1      45.729  26.652  32.225  1.00  0.00     0.037 A 
BRANCH  63  77
ATOM     77  C   UNL A   1      42.557  31.591  34.159  1.00  0.00     0.064 A 
ATOM     78  C   UNL A   1      43.125  32.826  33.814  1.00  0.00     0.173 A 
ATOM     79  C   UNL A   1      41.883  31.499  35.386  1.00  0.00     0.173 A 
ATOM     80  F   UNL A   1      43.794  32.964  32.658  1.00  0.00    -0.203 F 
ATOM     81  C   UNL A   1      43.044  33.918  34.675  1.00  0.00     0.198 A 
ATOM     82  C   UNL A   1      41.776  32.602  36.230  1.00  0.00     0.198 A 
ATOM     83  F   UNL A   1      41.320  30.343  35.765  1.00  0.00    -0.203 F 
ATOM     84  F   UNL A   1      43.639  35.074  34.347  1.00  0.00    -0.200 F 
ATOM     85  C   UNL A   1      42.363  33.808  35.877  1.00  0.00     0.200 A 
ATOM     86  F   UNL A   1      41.104  32.497  37.385  1.00  0.00    -0.200 F 
ATOM     87  F   UNL A   1      42.277  34.861  36.701  1.00  0.00    -0.200 F 
ENDBRANCH  63  77
BRANCH  64  88
ATOM     88  C   UNL A   1      42.685  23.918  27.751  1.00  0.00     0.064 A 
ATOM     89  C   UNL A   1      43.170  24.107  26.449  1.00  0.00     0.173 A 
ATOM     90  C   UNL A   1      42.217  22.640  28.091  1.00  0.00     0.173 A 
ATOM     91  F   UNL A   1      43.600  25.318  26.064  1.00  0.00    -0.203 F 
ATOM     92  C   UNL A   1      43.162  23.069  25.519  1.00  0.00     0.198 A 
ATOM     93  C   UNL A   1      42.241  21.593  27.171  1.00  0.00     0.198 A 
ATOM     94  F   UNL A   1      41.733  22.406  29.320  1.00  0.00    -0.203 F 
ATOM     95  F   UNL A   1      43.574  23.295  24.264  1.00  0.00    -0.200 F 
ATOM     96  C   UNL A   1      42.704  21.812  25.882  1.00  0.00     0.200 A 
ATOM     97  F   UNL A   1      41.801  20.379  27.527  1.00  0.00    -0.200 F 
ATOM     98  F   UNL A   1      42.692  20.816  24.985  1.00  0.00    -0.200 F 
ENDBRANCH  64  88
BRANCH  76  99
ATOM     99  C   UNL A   1      47.040  26.125  32.737  1.00  0.00     0.064 A 
ATOM    100  C   UNL A   1      47.108  25.178  33.769  1.00  0.00     0.173 A 
ATOM    101  C   UNL A   1      48.246  26.542  32.150  1.00  0.00     0.173 A 
ATOM    102  F   UNL A   1      45.988  24.754  34.372  1.00  0.00    -0.203 F 
ATOM    103  C   UNL A   1      48.335  24.692  34.215  1.00  0.00     0.198 A 
ATOM    104  C   UNL A   1      49.468  26.026  32.573  1.00  0.00     0.198 A 
ATOM    105  F   UNL A   1      48.240  27.438  31.151  1.00  0.00    -0.203 F 
ATOM    106  F   UNL A   1      48.378  23.828  35.239  1.00  0.00    -0.200 F 
ATOM    107  C   UNL A   1      49.512  25.109  33.611  1.00  0.00     0.200 A 
ATOM    108  F   UNL A   1      50.602  26.416  31.975  1.00  0.00    -0.200 F 
ATOM    109  F   UNL A   1      50.691  24.631  34.036  1.00  0.00    -0.200 F 
ENDBRANCH  76  99
ENDBRANCH  50  51
ENDBRANCH  43  45
ENDBRANCH  42  43
ENDBRANCH  41  42
ENDBRANCH  40  41
ENDBRANCH  39  40
ENDBRANCH  38  39
ENDBRANCH  37  38
ENDBRANCH  36  37
ENDBRANCH   1  36
TORSDOF 24
ENDMDL
MODEL 3
REMARK VINA RESULT:      -9.1      5.716      8.121
REMARK SMILES CCN1C(=O)C[C@@H](C(=O)Nc2cccc(C(=O)OCCOCCOCCOCCOC(=O)c3ccc(-c4c5nc(c(-c6c(F)c(F)c(F)c(F)c6F)c6ccc([nH]6)c(-c6c(F)c(F)c(F)c(F)c6F)c6nc(c(-c7c(F)c(F)c(F)c(F)c7F)c7ccc4[nH]7)C=C6)C=C5)cc3)c2)S/C1=[NH+]/c1ccccc1
REMARK SMILES IDX 23 1 22 2 21 3 20 4 19 5 18 6 16 7 17 8 15 9 11 10 12 11
REMARK SMILES IDX 96 12 13 13 14 14 10 15 8 16 9 17 7 19 3 20 4 21 98 22 5 23
REMARK SMILES IDX 6 24 97 25 99 26 2 28 1 29 100 30 101 31 105 32 102 33
REMARK SMILES IDX 104 34 103 35 24 36 25 37 26 38 27 39 28 40 29 41 30 42
REMARK SMILES IDX 31 43 32 44 33 45 34 46 95 47 35 48 94 49 36 50 37 51 38 52
REMARK SMILES IDX 88 53 39 54 93 55 87 56 89 57 40 58 92 59 86 60 85 61 41 63
REMARK SMILES IDX 73 64 53 65 72 66 54 67 57 68 71 69 90 70 55 71 56 72 70 74
REMARK SMILES IDX 91 75 58 76 42 77 43 78 51 79 44 80 45 81 49 82 52 83 46 84
REMARK SMILES IDX 47 85 50 86 48 87 74 88 75 89 83 90 76 91 77 92 81 93 84 94
REMARK SMILES IDX 78 95 79 96 82 97 80 98 59 99 60 100 68 101 61 102 62 103
REMARK SMILES IDX 66 104 69 105 63 106 64 107 67 108 65 109
REMARK H PARENT 10 18 99 27 89 62 57 73
REMARK Flexibility Score: inf
ROOT
ATOM      1  C   UNL A   1      31.252  24.596  26.825  1.00  0.00     0.188 C 
ENDROOT
BRANCH   1   2
ATOM      2  C   UNL A   1      29.994  23.704  26.872  1.00  0.00     0.188 C 
BRANCH   2   3
ATOM      3  O   UNL A   1      30.067  22.577  26.015  1.00  0.00    -0.376 OA
BRANCH   3   4
ATOM      4  C   UNL A   1      31.207  22.350  25.207  1.00  0.00     0.202 C 
BRANCH   4   5
ATOM      5  C   UNL A   1      32.182  21.190  25.445  1.00  0.00     0.261 C 
BRANCH   5   6
ATOM      6  O   UNL A   1      32.119  20.076  24.553  1.00  0.00    -0.460 OA
BRANCH   6   7
ATOM      7  C   UNL A   1      32.679  18.900  24.893  1.00  0.00     0.338 C 
ATOM      8  O   UNL A   1      32.105  17.845  25.087  1.00  0.00    -0.246 OA
BRANCH   7   9
ATOM      9  C   UNL A   1      34.155  19.093  24.882  1.00  0.00     0.062 A 
ATOM     10  C   UNL A   1      36.068  20.585  25.046  1.00  0.00     0.042 A 
ATOM     11  C   UNL A   1      36.913  19.500  24.812  1.00  0.00     0.026 A 
ATOM     12  C   UNL A   1      34.698  20.380  24.975  1.00  0.00     0.041 A 
ATOM     13  C   UNL A   1      36.382  18.213  24.651  1.00  0.00     0.003 A 
ATOM     14  C   UNL A   1      35.003  18.001  24.726  1.00  0.00     0.016 A 
BRANCH  10  15
ATOM     15  N   UNL A   1      36.639  21.829  25.353  1.00  0.00    -0.325 N 
ATOM     16  C   UNL A   1      36.250  23.120  25.109  1.00  0.00     0.238 C 
ATOM     17  O   UNL A   1      37.060  23.999  25.435  1.00  0.00    -0.273 OA
ATOM     18  H   UNL A   1      37.491  21.760  25.843  1.00  0.00     0.169 HD
BRANCH  16  19
ATOM     19  C   UNL A   1      34.868  23.540  24.568  1.00  0.00     0.160 C 
ATOM     20  N   UNL A   1      33.516  25.359  22.656  1.00  0.00    -0.191 N 
ATOM     21  C   UNL A   1      33.492  23.986  22.520  1.00  0.00     0.311 C 
ATOM     22  C   UNL A   1      33.486  25.922  23.928  1.00  0.00     0.319 C 
ATOM     23  O   UNL A   1      32.637  23.382  21.875  1.00  0.00    -0.247 OA
ATOM     24  C   UNL A   1      34.669  23.265  23.099  1.00  0.00     0.153 C 
ATOM     25  S   UNL A   1      34.414  25.157  25.210  1.00  0.00    -0.024 SA
ATOM     26  N   UNL A   1      32.867  26.978  24.356  1.00  0.00    -0.235 N 
ATOM     27  H   UNL A   1      33.143  27.338  25.230  1.00  0.00     0.313 HD
BRANCH  20  28
ATOM     28  C   UNL A   1      33.247  26.161  21.451  1.00  0.00     0.243 C 
ATOM     29  C   UNL A   1      32.277  25.579  20.426  1.00  0.00     0.054 C 
ENDBRANCH  20  28
BRANCH  26  30
ATOM     30  C   UNL A   1      31.845  27.646  23.684  1.00  0.00     0.125 A 
ATOM     31  C   UNL A   1      32.111  28.864  23.053  1.00  0.00     0.051 A 
ATOM     32  C   UNL A   1      30.523  27.189  23.732  1.00  0.00     0.051 A 
ATOM     33  C   UNL A   1      31.094  29.559  22.394  1.00  0.00     0.004 A 
ATOM     34  C   UNL A   1      29.510  27.860  23.046  1.00  0.00     0.004 A 
ATOM     35  C   UNL A   1      29.799  29.043  22.371  1.00  0.00     0.000 A 
ENDBRANCH  26  30
ENDBRANCH  16  19
ENDBRANCH  10  15
ENDBRANCH   7   9
ENDBRANCH   6   7
ENDBRANCH   5   6
ENDBRANCH   4   5
ENDBRANCH   3   4
ENDBRANCH   2   3
ENDBRANCH   1   2
BRANCH   1  36
ATOM     36  O   UNL A   1      30.975  25.987  26.812  1.00  0.00    -0.377 OA
BRANCH  36  37
ATOM     37  C   UNL A   1      31.981  26.886  27.281  1.00  0.00     0.188 C 
BRANCH  37  38
ATOM     38  C   UNL A   1      31.674  28.365  27.628  1.00  0.00     0.188 C 
BRANCH  38  39
ATOM     39  O   UNL A   1      31.594  29.237  26.513  1.00  0.00    -0.376 OA
BRANCH  39  40
ATOM     40  C   UNL A   1      32.321  30.450  26.516  1.00  0.00     0.202 C 
BRANCH  40  41
ATOM     41  C   UNL A   1      33.796  30.380  26.933  1.00  0.00     0.261 C 
BRANCH  41  42
ATOM     42  O   UNL A   1      34.138  31.080  28.135  1.00  0.00    -0.460 OA
BRANCH  42  43
ATOM     43  C   UNL A   1      34.183  32.427  28.070  1.00  0.00     0.338 C 
ATOM     44  O   UNL A   1      33.276  33.185  27.766  1.00  0.00    -0.246 OA
BRANCH  43  45
ATOM     45  C   UNL A   1      35.485  32.854  28.614  1.00  0.00     0.060 A 
ATOM     46  C   UNL A   1      36.537  31.931  28.671  1.00  0.00     0.016 A 
ATOM     47  C   UNL A   1      35.664  34.165  29.059  1.00  0.00     0.016 A 
ATOM     48  C   UNL A   1      37.764  32.308  29.214  1.00  0.00     0.010 A 
ATOM     49  C   UNL A   1      36.885  34.536  29.623  1.00  0.00     0.010 A 
ATOM     50  C   UNL A   1      37.927  33.597  29.737  1.00  0.00    -0.014 A 
BRANCH  50  51
ATOM     51  C   UNL A   1      39.100  33.902  30.589  1.00  0.00     0.031 A 
ATOM     52  C   UNL A   1      39.006  33.598  32.059  1.00  0.00     0.074 A 
ATOM     53  C   UNL A   1      40.226  34.421  30.072  1.00  0.00     0.049 A 
ATOM     54  N   UNL A   1      39.865  33.833  33.016  1.00  0.00    -0.248 NA
ATOM     55  C   UNL A   1      37.768  32.940  32.508  1.00  0.00     0.031 C 
ATOM     56  C   UNL A   1      40.450  34.717  28.659  1.00  0.00     0.029 A 
ATOM     57  N   UNL A   1      41.391  34.804  30.688  1.00  0.00    -0.354 N 
ATOM     58  C   UNL A   1      39.268  33.364  34.179  1.00  0.00     0.074 A 
ATOM     59  C   UNL A   1      37.963  32.857  33.815  1.00  0.00     0.031 C 
ATOM     60  C   UNL A   1      41.676  35.252  28.517  1.00  0.00     0.029 A 
ATOM     61  C   UNL A   1      42.303  35.369  29.833  1.00  0.00     0.049 A 
ATOM     62  H   UNL A   1      41.557  34.683  31.651  1.00  0.00     0.167 HD
ATOM     63  C   UNL A   1      39.769  33.348  35.436  1.00  0.00     0.037 A 
ATOM     64  C   UNL A   1      43.495  35.943  30.094  1.00  0.00     0.037 A 
ATOM     65  C   UNL A   1      41.067  33.857  35.793  1.00  0.00     0.049 A 
ATOM     66  C   UNL A   1      43.996  35.987  31.517  1.00  0.00     0.074 A 
ATOM     67  C   UNL A   1      41.675  33.874  37.034  1.00  0.00     0.029 A 
ATOM     68  N   UNL A   1      41.952  34.449  34.904  1.00  0.00    -0.354 N 
ATOM     69  N   UNL A   1      43.443  35.518  32.610  1.00  0.00    -0.248 NA
ATOM     70  C   UNL A   1      45.293  36.642  31.742  1.00  0.00     0.031 C 
ATOM     71  C   UNL A   1      42.901  34.535  36.910  1.00  0.00     0.029 A 
ATOM     72  C   UNL A   1      43.090  34.864  35.578  1.00  0.00     0.049 A 
ATOM     73  H   UNL A   1      41.796  34.559  33.938  1.00  0.00     0.167 HD
ATOM     74  C   UNL A   1      44.335  35.788  33.641  1.00  0.00     0.074 A 
ATOM     75  C   UNL A   1      45.473  36.450  33.041  1.00  0.00     0.031 C 
ATOM     76  C   UNL A   1      44.223  35.511  34.964  1.00  0.00     0.037 A 
BRANCH  63  77
ATOM     77  C   UNL A   1      38.895  32.796  36.525  1.00  0.00     0.064 A 
ATOM     78  C   UNL A   1      38.346  33.616  37.523  1.00  0.00     0.173 A 
ATOM     79  C   UNL A   1      38.576  31.429  36.551  1.00  0.00     0.173 A 
ATOM     80  F   UNL A   1      38.631  34.927  37.554  1.00  0.00    -0.203 F 
ATOM     81  C   UNL A   1      37.532  33.083  38.521  1.00  0.00     0.198 A 
ATOM     82  C   UNL A   1      37.735  30.907  37.531  1.00  0.00     0.198 A 
ATOM     83  F   UNL A   1      39.072  30.601  35.621  1.00  0.00    -0.203 F 
ATOM     84  F   UNL A   1      37.061  33.877  39.492  1.00  0.00    -0.200 F 
ATOM     85  C   UNL A   1      37.221  31.733  38.519  1.00  0.00     0.200 A 
ATOM     86  F   UNL A   1      37.424  29.603  37.518  1.00  0.00    -0.200 F 
ATOM     87  F   UNL A   1      36.429  31.224  39.473  1.00  0.00    -0.200 F 
ENDBRANCH  63  77
BRANCH  64  88
ATOM     88  C   UNL A   1      44.294  36.538  28.989  1.00  0.00     0.064 A 
ATOM     89  C   UNL A   1      44.068  37.852  28.557  1.00  0.00     0.173 A 
ATOM     90  C   UNL A   1      45.276  35.793  28.319  1.00  0.00     0.173 A 
ATOM     91  F   UNL A   1      43.119  38.596  29.144  1.00  0.00    -0.203 F 
ATOM     92  C   UNL A   1      44.775  38.390  27.482  1.00  0.00     0.198 A 
ATOM     93  C   UNL A   1      46.006  36.342  27.266  1.00  0.00     0.198 A 
ATOM     94  F   UNL A   1      45.526  34.527  28.685  1.00  0.00    -0.203 F 
ATOM     95  F   UNL A   1      44.494  39.626  27.051  1.00  0.00    -0.200 F 
ATOM     96  C   UNL A   1      45.748  37.636  26.842  1.00  0.00     0.200 A 
ATOM     97  F   UNL A   1      46.948  35.613  26.653  1.00  0.00    -0.200 F 
ATOM     98  F   UNL A   1      46.423  38.152  25.805  1.00  0.00    -0.200 F 
ENDBRANCH  64  88
BRANCH  76  99
ATOM     99  C   UNL A   1      45.380  35.876  35.851  1.00  0.00     0.064 A 
ATOM    100  C   UNL A   1      45.428  37.092  36.547  1.00  0.00     0.173 A 
ATOM    101  C   UNL A   1      46.435  34.969  36.043  1.00  0.00     0.173 A 
ATOM    102  F   UNL A   1      44.452  37.999  36.392  1.00  0.00    -0.203 F 
ATOM    103  C   UNL A   1      46.504  37.400  37.377  1.00  0.00     0.198 A 
ATOM    104  C   UNL A   1      47.490  35.265  36.902  1.00  0.00     0.198 A 
ATOM    105  F   UNL A   1      46.436  33.786  35.410  1.00  0.00    -0.203 F 
ATOM    106  F   UNL A   1      46.554  38.591  37.991  1.00  0.00    -0.200 F 
ATOM    107  C   UNL A   1      47.528  36.483  37.561  1.00  0.00     0.200 A 
ATOM    108  F   UNL A   1      48.469  34.369  37.093  1.00  0.00    -0.200 F 
ATOM    109  F   UNL A   1      48.557  36.778  38.369  1.00  0.00    -0.200 F 
ENDBRANCH  76  99
ENDBRANCH  50  51
ENDBRANCH  43  45
ENDBRANCH  42  43
ENDBRANCH  41  42
ENDBRANCH  40  41
ENDBRANCH  39  40
ENDBRANCH  38  39
ENDBRANCH  37  38
ENDBRANCH  36  37
ENDBRANCH   1  36
TORSDOF 24
ENDMDL
