MODEL 1
REMARK VINA RESULT:     -10.0      0.000      0.000
REMARK SMILES CC(C)[C@@H](NC(=O)[C@@](C)([NH3+])C(F)(F)F)C(=O)OCCOCCOCCOCCOC(=O)c1ccc(-c2c3nc(c(-c4c(F)c(F)c(F)c(F)c4F)c4ccc([nH]4)c(-c4c(F)c(F)c(F)c(F)c4F)c4nc(c(-c5c(F)c(F)c(F)c(F)c5F)c5ccc2[nH]5)C=C4)C=C3)cc1
REMARK SMILES IDX 22 1 21 2 20 3 19 4 18 5 17 6 15 7 16 8 4 9 2 10 1 11 3 12
REMARK SMILES IDX 5 13 6 14 7 16 8 17 9 18 10 19 11 23 12 24 13 25 14 26 23 27
REMARK SMILES IDX 24 28 25 29 26 30 27 31 28 32 29 33 30 34 31 35 32 36 33 37
REMARK SMILES IDX 94 38 34 39 93 40 35 41 36 42 37 43 87 44 38 45 92 46 86 47
REMARK SMILES IDX 88 48 39 49 91 50 85 51 84 52 40 54 72 55 52 56 71 57 53 58
REMARK SMILES IDX 56 59 70 60 89 61 54 62 55 63 69 65 90 66 57 67 41 68 42 69
REMARK SMILES IDX 50 70 43 71 44 72 48 73 51 74 45 75 46 76 49 77 47 78 73 79
REMARK SMILES IDX 74 80 82 81 75 82 76 83 80 84 83 85 77 86 78 87 81 88 79 89
REMARK SMILES IDX 58 90 59 91 67 92 60 93 61 94 65 95 68 96 62 97 63 98 66 99
REMARK SMILES IDX 64 100
REMARK H PARENT 5 15 10 20 10 21 10 22 88 53 56 64
REMARK Flexibility Score: inf
ROOT
ATOM      1  C   UNL A   1      41.028  21.808  27.530  1.00  0.00     0.188 C 
ENDROOT
BRANCH   1   2
ATOM      2  C   UNL A   1      39.795  21.710  26.639  1.00  0.00     0.188 C 
BRANCH   2   3
ATOM      3  O   UNL A   1      39.102  22.912  26.364  1.00  0.00    -0.376 OA
BRANCH   3   4
ATOM      4  C   UNL A   1      37.860  22.836  25.673  1.00  0.00     0.202 C 
BRANCH   4   5
ATOM      5  C   UNL A   1      36.760  23.869  25.943  1.00  0.00     0.261 C 
BRANCH   5   6
ATOM      6  O   UNL A   1      35.972  24.348  24.809  1.00  0.00    -0.462 OA
BRANCH   6   7
ATOM      7  C   UNL A   1      35.211  23.445  24.133  1.00  0.00     0.328 C 
ATOM      8  O   UNL A   1      35.336  23.258  22.922  1.00  0.00    -0.250 OA
BRANCH   7   9
ATOM      9  C   UNL A   1      33.973  22.873  24.882  1.00  0.00     0.195 C 
BRANCH   9  10
ATOM     10  C   UNL A   1      33.901  21.479  25.593  1.00  0.00     0.017 C 
ATOM     11  C   UNL A   1      34.957  20.522  24.979  1.00  0.00     0.010 C 
ATOM     12  C   UNL A   1      34.221  21.482  27.095  1.00  0.00     0.010 C 
ENDBRANCH   9  10
BRANCH   9  13
ATOM     13  N   UNL A   1      33.174  23.924  25.599  1.00  0.00    -0.337 N 
ATOM     14  C   UNL A   1      32.399  25.006  25.244  1.00  0.00     0.291 C 
ATOM     15  H   UNL A   1      33.217  23.811  26.576  1.00  0.00     0.164 HD
ATOM     16  O   UNL A   1      32.236  25.863  26.115  1.00  0.00    -0.267 OA
BRANCH  14  17
ATOM     17  C   UNL A   1      31.710  25.094  23.873  1.00  0.00     0.267 C 
ATOM     18  C   UNL A   1      30.673  26.234  23.925  1.00  0.00     0.100 C 
BRANCH  17  19
ATOM     19  N   UNL A   1      32.784  25.182  22.841  1.00  0.00    -0.337 N 
ATOM     20  H   UNL A   1      33.149  24.250  22.650  1.00  0.00     0.345 HD
ATOM     21  H   UNL A   1      33.536  25.778  23.186  1.00  0.00     0.345 HD
ATOM     22  H   UNL A   1      32.399  25.580  21.985  1.00  0.00     0.345 HD
ENDBRANCH  17  19
BRANCH  17  23
ATOM     23  C   UNL A   1      30.894  23.810  23.555  1.00  0.00     0.453 C 
ATOM     24  F   UNL A   1      29.747  24.050  22.884  1.00  0.00    -0.164 F 
ATOM     25  F   UNL A   1      31.598  22.873  22.887  1.00  0.00    -0.164 F 
ATOM     26  F   UNL A   1      30.528  23.231  24.743  1.00  0.00    -0.164 F 
ENDBRANCH  17  23
ENDBRANCH  14  17
ENDBRANCH   9  13
ENDBRANCH   7   9
ENDBRANCH   6   7
ENDBRANCH   5   6
ENDBRANCH   4   5
ENDBRANCH   3   4
ENDBRANCH   2   3
ENDBRANCH   1   2
BRANCH   1  27
ATOM     27  O   UNL A   1      42.172  21.145  27.042  1.00  0.00    -0.377 OA
BRANCH  27  28
ATOM     28  C   UNL A   1      42.048  20.074  26.126  1.00  0.00     0.188 C 
BRANCH  28  29
ATOM     29  C   UNL A   1      43.303  19.346  25.652  1.00  0.00     0.188 C 
BRANCH  29  30
ATOM     30  O   UNL A   1      44.144  19.939  24.683  1.00  0.00    -0.376 OA
BRANCH  30  31
ATOM     31  C   UNL A   1      44.648  21.258  24.751  1.00  0.00     0.202 C 
BRANCH  31  32
ATOM     32  C   UNL A   1      44.066  22.493  24.050  1.00  0.00     0.261 C 
BRANCH  32  33
ATOM     33  O   UNL A   1      43.407  23.478  24.833  1.00  0.00    -0.460 OA
BRANCH  33  34
ATOM     34  C   UNL A   1      44.109  24.599  25.071  1.00  0.00     0.338 C 
ATOM     35  O   UNL A   1      45.221  24.890  24.651  1.00  0.00    -0.246 OA
BRANCH  34  36
ATOM     36  C   UNL A   1      43.257  25.496  25.862  1.00  0.00     0.060 A 
ATOM     37  C   UNL A   1      43.342  26.882  25.674  1.00  0.00     0.016 A 
ATOM     38  C   UNL A   1      42.429  24.954  26.846  1.00  0.00     0.016 A 
ATOM     39  C   UNL A   1      42.650  27.737  26.525  1.00  0.00     0.010 A 
ATOM     40  C   UNL A   1      41.751  25.810  27.707  1.00  0.00     0.010 A 
ATOM     41  C   UNL A   1      41.906  27.201  27.583  1.00  0.00    -0.014 A 
BRANCH  41  42
ATOM     42  C   UNL A   1      41.493  28.060  28.713  1.00  0.00     0.031 A 
ATOM     43  C   UNL A   1      42.286  27.965  29.987  1.00  0.00     0.074 A 
ATOM     44  C   UNL A   1      40.432  28.876  28.618  1.00  0.00     0.049 A 
ATOM     45  N   UNL A   1      42.035  28.471  31.165  1.00  0.00    -0.248 NA
ATOM     46  C   UNL A   1      43.528  27.172  29.924  1.00  0.00     0.031 C 
ATOM     47  C   UNL A   1      39.632  29.088  27.416  1.00  0.00     0.029 A 
ATOM     48  N   UNL A   1      39.834  29.661  29.570  1.00  0.00    -0.354 N 
ATOM     49  C   UNL A   1      43.076  28.048  31.983  1.00  0.00     0.074 A 
ATOM     50  C   UNL A   1      43.942  27.215  31.180  1.00  0.00     0.031 C 
ATOM     51  C   UNL A   1      38.626  29.932  27.708  1.00  0.00     0.029 A 
ATOM     52  C   UNL A   1      38.690  30.276  29.128  1.00  0.00     0.049 A 
ATOM     53  H   UNL A   1      40.189  29.771  30.481  1.00  0.00     0.167 HD
ATOM     54  C   UNL A   1      43.288  28.338  33.287  1.00  0.00     0.037 A 
ATOM     55  C   UNL A   1      37.784  31.002  29.811  1.00  0.00     0.037 A 
ATOM     56  C   UNL A   1      42.414  29.165  34.075  1.00  0.00     0.049 A 
ATOM     57  C   UNL A   1      37.994  31.231  31.289  1.00  0.00     0.074 A 
ATOM     58  C   UNL A   1      42.529  29.520  35.406  1.00  0.00     0.029 A 
ATOM     59  N   UNL A   1      41.258  29.764  33.596  1.00  0.00    -0.354 N 
ATOM     60  N   UNL A   1      38.977  30.834  32.061  1.00  0.00    -0.248 NA
ATOM     61  C   UNL A   1      36.966  32.012  31.990  1.00  0.00     0.031 C 
ATOM     62  C   UNL A   1      41.413  30.290  35.748  1.00  0.00     0.029 A 
ATOM     63  C   UNL A   1      40.640  30.473  34.611  1.00  0.00     0.049 A 
ATOM     64  H   UNL A   1      40.926  29.694  32.671  1.00  0.00     0.167 HD
ATOM     65  C   UNL A   1      38.713  31.358  33.320  1.00  0.00     0.074 A 
ATOM     66  C   UNL A   1      37.477  32.103  33.209  1.00  0.00     0.031 C 
ATOM     67  C   UNL A   1      39.428  31.238  34.466  1.00  0.00     0.037 A 
BRANCH  54  68
ATOM     68  C   UNL A   1      44.496  27.740  33.947  1.00  0.00     0.064 A 
ATOM     69  C   UNL A   1      44.453  26.480  34.565  1.00  0.00     0.173 A 
ATOM     70  C   UNL A   1      45.725  28.417  33.928  1.00  0.00     0.173 A 
ATOM     71  F   UNL A   1      43.299  25.798  34.628  1.00  0.00    -0.203 F 
ATOM     72  C   UNL A   1      45.588  25.933  35.158  1.00  0.00     0.198 A 
ATOM     73  C   UNL A   1      46.865  27.852  34.491  1.00  0.00     0.198 A 
ATOM     74  F   UNL A   1      45.823  29.625  33.351  1.00  0.00    -0.203 F 
ATOM     75  F   UNL A   1      45.510  24.750  35.784  1.00  0.00    -0.200 F 
ATOM     76  C   UNL A   1      46.794  26.614  35.112  1.00  0.00     0.200 A 
ATOM     77  F   UNL A   1      48.034  28.505  34.433  1.00  0.00    -0.200 F 
ATOM     78  F   UNL A   1      47.889  26.079  35.670  1.00  0.00    -0.200 F 
ENDBRANCH  54  68
BRANCH  55  79
ATOM     79  C   UNL A   1      36.586  31.553  29.123  1.00  0.00     0.064 A 
ATOM     80  C   UNL A   1      36.477  32.925  28.857  1.00  0.00     0.173 A 
ATOM     81  C   UNL A   1      35.508  30.733  28.758  1.00  0.00     0.173 A 
ATOM     82  F   UNL A   1      37.472  33.755  29.206  1.00  0.00    -0.203 F 
ATOM     83  C   UNL A   1      35.323  33.460  28.288  1.00  0.00     0.198 A 
ATOM     84  C   UNL A   1      34.369  31.264  28.156  1.00  0.00     0.198 A 
ATOM     85  F   UNL A   1      35.561  29.411  28.986  1.00  0.00    -0.203 F 
ATOM     86  F   UNL A   1      35.220  34.784  28.108  1.00  0.00    -0.200 F 
ATOM     87  C   UNL A   1      34.272  32.629  27.934  1.00  0.00     0.200 A 
ATOM     88  F   UNL A   1      33.362  30.454  27.803  1.00  0.00    -0.200 F 
ATOM     89  F   UNL A   1      33.160  33.144  27.394  1.00  0.00    -0.200 F 
ENDBRANCH  55  79
BRANCH  67  90
ATOM     90  C   UNL A   1      38.943  31.993  35.672  1.00  0.00     0.064 A 
ATOM     91  C   UNL A   1      38.172  31.384  36.672  1.00  0.00     0.173 A 
ATOM     92  C   UNL A   1      39.311  33.336  35.851  1.00  0.00     0.173 A 
ATOM     93  F   UNL A   1      37.784  30.106  36.543  1.00  0.00    -0.203 F 
ATOM     94  C   UNL A   1      37.766  32.100  37.795  1.00  0.00     0.198 A 
ATOM     95  C   UNL A   1      38.933  34.037  36.993  1.00  0.00     0.198 A 
ATOM     96  F   UNL A   1      40.057  33.962  34.930  1.00  0.00    -0.203 F 
ATOM     97  F   UNL A   1      36.987  31.513  38.715  1.00  0.00    -0.200 F 
ATOM     98  C   UNL A   1      38.155  33.421  37.959  1.00  0.00     0.200 A 
ATOM     99  F   UNL A   1      39.329  35.306  37.158  1.00  0.00    -0.200 F 
ATOM    100  F   UNL A   1      37.774  34.103  39.048  1.00  0.00    -0.200 F 
ENDBRANCH  67  90
ENDBRANCH  41  42
ENDBRANCH  34  36
ENDBRANCH  33  34
ENDBRANCH  32  33
ENDBRANCH  31  32
ENDBRANCH  30  31
ENDBRANCH  29  30
ENDBRANCH  28  29
ENDBRANCH  27  28
ENDBRANCH   1  27
TORSDOF 25
ENDMDL
MODEL 2
REMARK VINA RESULT:      -9.8      1.775      2.724
REMARK SMILES CC(C)[C@@H](NC(=O)[C@@](C)([NH3+])C(F)(F)F)C(=O)OCCOCCOCCOCCOC(=O)c1ccc(-c2c3nc(c(-c4c(F)c(F)c(F)c(F)c4F)c4ccc([nH]4)c(-c4c(F)c(F)c(F)c(F)c4F)c4nc(c(-c5c(F)c(F)c(F)c(F)c5F)c5ccc2[nH]5)C=C4)C=C3)cc1
REMARK SMILES IDX 22 1 21 2 20 3 19 4 18 5 17 6 15 7 16 8 4 9 2 10 1 11 3 12
REMARK SMILES IDX 5 13 6 14 7 16 8 17 9 18 10 19 11 23 12 24 13 25 14 26 23 27
REMARK SMILES IDX 24 28 25 29 26 30 27 31 28 32 29 33 30 34 31 35 32 36 33 37
REMARK SMILES IDX 94 38 34 39 93 40 35 41 36 42 37 43 87 44 38 45 92 46 86 47
REMARK SMILES IDX 88 48 39 49 91 50 85 51 84 52 40 54 72 55 52 56 71 57 53 58
REMARK SMILES IDX 56 59 70 60 89 61 54 62 55 63 69 65 90 66 57 67 41 68 42 69
REMARK SMILES IDX 50 70 43 71 44 72 48 73 51 74 45 75 46 76 49 77 47 78 73 79
REMARK SMILES IDX 74 80 82 81 75 82 76 83 80 84 83 85 77 86 78 87 81 88 79 89
REMARK SMILES IDX 58 90 59 91 67 92 60 93 61 94 65 95 68 96 62 97 63 98 66 99
REMARK SMILES IDX 64 100
REMARK H PARENT 5 15 10 20 10 21 10 22 88 53 56 64
REMARK Flexibility Score: inf
ROOT
ATOM      1  C   UNL A   1      40.797  19.563  26.355  1.00  0.00     0.188 C 
ENDROOT
BRANCH   1   2
ATOM      2  C   UNL A   1      39.862  20.754  26.170  1.00  0.00     0.188 C 
BRANCH   2   3
ATOM      3  O   UNL A   1      38.869  20.643  25.170  1.00  0.00    -0.376 OA
BRANCH   3   4
ATOM      4  C   UNL A   1      37.604  21.253  25.400  1.00  0.00     0.202 C 
BRANCH   4   5
ATOM      5  C   UNL A   1      37.174  22.477  24.583  1.00  0.00     0.261 C 
BRANCH   5   6
ATOM      6  O   UNL A   1      36.120  22.304  23.586  1.00  0.00    -0.462 OA
BRANCH   6   7
ATOM      7  C   UNL A   1      34.846  22.626  23.941  1.00  0.00     0.328 C 
ATOM      8  O   UNL A   1      34.386  23.756  23.778  1.00  0.00    -0.250 OA
BRANCH   7   9
ATOM      9  C   UNL A   1      34.089  21.602  24.835  1.00  0.00     0.195 C 
BRANCH   9  10
ATOM     10  C   UNL A   1      33.704  21.815  26.339  1.00  0.00     0.017 C 
ATOM     11  C   UNL A   1      34.510  23.006  26.923  1.00  0.00     0.010 C 
ATOM     12  C   UNL A   1      32.237  22.183  26.604  1.00  0.00     0.010 C 
ENDBRANCH   9  10
BRANCH   9  13
ATOM     13  N   UNL A   1      33.056  20.809  24.086  1.00  0.00    -0.337 N 
ATOM     14  C   UNL A   1      32.927  19.517  23.627  1.00  0.00     0.291 C 
ATOM     15  H   UNL A   1      32.266  21.354  23.866  1.00  0.00     0.164 HD
ATOM     16  O   UNL A   1      32.119  19.347  22.712  1.00  0.00    -0.267 OA
BRANCH  14  17
ATOM     17  C   UNL A   1      33.686  18.347  24.274  1.00  0.00     0.267 C 
ATOM     18  C   UNL A   1      33.844  17.232  23.222  1.00  0.00     0.100 C 
BRANCH  17  19
ATOM     19  N   UNL A   1      34.928  18.906  24.881  1.00  0.00    -0.337 N 
ATOM     20  H   UNL A   1      35.231  19.720  24.347  1.00  0.00     0.345 HD
ATOM     21  H   UNL A   1      35.661  18.197  24.865  1.00  0.00     0.345 HD
ATOM     22  H   UNL A   1      34.741  19.181  25.845  1.00  0.00     0.345 HD
ENDBRANCH  17  19
BRANCH  17  23
ATOM     23  C   UNL A   1      32.874  17.707  25.434  1.00  0.00     0.453 C 
ATOM     24  F   UNL A   1      32.577  18.571  26.428  1.00  0.00    -0.164 F 
ATOM     25  F   UNL A   1      31.736  17.106  25.030  1.00  0.00    -0.164 F 
ATOM     26  F   UNL A   1      33.641  16.722  26.000  1.00  0.00    -0.164 F 
ENDBRANCH  17  23
ENDBRANCH  14  17
ENDBRANCH   9  13
ENDBRANCH   7   9
ENDBRANCH   6   7
ENDBRANCH   5   6
ENDBRANCH   4   5
ENDBRANCH   3   4
ENDBRANCH   2   3
ENDBRANCH   1   2
BRANCH   1  27
ATOM     27  O   UNL A   1      41.835  19.466  25.407  1.00  0.00    -0.377 OA
BRANCH  27  28
ATOM     28  C   UNL A   1      43.065  18.857  25.745  1.00  0.00     0.188 C 
BRANCH  28  29
ATOM     29  C   UNL A   1      44.256  18.996  24.799  1.00  0.00     0.188 C 
BRANCH  29  30
ATOM     30  O   UNL A   1      44.325  20.086  23.902  1.00  0.00    -0.376 OA
BRANCH  30  31
ATOM     31  C   UNL A   1      44.909  21.339  24.198  1.00  0.00     0.202 C 
BRANCH  31  32
ATOM     32  C   UNL A   1      44.250  22.714  24.030  1.00  0.00     0.261 C 
BRANCH  32  33
ATOM     33  O   UNL A   1      44.183  23.583  25.152  1.00  0.00    -0.460 OA
BRANCH  33  34
ATOM     34  C   UNL A   1      43.391  23.175  26.158  1.00  0.00     0.338 C 
ATOM     35  O   UNL A   1      43.244  22.037  26.582  1.00  0.00    -0.246 OA
BRANCH  34  36
ATOM     36  C   UNL A   1      42.784  24.372  26.757  1.00  0.00     0.060 A 
ATOM     37  C   UNL A   1      43.421  25.613  26.628  1.00  0.00     0.016 A 
ATOM     38  C   UNL A   1      41.619  24.236  27.513  1.00  0.00     0.016 A 
ATOM     39  C   UNL A   1      42.930  26.715  27.321  1.00  0.00     0.010 A 
ATOM     40  C   UNL A   1      41.140  25.334  28.219  1.00  0.00     0.010 A 
ATOM     41  C   UNL A   1      41.827  26.559  28.168  1.00  0.00    -0.014 A 
BRANCH  41  42
ATOM     42  C   UNL A   1      41.527  27.578  29.196  1.00  0.00     0.031 A 
ATOM     43  C   UNL A   1      42.358  27.569  30.450  1.00  0.00     0.074 A 
ATOM     44  C   UNL A   1      40.533  28.465  29.032  1.00  0.00     0.049 A 
ATOM     45  N   UNL A   1      42.194  28.232  31.564  1.00  0.00    -0.248 NA
ATOM     46  C   UNL A   1      43.528  26.672  30.449  1.00  0.00     0.031 C 
ATOM     47  C   UNL A   1      39.708  28.599  27.835  1.00  0.00     0.029 A 
ATOM     48  N   UNL A   1      40.037  29.405  29.897  1.00  0.00    -0.354 N 
ATOM     49  C   UNL A   1      43.227  27.823  32.398  1.00  0.00     0.074 A 
ATOM     50  C   UNL A   1      43.992  26.830  31.679  1.00  0.00     0.031 C 
ATOM     51  C   UNL A   1      38.786  29.553  28.050  1.00  0.00     0.029 A 
ATOM     52  C   UNL A   1      38.930  30.058  29.415  1.00  0.00     0.049 A 
ATOM     53  H   UNL A   1      40.435  29.592  30.778  1.00  0.00     0.167 HD
ATOM     54  C   UNL A   1      43.511  28.247  33.651  1.00  0.00     0.037 A 
ATOM     55  C   UNL A   1      38.113  30.934  30.030  1.00  0.00     0.037 A 
ATOM     56  C   UNL A   1      42.738  29.234  34.355  1.00  0.00     0.049 A 
ATOM     57  C   UNL A   1      38.397  31.319  31.461  1.00  0.00     0.074 A 
ATOM     58  C   UNL A   1      42.931  29.735  35.629  1.00  0.00     0.029 A 
ATOM     59  N   UNL A   1      41.616  29.867  33.839  1.00  0.00    -0.354 N 
ATOM     60  N   UNL A   1      39.373  30.935  32.249  1.00  0.00    -0.248 NA
ATOM     61  C   UNL A   1      37.462  32.263  32.090  1.00  0.00     0.031 C 
ATOM     62  C   UNL A   1      41.894  30.631  35.905  1.00  0.00     0.029 A 
ATOM     63  C   UNL A   1      41.097  30.742  34.777  1.00  0.00     0.049 A 
ATOM     64  H   UNL A   1      41.245  29.716  32.939  1.00  0.00     0.167 HD
ATOM     65  C   UNL A   1      39.200  31.627  33.441  1.00  0.00     0.074 A 
ATOM     66  C   UNL A   1      38.025  32.455  33.274  1.00  0.00     0.031 C 
ATOM     67  C   UNL A   1      39.946  31.584  34.574  1.00  0.00     0.037 A 
BRANCH  54  68
ATOM     68  C   UNL A   1      44.691  27.632  34.345  1.00  0.00     0.064 A 
ATOM     69  C   UNL A   1      44.578  26.442  35.079  1.00  0.00     0.173 A 
ATOM     70  C   UNL A   1      45.962  28.219  34.242  1.00  0.00     0.173 A 
ATOM     71  F   UNL A   1      43.383  25.848  35.224  1.00  0.00    -0.203 F 
ATOM     72  C   UNL A   1      45.687  25.875  35.703  1.00  0.00     0.198 A 
ATOM     73  C   UNL A   1      47.074  27.632  34.838  1.00  0.00     0.198 A 
ATOM     74  F   UNL A   1      46.127  29.359  33.553  1.00  0.00    -0.203 F 
ATOM     75  F   UNL A   1      45.545  24.764  36.439  1.00  0.00    -0.200 F 
ATOM     76  C   UNL A   1      46.935  26.466  35.573  1.00  0.00     0.200 A 
ATOM     77  F   UNL A   1      48.282  28.197  34.700  1.00  0.00    -0.200 F 
ATOM     78  F   UNL A   1      48.004  25.911  36.162  1.00  0.00    -0.200 F 
ENDBRANCH  54  68
BRANCH  55  79
ATOM     79  C   UNL A   1      36.938  31.499  29.312  1.00  0.00     0.064 A 
ATOM     80  C   UNL A   1      36.906  32.848  28.935  1.00  0.00     0.173 A 
ATOM     81  C   UNL A   1      35.807  30.718  29.030  1.00  0.00     0.173 A 
ATOM     82  F   UNL A   1      37.954  33.642  29.203  1.00  0.00    -0.203 F 
ATOM     83  C   UNL A   1      35.776  33.404  28.338  1.00  0.00     0.198 A 
ATOM     84  C   UNL A   1      34.691  31.266  28.400  1.00  0.00     0.198 A 
ATOM     85  F   UNL A   1      35.785  29.419  29.367  1.00  0.00    -0.203 F 
ATOM     86  F   UNL A   1      35.749  34.712  28.051  1.00  0.00    -0.200 F 
ATOM     87  C   UNL A   1      34.672  32.612  28.068  1.00  0.00     0.200 A 
ATOM     88  F   UNL A   1      33.632  30.493  28.128  1.00  0.00    -0.200 F 
ATOM     89  F   UNL A   1      33.583  33.148  27.500  1.00  0.00    -0.200 F 
ENDBRANCH  55  79
BRANCH  67  90
ATOM     90  C   UNL A   1      39.569  32.516  35.691  1.00  0.00     0.064 A 
ATOM     91  C   UNL A   1      40.077  33.819  35.778  1.00  0.00     0.173 A 
ATOM     92  C   UNL A   1      38.633  32.109  36.656  1.00  0.00     0.173 A 
ATOM     93  F   UNL A   1      40.982  34.252  34.887  1.00  0.00    -0.203 F 
ATOM     94  C   UNL A   1      39.683  34.672  36.806  1.00  0.00     0.198 A 
ATOM     95  C   UNL A   1      38.215  32.977  37.660  1.00  0.00     0.198 A 
ATOM     96  F   UNL A   1      38.108  30.876  36.611  1.00  0.00    -0.203 F 
ATOM     97  F   UNL A   1      40.220  35.896  36.899  1.00  0.00    -0.200 F 
ATOM     98  C   UNL A   1      38.746  34.254  37.739  1.00  0.00     0.200 A 
ATOM     99  F   UNL A   1      37.293  32.577  38.547  1.00  0.00    -0.200 F 
ATOM    100  F   UNL A   1      38.357  35.083  38.718  1.00  0.00    -0.200 F 
ENDBRANCH  67  90
ENDBRANCH  41  42
ENDBRANCH  34  36
ENDBRANCH  33  34
ENDBRANCH  32  33
ENDBRANCH  31  32
ENDBRANCH  30  31
ENDBRANCH  29  30
ENDBRANCH  28  29
ENDBRANCH  27  28
ENDBRANCH   1  27
TORSDOF 25
ENDMDL
MODEL 3
REMARK VINA RESULT:      -9.6      1.862      3.437
REMARK SMILES CC(C)[C@@H](NC(=O)[C@@](C)([NH3+])C(F)(F)F)C(=O)OCCOCCOCCOCCOC(=O)c1ccc(-c2c3nc(c(-c4c(F)c(F)c(F)c(F)c4F)c4ccc([nH]4)c(-c4c(F)c(F)c(F)c(F)c4F)c4nc(c(-c5c(F)c(F)c(F)c(F)c5F)c5ccc2[nH]5)C=C4)C=C3)cc1
REMARK SMILES IDX 22 1 21 2 20 3 19 4 18 5 17 6 15 7 16 8 4 9 2 10 1 11 3 12
REMARK SMILES IDX 5 13 6 14 7 16 8 17 9 18 10 19 11 23 12 24 13 25 14 26 23 27
REMARK SMILES IDX 24 28 25 29 26 30 27 31 28 32 29 33 30 34 31 35 32 36 33 37
REMARK SMILES IDX 94 38 34 39 93 40 35 41 36 42 37 43 87 44 38 45 92 46 86 47
REMARK SMILES IDX 88 48 39 49 91 50 85 51 84 52 40 54 72 55 52 56 71 57 53 58
REMARK SMILES IDX 56 59 70 60 89 61 54 62 55 63 69 65 90 66 57 67 41 68 42 69
REMARK SMILES IDX 50 70 43 71 44 72 48 73 51 74 45 75 46 76 49 77 47 78 73 79
REMARK SMILES IDX 74 80 82 81 75 82 76 83 80 84 83 85 77 86 78 87 81 88 79 89
REMARK SMILES IDX 58 90 59 91 67 92 60 93 61 94 65 95 68 96 62 97 63 98 66 99
REMARK SMILES IDX 64 100
REMARK H PARENT 5 15 10 20 10 21 10 22 88 53 56 64
REMARK Flexibility Score: inf
ROOT
ATOM      1  C   UNL A   1      35.316  21.435  26.087  1.00  0.00     0.188 C 
ENDROOT
BRANCH   1   2
ATOM      2  C   UNL A   1      34.120  21.237  25.162  1.00  0.00     0.188 C 
BRANCH   2   3
ATOM      3  O   UNL A   1      33.237  22.332  25.009  1.00  0.00    -0.376 OA
BRANCH   3   4
ATOM      4  C   UNL A   1      32.225  22.529  25.989  1.00  0.00     0.202 C 
BRANCH   4   5
ATOM      5  C   UNL A   1      31.914  23.937  26.510  1.00  0.00     0.261 C 
BRANCH   5   6
ATOM      6  O   UNL A   1      31.924  25.042  25.555  1.00  0.00    -0.462 OA
BRANCH   6   7
ATOM      7  C   UNL A   1      31.339  26.213  25.927  1.00  0.00     0.328 C 
ATOM      8  O   UNL A   1      30.366  26.249  26.681  1.00  0.00    -0.250 OA
BRANCH   7   9
ATOM      9  C   UNL A   1      31.749  27.486  25.131  1.00  0.00     0.195 C 
BRANCH   9  10
ATOM     10  C   UNL A   1      32.917  28.460  25.508  1.00  0.00     0.017 C 
ATOM     11  C   UNL A   1      33.650  27.936  26.771  1.00  0.00     0.010 C 
ATOM     12  C   UNL A   1      34.027  28.605  24.458  1.00  0.00     0.010 C 
ENDBRANCH   9  10
BRANCH   9  13
ATOM     13  N   UNL A   1      31.585  27.335  23.645  1.00  0.00    -0.337 N 
ATOM     14  C   UNL A   1      30.786  27.884  22.667  1.00  0.00     0.291 C 
ATOM     15  H   UNL A   1      32.211  26.671  23.275  1.00  0.00     0.164 HD
ATOM     16  O   UNL A   1      30.668  27.224  21.632  1.00  0.00    -0.267 OA
BRANCH  14  17
ATOM     17  C   UNL A   1      30.151  29.274  22.825  1.00  0.00     0.267 C 
ATOM     18  C   UNL A   1      30.537  29.828  24.211  1.00  0.00     0.100 C 
BRANCH  17  19
ATOM     19  N   UNL A   1      30.536  30.077  21.628  1.00  0.00    -0.337 N 
ATOM     20  H   UNL A   1      31.539  29.989  21.468  1.00  0.00     0.345 HD
ATOM     21  H   UNL A   1      30.302  31.057  21.788  1.00  0.00     0.345 HD
ATOM     22  H   UNL A   1      30.030  29.735  20.812  1.00  0.00     0.345 HD
ENDBRANCH  17  19
BRANCH  17  23
ATOM     23  C   UNL A   1      28.599  29.200  22.829  1.00  0.00     0.453 C 
ATOM     24  F   UNL A   1      28.045  29.381  21.611  1.00  0.00    -0.164 F 
ATOM     25  F   UNL A   1      28.113  28.059  23.359  1.00  0.00    -0.164 F 
ATOM     26  F   UNL A   1      28.124  30.216  23.619  1.00  0.00    -0.164 F 
ENDBRANCH  17  23
ENDBRANCH  14  17
ENDBRANCH   9  13
ENDBRANCH   7   9
ENDBRANCH   6   7
ENDBRANCH   5   6
ENDBRANCH   4   5
ENDBRANCH   3   4
ENDBRANCH   2   3
ENDBRANCH   1   2
BRANCH   1  27
ATOM     27  O   UNL A   1      35.782  22.762  26.186  1.00  0.00    -0.377 OA
BRANCH  27  28
ATOM     28  C   UNL A   1      36.829  23.221  25.355  1.00  0.00     0.188 C 
BRANCH  28  29
ATOM     29  C   UNL A   1      38.196  23.517  25.968  1.00  0.00     0.188 C 
BRANCH  29  30
ATOM     30  O   UNL A   1      38.899  22.503  26.658  1.00  0.00    -0.376 OA
BRANCH  30  31
ATOM     31  C   UNL A   1      39.814  21.607  26.061  1.00  0.00     0.202 C 
BRANCH  31  32
ATOM     32  C   UNL A   1      41.345  21.695  26.117  1.00  0.00     0.261 C 
BRANCH  32  33
ATOM     33  O   UNL A   1      41.988  22.823  25.540  1.00  0.00    -0.460 OA
BRANCH  33  34
ATOM     34  C   UNL A   1      42.924  23.413  26.303  1.00  0.00     0.338 C 
ATOM     35  O   UNL A   1      44.098  23.094  26.428  1.00  0.00    -0.246 OA
BRANCH  34  36
ATOM     36  C   UNL A   1      42.317  24.608  26.905  1.00  0.00     0.060 A 
ATOM     37  C   UNL A   1      42.904  25.864  26.702  1.00  0.00     0.016 A 
ATOM     38  C   UNL A   1      41.205  24.459  27.735  1.00  0.00     0.016 A 
ATOM     39  C   UNL A   1      42.420  26.970  27.393  1.00  0.00     0.010 A 
ATOM     40  C   UNL A   1      40.734  25.562  28.439  1.00  0.00     0.010 A 
ATOM     41  C   UNL A   1      41.377  26.806  28.311  1.00  0.00    -0.014 A 
BRANCH  41  42
ATOM     42  C   UNL A   1      41.108  27.845  29.327  1.00  0.00     0.031 A 
ATOM     43  C   UNL A   1      41.940  27.828  30.579  1.00  0.00     0.074 A 
ATOM     44  C   UNL A   1      40.138  28.757  29.153  1.00  0.00     0.049 A 
ATOM     45  N   UNL A   1      41.796  28.509  31.685  1.00  0.00    -0.248 NA
ATOM     46  C   UNL A   1      43.085  26.899  30.588  1.00  0.00     0.031 C 
ATOM     47  C   UNL A   1      39.315  28.899  27.956  1.00  0.00     0.029 A 
ATOM     48  N   UNL A   1      39.670  29.721  30.008  1.00  0.00    -0.354 N 
ATOM     49  C   UNL A   1      42.819  28.082  32.523  1.00  0.00     0.074 A 
ATOM     50  C   UNL A   1      43.555  27.059  31.815  1.00  0.00     0.031 C 
ATOM     51  C   UNL A   1      38.419  29.882  28.161  1.00  0.00     0.029 A 
ATOM     52  C   UNL A   1      38.581  30.399  29.519  1.00  0.00     0.049 A 
ATOM     53  H   UNL A   1      40.074  29.908  30.886  1.00  0.00     0.167 HD
ATOM     54  C   UNL A   1      43.117  28.513  33.770  1.00  0.00     0.037 A 
ATOM     55  C   UNL A   1      37.789  31.305  30.124  1.00  0.00     0.037 A 
ATOM     56  C   UNL A   1      42.373  29.529  34.464  1.00  0.00     0.049 A 
ATOM     57  C   UNL A   1      38.086  31.699  31.551  1.00  0.00     0.074 A 
ATOM     58  C   UNL A   1      42.582  30.040  35.731  1.00  0.00     0.029 A 
ATOM     59  N   UNL A   1      41.268  30.187  33.941  1.00  0.00    -0.354 N 
ATOM     60  N   UNL A   1      39.053  31.298  32.341  1.00  0.00    -0.248 NA
ATOM     61  C   UNL A   1      37.179  32.676  32.170  1.00  0.00     0.031 C 
ATOM     62  C   UNL A   1      41.572  30.969  35.997  1.00  0.00     0.029 A 
ATOM     63  C   UNL A   1      40.775  31.088  34.869  1.00  0.00     0.049 A 
ATOM     64  H   UNL A   1      40.892  30.035  33.044  1.00  0.00     0.167 HD
ATOM     65  C   UNL A   1      38.901  32.008  33.526  1.00  0.00     0.074 A 
ATOM     66  C   UNL A   1      37.749  32.867  33.350  1.00  0.00     0.031 C 
ATOM     67  C   UNL A   1      39.647  31.959  34.657  1.00  0.00     0.037 A 
BRANCH  54  68
ATOM     68  C   UNL A   1      44.281  27.875  34.469  1.00  0.00     0.064 A 
ATOM     69  C   UNL A   1      45.572  28.422  34.406  1.00  0.00     0.173 A 
ATOM     70  C   UNL A   1      44.097  26.721  35.247  1.00  0.00     0.173 A 
ATOM     71  F   UNL A   1      45.807  29.514  33.662  1.00  0.00    -0.203 F 
ATOM     72  C   UNL A   1      46.638  27.826  35.076  1.00  0.00     0.198 A 
ATOM     73  C   UNL A   1      45.158  26.147  35.943  1.00  0.00     0.198 A 
ATOM     74  F   UNL A   1      42.884  26.155  35.342  1.00  0.00    -0.203 F 
ATOM     75  F   UNL A   1      47.870  28.339  34.961  1.00  0.00    -0.200 F 
ATOM     76  C   UNL A   1      46.428  26.695  35.851  1.00  0.00     0.200 A 
ATOM     77  F   UNL A   1      44.950  25.063  36.703  1.00  0.00    -0.200 F 
ATOM     78  F   UNL A   1      47.451  26.131  36.507  1.00  0.00    -0.200 F 
ENDBRANCH  54  68
BRANCH  55  79
ATOM     79  C   UNL A   1      36.629  31.893  29.402  1.00  0.00     0.064 A 
ATOM     80  C   UNL A   1      36.574  33.266  29.127  1.00  0.00     0.173 A 
ATOM     81  C   UNL A   1      35.533  31.108  29.014  1.00  0.00     0.173 A 
ATOM     82  F   UNL A   1      37.588  34.063  29.498  1.00  0.00    -0.203 F 
ATOM     83  C   UNL A   1      35.454  33.837  28.525  1.00  0.00     0.198 A 
ATOM     84  C   UNL A   1      34.429  31.675  28.380  1.00  0.00     0.198 A 
ATOM     85  F   UNL A   1      35.533  29.787  29.250  1.00  0.00    -0.203 F 
ATOM     86  F   UNL A   1      35.403  35.163  28.336  1.00  0.00    -0.200 F 
ATOM     87  C   UNL A   1      34.385  33.041  28.149  1.00  0.00     0.200 A 
ATOM     88  F   UNL A   1      33.403  30.898  28.005  1.00  0.00    -0.200 F 
ATOM     89  F   UNL A   1      33.305  33.591  27.577  1.00  0.00    -0.200 F 
ENDBRANCH  55  79
BRANCH  67  90
ATOM     90  C   UNL A   1      39.299  32.914  35.763  1.00  0.00     0.064 A 
ATOM     91  C   UNL A   1      38.450  32.554  36.819  1.00  0.00     0.173 A 
ATOM     92  C   UNL A   1      39.877  34.193  35.791  1.00  0.00     0.173 A 
ATOM     93  F   UNL A   1      37.863  31.348  36.834  1.00  0.00    -0.203 F 
ATOM     94  C   UNL A   1      38.172  33.450  37.849  1.00  0.00     0.198 A 
ATOM     95  C   UNL A   1      39.626  35.072  36.841  1.00  0.00     0.198 A 
ATOM     96  F   UNL A   1      40.705  34.583  34.811  1.00  0.00    -0.203 F 
ATOM     97  F   UNL A   1      37.319  33.103  38.822  1.00  0.00    -0.200 F 
ATOM     98  C   UNL A   1      38.768  34.702  37.864  1.00  0.00     0.200 A 
ATOM     99  F   UNL A   1      40.220  36.273  36.864  1.00  0.00    -0.200 F 
ATOM    100  F   UNL A   1      38.510  35.557  38.865  1.00  0.00    -0.200 F 
ENDBRANCH  67  90
ENDBRANCH  41  42
ENDBRANCH  34  36
ENDBRANCH  33  34
ENDBRANCH  32  33
ENDBRANCH  31  32
ENDBRANCH  30  31
ENDBRANCH  29  30
ENDBRANCH  28  29
ENDBRANCH  27  28
ENDBRANCH   1  27
TORSDOF 25
ENDMDL
