MODEL 1
REMARK VINA RESULT:     -10.2      0.000      0.000
REMARK SMILES Cc1cccc(-c2ncc(C[NH+]3CCC4(CC3)NC(=O)C[C@H]4C(=O)OCCOCCOCCOCCOC(=O)c3ccc(-c4c5nc(c(-c6c(F)c(F)c(F)c(F)c6F)c6ccc([nH]6)c(-c6c(F)c(F)c(F)c(F)c6F)c6nc(c(-c7c(F)c(F)c(F)c(F)c7F)c7ccc4[nH]7)C=C6)C=C5)cc3)cn2)c1
REMARK SMILES IDX 30 1 29 2 28 3 27 4 26 5 25 6 23 7 24 8 22 9 12 10 13 11
REMARK SMILES IDX 17 12 14 14 16 15 15 16 18 17 19 18 21 20 20 21 11 22 10 23
REMARK SMILES IDX 7 24 8 25 104 26 9 27 103 28 6 29 1 30 2 31 3 32 105 33 4 34
REMARK SMILES IDX 5 35 31 36 32 37 33 38 34 39 35 40 36 41 37 42 38 43 39 44
REMARK SMILES IDX 40 45 41 46 102 47 42 48 101 49 43 50 44 51 45 52 95 53
REMARK SMILES IDX 46 54 100 55 94 56 96 57 47 58 99 59 93 60 92 61 48 63 80 64
REMARK SMILES IDX 60 65 79 66 61 67 64 68 78 69 97 70 62 71 63 72 77 74 98 75
REMARK SMILES IDX 65 76 49 77 50 78 58 79 51 80 52 81 56 82 59 83 53 84 54 85
REMARK SMILES IDX 57 86 55 87 81 88 82 89 90 90 83 91 84 92 88 93 91 94 85 95
REMARK SMILES IDX 86 96 89 97 87 98 66 99 67 100 75 101 68 102 69 103 73 104
REMARK SMILES IDX 76 105 70 106 71 107 74 108 72 109
REMARK H PARENT 12 13 18 19 96 62 64 73
REMARK Flexibility Score: inf
ROOT
ATOM      1  C   UNL A   1      34.655  21.571  25.585  1.00  0.00     0.188 C 
ENDROOT
BRANCH   1   2
ATOM      2  C   UNL A   1      33.496  22.503  25.240  1.00  0.00     0.188 C 
BRANCH   2   3
ATOM      3  O   UNL A   1      32.294  22.162  25.932  1.00  0.00    -0.376 OA
BRANCH   3   4
ATOM      4  C   UNL A   1      31.891  23.161  26.841  1.00  0.00     0.202 C 
BRANCH   4   5
ATOM      5  C   UNL A   1      30.626  23.885  26.370  1.00  0.00     0.261 C 
BRANCH   5   6
ATOM      6  O   UNL A   1      30.774  24.795  25.267  1.00  0.00    -0.463 OA
BRANCH   6   7
ATOM      7  C   UNL A   1      30.832  26.105  25.619  1.00  0.00     0.311 C 
ATOM      8  O   UNL A   1      30.506  26.549  26.695  1.00  0.00    -0.252 OA
BRANCH   7   9
ATOM      9  C   UNL A   1      31.244  26.999  24.461  1.00  0.00     0.134 C 
ATOM     10  N   UNL A   1      33.735  29.052  26.933  1.00  0.00    -0.331 N 
ATOM     11  C   UNL A   1      32.676  29.675  26.164  1.00  0.00     0.264 C 
ATOM     12  C   UNL A   1      33.661  27.620  26.806  1.00  0.00     0.264 C 
ATOM     13  H   UNL A   1      33.504  29.343  27.883  1.00  0.00     0.348 HD
ATOM     14  C   UNL A   1      32.584  29.208  24.709  1.00  0.00     0.091 C 
ATOM     15  C   UNL A   1      33.676  27.041  25.397  1.00  0.00     0.091 C 
ATOM     16  C   UNL A   1      32.639  27.674  24.479  1.00  0.00     0.064 C 
ATOM     17  N   UNL A   1      33.111  27.453  23.120  1.00  0.00    -0.349 N 
ATOM     18  C   UNL A   1      32.383  26.568  22.380  1.00  0.00     0.221 C 
ATOM     19  H   UNL A   1      33.903  27.914  22.759  1.00  0.00     0.164 HD
ATOM     20  C   UNL A   1      31.125  26.243  23.119  1.00  0.00     0.117 C 
ATOM     21  O   UNL A   1      32.708  26.155  21.281  1.00  0.00    -0.275 OA
BRANCH  10  22
ATOM     22  C   UNL A   1      35.083  29.624  27.004  1.00  0.00     0.302 C 
BRANCH  22  23
ATOM     23  C   UNL A   1      35.238  30.816  27.901  1.00  0.00     0.043 A 
ATOM     24  C   UNL A   1      34.966  32.745  29.785  1.00  0.00     0.159 A 
ATOM     25  N   UNL A   1      35.768  31.696  30.060  1.00  0.00    -0.236 NA
ATOM     26  N   UNL A   1      34.379  32.970  28.599  1.00  0.00    -0.236 NA
ATOM     27  C   UNL A   1      35.910  30.769  29.093  1.00  0.00     0.124 A 
ATOM     28  C   UNL A   1      34.552  31.997  27.686  1.00  0.00     0.124 A 
BRANCH  24  29
ATOM     29  C   UNL A   1      34.636  33.633  30.897  1.00  0.00     0.019 A 
ATOM     30  C   UNL A   1      35.542  34.094  34.590  1.00  0.00     0.044 C 
ATOM     31  C   UNL A   1      34.936  34.315  33.234  1.00  0.00    -0.050 A 
ATOM     32  C   UNL A   1      34.157  35.449  32.990  1.00  0.00     0.003 A 
ATOM     33  C   UNL A   1      35.169  33.417  32.183  1.00  0.00     0.015 A 
ATOM     34  C   UNL A   1      33.589  35.657  31.733  1.00  0.00     0.001 A 
ATOM     35  C   UNL A   1      33.819  34.751  30.698  1.00  0.00     0.012 A 
ENDBRANCH  24  29
ENDBRANCH  22  23
ENDBRANCH  10  22
ENDBRANCH   7   9
ENDBRANCH   6   7
ENDBRANCH   5   6
ENDBRANCH   4   5
ENDBRANCH   3   4
ENDBRANCH   2   3
ENDBRANCH   1   2
BRANCH   1  36
ATOM     36  O   UNL A   1      35.810  22.113  26.200  1.00  0.00    -0.377 OA
BRANCH  36  37
ATOM     37  C   UNL A   1      36.549  23.011  25.349  1.00  0.00     0.188 C 
BRANCH  37  38
ATOM     38  C   UNL A   1      37.941  23.344  25.873  1.00  0.00     0.188 C 
BRANCH  38  39
ATOM     39  O   UNL A   1      38.661  22.136  25.994  1.00  0.00    -0.376 OA
BRANCH  39  40
ATOM     40  C   UNL A   1      39.761  22.131  26.873  1.00  0.00     0.202 C 
BRANCH  40  41
ATOM     41  C   UNL A   1      40.937  21.321  26.329  1.00  0.00     0.261 C 
BRANCH  41  42
ATOM     42  O   UNL A   1      41.882  22.233  25.721  1.00  0.00    -0.460 OA
BRANCH  42  43
ATOM     43  C   UNL A   1      43.128  21.726  25.495  1.00  0.00     0.338 C 
ATOM     44  O   UNL A   1      43.369  20.563  25.212  1.00  0.00    -0.246 OA
BRANCH  43  45
ATOM     45  C   UNL A   1      44.184  22.686  25.964  1.00  0.00     0.060 A 
ATOM     46  C   UNL A   1      44.484  22.766  27.340  1.00  0.00     0.016 A 
ATOM     47  C   UNL A   1      44.626  23.700  25.126  1.00  0.00     0.016 A 
ATOM     48  C   UNL A   1      45.056  23.931  27.898  1.00  0.00     0.010 A 
ATOM     49  C   UNL A   1      45.180  24.847  25.688  1.00  0.00     0.010 A 
ATOM     50  C   UNL A   1      45.323  25.028  27.083  1.00  0.00    -0.014 A 
BRANCH  50  51
ATOM     51  C   UNL A   1      45.507  26.444  27.541  1.00  0.00     0.031 A 
ATOM     52  C   UNL A   1      44.276  27.303  27.774  1.00  0.00     0.074 A 
ATOM     53  C   UNL A   1      46.683  26.795  28.131  1.00  0.00     0.049 A 
ATOM     54  N   UNL A   1      44.222  28.463  28.357  1.00  0.00    -0.248 NA
ATOM     55  C   UNL A   1      42.958  26.894  27.279  1.00  0.00     0.031 C 
ATOM     56  C   UNL A   1      46.813  27.419  29.439  1.00  0.00     0.029 A 
ATOM     57  N   UNL A   1      48.010  26.485  27.870  1.00  0.00    -0.354 N 
ATOM     58  C   UNL A   1      42.879  28.807  28.552  1.00  0.00     0.074 A 
ATOM     59  C   UNL A   1      42.154  27.841  27.770  1.00  0.00     0.031 C 
ATOM     60  C   UNL A   1      48.077  27.652  29.791  1.00  0.00     0.029 A 
ATOM     61  C   UNL A   1      48.861  27.305  28.656  1.00  0.00     0.049 A 
ATOM     62  H   UNL A   1      48.316  25.799  27.234  1.00  0.00     0.167 HD
ATOM     63  C   UNL A   1      42.524  29.772  29.472  1.00  0.00     0.037 A 
ATOM     64  C   UNL A   1      49.724  28.170  28.064  1.00  0.00     0.037 A 
ATOM     65  C   UNL A   1      43.691  30.569  29.936  1.00  0.00     0.049 A 
ATOM     66  C   UNL A   1      49.182  29.605  28.034  1.00  0.00     0.074 A 
ATOM     67  C   UNL A   1      44.116  31.165  31.120  1.00  0.00     0.029 A 
ATOM     68  N   UNL A   1      44.756  30.778  29.057  1.00  0.00    -0.354 N 
ATOM     69  N   UNL A   1      48.148  30.063  28.713  1.00  0.00    -0.248 NA
ATOM     70  C   UNL A   1      49.750  30.626  27.160  1.00  0.00     0.031 C 
ATOM     71  C   UNL A   1      45.437  31.687  30.940  1.00  0.00     0.029 A 
ATOM     72  C   UNL A   1      45.789  31.492  29.619  1.00  0.00     0.049 A 
ATOM     73  H   UNL A   1      44.766  30.449  28.130  1.00  0.00     0.167 HD
ATOM     74  C   UNL A   1      47.848  31.349  28.306  1.00  0.00     0.074 A 
ATOM     75  C   UNL A   1      48.890  31.644  27.333  1.00  0.00     0.031 C 
ATOM     76  C   UNL A   1      46.757  32.084  28.717  1.00  0.00     0.037 A 
BRANCH  63  77
ATOM     77  C   UNL A   1      41.118  29.898  30.149  1.00  0.00     0.064 A 
ATOM     78  C   UNL A   1      40.538  31.170  30.399  1.00  0.00     0.173 A 
ATOM     79  C   UNL A   1      40.355  28.839  30.704  1.00  0.00     0.173 A 
ATOM     80  F   UNL A   1      41.045  32.286  29.862  1.00  0.00    -0.203 F 
ATOM     81  C   UNL A   1      39.394  31.367  31.195  1.00  0.00     0.198 A 
ATOM     82  C   UNL A   1      39.158  29.030  31.422  1.00  0.00     0.198 A 
ATOM     83  F   UNL A   1      40.739  27.564  30.626  1.00  0.00    -0.203 F 
ATOM     84  F   UNL A   1      38.977  32.612  31.469  1.00  0.00    -0.200 F 
ATOM     85  C   UNL A   1      38.695  30.295  31.698  1.00  0.00     0.200 A 
ATOM     86  F   UNL A   1      38.472  27.965  31.864  1.00  0.00    -0.200 F 
ATOM     87  F   UNL A   1      37.587  30.476  32.431  1.00  0.00    -0.200 F 
ENDBRANCH  63  77
BRANCH  64  88
ATOM     88  C   UNL A   1      50.587  27.357  27.126  1.00  0.00     0.064 A 
ATOM     89  C   UNL A   1      50.383  27.725  25.767  1.00  0.00     0.173 A 
ATOM     90  C   UNL A   1      51.914  27.093  27.511  1.00  0.00     0.173 A 
ATOM     91  F   UNL A   1      49.135  27.929  25.323  1.00  0.00    -0.203 F 
ATOM     92  C   UNL A   1      51.444  28.171  24.975  1.00  0.00     0.198 A 
ATOM     93  C   UNL A   1      52.977  27.525  26.700  1.00  0.00     0.198 A 
ATOM     94  F   UNL A   1      52.180  26.723  28.772  1.00  0.00    -0.203 F 
ATOM     95  F   UNL A   1      51.203  28.786  23.806  1.00  0.00    -0.200 F 
ATOM     96  C   UNL A   1      52.734  28.131  25.473  1.00  0.00     0.200 A 
ATOM     97  F   UNL A   1      54.225  27.535  27.194  1.00  0.00    -0.200 F 
ATOM     98  F   UNL A   1      53.723  28.771  24.830  1.00  0.00    -0.200 F 
ENDBRANCH  64  88
BRANCH  76  99
ATOM     99  C   UNL A   1      46.366  33.453  28.171  1.00  0.00     0.064 A 
ATOM    100  C   UNL A   1      46.500  34.640  28.895  1.00  0.00     0.173 A 
ATOM    101  C   UNL A   1      45.794  33.604  26.875  1.00  0.00     0.173 A 
ATOM    102  F   UNL A   1      46.794  34.620  30.202  1.00  0.00    -0.203 F 
ATOM    103  C   UNL A   1      46.300  35.889  28.297  1.00  0.00     0.198 A 
ATOM    104  C   UNL A   1      45.540  34.845  26.302  1.00  0.00     0.198 A 
ATOM    105  F   UNL A   1      45.461  32.564  26.103  1.00  0.00    -0.203 F 
ATOM    106  F   UNL A   1      46.560  37.002  28.995  1.00  0.00    -0.200 F 
ATOM    107  C   UNL A   1      45.844  35.991  26.995  1.00  0.00     0.200 A 
ATOM    108  F   UNL A   1      45.018  34.912  25.068  1.00  0.00    -0.200 F 
ATOM    109  F   UNL A   1      45.683  37.188  26.416  1.00  0.00    -0.200 F 
ENDBRANCH  76  99
ENDBRANCH  50  51
ENDBRANCH  43  45
ENDBRANCH  42  43
ENDBRANCH  41  42
ENDBRANCH  40  41
ENDBRANCH  39  40
ENDBRANCH  38  39
ENDBRANCH  37  38
ENDBRANCH  36  37
ENDBRANCH   1  36
TORSDOF 23
ENDMDL
MODEL 2
REMARK VINA RESULT:      -9.9      1.765      7.130
REMARK SMILES Cc1cccc(-c2ncc(C[NH+]3CCC4(CC3)NC(=O)C[C@H]4C(=O)OCCOCCOCCOCCOC(=O)c3ccc(-c4c5nc(c(-c6c(F)c(F)c(F)c(F)c6F)c6ccc([nH]6)c(-c6c(F)c(F)c(F)c(F)c6F)c6nc(c(-c7c(F)c(F)c(F)c(F)c7F)c7ccc4[nH]7)C=C6)C=C5)cc3)cn2)c1
REMARK SMILES IDX 30 1 29 2 28 3 27 4 26 5 25 6 23 7 24 8 22 9 12 10 13 11
REMARK SMILES IDX 17 12 14 14 16 15 15 16 18 17 19 18 21 20 20 21 11 22 10 23
REMARK SMILES IDX 7 24 8 25 104 26 9 27 103 28 6 29 1 30 2 31 3 32 105 33 4 34
REMARK SMILES IDX 5 35 31 36 32 37 33 38 34 39 35 40 36 41 37 42 38 43 39 44
REMARK SMILES IDX 40 45 41 46 102 47 42 48 101 49 43 50 44 51 45 52 95 53
REMARK SMILES IDX 46 54 100 55 94 56 96 57 47 58 99 59 93 60 92 61 48 63 80 64
REMARK SMILES IDX 60 65 79 66 61 67 64 68 78 69 97 70 62 71 63 72 77 74 98 75
REMARK SMILES IDX 65 76 49 77 50 78 58 79 51 80 52 81 56 82 59 83 53 84 54 85
REMARK SMILES IDX 57 86 55 87 81 88 82 89 90 90 83 91 84 92 88 93 91 94 85 95
REMARK SMILES IDX 86 96 89 97 87 98 66 99 67 100 75 101 68 102 69 103 73 104
REMARK SMILES IDX 76 105 70 106 71 107 74 108 72 109
REMARK H PARENT 12 13 18 19 96 62 64 73
REMARK Flexibility Score: inf
ROOT
ATOM      1  C   UNL A   1      34.704  21.621  25.551  1.00  0.00     0.188 C 
ENDROOT
BRANCH   1   2
ATOM      2  C   UNL A   1      33.480  22.462  25.196  1.00  0.00     0.188 C 
BRANCH   2   3
ATOM      3  O   UNL A   1      32.402  22.277  26.115  1.00  0.00    -0.376 OA
BRANCH   3   4
ATOM      4  C   UNL A   1      32.099  23.449  26.836  1.00  0.00     0.202 C 
BRANCH   4   5
ATOM      5  C   UNL A   1      30.821  24.121  26.324  1.00  0.00     0.261 C 
BRANCH   5   6
ATOM      6  O   UNL A   1      30.950  24.953  25.159  1.00  0.00    -0.463 OA
BRANCH   6   7
ATOM      7  C   UNL A   1      30.988  26.285  25.417  1.00  0.00     0.311 C 
ATOM      8  O   UNL A   1      30.521  26.815  26.398  1.00  0.00    -0.252 OA
BRANCH   7   9
ATOM      9  C   UNL A   1      31.585  27.081  24.269  1.00  0.00     0.134 C 
ATOM     10  N   UNL A   1      33.847  29.191  26.908  1.00  0.00    -0.331 N 
ATOM     11  C   UNL A   1      32.925  29.804  25.974  1.00  0.00     0.264 C 
ATOM     12  C   UNL A   1      33.719  27.758  26.860  1.00  0.00     0.264 C 
ATOM     13  H   UNL A   1      33.515  29.554  27.801  1.00  0.00     0.348 HD
ATOM     14  C   UNL A   1      32.992  29.245  24.549  1.00  0.00     0.091 C 
ATOM     15  C   UNL A   1      33.881  27.086  25.503  1.00  0.00     0.091 C 
ATOM     16  C   UNL A   1      32.999  27.698  24.422  1.00  0.00     0.064 C 
ATOM     17  N   UNL A   1      33.625  27.368  23.152  1.00  0.00    -0.349 N 
ATOM     18  C   UNL A   1      32.952  26.465  22.380  1.00  0.00     0.221 C 
ATOM     19  H   UNL A   1      34.478  27.769  22.867  1.00  0.00     0.164 HD
ATOM     20  C   UNL A   1      31.597  26.243  22.971  1.00  0.00     0.117 C 
ATOM     21  O   UNL A   1      33.390  25.967  21.359  1.00  0.00    -0.275 OA
BRANCH  10  22
ATOM     22  C   UNL A   1      35.203  29.710  27.115  1.00  0.00     0.302 C 
BRANCH  22  23
ATOM     23  C   UNL A   1      35.310  30.915  28.002  1.00  0.00     0.043 A 
ATOM     24  C   UNL A   1      34.924  32.887  29.821  1.00  0.00     0.159 A 
ATOM     25  N   UNL A   1      35.666  31.821  30.185  1.00  0.00    -0.236 NA
ATOM     26  N   UNL A   1      34.454  33.104  28.583  1.00  0.00    -0.236 NA
ATOM     27  C   UNL A   1      35.869  30.872  29.251  1.00  0.00     0.124 A 
ATOM     28  C   UNL A   1      34.682  32.109  27.705  1.00  0.00     0.124 A 
BRANCH  24  29
ATOM     29  C   UNL A   1      34.520  33.804  30.882  1.00  0.00     0.019 A 
ATOM     30  C   UNL A   1      35.215  34.402  34.601  1.00  0.00     0.044 C 
ATOM     31  C   UNL A   1      34.681  34.568  33.208  1.00  0.00    -0.050 A 
ATOM     32  C   UNL A   1      33.899  35.680  32.884  1.00  0.00     0.003 A 
ATOM     33  C   UNL A   1      34.985  33.640  32.203  1.00  0.00     0.015 A 
ATOM     34  C   UNL A   1      33.397  35.837  31.592  1.00  0.00     0.001 A 
ATOM     35  C   UNL A   1      33.698  34.901  30.602  1.00  0.00     0.012 A 
ENDBRANCH  24  29
ENDBRANCH  22  23
ENDBRANCH  10  22
ENDBRANCH   7   9
ENDBRANCH   6   7
ENDBRANCH   5   6
ENDBRANCH   4   5
ENDBRANCH   3   4
ENDBRANCH   2   3
ENDBRANCH   1   2
BRANCH   1  36
ATOM     36  O   UNL A   1      35.777  22.232  26.245  1.00  0.00    -0.377 OA
BRANCH  36  37
ATOM     37  C   UNL A   1      36.507  23.188  25.451  1.00  0.00     0.188 C 
BRANCH  37  38
ATOM     38  C   UNL A   1      37.910  23.472  25.975  1.00  0.00     0.188 C 
BRANCH  38  39
ATOM     39  O   UNL A   1      38.634  22.260  25.961  1.00  0.00    -0.376 OA
BRANCH  39  40
ATOM     40  C   UNL A   1      39.765  22.179  26.795  1.00  0.00     0.202 C 
BRANCH  40  41
ATOM     41  C   UNL A   1      40.842  21.255  26.228  1.00  0.00     0.261 C 
BRANCH  41  42
ATOM     42  O   UNL A   1      41.938  22.066  25.745  1.00  0.00    -0.460 OA
BRANCH  42  43
ATOM     43  C   UNL A   1      43.105  21.399  25.509  1.00  0.00     0.338 C 
ATOM     44  O   UNL A   1      43.185  20.230  25.170  1.00  0.00    -0.246 OA
BRANCH  43  45
ATOM     45  C   UNL A   1      44.275  22.177  26.040  1.00  0.00     0.060 A 
ATOM     46  C   UNL A   1      44.414  22.353  27.433  1.00  0.00     0.016 A 
ATOM     47  C   UNL A   1      45.023  22.979  25.190  1.00  0.00     0.016 A 
ATOM     48  C   UNL A   1      45.149  23.437  27.964  1.00  0.00     0.010 A 
ATOM     49  C   UNL A   1      45.736  24.048  25.724  1.00  0.00     0.010 A 
ATOM     50  C   UNL A   1      45.741  24.357  27.104  1.00  0.00    -0.014 A 
BRANCH  50  51
ATOM     51  C   UNL A   1      46.166  25.751  27.458  1.00  0.00     0.031 A 
ATOM     52  C   UNL A   1      47.628  26.011  27.777  1.00  0.00     0.074 A 
ATOM     53  C   UNL A   1      45.371  26.793  27.088  1.00  0.00     0.049 A 
ATOM     54  N   UNL A   1      48.215  27.163  27.901  1.00  0.00    -0.248 NA
ATOM     55  C   UNL A   1      48.556  24.909  28.043  1.00  0.00     0.031 C 
ATOM     56  C   UNL A   1      45.802  27.942  26.306  1.00  0.00     0.029 A 
ATOM     57  N   UNL A   1      43.997  26.988  27.080  1.00  0.00    -0.354 N 
ATOM     58  C   UNL A   1      49.598  26.958  27.983  1.00  0.00     0.074 A 
ATOM     59  C   UNL A   1      49.729  25.537  28.169  1.00  0.00     0.031 C 
ATOM     60  C   UNL A   1      44.826  28.818  26.070  1.00  0.00     0.029 A 
ATOM     61  C   UNL A   1      43.704  28.350  26.809  1.00  0.00     0.049 A 
ATOM     62  H   UNL A   1      43.325  26.286  27.240  1.00  0.00     0.167 HD
ATOM     63  C   UNL A   1      50.481  27.988  27.734  1.00  0.00     0.037 A 
ATOM     64  C   UNL A   1      43.057  29.112  27.727  1.00  0.00     0.037 A 
ATOM     65  C   UNL A   1      49.810  29.316  27.707  1.00  0.00     0.049 A 
ATOM     66  C   UNL A   1      44.017  29.989  28.540  1.00  0.00     0.074 A 
ATOM     67  C   UNL A   1      49.933  30.508  27.001  1.00  0.00     0.029 A 
ATOM     68  N   UNL A   1      48.686  29.518  28.510  1.00  0.00    -0.354 N 
ATOM     69  N   UNL A   1      45.284  30.226  28.258  1.00  0.00    -0.248 NA
ATOM     70  C   UNL A   1      43.615  30.618  29.793  1.00  0.00     0.031 C 
ATOM     71  C   UNL A   1      48.863  31.387  27.366  1.00  0.00     0.029 A 
ATOM     72  C   UNL A   1      48.134  30.770  28.363  1.00  0.00     0.049 A 
ATOM     73  H   UNL A   1      48.325  28.835  29.120  1.00  0.00     0.167 HD
ATOM     74  C   UNL A   1      45.879  30.914  29.299  1.00  0.00     0.074 A 
ATOM     75  C   UNL A   1      44.779  31.130  30.228  1.00  0.00     0.031 C 
ATOM     76  C   UNL A   1      47.219  31.219  29.394  1.00  0.00     0.037 A 
BRANCH  63  77
ATOM     77  C   UNL A   1      51.973  27.810  27.296  1.00  0.00     0.064 A 
ATOM     78  C   UNL A   1      53.019  28.503  27.962  1.00  0.00     0.173 A 
ATOM     79  C   UNL A   1      52.435  27.101  26.158  1.00  0.00     0.173 A 
ATOM     80  F   UNL A   1      52.808  29.137  29.121  1.00  0.00    -0.203 F 
ATOM     81  C   UNL A   1      54.343  28.566  27.488  1.00  0.00     0.198 A 
ATOM     82  C   UNL A   1      53.780  27.088  25.737  1.00  0.00     0.198 A 
ATOM     83  F   UNL A   1      51.615  26.416  25.359  1.00  0.00    -0.203 F 
ATOM     84  F   UNL A   1      55.242  29.334  28.121  1.00  0.00    -0.200 F 
ATOM     85  C   UNL A   1      54.729  27.848  26.381  1.00  0.00     0.200 A 
ATOM     86  F   UNL A   1      54.138  26.343  24.680  1.00  0.00    -0.200 F 
ATOM     87  F   UNL A   1      55.995  27.880  25.944  1.00  0.00    -0.200 F 
ENDBRANCH  63  77
BRANCH  64  88
ATOM     88  C   UNL A   1      41.759  28.405  28.047  1.00  0.00     0.064 A 
ATOM     89  C   UNL A   1      41.687  28.027  29.417  1.00  0.00     0.173 A 
ATOM     90  C   UNL A   1      40.576  28.904  27.473  1.00  0.00     0.173 A 
ATOM     91  F   UNL A   1      42.764  27.487  30.005  1.00  0.00    -0.203 F 
ATOM     92  C   UNL A   1      40.646  28.475  30.235  1.00  0.00     0.198 A 
ATOM     93  C   UNL A   1      39.523  29.333  28.299  1.00  0.00     0.198 A 
ATOM     94  F   UNL A   1      40.563  29.264  26.182  1.00  0.00    -0.203 F 
ATOM     95  F   UNL A   1      40.738  28.362  31.568  1.00  0.00    -0.200 F 
ATOM     96  C   UNL A   1      39.598  29.187  29.679  1.00  0.00     0.200 A 
ATOM     97  F   UNL A   1      38.528  30.067  27.777  1.00  0.00    -0.200 F 
ATOM     98  F   UNL A   1      38.725  29.826  30.474  1.00  0.00    -0.200 F 
ENDBRANCH  64  88
BRANCH  76  99
ATOM     99  C   UNL A   1      47.888  31.868  30.601  1.00  0.00     0.064 A 
ATOM    100  C   UNL A   1      48.183  31.183  31.781  1.00  0.00     0.173 A 
ATOM    101  C   UNL A   1      48.230  33.251  30.610  1.00  0.00     0.173 A 
ATOM    102  F   UNL A   1      47.702  29.952  32.001  1.00  0.00    -0.203 F 
ATOM    103  C   UNL A   1      48.956  31.765  32.792  1.00  0.00     0.198 A 
ATOM    104  C   UNL A   1      48.948  33.845  31.642  1.00  0.00     0.198 A 
ATOM    105  F   UNL A   1      47.892  34.089  29.624  1.00  0.00    -0.203 F 
ATOM    106  F   UNL A   1      49.316  31.028  33.851  1.00  0.00    -0.200 F 
ATOM    107  C   UNL A   1      49.359  33.085  32.710  1.00  0.00     0.200 A 
ATOM    108  F   UNL A   1      49.253  35.149  31.575  1.00  0.00    -0.200 F 
ATOM    109  F   UNL A   1      50.124  33.630  33.665  1.00  0.00    -0.200 F 
ENDBRANCH  76  99
ENDBRANCH  50  51
ENDBRANCH  43  45
ENDBRANCH  42  43
ENDBRANCH  41  42
ENDBRANCH  40  41
ENDBRANCH  39  40
ENDBRANCH  38  39
ENDBRANCH  37  38
ENDBRANCH  36  37
ENDBRANCH   1  36
TORSDOF 23
ENDMDL
MODEL 3
REMARK VINA RESULT:      -9.8      3.283      9.300
REMARK SMILES Cc1cccc(-c2ncc(C[NH+]3CCC4(CC3)NC(=O)C[C@H]4C(=O)OCCOCCOCCOCCOC(=O)c3ccc(-c4c5nc(c(-c6c(F)c(F)c(F)c(F)c6F)c6ccc([nH]6)c(-c6c(F)c(F)c(F)c(F)c6F)c6nc(c(-c7c(F)c(F)c(F)c(F)c7F)c7ccc4[nH]7)C=C6)C=C5)cc3)cn2)c1
REMARK SMILES IDX 30 1 29 2 28 3 27 4 26 5 25 6 23 7 24 8 22 9 12 10 13 11
REMARK SMILES IDX 17 12 14 14 16 15 15 16 18 17 19 18 21 20 20 21 11 22 10 23
REMARK SMILES IDX 7 24 8 25 104 26 9 27 103 28 6 29 1 30 2 31 3 32 105 33 4 34
REMARK SMILES IDX 5 35 31 36 32 37 33 38 34 39 35 40 36 41 37 42 38 43 39 44
REMARK SMILES IDX 40 45 41 46 102 47 42 48 101 49 43 50 44 51 45 52 95 53
REMARK SMILES IDX 46 54 100 55 94 56 96 57 47 58 99 59 93 60 92 61 48 63 80 64
REMARK SMILES IDX 60 65 79 66 61 67 64 68 78 69 97 70 62 71 63 72 77 74 98 75
REMARK SMILES IDX 65 76 49 77 50 78 58 79 51 80 52 81 56 82 59 83 53 84 54 85
REMARK SMILES IDX 57 86 55 87 81 88 82 89 90 90 83 91 84 92 88 93 91 94 85 95
REMARK SMILES IDX 86 96 89 97 87 98 66 99 67 100 75 101 68 102 69 103 73 104
REMARK SMILES IDX 76 105 70 106 71 107 74 108 72 109
REMARK H PARENT 12 13 18 19 96 62 64 73
REMARK Flexibility Score: inf
ROOT
ATOM      1  C   UNL A   1      32.913  28.996  25.754  1.00  0.00     0.188 C 
ENDROOT
BRANCH   1   2
ATOM      2  C   UNL A   1      31.868  29.813  24.998  1.00  0.00     0.188 C 
BRANCH   2   3
ATOM      3  O   UNL A   1      30.863  28.995  24.395  1.00  0.00    -0.376 OA
BRANCH   3   4
ATOM      4  C   UNL A   1      30.877  29.071  22.988  1.00  0.00     0.202 C 
BRANCH   4   5
ATOM      5  C   UNL A   1      31.591  27.872  22.357  1.00  0.00     0.261 C 
BRANCH   5   6
ATOM      6  O   UNL A   1      32.052  26.848  23.256  1.00  0.00    -0.463 OA
BRANCH   6   7
ATOM      7  C   UNL A   1      31.930  25.582  22.779  1.00  0.00     0.311 C 
ATOM      8  O   UNL A   1      32.413  25.180  21.747  1.00  0.00    -0.252 OA
BRANCH   7   9
ATOM      9  C   UNL A   1      31.005  24.730  23.631  1.00  0.00     0.134 C 
ATOM     10  N   UNL A   1      33.874  21.860  23.874  1.00  0.00    -0.331 N 
ATOM     11  C   UNL A   1      32.539  21.617  23.367  1.00  0.00     0.264 C 
ATOM     12  C   UNL A   1      34.061  23.266  24.120  1.00  0.00     0.264 C 
ATOM     13  H   UNL A   1      34.455  21.548  23.096  1.00  0.00     0.348 HD
ATOM     14  C   UNL A   1      31.415  22.232  24.206  1.00  0.00     0.091 C 
ATOM     15  C   UNL A   1      33.059  23.955  25.036  1.00  0.00     0.091 C 
ATOM     16  C   UNL A   1      31.611  23.712  24.631  1.00  0.00     0.064 C 
ATOM     17  N   UNL A   1      30.812  23.932  25.826  1.00  0.00    -0.349 N 
ATOM     18  C   UNL A   1      30.024  25.046  25.812  1.00  0.00     0.221 C 
ATOM     19  H   UNL A   1      30.837  23.316  26.595  1.00  0.00     0.164 HD
ATOM     20  C   UNL A   1      30.025  25.617  24.431  1.00  0.00     0.117 C 
ATOM     21  O   UNL A   1      29.402  25.464  26.771  1.00  0.00    -0.275 OA
BRANCH  10  22
ATOM     22  C   UNL A   1      34.524  20.948  24.821  1.00  0.00     0.302 C 
BRANCH  22  23
ATOM     23  C   UNL A   1      36.013  21.081  24.935  1.00  0.00     0.043 A 
ATOM     24  C   UNL A   1      38.597  21.128  25.753  1.00  0.00     0.159 A 
ATOM     25  N   UNL A   1      38.152  20.027  25.113  1.00  0.00    -0.236 NA
ATOM     26  N   UNL A   1      37.889  22.257  25.916  1.00  0.00    -0.236 NA
ATOM     27  C   UNL A   1      36.874  20.044  24.689  1.00  0.00     0.124 A 
ATOM     28  C   UNL A   1      36.617  22.198  25.481  1.00  0.00     0.124 A 
BRANCH  24  29
ATOM     29  C   UNL A   1      39.901  21.033  26.403  1.00  0.00     0.019 A 
ATOM     30  C   UNL A   1      42.044  23.020  28.879  1.00  0.00     0.044 C 
ATOM     31  C   UNL A   1      41.576  21.936  27.952  1.00  0.00    -0.050 A 
ATOM     32  C   UNL A   1      42.323  20.764  27.807  1.00  0.00     0.003 A 
ATOM     33  C   UNL A   1      40.369  22.059  27.248  1.00  0.00     0.015 A 
ATOM     34  C   UNL A   1      41.894  19.756  26.944  1.00  0.00     0.001 A 
ATOM     35  C   UNL A   1      40.697  19.894  26.241  1.00  0.00     0.012 A 
ENDBRANCH  24  29
ENDBRANCH  22  23
ENDBRANCH  10  22
ENDBRANCH   7   9
ENDBRANCH   6   7
ENDBRANCH   5   6
ENDBRANCH   4   5
ENDBRANCH   3   4
ENDBRANCH   2   3
ENDBRANCH   1   2
BRANCH   1  36
ATOM     36  O   UNL A   1      33.505  29.549  26.916  1.00  0.00    -0.377 OA
BRANCH  36  37
ATOM     37  C   UNL A   1      32.937  30.815  27.306  1.00  0.00     0.188 C 
BRANCH  37  38
ATOM     38  C   UNL A   1      33.976  31.846  27.730  1.00  0.00     0.188 C 
BRANCH  38  39
ATOM     39  O   UNL A   1      35.243  31.226  27.696  1.00  0.00    -0.376 OA
BRANCH  39  40
ATOM     40  C   UNL A   1      35.996  31.241  28.886  1.00  0.00     0.202 C 
BRANCH  40  41
ATOM     41  C   UNL A   1      37.431  31.717  28.661  1.00  0.00     0.261 C 
BRANCH  41  42
ATOM     42  O   UNL A   1      37.941  32.248  29.907  1.00  0.00    -0.460 OA
BRANCH  42  43
ATOM     43  C   UNL A   1      37.991  31.367  30.946  1.00  0.00     0.338 C 
ATOM     44  O   UNL A   1      37.302  31.431  31.951  1.00  0.00    -0.246 OA
BRANCH  43  45
ATOM     45  C   UNL A   1      39.222  30.511  30.856  1.00  0.00     0.060 A 
ATOM     46  C   UNL A   1      40.352  30.840  31.633  1.00  0.00     0.016 A 
ATOM     47  C   UNL A   1      39.374  29.617  29.805  1.00  0.00     0.016 A 
ATOM     48  C   UNL A   1      41.648  30.426  31.252  1.00  0.00     0.010 A 
ATOM     49  C   UNL A   1      40.657  29.222  29.435  1.00  0.00     0.010 A 
ATOM     50  C   UNL A   1      41.823  29.687  30.085  1.00  0.00    -0.014 A 
BRANCH  50  51
ATOM     51  C   UNL A   1      43.101  29.541  29.316  1.00  0.00     0.031 A 
ATOM     52  C   UNL A   1      43.607  28.145  28.996  1.00  0.00     0.074 A 
ATOM     53  C   UNL A   1      43.544  30.594  28.573  1.00  0.00     0.049 A 
ATOM     54  N   UNL A   1      44.563  27.820  28.179  1.00  0.00    -0.248 NA
ATOM     55  C   UNL A   1      43.057  26.964  29.669  1.00  0.00     0.031 C 
ATOM     56  C   UNL A   1      43.863  30.547  27.155  1.00  0.00     0.029 A 
ATOM     57  N   UNL A   1      43.587  31.963  28.792  1.00  0.00    -0.354 N 
ATOM     58  C   UNL A   1      44.565  26.429  28.017  1.00  0.00     0.074 A 
ATOM     59  C   UNL A   1      43.676  25.957  29.047  1.00  0.00     0.031 C 
ATOM     60  C   UNL A   1      44.267  31.717  26.664  1.00  0.00     0.029 A 
ATOM     61  C   UNL A   1      44.363  32.590  27.782  1.00  0.00     0.049 A 
ATOM     62  H   UNL A   1      43.146  32.431  29.538  1.00  0.00     0.167 HD
ATOM     63  C   UNL A   1      45.196  25.844  26.939  1.00  0.00     0.037 A 
ATOM     64  C   UNL A   1      45.502  33.256  28.102  1.00  0.00     0.037 A 
ATOM     65  C   UNL A   1      46.090  26.793  26.223  1.00  0.00     0.049 A 
ATOM     66  C   UNL A   1      46.760  32.412  27.859  1.00  0.00     0.074 A 
ATOM     67  C   UNL A   1      46.472  27.042  24.908  1.00  0.00     0.029 A 
ATOM     68  N   UNL A   1      46.714  27.809  26.949  1.00  0.00    -0.354 N 
ATOM     69  N   UNL A   1      46.822  31.283  27.178  1.00  0.00    -0.248 NA
ATOM     70  C   UNL A   1      48.050  32.764  28.441  1.00  0.00     0.031 C 
ATOM     71  C   UNL A   1      47.286  28.219  24.867  1.00  0.00     0.029 A 
ATOM     72  C   UNL A   1      47.478  28.642  26.166  1.00  0.00     0.049 A 
ATOM     73  H   UNL A   1      46.617  27.917  27.923  1.00  0.00     0.167 HD
ATOM     74  C   UNL A   1      48.076  30.718  27.316  1.00  0.00     0.074 A 
ATOM     75  C   UNL A   1      48.798  31.696  28.117  1.00  0.00     0.031 C 
ATOM     76  C   UNL A   1      48.451  29.481  26.839  1.00  0.00     0.037 A 
BRANCH  63  77
ATOM     77  C   UNL A   1      44.866  24.427  26.362  1.00  0.00     0.064 A 
ATOM     78  C   UNL A   1      45.872  23.431  26.246  1.00  0.00     0.173 A 
ATOM     79  C   UNL A   1      43.639  24.023  25.776  1.00  0.00     0.173 A 
ATOM     80  F   UNL A   1      47.065  23.574  26.836  1.00  0.00    -0.203 F 
ATOM     81  C   UNL A   1      45.704  22.226  25.540  1.00  0.00     0.198 A 
ATOM     82  C   UNL A   1      43.443  22.777  25.149  1.00  0.00     0.198 A 
ATOM     83  F   UNL A   1      42.570  24.822  25.732  1.00  0.00    -0.203 F 
ATOM     84  F   UNL A   1      46.743  21.390  25.389  1.00  0.00    -0.200 F 
ATOM     85  C   UNL A   1      44.484  21.891  25.000  1.00  0.00     0.200 A 
ATOM     86  F   UNL A   1      42.231  22.456  24.671  1.00  0.00    -0.200 F 
ATOM     87  F   UNL A   1      44.311  20.730  24.353  1.00  0.00    -0.200 F 
ENDBRANCH  63  77
BRANCH  64  88
ATOM     88  C   UNL A   1      45.126  34.303  29.126  1.00  0.00     0.064 A 
ATOM     89  C   UNL A   1      44.219  35.261  28.593  1.00  0.00     0.173 A 
ATOM     90  C   UNL A   1      44.885  33.880  30.445  1.00  0.00     0.173 A 
ATOM     91  F   UNL A   1      44.431  35.751  27.363  1.00  0.00    -0.203 F 
ATOM     92  C   UNL A   1      42.969  35.476  29.180  1.00  0.00     0.198 A 
ATOM     93  C   UNL A   1      43.633  34.117  31.040  1.00  0.00     0.198 A 
ATOM     94  F   UNL A   1      45.708  32.992  31.020  1.00  0.00    -0.203 F 
ATOM     95  F   UNL A   1      42.019  36.152  28.518  1.00  0.00    -0.200 F 
ATOM     96  C   UNL A   1      42.657  34.846  30.372  1.00  0.00     0.200 A 
ATOM     97  F   UNL A   1      43.303  33.471  32.169  1.00  0.00    -0.200 F 
ATOM     98  F   UNL A   1      41.392  34.847  30.820  1.00  0.00    -0.200 F 
ENDBRANCH  64  88
BRANCH  76  99
ATOM     99  C   UNL A   1      49.796  28.811  27.100  1.00  0.00     0.064 A 
ATOM    100  C   UNL A   1      50.735  28.549  26.100  1.00  0.00     0.173 A 
ATOM    101  C   UNL A   1      50.171  28.373  28.403  1.00  0.00     0.173 A 
ATOM    102  F   UNL A   1      50.418  28.685  24.806  1.00  0.00    -0.203 F 
ATOM    103  C   UNL A   1      52.024  28.100  26.406  1.00  0.00     0.198 A 
ATOM    104  C   UNL A   1      51.434  27.872  28.697  1.00  0.00     0.198 A 
ATOM    105  F   UNL A   1      49.339  28.413  29.450  1.00  0.00    -0.203 F 
ATOM    106  F   UNL A   1      52.929  27.980  25.425  1.00  0.00    -0.200 F 
ATOM    107  C   UNL A   1      52.381  27.786  27.705  1.00  0.00     0.200 A 
ATOM    108  F   UNL A   1      51.725  27.496  29.950  1.00  0.00    -0.200 F 
ATOM    109  F   UNL A   1      53.625  27.386  27.998  1.00  0.00    -0.200 F 
ENDBRANCH  76  99
ENDBRANCH  50  51
ENDBRANCH  43  45
ENDBRANCH  42  43
ENDBRANCH  41  42
ENDBRANCH  40  41
ENDBRANCH  39  40
ENDBRANCH  38  39
ENDBRANCH  37  38
ENDBRANCH  36  37
ENDBRANCH   1  36
TORSDOF 23
ENDMDL
