MODEL 1
REMARK VINA RESULT:     -10.2      0.000      0.000
REMARK SMILES CCCc1cc2c(cc1Cl)C=C(C(=O)OCCOCCOCCOCCOC(=O)c1ccc(-c3c4nc(c(-c5c(F)c(F)c(F)c(F)c5F)c5ccc([nH]5)c(-c5c(F)c(F)c(F)c(F)c5F)c5nc(c(-c6c(F)c(F)c(F)c(F)c6F)c6ccc3[nH]6)C=C5)C=C4)cc1)[C@@H](C(F)(F)F)O2
REMARK SMILES IDX 21 1 20 2 19 3 18 4 17 5 16 6 15 7 13 8 14 9 12 10 4 11 5 12
REMARK SMILES IDX 9 13 6 14 8 15 10 16 7 17 98 18 11 19 93 20 3 21 2 22 1 23
REMARK SMILES IDX 94 24 95 25 96 26 97 27 22 28 23 29 24 30 25 31 26 32 27 33
REMARK SMILES IDX 28 34 29 35 30 36 31 37 92 38 32 39 91 40 33 41 34 42 35 43
REMARK SMILES IDX 85 44 36 45 90 46 84 47 86 48 37 49 89 50 83 51 82 52 38 54
REMARK SMILES IDX 70 55 50 56 69 57 51 58 54 59 68 60 87 61 52 62 53 63 67 65
REMARK SMILES IDX 88 66 55 67 39 68 40 69 48 70 41 71 42 72 46 73 49 74 43 75
REMARK SMILES IDX 44 76 47 77 45 78 71 79 72 80 80 81 73 82 74 83 78 84 81 85
REMARK SMILES IDX 75 86 76 87 79 88 77 89 56 90 57 91 65 92 58 93 59 94 63 95
REMARK SMILES IDX 66 96 60 97 61 98 64 99 62 100
REMARK H PARENT 86 53 54 64
REMARK Flexibility Score: inf
ROOT
ATOM      1  O   UNL A   1      34.494  34.418  29.783  1.00  0.00    -0.377 OA
ENDROOT
BRANCH   1   2
ATOM      2  C   UNL A   1      34.002  33.284  29.089  1.00  0.00     0.188 C 
BRANCH   2   3
ATOM      3  C   UNL A   1      34.849  32.883  27.868  1.00  0.00     0.188 C 
BRANCH   3   4
ATOM      4  O   UNL A   1      34.627  31.540  27.441  1.00  0.00    -0.376 OA
BRANCH   4   5
ATOM      5  C   UNL A   1      33.274  31.147  27.242  1.00  0.00     0.202 C 
BRANCH   5   6
ATOM      6  C   UNL A   1      32.976  29.658  27.473  1.00  0.00     0.261 C 
BRANCH   6   7
ATOM      7  O   UNL A   1      32.208  29.036  26.430  1.00  0.00    -0.460 OA
BRANCH   7   8
ATOM      8  C   UNL A   1      32.905  28.412  25.460  1.00  0.00     0.338 C 
ATOM      9  O   UNL A   1      33.753  28.910  24.740  1.00  0.00    -0.246 OA
BRANCH   8  10
ATOM     10  C   UNL A   1      32.600  26.969  25.519  1.00  0.00     0.087 C 
ATOM     11  C   UNL A   1      32.905  21.928  25.565  1.00  0.00    -0.026 A 
ATOM     12  C   UNL A   1      31.845  22.873  25.579  1.00  0.00     0.052 A 
ATOM     13  C   UNL A   1      34.211  22.434  25.650  1.00  0.00     0.045 A 
ATOM     14  C   UNL A   1      32.077  24.251  25.637  1.00  0.00     0.128 A 
ATOM     15  C   UNL A   1      34.437  23.816  25.755  1.00  0.00     0.032 A 
ATOM     16  Cl  UNL A   1      35.649  21.484  25.569  1.00  0.00    -0.084 Cl
ATOM     17  C   UNL A   1      33.380  24.723  25.714  1.00  0.00     0.019 A 
ATOM     18  O   UNL A   1      30.979  25.061  25.595  1.00  0.00    -0.475 OA
ATOM     19  C   UNL A   1      33.645  26.148  25.684  1.00  0.00     0.027 C 
ATOM     20  C   UNL A   1      31.169  26.499  25.441  1.00  0.00     0.316 C 
BRANCH  11  21
ATOM     21  C   UNL A   1      32.470  20.488  25.342  1.00  0.00     0.037 C 
BRANCH  21  22
ATOM     22  C   UNL A   1      32.629  19.766  24.002  1.00  0.00     0.001 C 
ATOM     23  C   UNL A   1      32.951  18.286  24.135  1.00  0.00     0.004 C 
ENDBRANCH  21  22
ENDBRANCH  11  21
BRANCH  20  24
ATOM     24  C   UNL A   1      30.496  26.954  24.139  1.00  0.00     0.430 C 
ATOM     25  F   UNL A   1      31.329  26.823  23.079  1.00  0.00    -0.167 F 
ATOM     26  F   UNL A   1      29.394  26.219  23.858  1.00  0.00    -0.167 F 
ATOM     27  F   UNL A   1      30.111  28.250  24.195  1.00  0.00    -0.167 F 
ENDBRANCH  20  24
ENDBRANCH   8  10
ENDBRANCH   7   8
ENDBRANCH   6   7
ENDBRANCH   5   6
ENDBRANCH   4   5
ENDBRANCH   3   4
ENDBRANCH   2   3
ENDBRANCH   1   2
BRANCH   1  28
ATOM     28  C   UNL A   1      33.548  35.311  30.370  1.00  0.00     0.188 C 
BRANCH  28  29
ATOM     29  C   UNL A   1      33.485  35.584  31.891  1.00  0.00     0.188 C 
BRANCH  29  30
ATOM     30  O   UNL A   1      34.757  35.750  32.509  1.00  0.00    -0.376 OA
BRANCH  30  31
ATOM     31  C   UNL A   1      34.975  35.033  33.716  1.00  0.00     0.202 C 
BRANCH  31  32
ATOM     32  C   UNL A   1      36.288  34.242  33.725  1.00  0.00     0.261 C 
BRANCH  32  33
ATOM     33  O   UNL A   1      36.136  32.817  33.827  1.00  0.00    -0.460 OA
BRANCH  33  34
ATOM     34  C   UNL A   1      35.654  32.158  32.750  1.00  0.00     0.338 C 
ATOM     35  O   UNL A   1      34.510  32.148  32.337  1.00  0.00    -0.246 OA
BRANCH  34  36
ATOM     36  C   UNL A   1      36.817  31.603  32.027  1.00  0.00     0.060 A 
ATOM     37  C   UNL A   1      36.840  31.594  30.630  1.00  0.00     0.016 A 
ATOM     38  C   UNL A   1      37.867  31.035  32.760  1.00  0.00     0.016 A 
ATOM     39  C   UNL A   1      37.933  31.042  29.962  1.00  0.00     0.010 A 
ATOM     40  C   UNL A   1      38.953  30.468  32.090  1.00  0.00     0.010 A 
ATOM     41  C   UNL A   1      39.003  30.491  30.688  1.00  0.00    -0.014 A 
BRANCH  41  42
ATOM     42  C   UNL A   1      40.258  30.132  29.986  1.00  0.00     0.031 A 
ATOM     43  C   UNL A   1      41.388  31.097  29.820  1.00  0.00     0.074 A 
ATOM     44  C   UNL A   1      40.347  28.887  29.483  1.00  0.00     0.049 A 
ATOM     45  N   UNL A   1      42.556  30.901  29.259  1.00  0.00    -0.248 NA
ATOM     46  C   UNL A   1      41.189  32.455  30.344  1.00  0.00     0.031 C 
ATOM     47  C   UNL A   1      39.297  27.871  29.582  1.00  0.00     0.029 A 
ATOM     48  N   UNL A   1      41.354  28.265  28.793  1.00  0.00    -0.354 N 
ATOM     49  C   UNL A   1      43.244  32.100  29.381  1.00  0.00     0.074 A 
ATOM     50  C   UNL A   1      42.346  33.032  30.034  1.00  0.00     0.031 C 
ATOM     51  C   UNL A   1      39.719  26.748  28.981  1.00  0.00     0.029 A 
ATOM     52  C   UNL A   1      41.056  26.973  28.439  1.00  0.00     0.049 A 
ATOM     53  H   UNL A   1      42.209  28.702  28.574  1.00  0.00     0.167 HD
ATOM     54  C   UNL A   1      44.512  32.382  28.995  1.00  0.00     0.037 A 
ATOM     55  C   UNL A   1      41.777  26.068  27.754  1.00  0.00     0.037 A 
ATOM     56  C   UNL A   1      45.390  31.452  28.324  1.00  0.00     0.049 A 
ATOM     57  C   UNL A   1      43.158  26.428  27.292  1.00  0.00     0.074 A 
ATOM     58  C   UNL A   1      46.699  31.644  27.914  1.00  0.00     0.029 A 
ATOM     59  N   UNL A   1      45.045  30.161  27.950  1.00  0.00    -0.354 N 
ATOM     60  N   UNL A   1      43.820  27.546  27.461  1.00  0.00    -0.248 NA
ATOM     61  C   UNL A   1      43.897  25.396  26.553  1.00  0.00     0.031 C 
ATOM     62  C   UNL A   1      47.128  30.490  27.250  1.00  0.00     0.029 A 
ATOM     63  C   UNL A   1      46.107  29.555  27.294  1.00  0.00     0.049 A 
ATOM     64  H   UNL A   1      44.173  29.736  28.125  1.00  0.00     0.167 HD
ATOM     65  C   UNL A   1      45.061  27.347  26.874  1.00  0.00     0.074 A 
ATOM     66  C   UNL A   1      45.065  25.994  26.357  1.00  0.00     0.031 C 
ATOM     67  C   UNL A   1      46.102  28.210  26.777  1.00  0.00     0.037 A 
BRANCH  54  68
ATOM     68  C   UNL A   1      45.049  33.753  29.291  1.00  0.00     0.064 A 
ATOM     69  C   UNL A   1      44.924  34.799  28.366  1.00  0.00     0.173 A 
ATOM     70  C   UNL A   1      45.602  34.051  30.547  1.00  0.00     0.173 A 
ATOM     71  F   UNL A   1      44.403  34.567  27.151  1.00  0.00    -0.203 F 
ATOM     72  C   UNL A   1      45.339  36.090  28.682  1.00  0.00     0.198 A 
ATOM     73  C   UNL A   1      45.994  35.348  30.868  1.00  0.00     0.198 A 
ATOM     74  F   UNL A   1      45.735  33.089  31.472  1.00  0.00    -0.203 F 
ATOM     75  F   UNL A   1      45.226  37.070  27.774  1.00  0.00    -0.200 F 
ATOM     76  C   UNL A   1      45.864  36.366  29.935  1.00  0.00     0.200 A 
ATOM     77  F   UNL A   1      46.485  35.616  32.086  1.00  0.00    -0.200 F 
ATOM     78  F   UNL A   1      46.243  37.614  30.246  1.00  0.00    -0.200 F 
ENDBRANCH  54  68
BRANCH  55  79
ATOM     79  C   UNL A   1      41.207  24.721  27.510  1.00  0.00     0.064 A 
ATOM     80  C   UNL A   1      41.654  23.612  28.239  1.00  0.00     0.173 A 
ATOM     81  C   UNL A   1      40.178  24.523  26.578  1.00  0.00     0.173 A 
ATOM     82  F   UNL A   1      42.646  23.753  29.131  1.00  0.00    -0.203 F 
ATOM     83  C   UNL A   1      41.097  22.351  28.040  1.00  0.00     0.198 A 
ATOM     84  C   UNL A   1      39.604  23.268  26.399  1.00  0.00     0.198 A 
ATOM     85  F   UNL A   1      39.712  25.557  25.862  1.00  0.00    -0.203 F 
ATOM     86  F   UNL A   1      41.560  21.300  28.730  1.00  0.00    -0.200 F 
ATOM     87  C   UNL A   1      40.066  22.182  27.127  1.00  0.00     0.200 A 
ATOM     88  F   UNL A   1      38.598  23.111  25.527  1.00  0.00    -0.200 F 
ATOM     89  F   UNL A   1      39.521  20.972  26.946  1.00  0.00    -0.200 F 
ENDBRANCH  55  79
BRANCH  67  90
ATOM     90  C   UNL A   1      47.347  27.709  26.101  1.00  0.00     0.064 A 
ATOM     91  C   UNL A   1      47.486  27.727  24.706  1.00  0.00     0.173 A 
ATOM     92  C   UNL A   1      48.427  27.234  26.862  1.00  0.00     0.173 A 
ATOM     93  F   UNL A   1      46.476  28.156  23.933  1.00  0.00    -0.203 F 
ATOM     94  C   UNL A   1      48.649  27.265  24.095  1.00  0.00     0.198 A 
ATOM     95  C   UNL A   1      49.600  26.800  26.249  1.00  0.00     0.198 A 
ATOM     96  F   UNL A   1      48.349  27.200  28.200  1.00  0.00    -0.203 F 
ATOM     97  F   UNL A   1      48.739  27.245  22.758  1.00  0.00    -0.200 F 
ATOM     98  C   UNL A   1      49.707  26.808  24.867  1.00  0.00     0.200 A 
ATOM     99  F   UNL A   1      50.627  26.373  26.997  1.00  0.00    -0.200 F 
ATOM    100  F   UNL A   1      50.828  26.370  24.278  1.00  0.00    -0.200 F 
ENDBRANCH  67  90
ENDBRANCH  41  42
ENDBRANCH  34  36
ENDBRANCH  33  34
ENDBRANCH  32  33
ENDBRANCH  31  32
ENDBRANCH  30  31
ENDBRANCH  29  30
ENDBRANCH  28  29
ENDBRANCH   1  28
TORSDOF 23
ENDMDL
MODEL 2
REMARK VINA RESULT:     -10.2      0.773      7.003
REMARK SMILES CCCc1cc2c(cc1Cl)C=C(C(=O)OCCOCCOCCOCCOC(=O)c1ccc(-c3c4nc(c(-c5c(F)c(F)c(F)c(F)c5F)c5ccc([nH]5)c(-c5c(F)c(F)c(F)c(F)c5F)c5nc(c(-c6c(F)c(F)c(F)c(F)c6F)c6ccc3[nH]6)C=C5)C=C4)cc1)[C@@H](C(F)(F)F)O2
REMARK SMILES IDX 21 1 20 2 19 3 18 4 17 5 16 6 15 7 13 8 14 9 12 10 4 11 5 12
REMARK SMILES IDX 9 13 6 14 8 15 10 16 7 17 98 18 11 19 93 20 3 21 2 22 1 23
REMARK SMILES IDX 94 24 95 25 96 26 97 27 22 28 23 29 24 30 25 31 26 32 27 33
REMARK SMILES IDX 28 34 29 35 30 36 31 37 92 38 32 39 91 40 33 41 34 42 35 43
REMARK SMILES IDX 85 44 36 45 90 46 84 47 86 48 37 49 89 50 83 51 82 52 38 54
REMARK SMILES IDX 70 55 50 56 69 57 51 58 54 59 68 60 87 61 52 62 53 63 67 65
REMARK SMILES IDX 88 66 55 67 39 68 40 69 48 70 41 71 42 72 46 73 49 74 43 75
REMARK SMILES IDX 44 76 47 77 45 78 71 79 72 80 80 81 73 82 74 83 78 84 81 85
REMARK SMILES IDX 75 86 76 87 79 88 77 89 56 90 57 91 65 92 58 93 59 94 63 95
REMARK SMILES IDX 66 96 60 97 61 98 64 99 62 100
REMARK H PARENT 86 53 54 64
REMARK Flexibility Score: inf
ROOT
ATOM      1  O   UNL A   1      34.710  33.316  29.312  1.00  0.00    -0.377 OA
ENDROOT
BRANCH   1   2
ATOM      2  C   UNL A   1      33.994  32.306  28.624  1.00  0.00     0.188 C 
BRANCH   2   3
ATOM      3  C   UNL A   1      34.881  31.376  27.778  1.00  0.00     0.188 C 
BRANCH   3   4
ATOM      4  O   UNL A   1      34.162  30.305  27.170  1.00  0.00    -0.376 OA
BRANCH   4   5
ATOM      5  C   UNL A   1      32.742  30.362  27.245  1.00  0.00     0.202 C 
BRANCH   5   6
ATOM      6  C   UNL A   1      32.020  29.007  27.203  1.00  0.00     0.261 C 
BRANCH   6   7
ATOM      7  O   UNL A   1      31.417  28.694  25.937  1.00  0.00    -0.460 OA
BRANCH   7   8
ATOM      8  C   UNL A   1      32.208  28.098  25.024  1.00  0.00     0.338 C 
ATOM      9  O   UNL A   1      33.032  28.645  24.310  1.00  0.00    -0.246 OA
BRANCH   8  10
ATOM     10  C   UNL A   1      32.041  26.636  25.141  1.00  0.00     0.087 C 
ATOM     11  C   UNL A   1      32.827  21.656  25.442  1.00  0.00    -0.026 A 
ATOM     12  C   UNL A   1      31.682  22.493  25.372  1.00  0.00     0.052 A 
ATOM     13  C   UNL A   1      34.074  22.291  25.550  1.00  0.00     0.045 A 
ATOM     14  C   UNL A   1      31.778  23.888  25.371  1.00  0.00     0.128 A 
ATOM     15  C   UNL A   1      34.161  23.692  25.596  1.00  0.00     0.032 A 
ATOM     16  Cl  UNL A   1      35.599  21.484  25.567  1.00  0.00    -0.084 Cl
ATOM     17  C   UNL A   1      33.024  24.489  25.472  1.00  0.00     0.019 A 
ATOM     18  O   UNL A   1      30.609  24.585  25.251  1.00  0.00    -0.475 OA
ATOM     19  C   UNL A   1      33.152  25.930  25.383  1.00  0.00     0.027 C 
ATOM     20  C   UNL A   1      30.667  26.025  25.034  1.00  0.00     0.316 C 
BRANCH  11  21
ATOM     21  C   UNL A   1      32.543  20.172  25.273  1.00  0.00     0.037 C 
BRANCH  21  22
ATOM     22  C   UNL A   1      32.421  19.496  23.906  1.00  0.00     0.001 C 
ATOM     23  C   UNL A   1      32.726  18.006  23.927  1.00  0.00     0.004 C 
ENDBRANCH  21  22
ENDBRANCH  11  21
BRANCH  20  24
ATOM     24  C   UNL A   1      30.007  26.354  23.688  1.00  0.00     0.430 C 
ATOM     25  F   UNL A   1      30.673  25.781  22.657  1.00  0.00    -0.167 F 
ATOM     26  F   UNL A   1      28.733  25.898  23.627  1.00  0.00    -0.167 F 
ATOM     27  F   UNL A   1      29.968  27.687  23.456  1.00  0.00    -0.167 F 
ENDBRANCH  20  24
ENDBRANCH   8  10
ENDBRANCH   7   8
ENDBRANCH   6   7
ENDBRANCH   5   6
ENDBRANCH   4   5
ENDBRANCH   3   4
ENDBRANCH   2   3
ENDBRANCH   1   2
BRANCH   1  28
ATOM     28  C   UNL A   1      34.001  34.485  29.722  1.00  0.00     0.188 C 
BRANCH  28  29
ATOM     29  C   UNL A   1      34.068  35.044  31.162  1.00  0.00     0.188 C 
BRANCH  29  30
ATOM     30  O   UNL A   1      35.380  35.077  31.716  1.00  0.00    -0.376 OA
BRANCH  30  31
ATOM     31  C   UNL A   1      35.485  34.832  33.112  1.00  0.00     0.202 C 
BRANCH  31  32
ATOM     32  C   UNL A   1      36.767  34.089  33.504  1.00  0.00     0.261 C 
BRANCH  32  33
ATOM     33  O   UNL A   1      36.605  32.681  33.734  1.00  0.00    -0.460 OA
BRANCH  33  34
ATOM     34  C   UNL A   1      36.029  31.946  32.757  1.00  0.00     0.338 C 
ATOM     35  O   UNL A   1      34.857  31.929  32.435  1.00  0.00    -0.246 OA
BRANCH  34  36
ATOM     36  C   UNL A   1      37.122  31.305  31.997  1.00  0.00     0.060 A 
ATOM     37  C   UNL A   1      37.112  31.321  30.600  1.00  0.00     0.016 A 
ATOM     38  C   UNL A   1      38.134  30.634  32.694  1.00  0.00     0.016 A 
ATOM     39  C   UNL A   1      38.137  30.687  29.896  1.00  0.00     0.010 A 
ATOM     40  C   UNL A   1      39.150  29.987  31.989  1.00  0.00     0.010 A 
ATOM     41  C   UNL A   1      39.171  30.031  30.587  1.00  0.00    -0.014 A 
BRANCH  41  42
ATOM     42  C   UNL A   1      40.373  29.577  29.850  1.00  0.00     0.031 A 
ATOM     43  C   UNL A   1      40.501  28.191  29.302  1.00  0.00     0.074 A 
ATOM     44  C   UNL A   1      41.373  30.464  29.694  1.00  0.00     0.049 A 
ATOM     45  N   UNL A   1      41.484  27.673  28.606  1.00  0.00    -0.248 NA
ATOM     46  C   UNL A   1      39.393  27.264  29.566  1.00  0.00     0.031 C 
ATOM     47  C   UNL A   1      41.353  31.838  30.199  1.00  0.00     0.029 A 
ATOM     48  N   UNL A   1      42.590  30.349  29.076  1.00  0.00    -0.354 N 
ATOM     49  C   UNL A   1      41.106  26.367  28.326  1.00  0.00     0.074 A 
ATOM     50  C   UNL A   1      39.821  26.159  28.964  1.00  0.00     0.031 C 
ATOM     51  C   UNL A   1      42.502  32.443  29.863  1.00  0.00     0.029 A 
ATOM     52  C   UNL A   1      43.343  31.495  29.140  1.00  0.00     0.049 A 
ATOM     53  H   UNL A   1      42.894  29.527  28.630  1.00  0.00     0.167 HD
ATOM     54  C   UNL A   1      41.770  25.442  27.592  1.00  0.00     0.037 A 
ATOM     55  C   UNL A   1      44.577  31.755  28.670  1.00  0.00     0.037 A 
ATOM     56  C   UNL A   1      43.062  25.653  26.982  1.00  0.00     0.049 A 
ATOM     57  C   UNL A   1      45.310  30.691  27.907  1.00  0.00     0.074 A 
ATOM     58  C   UNL A   1      43.801  24.779  26.202  1.00  0.00     0.029 A 
ATOM     59  N   UNL A   1      43.814  26.815  27.093  1.00  0.00    -0.354 N 
ATOM     60  N   UNL A   1      44.921  29.478  27.600  1.00  0.00    -0.248 NA
ATOM     61  C   UNL A   1      46.649  31.037  27.415  1.00  0.00     0.031 C 
ATOM     62  C   UNL A   1      45.018  25.391  25.884  1.00  0.00     0.029 A 
ATOM     63  C   UNL A   1      45.017  26.670  26.417  1.00  0.00     0.049 A 
ATOM     64  H   UNL A   1      43.534  27.624  27.581  1.00  0.00     0.167 HD
ATOM     65  C   UNL A   1      45.953  28.922  26.859  1.00  0.00     0.074 A 
ATOM     66  C   UNL A   1      46.980  29.938  26.749  1.00  0.00     0.031 C 
ATOM     67  C   UNL A   1      46.037  27.683  26.317  1.00  0.00     0.037 A 
BRANCH  54  68
ATOM     68  C   UNL A   1      41.118  24.104  27.390  1.00  0.00     0.064 A 
ATOM     69  C   UNL A   1      40.044  23.945  26.502  1.00  0.00     0.173 A 
ATOM     70  C   UNL A   1      41.632  22.954  28.009  1.00  0.00     0.173 A 
ATOM     71  F   UNL A   1      39.514  25.013  25.885  1.00  0.00    -0.203 F 
ATOM     72  C   UNL A   1      39.504  22.687  26.248  1.00  0.00     0.198 A 
ATOM     73  C   UNL A   1      41.106  21.695  27.735  1.00  0.00     0.198 A 
ATOM     74  F   UNL A   1      42.666  23.050  28.859  1.00  0.00    -0.203 F 
ATOM     75  F   UNL A   1      38.466  22.562  25.410  1.00  0.00    -0.200 F 
ATOM     76  C   UNL A   1      40.041  21.562  26.855  1.00  0.00     0.200 A 
ATOM     77  F   UNL A   1      41.638  20.608  28.310  1.00  0.00    -0.200 F 
ATOM     78  F   UNL A   1      39.535  20.349  26.593  1.00  0.00    -0.200 F 
ENDBRANCH  54  68
BRANCH  55  79
ATOM     79  C   UNL A   1      45.164  33.100  28.877  1.00  0.00     0.064 A 
ATOM     80  C   UNL A   1      44.903  34.142  27.979  1.00  0.00     0.173 A 
ATOM     81  C   UNL A   1      45.958  33.383  29.998  1.00  0.00     0.173 A 
ATOM     82  F   UNL A   1      44.159  33.913  26.886  1.00  0.00    -0.203 F 
ATOM     83  C   UNL A   1      45.422  35.417  28.188  1.00  0.00     0.198 A 
ATOM     84  C   UNL A   1      46.454  34.665  30.220  1.00  0.00     0.198 A 
ATOM     85  F   UNL A   1      46.228  32.419  30.891  1.00  0.00    -0.203 F 
ATOM     86  F   UNL A   1      45.181  36.390  27.299  1.00  0.00    -0.200 F 
ATOM     87  C   UNL A   1      46.189  35.680  29.313  1.00  0.00     0.200 A 
ATOM     88  F   UNL A   1      47.182  34.918  31.317  1.00  0.00    -0.200 F 
ATOM     89  F   UNL A   1      46.676  36.910  29.522  1.00  0.00    -0.200 F 
ENDBRANCH  55  79
BRANCH  67  90
ATOM     90  C   UNL A   1      47.278  27.359  25.534  1.00  0.00     0.064 A 
ATOM     91  C   UNL A   1      47.390  27.665  24.171  1.00  0.00     0.173 A 
ATOM     92  C   UNL A   1      48.381  26.762  26.165  1.00  0.00     0.173 A 
ATOM     93  F   UNL A   1      46.358  28.222  23.517  1.00  0.00    -0.203 F 
ATOM     94  C   UNL A   1      48.550  27.364  23.461  1.00  0.00     0.198 A 
ATOM     95  C   UNL A   1      49.550  26.488  25.460  1.00  0.00     0.198 A 
ATOM     96  F   UNL A   1      48.329  26.452  27.469  1.00  0.00    -0.203 F 
ATOM     97  F   UNL A   1      48.615  27.620  22.147  1.00  0.00    -0.200 F 
ATOM     98  C   UNL A   1      49.631  26.782  24.107  1.00  0.00     0.200 A 
ATOM     99  F   UNL A   1      50.598  25.939  26.088  1.00  0.00    -0.200 F 
ATOM    100  F   UNL A   1      50.748  26.498  23.424  1.00  0.00    -0.200 F 
ENDBRANCH  67  90
ENDBRANCH  41  42
ENDBRANCH  34  36
ENDBRANCH  33  34
ENDBRANCH  32  33
ENDBRANCH  31  32
ENDBRANCH  30  31
ENDBRANCH  29  30
ENDBRANCH  28  29
ENDBRANCH   1  28
TORSDOF 23
ENDMDL
MODEL 3
REMARK VINA RESULT:      -9.2      2.967      5.066
REMARK SMILES CCCc1cc2c(cc1Cl)C=C(C(=O)OCCOCCOCCOCCOC(=O)c1ccc(-c3c4nc(c(-c5c(F)c(F)c(F)c(F)c5F)c5ccc([nH]5)c(-c5c(F)c(F)c(F)c(F)c5F)c5nc(c(-c6c(F)c(F)c(F)c(F)c6F)c6ccc3[nH]6)C=C5)C=C4)cc1)[C@@H](C(F)(F)F)O2
REMARK SMILES IDX 21 1 20 2 19 3 18 4 17 5 16 6 15 7 13 8 14 9 12 10 4 11 5 12
REMARK SMILES IDX 9 13 6 14 8 15 10 16 7 17 98 18 11 19 93 20 3 21 2 22 1 23
REMARK SMILES IDX 94 24 95 25 96 26 97 27 22 28 23 29 24 30 25 31 26 32 27 33
REMARK SMILES IDX 28 34 29 35 30 36 31 37 92 38 32 39 91 40 33 41 34 42 35 43
REMARK SMILES IDX 85 44 36 45 90 46 84 47 86 48 37 49 89 50 83 51 82 52 38 54
REMARK SMILES IDX 70 55 50 56 69 57 51 58 54 59 68 60 87 61 52 62 53 63 67 65
REMARK SMILES IDX 88 66 55 67 39 68 40 69 48 70 41 71 42 72 46 73 49 74 43 75
REMARK SMILES IDX 44 76 47 77 45 78 71 79 72 80 80 81 73 82 74 83 78 84 81 85
REMARK SMILES IDX 75 86 76 87 79 88 77 89 56 90 57 91 65 92 58 93 59 94 63 95
REMARK SMILES IDX 66 96 60 97 61 98 64 99 62 100
REMARK H PARENT 86 53 54 64
REMARK Flexibility Score: inf
ROOT
ATOM      1  O   UNL A   1      35.226  32.117  28.880  1.00  0.00    -0.377 OA
ENDROOT
BRANCH   1   2
ATOM      2  C   UNL A   1      34.709  31.142  27.991  1.00  0.00     0.188 C 
BRANCH   2   3
ATOM      3  C   UNL A   1      35.687  29.993  27.688  1.00  0.00     0.188 C 
BRANCH   3   4
ATOM      4  O   UNL A   1      35.076  28.891  27.019  1.00  0.00    -0.376 OA
BRANCH   4   5
ATOM      5  C   UNL A   1      33.667  28.957  26.832  1.00  0.00     0.202 C 
BRANCH   5   6
ATOM      6  C   UNL A   1      32.942  27.604  26.772  1.00  0.00     0.261 C 
BRANCH   6   7
ATOM      7  O   UNL A   1      32.314  27.321  25.510  1.00  0.00    -0.460 OA
BRANCH   7   8
ATOM      8  C   UNL A   1      33.069  26.690  24.590  1.00  0.00     0.338 C 
ATOM      9  O   UNL A   1      33.907  27.199  23.866  1.00  0.00    -0.246 OA
BRANCH   8  10
ATOM     10  C   UNL A   1      32.842  25.236  24.715  1.00  0.00     0.087 C 
ATOM     11  C   UNL A   1      33.417  20.226  24.982  1.00  0.00    -0.026 A 
ATOM     12  C   UNL A   1      32.309  21.113  24.959  1.00  0.00     0.052 A 
ATOM     13  C   UNL A   1      34.695  20.805  25.037  1.00  0.00     0.045 A 
ATOM     14  C   UNL A   1      32.467  22.502  24.955  1.00  0.00     0.128 A 
ATOM     15  C   UNL A   1      34.846  22.200  25.080  1.00  0.00     0.032 A 
ATOM     16  Cl  UNL A   1      36.182  19.930  24.991  1.00  0.00    -0.084 Cl
ATOM     17  C   UNL A   1      33.742  23.047  25.004  1.00  0.00     0.019 A 
ATOM     18  O   UNL A   1      31.326  23.251  24.883  1.00  0.00    -0.475 OA
ATOM     19  C   UNL A   1      33.930  24.481  24.910  1.00  0.00     0.027 C 
ATOM     20  C   UNL A   1      31.439  24.688  24.665  1.00  0.00     0.316 C 
BRANCH  11  21
ATOM     21  C   UNL A   1      33.060  18.756  24.824  1.00  0.00     0.037 C 
BRANCH  21  22
ATOM     22  C   UNL A   1      32.921  18.072  23.463  1.00  0.00     0.001 C 
ATOM     23  C   UNL A   1      34.030  17.076  23.159  1.00  0.00     0.004 C 
ENDBRANCH  21  22
ENDBRANCH  11  21
BRANCH  20  24
ATOM     24  C   UNL A   1      30.739  25.048  23.347  1.00  0.00     0.430 C 
ATOM     25  F   UNL A   1      29.877  24.076  22.962  1.00  0.00    -0.167 F 
ATOM     26  F   UNL A   1      30.014  26.187  23.457  1.00  0.00    -0.167 F 
ATOM     27  F   UNL A   1      31.623  25.230  22.338  1.00  0.00    -0.167 F 
ENDBRANCH  20  24
ENDBRANCH   8  10
ENDBRANCH   7   8
ENDBRANCH   6   7
ENDBRANCH   5   6
ENDBRANCH   4   5
ENDBRANCH   3   4
ENDBRANCH   2   3
ENDBRANCH   1   2
BRANCH   1  28
ATOM     28  C   UNL A   1      34.481  33.321  29.066  1.00  0.00     0.188 C 
BRANCH  28  29
ATOM     29  C   UNL A   1      34.292  33.983  30.452  1.00  0.00     0.188 C 
BRANCH  29  30
ATOM     30  O   UNL A   1      35.385  33.793  31.345  1.00  0.00    -0.376 OA
BRANCH  30  31
ATOM     31  C   UNL A   1      35.251  32.748  32.298  1.00  0.00     0.202 C 
BRANCH  31  32
ATOM     32  C   UNL A   1      36.526  32.498  33.110  1.00  0.00     0.261 C 
BRANCH  32  33
ATOM     33  O   UNL A   1      36.870  31.115  33.288  1.00  0.00    -0.460 OA
BRANCH  33  34
ATOM     34  C   UNL A   1      37.005  30.352  32.181  1.00  0.00     0.338 C 
ATOM     35  O   UNL A   1      36.158  29.660  31.649  1.00  0.00    -0.246 OA
BRANCH  34  36
ATOM     36  C   UNL A   1      38.326  30.668  31.597  1.00  0.00     0.060 A 
ATOM     37  C   UNL A   1      38.467  30.821  30.215  1.00  0.00     0.016 A 
ATOM     38  C   UNL A   1      39.440  30.753  32.441  1.00  0.00     0.016 A 
ATOM     39  C   UNL A   1      39.726  31.091  29.677  1.00  0.00     0.010 A 
ATOM     40  C   UNL A   1      40.701  31.008  31.899  1.00  0.00     0.010 A 
ATOM     41  C   UNL A   1      40.847  31.204  30.518  1.00  0.00    -0.014 A 
BRANCH  41  42
ATOM     42  C   UNL A   1      42.122  31.727  29.974  1.00  0.00     0.031 A 
ATOM     43  C   UNL A   1      42.403  33.192  29.859  1.00  0.00     0.074 A 
ATOM     44  C   UNL A   1      43.035  30.826  29.569  1.00  0.00     0.049 A 
ATOM     45  N   UNL A   1      43.491  33.786  29.435  1.00  0.00    -0.248 NA
ATOM     46  C   UNL A   1      41.332  34.111  30.266  1.00  0.00     0.031 C 
ATOM     47  C   UNL A   1      42.856  29.374  29.628  1.00  0.00     0.029 A 
ATOM     48  N   UNL A   1      44.284  30.990  29.029  1.00  0.00    -0.354 N 
ATOM     49  C   UNL A   1      43.250  35.148  29.545  1.00  0.00     0.074 A 
ATOM     50  C   UNL A   1      41.895  35.293  30.037  1.00  0.00     0.031 C 
ATOM     51  C   UNL A   1      43.959  28.778  29.152  1.00  0.00     0.029 A 
ATOM     52  C   UNL A   1      44.910  29.804  28.736  1.00  0.00     0.049 A 
ATOM     53  H   UNL A   1      44.691  31.871  28.869  1.00  0.00     0.167 HD
ATOM     54  C   UNL A   1      44.094  36.173  29.272  1.00  0.00     0.037 A 
ATOM     55  C   UNL A   1      46.117  29.568  28.191  1.00  0.00     0.037 A 
ATOM     56  C   UNL A   1      45.434  36.016  28.758  1.00  0.00     0.049 A 
ATOM     57  C   UNL A   1      47.007  30.726  27.848  1.00  0.00     0.074 A 
ATOM     58  C   UNL A   1      46.369  36.998  28.472  1.00  0.00     0.029 A 
ATOM     59  N   UNL A   1      46.027  34.802  28.441  1.00  0.00    -0.354 N 
ATOM     60  N   UNL A   1      46.791  32.009  28.008  1.00  0.00    -0.248 NA
ATOM     61  C   UNL A   1      48.314  30.403  27.261  1.00  0.00     0.031 C 
ATOM     62  C   UNL A   1      47.505  36.384  27.936  1.00  0.00     0.029 A 
ATOM     63  C   UNL A   1      47.304  35.013  27.939  1.00  0.00     0.049 A 
ATOM     64  H   UNL A   1      45.604  33.920  28.554  1.00  0.00     0.167 HD
ATOM     65  C   UNL A   1      47.941  32.646  27.565  1.00  0.00     0.074 A 
ATOM     66  C   UNL A   1      48.858  31.607  27.145  1.00  0.00     0.031 C 
ATOM     67  C   UNL A   1      48.210  33.974  27.517  1.00  0.00     0.037 A 
BRANCH  54  68
ATOM     68  C   UNL A   1      43.607  37.571  29.527  1.00  0.00     0.064 A 
ATOM     69  C   UNL A   1      43.957  38.260  30.697  1.00  0.00     0.173 A 
ATOM     70  C   UNL A   1      42.871  38.263  28.553  1.00  0.00     0.173 A 
ATOM     71  F   UNL A   1      44.659  37.644  31.660  1.00  0.00    -0.203 F 
ATOM     72  C   UNL A   1      43.582  39.588  30.886  1.00  0.00     0.198 A 
ATOM     73  C   UNL A   1      42.518  39.598  28.734  1.00  0.00     0.198 A 
ATOM     74  F   UNL A   1      42.520  37.652  27.411  1.00  0.00    -0.203 F 
ATOM     75  F   UNL A   1      43.911  40.221  32.020  1.00  0.00    -0.200 F 
ATOM     76  C   UNL A   1      42.872  40.259  29.902  1.00  0.00     0.200 A 
ATOM     77  F   UNL A   1      41.848  40.249  27.774  1.00  0.00    -0.200 F 
ATOM     78  F   UNL A   1      42.530  41.543  30.075  1.00  0.00    -0.200 F 
ENDBRANCH  54  68
BRANCH  55  79
ATOM     79  C   UNL A   1      46.557  28.167  27.982  1.00  0.00     0.064 A 
ATOM     80  C   UNL A   1      47.179  27.451  29.011  1.00  0.00     0.173 A 
ATOM     81  C   UNL A   1      46.324  27.504  26.768  1.00  0.00     0.173 A 
ATOM     82  F   UNL A   1      47.434  28.051  30.184  1.00  0.00    -0.203 F 
ATOM     83  C   UNL A   1      47.562  26.124  28.833  1.00  0.00     0.198 A 
ATOM     84  C   UNL A   1      46.683  26.169  26.600  1.00  0.00     0.198 A 
ATOM     85  F   UNL A   1      45.723  28.146  25.756  1.00  0.00    -0.203 F 
ATOM     86  F   UNL A   1      48.181  25.469  29.824  1.00  0.00    -0.200 F 
ATOM     87  C   UNL A   1      47.305  25.482  27.631  1.00  0.00     0.200 A 
ATOM     88  F   UNL A   1      46.418  25.547  25.443  1.00  0.00    -0.200 F 
ATOM     89  F   UNL A   1      47.659  24.201  27.465  1.00  0.00    -0.200 F 
ENDBRANCH  55  79
BRANCH  67  90
ATOM     90  C   UNL A   1      49.563  34.382  27.008  1.00  0.00     0.064 A 
ATOM     91  C   UNL A   1      50.693  34.381  27.838  1.00  0.00     0.173 A 
ATOM     92  C   UNL A   1      49.736  34.749  25.664  1.00  0.00     0.173 A 
ATOM     93  F   UNL A   1      50.578  34.054  29.135  1.00  0.00    -0.203 F 
ATOM     94  C   UNL A   1      51.942  34.757  27.349  1.00  0.00     0.198 A 
ATOM     95  C   UNL A   1      50.991  35.096  25.171  1.00  0.00     0.198 A 
ATOM     96  F   UNL A   1      48.689  34.762  24.826  1.00  0.00    -0.203 F 
ATOM     97  F   UNL A   1      52.998  34.796  28.173  1.00  0.00    -0.200 F 
ATOM     98  C   UNL A   1      52.092  35.107  26.015  1.00  0.00     0.200 A 
ATOM     99  F   UNL A   1      51.137  35.420  23.879  1.00  0.00    -0.200 F 
ATOM    100  F   UNL A   1      53.295  35.462  25.545  1.00  0.00    -0.200 F 
ENDBRANCH  67  90
ENDBRANCH  41  42
ENDBRANCH  34  36
ENDBRANCH  33  34
ENDBRANCH  32  33
ENDBRANCH  31  32
ENDBRANCH  30  31
ENDBRANCH  29  30
ENDBRANCH  28  29
ENDBRANCH   1  28
TORSDOF 23
ENDMDL
