MODEL 1
REMARK VINA RESULT:      -9.1      0.000      0.000
REMARK SMILES COc1cccc([C@@H]2CN(C(=O)CCSC)C[C@H]2C(=O)OCCOCCOCCOCCOC(=O)c2ccc(-c3c4nc(c(-c5c(F)c(F)c(F)c(F)c5F)c5ccc([nH]5)c(-c5c(F)c(F)c(F)c(F)c5F)c5nc(c(-c6c(F)c(F)c(F)c(F)c6F)c6ccc3[nH]6)C=C5)C=C4)cc2)c1OC
REMARK SMILES IDX 26 1 25 2 24 3 23 4 22 5 21 6 19 7 20 8 18 9 8 10 9 11 10 12
REMARK SMILES IDX 17 13 7 14 3 15 4 16 99 17 5 18 6 19 2 20 1 21 100 22 101 23
REMARK SMILES IDX 11 24 12 25 13 26 14 27 15 28 16 29 27 30 28 31 29 32 30 33
REMARK SMILES IDX 31 34 32 35 33 36 34 37 35 38 36 39 37 40 98 41 38 42 97 43
REMARK SMILES IDX 39 44 40 45 41 46 91 47 42 48 96 49 90 50 92 51 43 52 95 53
REMARK SMILES IDX 89 54 88 55 44 57 76 58 56 59 75 60 57 61 60 62 74 63 93 64
REMARK SMILES IDX 58 65 59 66 73 68 94 69 61 70 45 71 46 72 54 73 47 74 48 75
REMARK SMILES IDX 52 76 55 77 49 78 50 79 53 80 51 81 77 82 78 83 86 84 79 85
REMARK SMILES IDX 80 86 84 87 87 88 81 89 82 90 85 91 83 92 62 93 63 94 71 95
REMARK SMILES IDX 64 96 65 97 69 98 72 99 66 100 67 101 70 102 68 103
REMARK H PARENT 92 56 60 67
REMARK Flexibility Score: inf
ROOT
ATOM      1  C   UNL A   1      29.670  26.552  23.838  1.00  0.00     0.188 C 
ENDROOT
BRANCH   1   2
ATOM      2  C   UNL A   1      30.313  27.465  22.789  1.00  0.00     0.188 C 
BRANCH   2   3
ATOM      3  O   UNL A   1      31.706  27.624  22.852  1.00  0.00    -0.376 OA
BRANCH   3   4
ATOM      4  C   UNL A   1      32.602  26.759  22.190  1.00  0.00     0.202 C 
BRANCH   4   5
ATOM      5  C   UNL A   1      32.348  25.286  21.824  1.00  0.00     0.261 C 
BRANCH   5   6
ATOM      6  O   UNL A   1      33.211  24.269  22.351  1.00  0.00    -0.463 OA
BRANCH   6   7
ATOM      7  C   UNL A   1      32.577  23.288  23.045  1.00  0.00     0.311 C 
ATOM      8  O   UNL A   1      31.519  23.458  23.646  1.00  0.00    -0.252 OA
BRANCH   7   9
ATOM      9  C   UNL A   1      33.319  21.971  23.125  1.00  0.00     0.128 C 
ATOM     10  C   UNL A   1      33.905  21.435  24.460  1.00  0.00     0.059 C 
ATOM     11  C   UNL A   1      33.667  19.923  24.402  1.00  0.00     0.129 C 
ATOM     12  N   UNL A   1      32.742  19.682  23.316  1.00  0.00    -0.341 N 
ATOM     13  C   UNL A   1      32.338  20.904  22.664  1.00  0.00     0.135 C 
BRANCH  10  14
ATOM     14  C   UNL A   1      35.384  21.666  24.859  1.00  0.00     0.004 A 
ATOM     15  C   UNL A   1      37.304  22.948  25.669  1.00  0.00     0.161 A 
ATOM     16  C   UNL A   1      38.121  21.818  25.559  1.00  0.00     0.050 A 
ATOM     17  C   UNL A   1      35.945  22.898  25.287  1.00  0.00     0.164 A 
ATOM     18  C   UNL A   1      37.597  20.627  25.072  1.00  0.00     0.004 A 
ATOM     19  C   UNL A   1      36.246  20.552  24.731  1.00  0.00     0.008 A 
BRANCH  15  20
ATOM     20  O   UNL A   1      37.937  24.115  26.013  1.00  0.00    -0.493 OA
ATOM     21  C   UNL A   1      38.997  23.910  26.947  1.00  0.00     0.278 C 
ENDBRANCH  15  20
BRANCH  17  22
ATOM     22  O   UNL A   1      35.093  23.961  25.233  1.00  0.00    -0.493 OA
ATOM     23  C   UNL A   1      34.197  24.247  26.292  1.00  0.00     0.278 C 
ENDBRANCH  17  22
ENDBRANCH  10  14
BRANCH  12  24
ATOM     24  C   UNL A   1      32.311  18.466  22.845  1.00  0.00     0.223 C 
ATOM     25  O   UNL A   1      31.979  18.306  21.670  1.00  0.00    -0.275 OA
BRANCH  24  26
ATOM     26  C   UNL A   1      32.303  17.299  23.804  1.00  0.00     0.111 C 
BRANCH  26  27
ATOM     27  C   UNL A   1      33.611  16.516  23.729  1.00  0.00     0.079 C 
BRANCH  27  28
ATOM     28  S   UNL A   1      34.177  15.829  25.326  1.00  0.00    -0.165 SA
ATOM     29  C   UNL A   1      32.813  14.693  25.692  1.00  0.00     0.085 C 
ENDBRANCH  27  28
ENDBRANCH  26  27
ENDBRANCH  24  26
ENDBRANCH  12  24
ENDBRANCH   7   9
ENDBRANCH   6   7
ENDBRANCH   5   6
ENDBRANCH   4   5
ENDBRANCH   3   4
ENDBRANCH   2   3
ENDBRANCH   1   2
BRANCH   1  30
ATOM     30  O   UNL A   1      29.983  26.586  25.223  1.00  0.00    -0.377 OA
BRANCH  30  31
ATOM     31  C   UNL A   1      31.322  26.421  25.657  1.00  0.00     0.188 C 
BRANCH  31  32
ATOM     32  C   UNL A   1      31.767  27.101  26.960  1.00  0.00     0.188 C 
BRANCH  32  33
ATOM     33  O   UNL A   1      31.398  28.465  27.044  1.00  0.00    -0.376 OA
BRANCH  33  34
ATOM     34  C   UNL A   1      31.827  29.328  26.001  1.00  0.00     0.202 C 
BRANCH  34  35
ATOM     35  C   UNL A   1      33.229  29.953  26.081  1.00  0.00     0.261 C 
BRANCH  35  36
ATOM     36  O   UNL A   1      33.979  29.741  27.288  1.00  0.00    -0.460 OA
BRANCH  36  37
ATOM     37  C   UNL A   1      34.648  30.784  27.816  1.00  0.00     0.338 C 
ATOM     38  O   UNL A   1      34.234  31.914  28.010  1.00  0.00    -0.246 OA
BRANCH  37  39
ATOM     39  C   UNL A   1      35.941  30.263  28.309  1.00  0.00     0.060 A 
ATOM     40  C   UNL A   1      35.986  29.630  29.558  1.00  0.00     0.016 A 
ATOM     41  C   UNL A   1      37.094  30.378  27.529  1.00  0.00     0.016 A 
ATOM     42  C   UNL A   1      37.194  29.133  30.044  1.00  0.00     0.010 A 
ATOM     43  C   UNL A   1      38.310  29.902  28.029  1.00  0.00     0.010 A 
ATOM     44  C   UNL A   1      38.370  29.308  29.303  1.00  0.00    -0.014 A 
BRANCH  44  45
ATOM     45  C   UNL A   1      39.679  29.079  29.958  1.00  0.00     0.031 A 
ATOM     46  C   UNL A   1      40.537  27.956  29.444  1.00  0.00     0.074 A 
ATOM     47  C   UNL A   1      40.118  29.868  30.953  1.00  0.00     0.049 A 
ATOM     48  N   UNL A   1      41.704  27.538  29.860  1.00  0.00    -0.248 NA
ATOM     49  C   UNL A   1      39.999  27.200  28.299  1.00  0.00     0.031 C 
ATOM     50  C   UNL A   1      39.398  31.016  31.502  1.00  0.00     0.029 A 
ATOM     51  N   UNL A   1      41.279  29.816  31.684  1.00  0.00    -0.354 N 
ATOM     52  C   UNL A   1      42.036  26.472  29.033  1.00  0.00     0.074 A 
ATOM     53  C   UNL A   1      40.936  26.284  28.115  1.00  0.00     0.031 C 
ATOM     54  C   UNL A   1      40.131  31.555  32.492  1.00  0.00     0.029 A 
ATOM     55  C   UNL A   1      41.353  30.770  32.669  1.00  0.00     0.049 A 
ATOM     56  H   UNL A   1      41.992  29.158  31.517  1.00  0.00     0.167 HD
ATOM     57  C   UNL A   1      43.165  25.724  29.034  1.00  0.00     0.037 A 
ATOM     58  C   UNL A   1      42.292  30.966  33.616  1.00  0.00     0.037 A 
ATOM     59  C   UNL A   1      44.253  25.913  29.956  1.00  0.00     0.049 A 
ATOM     60  C   UNL A   1      43.500  30.062  33.653  1.00  0.00     0.074 A 
ATOM     61  C   UNL A   1      45.445  25.217  30.036  1.00  0.00     0.029 A 
ATOM     62  N   UNL A   1      44.273  26.863  30.967  1.00  0.00    -0.354 N 
ATOM     63  N   UNL A   1      43.822  29.073  32.854  1.00  0.00    -0.248 NA
ATOM     64  C   UNL A   1      44.479  30.305  34.724  1.00  0.00     0.031 C 
ATOM     65  C   UNL A   1      46.160  25.702  31.136  1.00  0.00     0.029 A 
ATOM     66  C   UNL A   1      45.446  26.749  31.697  1.00  0.00     0.049 A 
ATOM     67  H   UNL A   1      43.562  27.520  31.140  1.00  0.00     0.167 HD
ATOM     68  C   UNL A   1      45.051  28.601  33.301  1.00  0.00     0.074 A 
ATOM     69  C   UNL A   1      45.423  29.420  34.435  1.00  0.00     0.031 C 
ATOM     70  C   UNL A   1      45.804  27.582  32.817  1.00  0.00     0.037 A 
BRANCH  57  71
ATOM     71  C   UNL A   1      43.260  24.610  28.032  1.00  0.00     0.064 A 
ATOM     72  C   UNL A   1      42.825  23.309  28.325  1.00  0.00     0.173 A 
ATOM     73  C   UNL A   1      43.775  24.855  26.750  1.00  0.00     0.173 A 
ATOM     74  F   UNL A   1      42.340  23.016  29.541  1.00  0.00    -0.203 F 
ATOM     75  C   UNL A   1      42.926  22.290  27.381  1.00  0.00     0.198 A 
ATOM     76  C   UNL A   1      43.844  23.843  25.798  1.00  0.00     0.198 A 
ATOM     77  F   UNL A   1      44.205  26.082  26.417  1.00  0.00    -0.203 F 
ATOM     78  F   UNL A   1      42.554  21.043  27.702  1.00  0.00    -0.200 F 
ATOM     79  C   UNL A   1      43.427  22.559  26.117  1.00  0.00     0.200 A 
ATOM     80  F   UNL A   1      44.317  24.109  24.573  1.00  0.00    -0.200 F 
ATOM     81  F   UNL A   1      43.518  21.579  25.207  1.00  0.00    -0.200 F 
ENDBRANCH  57  71
BRANCH  58  82
ATOM     82  C   UNL A   1      42.124  32.049  34.624  1.00  0.00     0.064 A 
ATOM     83  C   UNL A   1      42.642  33.333  34.403  1.00  0.00     0.173 A 
ATOM     84  C   UNL A   1      41.467  31.814  35.841  1.00  0.00     0.173 A 
ATOM     85  F   UNL A   1      43.302  33.603  33.267  1.00  0.00    -0.203 F 
ATOM     86  C   UNL A   1      42.530  34.331  35.371  1.00  0.00     0.198 A 
ATOM     87  C   UNL A   1      41.328  32.820  36.793  1.00  0.00     0.198 A 
ATOM     88  F   UNL A   1      40.956  30.602  36.105  1.00  0.00    -0.203 F 
ATOM     89  F   UNL A   1      43.083  35.533  35.156  1.00  0.00    -0.200 F 
ATOM     90  C   UNL A   1      41.868  34.076  36.562  1.00  0.00     0.200 A 
ATOM     91  F   UNL A   1      40.675  32.572  37.937  1.00  0.00    -0.200 F 
ATOM     92  F   UNL A   1      41.759  35.036  37.490  1.00  0.00    -0.200 F 
ENDBRANCH  58  82
BRANCH  70  93
ATOM     93  C   UNL A   1      47.129  27.323  33.478  1.00  0.00     0.064 A 
ATOM     94  C   UNL A   1      47.266  26.408  34.533  1.00  0.00     0.173 A 
ATOM     95  C   UNL A   1      48.289  27.964  33.012  1.00  0.00     0.173 A 
ATOM     96  F   UNL A   1      46.188  25.777  35.024  1.00  0.00    -0.203 F 
ATOM     97  C   UNL A   1      48.508  26.167  35.116  1.00  0.00     0.198 A 
ATOM     98  C   UNL A   1      49.534  27.693  33.572  1.00  0.00     0.198 A 
ATOM     99  F   UNL A   1      48.217  28.839  31.999  1.00  0.00    -0.203 F 
ATOM    100  F   UNL A   1      48.606  25.328  36.156  1.00  0.00    -0.200 F 
ATOM    101  C   UNL A   1      49.641  26.803  34.629  1.00  0.00     0.200 A 
ATOM    102  F   UNL A   1      50.630  28.292  33.087  1.00  0.00    -0.200 F 
ATOM    103  F   UNL A   1      50.837  26.560  35.183  1.00  0.00    -0.200 F 
ENDBRANCH  70  93
ENDBRANCH  44  45
ENDBRANCH  37  39
ENDBRANCH  36  37
ENDBRANCH  35  36
ENDBRANCH  34  35
ENDBRANCH  33  34
ENDBRANCH  32  33
ENDBRANCH  31  32
ENDBRANCH  30  31
ENDBRANCH   1  30
TORSDOF 27
ENDMDL
MODEL 2
REMARK VINA RESULT:      -8.8      4.098      9.115
REMARK SMILES COc1cccc([C@@H]2CN(C(=O)CCSC)C[C@H]2C(=O)OCCOCCOCCOCCOC(=O)c2ccc(-c3c4nc(c(-c5c(F)c(F)c(F)c(F)c5F)c5ccc([nH]5)c(-c5c(F)c(F)c(F)c(F)c5F)c5nc(c(-c6c(F)c(F)c(F)c(F)c6F)c6ccc3[nH]6)C=C5)C=C4)cc2)c1OC
REMARK SMILES IDX 26 1 25 2 24 3 23 4 22 5 21 6 19 7 20 8 18 9 8 10 9 11 10 12
REMARK SMILES IDX 17 13 7 14 3 15 4 16 99 17 5 18 6 19 2 20 1 21 100 22 101 23
REMARK SMILES IDX 11 24 12 25 13 26 14 27 15 28 16 29 27 30 28 31 29 32 30 33
REMARK SMILES IDX 31 34 32 35 33 36 34 37 35 38 36 39 37 40 98 41 38 42 97 43
REMARK SMILES IDX 39 44 40 45 41 46 91 47 42 48 96 49 90 50 92 51 43 52 95 53
REMARK SMILES IDX 89 54 88 55 44 57 76 58 56 59 75 60 57 61 60 62 74 63 93 64
REMARK SMILES IDX 58 65 59 66 73 68 94 69 61 70 45 71 46 72 54 73 47 74 48 75
REMARK SMILES IDX 52 76 55 77 49 78 50 79 53 80 51 81 77 82 78 83 86 84 79 85
REMARK SMILES IDX 80 86 84 87 87 88 81 89 82 90 85 91 83 92 62 93 63 94 71 95
REMARK SMILES IDX 64 96 65 97 69 98 72 99 66 100 67 101 70 102 68 103
REMARK H PARENT 92 56 60 67
REMARK Flexibility Score: inf
ROOT
ATOM      1  C   UNL A   1      37.106  31.958  29.250  1.00  0.00     0.188 C 
ENDROOT
BRANCH   1   2
ATOM      2  C   UNL A   1      36.913  30.468  29.549  1.00  0.00     0.188 C 
BRANCH   2   3
ATOM      3  O   UNL A   1      35.768  29.856  29.018  1.00  0.00    -0.376 OA
BRANCH   3   4
ATOM      4  C   UNL A   1      35.295  30.125  27.716  1.00  0.00     0.202 C 
BRANCH   4   5
ATOM      5  C   UNL A   1      34.595  29.130  26.774  1.00  0.00     0.261 C 
BRANCH   5   6
ATOM      6  O   UNL A   1      33.608  28.233  27.301  1.00  0.00    -0.463 OA
BRANCH   6   7
ATOM      7  C   UNL A   1      32.357  28.404  26.801  1.00  0.00     0.311 C 
ATOM      8  O   UNL A   1      31.446  28.945  27.423  1.00  0.00    -0.252 OA
BRANCH   7   9
ATOM      9  C   UNL A   1      32.114  27.784  25.441  1.00  0.00     0.128 C 
ATOM     10  C   UNL A   1      31.553  26.345  25.280  1.00  0.00     0.059 C 
ATOM     11  C   UNL A   1      30.611  26.434  24.076  1.00  0.00     0.129 C 
ATOM     12  N   UNL A   1      30.402  27.841  23.807  1.00  0.00    -0.341 N 
ATOM     13  C   UNL A   1      31.111  28.684  24.739  1.00  0.00     0.135 C 
BRANCH  10  14
ATOM     14  C   UNL A   1      32.479  25.122  25.067  1.00  0.00     0.004 A 
ATOM     15  C   UNL A   1      33.280  22.838  25.424  1.00  0.00     0.161 A 
ATOM     16  C   UNL A   1      34.283  23.026  24.467  1.00  0.00     0.050 A 
ATOM     17  C   UNL A   1      32.396  23.887  25.762  1.00  0.00     0.164 A 
ATOM     18  C   UNL A   1      34.417  24.255  23.834  1.00  0.00     0.004 A 
ATOM     19  C   UNL A   1      33.524  25.287  24.127  1.00  0.00     0.008 A 
BRANCH  15  20
ATOM     20  O   UNL A   1      33.316  21.648  26.105  1.00  0.00    -0.493 OA
ATOM     21  C   UNL A   1      34.041  21.740  27.331  1.00  0.00     0.278 C 
ENDBRANCH  15  20
BRANCH  17  22
ATOM     22  O   UNL A   1      31.469  23.856  26.760  1.00  0.00    -0.493 OA
ATOM     23  C   UNL A   1      30.257  23.136  26.625  1.00  0.00     0.278 C 
ENDBRANCH  17  22
ENDBRANCH  10  14
BRANCH  12  24
ATOM     24  C   UNL A   1      29.696  28.392  22.766  1.00  0.00     0.223 C 
ATOM     25  O   UNL A   1      30.204  28.569  21.658  1.00  0.00    -0.275 OA
BRANCH  24  26
ATOM     26  C   UNL A   1      28.243  28.734  23.000  1.00  0.00     0.111 C 
BRANCH  26  27
ATOM     27  C   UNL A   1      27.843  29.989  22.228  1.00  0.00     0.079 C 
BRANCH  27  28
ATOM     28  S   UNL A   1      27.962  31.541  23.188  1.00  0.00    -0.165 SA
ATOM     29  C   UNL A   1      28.307  32.720  21.856  1.00  0.00     0.085 C 
ENDBRANCH  27  28
ENDBRANCH  26  27
ENDBRANCH  24  26
ENDBRANCH  12  24
ENDBRANCH   7   9
ENDBRANCH   6   7
ENDBRANCH   5   6
ENDBRANCH   4   5
ENDBRANCH   3   4
ENDBRANCH   2   3
ENDBRANCH   1   2
BRANCH   1  30
ATOM     30  O   UNL A   1      36.040  32.885  29.098  1.00  0.00    -0.377 OA
BRANCH  30  31
ATOM     31  C   UNL A   1      35.666  33.726  30.175  1.00  0.00     0.188 C 
BRANCH  31  32
ATOM     32  C   UNL A   1      34.532  33.274  31.108  1.00  0.00     0.188 C 
BRANCH  32  33
ATOM     33  O   UNL A   1      34.980  32.532  32.227  1.00  0.00    -0.376 OA
BRANCH  33  34
ATOM     34  C   UNL A   1      35.216  33.240  33.434  1.00  0.00     0.202 C 
BRANCH  34  35
ATOM     35  C   UNL A   1      36.234  34.393  33.434  1.00  0.00     0.261 C 
BRANCH  35  36
ATOM     36  O   UNL A   1      37.481  34.173  34.115  1.00  0.00    -0.460 OA
BRANCH  36  37
ATOM     37  C   UNL A   1      37.685  32.981  34.707  1.00  0.00     0.338 C 
ATOM     38  O   UNL A   1      37.157  32.552  35.719  1.00  0.00    -0.246 OA
BRANCH  37  39
ATOM     39  C   UNL A   1      38.536  32.186  33.797  1.00  0.00     0.060 A 
ATOM     40  C   UNL A   1      39.261  31.106  34.317  1.00  0.00     0.016 A 
ATOM     41  C   UNL A   1      38.596  32.492  32.435  1.00  0.00     0.016 A 
ATOM     42  C   UNL A   1      40.072  30.343  33.479  1.00  0.00     0.010 A 
ATOM     43  C   UNL A   1      39.429  31.743  31.601  1.00  0.00     0.010 A 
ATOM     44  C   UNL A   1      40.196  30.687  32.126  1.00  0.00    -0.014 A 
BRANCH  44  45
ATOM     45  C   UNL A   1      41.292  30.091  31.326  1.00  0.00     0.031 A 
ATOM     46  C   UNL A   1      42.615  30.805  31.300  1.00  0.00     0.074 A 
ATOM     47  C   UNL A   1      41.135  28.926  30.673  1.00  0.00     0.049 A 
ATOM     48  N   UNL A   1      43.715  30.504  30.661  1.00  0.00    -0.248 NA
ATOM     49  C   UNL A   1      42.706  32.031  32.112  1.00  0.00     0.031 C 
ATOM     50  C   UNL A   1      39.918  28.119  30.664  1.00  0.00     0.029 A 
ATOM     51  N   UNL A   1      42.013  28.224  29.884  1.00  0.00    -0.354 N 
ATOM     52  C   UNL A   1      44.624  31.502  30.989  1.00  0.00     0.074 A 
ATOM     53  C   UNL A   1      43.940  32.435  31.855  1.00  0.00     0.031 C 
ATOM     54  C   UNL A   1      40.122  27.034  29.897  1.00  0.00     0.029 A 
ATOM     55  C   UNL A   1      41.471  27.089  29.333  1.00  0.00     0.049 A 
ATOM     56  H   UNL A   1      42.943  28.507  29.728  1.00  0.00     0.167 HD
ATOM     57  C   UNL A   1      45.918  31.622  30.609  1.00  0.00     0.037 A 
ATOM     58  C   UNL A   1      42.002  26.213  28.457  1.00  0.00     0.037 A 
ATOM     59  C   UNL A   1      46.590  30.692  29.742  1.00  0.00     0.049 A 
ATOM     60  C   UNL A   1      43.418  26.417  27.978  1.00  0.00     0.074 A 
ATOM     61  C   UNL A   1      47.901  30.716  29.303  1.00  0.00     0.029 A 
ATOM     62  N   UNL A   1      45.996  29.577  29.170  1.00  0.00    -0.354 N 
ATOM     63  N   UNL A   1      44.281  27.347  28.311  1.00  0.00    -0.248 NA
ATOM     64  C   UNL A   1      43.936  25.445  27.004  1.00  0.00     0.031 C 
ATOM     65  C   UNL A   1      48.084  29.651  28.416  1.00  0.00     0.029 A 
ATOM     66  C   UNL A   1      46.907  28.922  28.357  1.00  0.00     0.049 A 
ATOM     67  H   UNL A   1      45.066  29.292  29.320  1.00  0.00     0.167 HD
ATOM     68  C   UNL A   1      45.449  27.054  27.617  1.00  0.00     0.074 A 
ATOM     69  C   UNL A   1      45.189  25.852  26.854  1.00  0.00     0.031 C 
ATOM     70  C   UNL A   1      46.632  27.719  27.613  1.00  0.00     0.037 A 
BRANCH  57  71
ATOM     71  C   UNL A   1      46.676  32.821  31.101  1.00  0.00     0.064 A 
ATOM     72  C   UNL A   1      47.413  32.795  32.295  1.00  0.00     0.173 A 
ATOM     73  C   UNL A   1      46.683  34.008  30.354  1.00  0.00     0.173 A 
ATOM     74  F   UNL A   1      47.426  31.691  33.057  1.00  0.00    -0.203 F 
ATOM     75  C   UNL A   1      48.105  33.920  32.735  1.00  0.00     0.198 A 
ATOM     76  C   UNL A   1      47.404  35.121  30.779  1.00  0.00     0.198 A 
ATOM     77  F   UNL A   1      45.995  34.088  29.205  1.00  0.00    -0.203 F 
ATOM     78  F   UNL A   1      48.758  33.888  33.905  1.00  0.00    -0.200 F 
ATOM     79  C   UNL A   1      48.107  35.079  31.973  1.00  0.00     0.200 A 
ATOM     80  F   UNL A   1      47.414  36.235  30.034  1.00  0.00    -0.200 F 
ATOM     81  F   UNL A   1      48.780  36.158  32.394  1.00  0.00    -0.200 F 
ENDBRANCH  57  71
BRANCH  58  82
ATOM     82  C   UNL A   1      41.188  25.071  27.955  1.00  0.00     0.064 A 
ATOM     83  C   UNL A   1      41.445  23.757  28.373  1.00  0.00     0.173 A 
ATOM     84  C   UNL A   1      40.157  25.266  27.025  1.00  0.00     0.173 A 
ATOM     85  F   UNL A   1      42.438  23.512  29.241  1.00  0.00    -0.203 F 
ATOM     86  C   UNL A   1      40.718  22.683  27.862  1.00  0.00     0.198 A 
ATOM     87  C   UNL A   1      39.410  24.196  26.538  1.00  0.00     0.198 A 
ATOM     88  F   UNL A   1      39.872  26.502  26.588  1.00  0.00    -0.203 F 
ATOM     89  F   UNL A   1      41.021  21.433  28.237  1.00  0.00    -0.200 F 
ATOM     90  C   UNL A   1      39.697  22.904  26.950  1.00  0.00     0.200 A 
ATOM     91  F   UNL A   1      38.416  24.417  25.668  1.00  0.00    -0.200 F 
ATOM     92  F   UNL A   1      38.997  21.871  26.460  1.00  0.00    -0.200 F 
ENDBRANCH  58  82
BRANCH  70  93
ATOM     93  C   UNL A   1      47.752  27.139  26.795  1.00  0.00     0.064 A 
ATOM     94  C   UNL A   1      47.960  27.503  25.456  1.00  0.00     0.173 A 
ATOM     95  C   UNL A   1      48.662  26.241  27.378  1.00  0.00     0.173 A 
ATOM     96  F   UNL A   1      47.113  28.347  24.847  1.00  0.00    -0.203 F 
ATOM     97  C   UNL A   1      49.018  26.969  24.724  1.00  0.00     0.198 A 
ATOM     98  C   UNL A   1      49.740  25.739  26.655  1.00  0.00     0.198 A 
ATOM     99  F   UNL A   1      48.517  25.868  28.658  1.00  0.00    -0.203 F 
ATOM    100  F   UNL A   1      49.166  27.292  23.432  1.00  0.00    -0.200 F 
ATOM    101  C   UNL A   1      49.912  26.095  25.327  1.00  0.00     0.200 A 
ATOM    102  F   UNL A   1      50.613  24.911  27.245  1.00  0.00    -0.200 F 
ATOM    103  F   UNL A   1      50.936  25.593  24.624  1.00  0.00    -0.200 F 
ENDBRANCH  70  93
ENDBRANCH  44  45
ENDBRANCH  37  39
ENDBRANCH  36  37
ENDBRANCH  35  36
ENDBRANCH  34  35
ENDBRANCH  33  34
ENDBRANCH  32  33
ENDBRANCH  31  32
ENDBRANCH  30  31
ENDBRANCH   1  30
TORSDOF 27
ENDMDL
MODEL 3
REMARK VINA RESULT:      -8.8      4.081      9.184
REMARK SMILES COc1cccc([C@@H]2CN(C(=O)CCSC)C[C@H]2C(=O)OCCOCCOCCOCCOC(=O)c2ccc(-c3c4nc(c(-c5c(F)c(F)c(F)c(F)c5F)c5ccc([nH]5)c(-c5c(F)c(F)c(F)c(F)c5F)c5nc(c(-c6c(F)c(F)c(F)c(F)c6F)c6ccc3[nH]6)C=C5)C=C4)cc2)c1OC
REMARK SMILES IDX 26 1 25 2 24 3 23 4 22 5 21 6 19 7 20 8 18 9 8 10 9 11 10 12
REMARK SMILES IDX 17 13 7 14 3 15 4 16 99 17 5 18 6 19 2 20 1 21 100 22 101 23
REMARK SMILES IDX 11 24 12 25 13 26 14 27 15 28 16 29 27 30 28 31 29 32 30 33
REMARK SMILES IDX 31 34 32 35 33 36 34 37 35 38 36 39 37 40 98 41 38 42 97 43
REMARK SMILES IDX 39 44 40 45 41 46 91 47 42 48 96 49 90 50 92 51 43 52 95 53
REMARK SMILES IDX 89 54 88 55 44 57 76 58 56 59 75 60 57 61 60 62 74 63 93 64
REMARK SMILES IDX 58 65 59 66 73 68 94 69 61 70 45 71 46 72 54 73 47 74 48 75
REMARK SMILES IDX 52 76 55 77 49 78 50 79 53 80 51 81 77 82 78 83 86 84 79 85
REMARK SMILES IDX 80 86 84 87 87 88 81 89 82 90 85 91 83 92 62 93 63 94 71 95
REMARK SMILES IDX 64 96 65 97 69 98 72 99 66 100 67 101 70 102 68 103
REMARK H PARENT 92 56 60 67
REMARK Flexibility Score: inf
ROOT
ATOM      1  C   UNL A   1      36.696  31.598  28.443  1.00  0.00     0.188 C 
ENDROOT
BRANCH   1   2
ATOM      2  C   UNL A   1      36.351  30.143  28.779  1.00  0.00     0.188 C 
BRANCH   2   3
ATOM      3  O   UNL A   1      35.153  29.636  28.254  1.00  0.00    -0.376 OA
BRANCH   3   4
ATOM      4  C   UNL A   1      34.854  29.661  26.876  1.00  0.00     0.202 C 
BRANCH   4   5
ATOM      5  C   UNL A   1      34.000  28.638  26.107  1.00  0.00     0.261 C 
BRANCH   5   6
ATOM      6  O   UNL A   1      33.534  27.460  26.778  1.00  0.00    -0.463 OA
BRANCH   6   7
ATOM      7  C   UNL A   1      32.183  27.335  26.840  1.00  0.00     0.311 C 
ATOM      8  O   UNL A   1      31.504  27.767  27.768  1.00  0.00    -0.252 OA
BRANCH   7   9
ATOM      9  C   UNL A   1      31.557  26.523  25.726  1.00  0.00     0.128 C 
ATOM     10  C   UNL A   1      31.345  27.105  24.302  1.00  0.00     0.059 C 
ATOM     11  C   UNL A   1      31.646  25.933  23.362  1.00  0.00     0.129 C 
ATOM     12  N   UNL A   1      32.290  24.909  24.156  1.00  0.00    -0.341 N 
ATOM     13  C   UNL A   1      32.453  25.310  25.532  1.00  0.00     0.135 C 
BRANCH  10  14
ATOM     14  C   UNL A   1      29.999  27.731  23.862  1.00  0.00     0.004 A 
ATOM     15  C   UNL A   1      28.516  29.504  23.062  1.00  0.00     0.161 A 
ATOM     16  C   UNL A   1      27.433  28.620  23.070  1.00  0.00     0.050 A 
ATOM     17  C   UNL A   1      29.795  29.086  23.492  1.00  0.00     0.164 A 
ATOM     18  C   UNL A   1      27.608  27.311  23.500  1.00  0.00     0.004 A 
ATOM     19  C   UNL A   1      28.875  26.872  23.887  1.00  0.00     0.008 A 
BRANCH  15  20
ATOM     20  O   UNL A   1      28.222  30.812  22.769  1.00  0.00    -0.493 OA
ATOM     21  C   UNL A   1      27.671  31.514  23.883  1.00  0.00     0.278 C 
ENDBRANCH  15  20
BRANCH  17  22
ATOM     22  O   UNL A   1      30.886  29.888  23.645  1.00  0.00    -0.493 OA
ATOM     23  C   UNL A   1      31.205  30.477  24.892  1.00  0.00     0.278 C 
ENDBRANCH  17  22
ENDBRANCH  10  14
BRANCH  12  24
ATOM     24  C   UNL A   1      32.659  23.651  23.748  1.00  0.00     0.223 C 
ATOM     25  O   UNL A   1      32.262  23.171  22.685  1.00  0.00    -0.275 OA
BRANCH  24  26
ATOM     26  C   UNL A   1      33.619  22.877  24.622  1.00  0.00     0.111 C 
BRANCH  26  27
ATOM     27  C   UNL A   1      33.454  21.373  24.421  1.00  0.00     0.079 C 
BRANCH  27  28
ATOM     28  S   UNL A   1      34.815  20.363  25.106  1.00  0.00    -0.165 SA
ATOM     29  C   UNL A   1      36.205  21.506  24.895  1.00  0.00     0.085 C 
ENDBRANCH  27  28
ENDBRANCH  26  27
ENDBRANCH  24  26
ENDBRANCH  12  24
ENDBRANCH   7   9
ENDBRANCH   6   7
ENDBRANCH   5   6
ENDBRANCH   4   5
ENDBRANCH   3   4
ENDBRANCH   2   3
ENDBRANCH   1   2
BRANCH   1  30
ATOM     30  O   UNL A   1      35.735  32.637  28.324  1.00  0.00    -0.377 OA
BRANCH  30  31
ATOM     31  C   UNL A   1      35.597  33.603  29.351  1.00  0.00     0.188 C 
BRANCH  31  32
ATOM     32  C   UNL A   1      34.444  33.456  30.356  1.00  0.00     0.188 C 
BRANCH  32  33
ATOM     33  O   UNL A   1      34.758  32.632  31.464  1.00  0.00    -0.376 OA
BRANCH  33  34
ATOM     34  C   UNL A   1      34.929  33.262  32.724  1.00  0.00     0.202 C 
BRANCH  34  35
ATOM     35  C   UNL A   1      35.937  34.416  32.849  1.00  0.00     0.261 C 
BRANCH  35  36
ATOM     36  O   UNL A   1      37.267  34.089  33.284  1.00  0.00    -0.460 OA
BRANCH  36  37
ATOM     37  C   UNL A   1      37.487  32.865  33.801  1.00  0.00     0.338 C 
ATOM     38  O   UNL A   1      36.968  32.367  34.786  1.00  0.00    -0.246 OA
BRANCH  37  39
ATOM     39  C   UNL A   1      38.344  32.138  32.841  1.00  0.00     0.060 A 
ATOM     40  C   UNL A   1      39.140  31.082  33.306  1.00  0.00     0.016 A 
ATOM     41  C   UNL A   1      38.341  32.483  31.487  1.00  0.00     0.016 A 
ATOM     42  C   UNL A   1      39.957  30.384  32.419  1.00  0.00     0.010 A 
ATOM     43  C   UNL A   1      39.181  31.798  30.604  1.00  0.00     0.010 A 
ATOM     44  C   UNL A   1      40.017  30.769  31.073  1.00  0.00    -0.014 A 
BRANCH  44  45
ATOM     45  C   UNL A   1      41.112  30.251  30.220  1.00  0.00     0.031 A 
ATOM     46  C   UNL A   1      42.283  31.155  29.950  1.00  0.00     0.074 A 
ATOM     47  C   UNL A   1      41.093  28.998  29.732  1.00  0.00     0.049 A 
ATOM     48  N   UNL A   1      43.347  30.947  29.220  1.00  0.00    -0.248 NA
ATOM     49  C   UNL A   1      42.243  32.479  30.595  1.00  0.00     0.031 C 
ATOM     50  C   UNL A   1      40.039  28.015  29.968  1.00  0.00     0.029 A 
ATOM     51  N   UNL A   1      41.994  28.343  28.929  1.00  0.00    -0.354 N 
ATOM     52  C   UNL A   1      44.100  32.112  29.315  1.00  0.00     0.074 A 
ATOM     53  C   UNL A   1      43.356  33.034  30.142  1.00  0.00     0.031 C 
ATOM     54  C   UNL A   1      40.348  26.881  29.313  1.00  0.00     0.029 A 
ATOM     55  C   UNL A   1      41.603  27.072  28.586  1.00  0.00     0.049 A 
ATOM     56  H   UNL A   1      42.841  28.746  28.629  1.00  0.00     0.167 HD
ATOM     57  C   UNL A   1      45.308  32.382  28.768  1.00  0.00     0.037 A 
ATOM     58  C   UNL A   1      42.185  26.180  27.760  1.00  0.00     0.037 A 
ATOM     59  C   UNL A   1      46.039  31.460  27.940  1.00  0.00     0.049 A 
ATOM     60  C   UNL A   1      43.489  26.539  27.091  1.00  0.00     0.074 A 
ATOM     61  C   UNL A   1      47.275  31.632  27.344  1.00  0.00     0.029 A 
ATOM     62  N   UNL A   1      45.591  30.198  27.580  1.00  0.00    -0.354 N 
ATOM     63  N   UNL A   1      44.209  27.629  27.204  1.00  0.00    -0.248 NA
ATOM     64  C   UNL A   1      44.066  25.538  26.181  1.00  0.00     0.031 C 
ATOM     65  C   UNL A   1      47.548  30.498  26.571  1.00  0.00     0.029 A 
ATOM     66  C   UNL A   1      46.514  29.591  26.743  1.00  0.00     0.049 A 
ATOM     67  H   UNL A   1      44.744  29.793  27.875  1.00  0.00     0.167 HD
ATOM     68  C   UNL A   1      45.333  27.433  26.412  1.00  0.00     0.074 A 
ATOM     69  C   UNL A   1      45.208  26.113  25.832  1.00  0.00     0.031 C 
ATOM     70  C   UNL A   1      46.377  28.270  26.184  1.00  0.00     0.037 A 
BRANCH  57  71
ATOM     71  C   UNL A   1      45.895  33.741  29.019  1.00  0.00     0.064 A 
ATOM     72  C   UNL A   1      45.628  34.831  28.177  1.00  0.00     0.173 A 
ATOM     73  C   UNL A   1      46.719  33.960  30.132  1.00  0.00     0.173 A 
ATOM     74  F   UNL A   1      44.860  34.673  27.088  1.00  0.00    -0.203 F 
ATOM     75  C   UNL A   1      46.186  36.083  28.426  1.00  0.00     0.198 A 
ATOM     76  C   UNL A   1      47.249  35.220  30.398  1.00  0.00     0.198 A 
ATOM     77  F   UNL A   1      47.007  32.952  30.970  1.00  0.00    -0.203 F 
ATOM     78  F   UNL A   1      45.960  37.096  27.579  1.00  0.00    -0.200 F 
ATOM     79  C   UNL A   1      46.989  36.278  29.540  1.00  0.00     0.200 A 
ATOM     80  F   UNL A   1      48.014  35.408  31.482  1.00  0.00    -0.200 F 
ATOM     81  F   UNL A   1      47.519  37.484  29.783  1.00  0.00    -0.200 F 
ENDBRANCH  57  71
BRANCH  58  82
ATOM     82  C   UNL A   1      41.534  24.867  27.499  1.00  0.00     0.064 A 
ATOM     83  C   UNL A   1      40.364  24.776  26.731  1.00  0.00     0.173 A 
ATOM     84  C   UNL A   1      42.052  23.679  28.037  1.00  0.00     0.173 A 
ATOM     85  F   UNL A   1      39.813  25.885  26.216  1.00  0.00    -0.203 F 
ATOM     86  C   UNL A   1      39.726  23.552  26.532  1.00  0.00     0.198 A 
ATOM     87  C   UNL A   1      41.432  22.453  27.810  1.00  0.00     0.198 A 
ATOM     88  F   UNL A   1      43.167  23.710  28.782  1.00  0.00    -0.203 F 
ATOM     89  F   UNL A   1      38.579  23.502  25.840  1.00  0.00    -0.200 F 
ATOM     90  C   UNL A   1      40.264  22.391  27.066  1.00  0.00     0.200 A 
ATOM     91  F   UNL A   1      41.963  21.332  28.317  1.00  0.00    -0.200 F 
ATOM     92  F   UNL A   1      39.651  21.215  26.872  1.00  0.00    -0.200 F 
ENDBRANCH  58  82
BRANCH  70  93
ATOM     93  C   UNL A   1      47.491  27.768  25.309  1.00  0.00     0.064 A 
ATOM     94  C   UNL A   1      47.461  27.910  23.914  1.00  0.00     0.173 A 
ATOM     95  C   UNL A   1      48.632  27.181  25.883  1.00  0.00     0.173 A 
ATOM     96  F   UNL A   1      46.391  28.453  23.314  1.00  0.00    -0.203 F 
ATOM     97  C   UNL A   1      48.516  27.458  23.124  1.00  0.00     0.198 A 
ATOM     98  C   UNL A   1      49.700  26.764  25.094  1.00  0.00     0.198 A 
ATOM     99  F   UNL A   1      48.718  27.031  27.213  1.00  0.00    -0.203 F 
ATOM    100  F   UNL A   1      48.442  27.557  21.790  1.00  0.00    -0.200 F 
ATOM    101  C   UNL A   1      49.637  26.894  23.716  1.00  0.00     0.200 A 
ATOM    102  F   UNL A   1      50.790  26.239  25.668  1.00  0.00    -0.200 F 
ATOM    103  F   UNL A   1      50.655  26.471  22.954  1.00  0.00    -0.200 F 
ENDBRANCH  70  93
ENDBRANCH  44  45
ENDBRANCH  37  39
ENDBRANCH  36  37
ENDBRANCH  35  36
ENDBRANCH  34  35
ENDBRANCH  33  34
ENDBRANCH  32  33
ENDBRANCH  31  32
ENDBRANCH  30  31
ENDBRANCH   1  30
TORSDOF 27
ENDMDL
