MODEL 1
REMARK VINA RESULT:     -11.1      0.000      0.000
REMARK SMILES CCOc1ccc(-n2nnc(-c3nc(C)c(C(=O)OCCOCCOCCOCCOC(=O)c4ccc(-c5c6nc(c(-c7c(F)c(F)c(F)c(F)c7F)c7ccc([nH]7)c(-c7c(F)c(F)c(F)c(F)c7F)c7nc(c(-c8c(F)c(F)c(F)c(F)c8F)c8ccc5[nH]8)C=C7)C=C6)cc4)s3)c2C)cc1
REMARK SMILES IDX 24 1 23 2 22 3 21 4 20 5 19 6 17 7 18 8 16 9 12 10 13 11
REMARK SMILES IDX 97 12 14 13 15 14 11 15 8 16 9 17 98 18 10 19 99 20 7 21
REMARK SMILES IDX 4 22 5 23 101 24 6 25 100 26 3 27 2 28 1 29 25 30 26 31
REMARK SMILES IDX 27 32 28 33 29 34 30 35 31 36 32 37 33 38 34 39 35 40 96 41
REMARK SMILES IDX 36 42 95 43 37 44 38 45 39 46 89 47 40 48 94 49 88 50 90 51
REMARK SMILES IDX 41 52 93 53 87 54 86 55 42 57 74 58 54 59 73 60 55 61 58 62
REMARK SMILES IDX 72 63 91 64 56 65 57 66 71 68 92 69 59 70 43 71 44 72 52 73
REMARK SMILES IDX 45 74 46 75 50 76 53 77 47 78 48 79 51 80 49 81 75 82 76 83
REMARK SMILES IDX 84 84 77 85 78 86 82 87 85 88 79 89 80 90 83 91 81 92 60 93
REMARK SMILES IDX 61 94 69 95 62 96 63 97 67 98 70 99 64 100 65 101 68 102
REMARK SMILES IDX 66 103
REMARK H PARENT 90 56 58 67
REMARK Flexibility Score: inf
ROOT
ATOM      1  C   UNL A   1      37.070  21.062  25.236  1.00  0.00     0.188 C 
ENDROOT
BRANCH   1   2
ATOM      2  C   UNL A   1      35.801  21.471  26.016  1.00  0.00     0.188 C 
BRANCH   2   3
ATOM      3  O   UNL A   1      34.614  21.916  25.376  1.00  0.00    -0.376 OA
BRANCH   3   4
ATOM      4  C   UNL A   1      34.445  21.970  23.969  1.00  0.00     0.202 C 
BRANCH   4   5
ATOM      5  C   UNL A   1      34.723  23.219  23.123  1.00  0.00     0.261 C 
BRANCH   5   6
ATOM      6  O   UNL A   1      33.780  23.482  22.097  1.00  0.00    -0.459 OA
BRANCH   6   7
ATOM      7  C   UNL A   1      33.316  24.755  21.999  1.00  0.00     0.350 C 
ATOM      8  O   UNL A   1      33.325  25.433  20.977  1.00  0.00    -0.245 OA
BRANCH   7   9
ATOM      9  C   UNL A   1      32.695  25.124  23.244  1.00  0.00     0.135 A 
ATOM     10  C   UNL A   1      32.091  26.281  25.258  1.00  0.00     0.146 A 
ATOM     11  N   UNL A   1      31.178  25.366  25.014  1.00  0.00    -0.239 NA
ATOM     12  S   UNL A   1      33.517  26.164  24.318  1.00  0.00    -0.105 S 
ATOM     13  C   UNL A   1      31.514  24.693  23.835  1.00  0.00     0.064 A 
ATOM     14  C   UNL A   1      30.611  23.604  23.366  1.00  0.00     0.068 C 
BRANCH  10  15
ATOM     15  C   UNL A   1      31.885  27.506  26.072  1.00  0.00     0.145 A 
ATOM     16  N   UNL A   1      32.192  29.517  26.807  1.00  0.00    -0.217 N 
ATOM     17  N   UNL A   1      31.575  28.808  27.781  1.00  0.00    -0.061 NA
ATOM     18  C   UNL A   1      32.481  28.706  25.730  1.00  0.00     0.072 A 
ATOM     19  N   UNL A   1      31.290  27.601  27.292  1.00  0.00    -0.127 NA
ATOM     20  C   UNL A   1      33.340  29.051  24.560  1.00  0.00     0.069 C 
BRANCH  16  21
ATOM     21  C   UNL A   1      32.551  30.869  26.942  1.00  0.00     0.067 A 
ATOM     22  C   UNL A   1      33.160  33.450  27.747  1.00  0.00     0.119 A 
ATOM     23  C   UNL A   1      31.916  33.176  27.170  1.00  0.00     0.048 A 
ATOM     24  C   UNL A   1      34.100  32.439  27.902  1.00  0.00     0.048 A 
ATOM     25  C   UNL A   1      31.607  31.878  26.743  1.00  0.00     0.032 A 
ATOM     26  C   UNL A   1      33.816  31.159  27.462  1.00  0.00     0.032 A 
BRANCH  22  27
ATOM     27  O   UNL A   1      33.377  34.690  28.278  1.00  0.00    -0.494 OA
BRANCH  27  28
ATOM     28  C   UNL A   1      33.910  34.657  29.610  1.00  0.00     0.226 C 
ATOM     29  C   UNL A   1      32.947  35.201  30.658  1.00  0.00     0.049 C 
ENDBRANCH  27  28
ENDBRANCH  22  27
ENDBRANCH  16  21
ENDBRANCH  10  15
ENDBRANCH   7   9
ENDBRANCH   6   7
ENDBRANCH   5   6
ENDBRANCH   4   5
ENDBRANCH   3   4
ENDBRANCH   2   3
ENDBRANCH   1   2
BRANCH   1  30
ATOM     30  O   UNL A   1      38.091  22.038  25.236  1.00  0.00    -0.377 OA
BRANCH  30  31
ATOM     31  C   UNL A   1      39.236  21.762  26.040  1.00  0.00     0.188 C 
BRANCH  31  32
ATOM     32  C   UNL A   1      39.921  20.367  25.988  1.00  0.00     0.188 C 
BRANCH  32  33
ATOM     33  O   UNL A   1      40.713  20.035  27.118  1.00  0.00    -0.376 OA
BRANCH  33  34
ATOM     34  C   UNL A   1      42.126  20.004  27.097  1.00  0.00     0.202 C 
BRANCH  34  35
ATOM     35  C   UNL A   1      42.824  19.477  25.850  1.00  0.00     0.261 C 
BRANCH  35  36
ATOM     36  O   UNL A   1      44.183  19.852  25.753  1.00  0.00    -0.460 OA
BRANCH  36  37
ATOM     37  C   UNL A   1      44.530  20.339  24.548  1.00  0.00     0.338 C 
ATOM     38  O   UNL A   1      44.695  19.714  23.516  1.00  0.00    -0.246 OA
BRANCH  37  39
ATOM     39  C   UNL A   1      44.850  21.757  24.718  1.00  0.00     0.060 A 
ATOM     40  C   UNL A   1      45.659  22.059  25.810  1.00  0.00     0.016 A 
ATOM     41  C   UNL A   1      44.057  22.719  24.069  1.00  0.00     0.016 A 
ATOM     42  C   UNL A   1      45.446  23.261  26.432  1.00  0.00     0.010 A 
ATOM     43  C   UNL A   1      43.842  23.919  24.697  1.00  0.00     0.010 A 
ATOM     44  C   UNL A   1      44.458  24.120  25.924  1.00  0.00    -0.014 A 
BRANCH  44  45
ATOM     45  C   UNL A   1      44.164  25.299  26.700  1.00  0.00     0.031 A 
ATOM     46  C   UNL A   1      45.184  26.345  26.511  1.00  0.00     0.074 A 
ATOM     47  C   UNL A   1      43.086  25.409  27.493  1.00  0.00     0.049 A 
ATOM     48  N   UNL A   1      46.063  26.734  27.370  1.00  0.00    -0.248 NA
ATOM     49  C   UNL A   1      45.380  26.869  25.151  1.00  0.00     0.031 C 
ATOM     50  C   UNL A   1      41.906  24.547  27.573  1.00  0.00     0.029 A 
ATOM     51  N   UNL A   1      42.801  26.401  28.377  1.00  0.00    -0.354 N 
ATOM     52  C   UNL A   1      46.812  27.700  26.714  1.00  0.00     0.074 A 
ATOM     53  C   UNL A   1      46.469  27.616  25.319  1.00  0.00     0.031 C 
ATOM     54  C   UNL A   1      40.943  25.175  28.289  1.00  0.00     0.029 A 
ATOM     55  C   UNL A   1      41.492  26.408  28.833  1.00  0.00     0.049 A 
ATOM     56  H   UNL A   1      43.471  27.060  28.671  1.00  0.00     0.167 HD
ATOM     57  C   UNL A   1      47.444  28.669  27.424  1.00  0.00     0.037 A 
ATOM     58  C   UNL A   1      40.908  27.404  29.545  1.00  0.00     0.037 A 
ATOM     59  C   UNL A   1      47.658  28.261  28.790  1.00  0.00     0.049 A 
ATOM     60  C   UNL A   1      41.999  28.197  30.170  1.00  0.00     0.074 A 
ATOM     61  C   UNL A   1      48.356  27.230  29.392  1.00  0.00     0.029 A 
ATOM     62  N   UNL A   1      46.791  28.729  29.746  1.00  0.00    -0.354 N 
ATOM     63  N   UNL A   1      42.767  27.748  31.123  1.00  0.00    -0.248 NA
ATOM     64  C   UNL A   1      42.529  29.328  29.423  1.00  0.00     0.031 C 
ATOM     65  C   UNL A   1      47.554  26.834  30.503  1.00  0.00     0.029 A 
ATOM     66  C   UNL A   1      46.444  27.677  30.554  1.00  0.00     0.049 A 
ATOM     67  H   UNL A   1      46.473  29.657  29.834  1.00  0.00     0.167 HD
ATOM     68  C   UNL A   1      44.031  28.231  30.814  1.00  0.00     0.074 A 
ATOM     69  C   UNL A   1      43.806  29.271  29.814  1.00  0.00     0.031 C 
ATOM     70  C   UNL A   1      45.151  27.545  31.185  1.00  0.00     0.037 A 
BRANCH  57  71
ATOM     71  C   UNL A   1      47.473  30.107  26.979  1.00  0.00     0.064 A 
ATOM     72  C   UNL A   1      48.682  30.822  27.062  1.00  0.00     0.173 A 
ATOM     73  C   UNL A   1      46.314  30.889  26.768  1.00  0.00     0.173 A 
ATOM     74  F   UNL A   1      49.838  30.181  27.291  1.00  0.00    -0.203 F 
ATOM     75  C   UNL A   1      48.714  32.217  27.010  1.00  0.00     0.198 A 
ATOM     76  C   UNL A   1      46.358  32.275  26.659  1.00  0.00     0.198 A 
ATOM     77  F   UNL A   1      45.083  30.366  26.773  1.00  0.00    -0.203 F 
ATOM     78  F   UNL A   1      49.869  32.862  27.224  1.00  0.00    -0.200 F 
ATOM     79  C   UNL A   1      47.552  32.942  26.813  1.00  0.00     0.200 A 
ATOM     80  F   UNL A   1      45.216  32.957  26.493  1.00  0.00    -0.200 F 
ATOM     81  F   UNL A   1      47.573  34.281  26.827  1.00  0.00    -0.200 F 
ENDBRANCH  57  71
BRANCH  58  82
ATOM     82  C   UNL A   1      39.525  27.923  29.433  1.00  0.00     0.064 A 
ATOM     83  C   UNL A   1      38.712  28.058  30.571  1.00  0.00     0.173 A 
ATOM     84  C   UNL A   1      39.081  28.573  28.266  1.00  0.00     0.173 A 
ATOM     85  F   UNL A   1      39.087  27.509  31.736  1.00  0.00    -0.203 F 
ATOM     86  C   UNL A   1      37.542  28.825  30.551  1.00  0.00     0.198 A 
ATOM     87  C   UNL A   1      37.910  29.334  28.245  1.00  0.00     0.198 A 
ATOM     88  F   UNL A   1      39.823  28.569  27.150  1.00  0.00    -0.203 F 
ATOM     89  F   UNL A   1      36.830  28.989  31.675  1.00  0.00    -0.200 F 
ATOM     90  C   UNL A   1      37.148  29.472  29.391  1.00  0.00     0.200 A 
ATOM     91  F   UNL A   1      37.562  29.986  27.127  1.00  0.00    -0.200 F 
ATOM     92  F   UNL A   1      36.066  30.262  29.388  1.00  0.00    -0.200 F 
ENDBRANCH  58  82
BRANCH  70  93
ATOM     93  C   UNL A   1      44.980  26.421  32.170  1.00  0.00     0.064 A 
ATOM     94  C   UNL A   1      45.003  26.581  33.567  1.00  0.00     0.173 A 
ATOM     95  C   UNL A   1      44.663  25.148  31.675  1.00  0.00     0.173 A 
ATOM     96  F   UNL A   1      45.198  27.785  34.122  1.00  0.00    -0.203 F 
ATOM     97  C   UNL A   1      44.770  25.505  34.424  1.00  0.00     0.198 A 
ATOM     98  C   UNL A   1      44.392  24.085  32.532  1.00  0.00     0.198 A 
ATOM     99  F   UNL A   1      44.573  24.947  30.351  1.00  0.00    -0.203 F 
ATOM    100  F   UNL A   1      44.816  25.679  35.753  1.00  0.00    -0.200 F 
ATOM    101  C   UNL A   1      44.458  24.259  33.904  1.00  0.00     0.200 A 
ATOM    102  F   UNL A   1      44.043  22.895  32.024  1.00  0.00    -0.200 F 
ATOM    103  F   UNL A   1      44.197  23.233  34.725  1.00  0.00    -0.200 F 
ENDBRANCH  70  93
ENDBRANCH  44  45
ENDBRANCH  37  39
ENDBRANCH  36  37
ENDBRANCH  35  36
ENDBRANCH  34  35
ENDBRANCH  33  34
ENDBRANCH  32  33
ENDBRANCH  31  32
ENDBRANCH  30  31
ENDBRANCH   1  30
TORSDOF 24
ENDMDL
MODEL 2
REMARK VINA RESULT:     -11.0      3.171      9.902
REMARK SMILES CCOc1ccc(-n2nnc(-c3nc(C)c(C(=O)OCCOCCOCCOCCOC(=O)c4ccc(-c5c6nc(c(-c7c(F)c(F)c(F)c(F)c7F)c7ccc([nH]7)c(-c7c(F)c(F)c(F)c(F)c7F)c7nc(c(-c8c(F)c(F)c(F)c(F)c8F)c8ccc5[nH]8)C=C7)C=C6)cc4)s3)c2C)cc1
REMARK SMILES IDX 24 1 23 2 22 3 21 4 20 5 19 6 17 7 18 8 16 9 12 10 13 11
REMARK SMILES IDX 97 12 14 13 15 14 11 15 8 16 9 17 98 18 10 19 99 20 7 21
REMARK SMILES IDX 4 22 5 23 101 24 6 25 100 26 3 27 2 28 1 29 25 30 26 31
REMARK SMILES IDX 27 32 28 33 29 34 30 35 31 36 32 37 33 38 34 39 35 40 96 41
REMARK SMILES IDX 36 42 95 43 37 44 38 45 39 46 89 47 40 48 94 49 88 50 90 51
REMARK SMILES IDX 41 52 93 53 87 54 86 55 42 57 74 58 54 59 73 60 55 61 58 62
REMARK SMILES IDX 72 63 91 64 56 65 57 66 71 68 92 69 59 70 43 71 44 72 52 73
REMARK SMILES IDX 45 74 46 75 50 76 53 77 47 78 48 79 51 80 49 81 75 82 76 83
REMARK SMILES IDX 84 84 77 85 78 86 82 87 85 88 79 89 80 90 83 91 81 92 60 93
REMARK SMILES IDX 61 94 69 95 62 96 63 97 67 98 70 99 64 100 65 101 68 102
REMARK SMILES IDX 66 103
REMARK H PARENT 90 56 58 67
REMARK Flexibility Score: inf
ROOT
ATOM      1  C   UNL A   1      34.949  33.233  28.077  1.00  0.00     0.188 C 
ENDROOT
BRANCH   1   2
ATOM      2  C   UNL A   1      35.702  31.888  28.198  1.00  0.00     0.188 C 
BRANCH   2   3
ATOM      3  O   UNL A   1      35.137  30.651  27.789  1.00  0.00    -0.376 OA
BRANCH   3   4
ATOM      4  C   UNL A   1      33.881  30.527  27.143  1.00  0.00     0.202 C 
BRANCH   4   5
ATOM      5  C   UNL A   1      33.520  29.379  26.193  1.00  0.00     0.261 C 
BRANCH   5   6
ATOM      6  O   UNL A   1      32.147  29.023  26.161  1.00  0.00    -0.459 OA
BRANCH   6   7
ATOM      7  C   UNL A   1      31.433  29.425  25.078  1.00  0.00     0.350 C 
ATOM      8  O   UNL A   1      30.950  30.543  24.926  1.00  0.00    -0.245 OA
BRANCH   7   9
ATOM      9  C   UNL A   1      31.452  28.380  24.090  1.00  0.00     0.135 A 
ATOM     10  C   UNL A   1      32.034  26.431  22.815  1.00  0.00     0.146 A 
ATOM     11  N   UNL A   1      30.830  26.819  22.456  1.00  0.00    -0.239 NA
ATOM     12  S   UNL A   1      32.907  27.546  23.777  1.00  0.00    -0.105 S 
ATOM     13  C   UNL A   1      30.476  27.948  23.201  1.00  0.00     0.064 A 
ATOM     14  C   UNL A   1      29.140  28.562  22.954  1.00  0.00     0.068 C 
BRANCH  10  15
ATOM     15  C   UNL A   1      32.574  25.055  22.670  1.00  0.00     0.145 A 
ATOM     16  N   UNL A   1      33.129  23.037  23.211  1.00  0.00    -0.217 N 
ATOM     17  N   UNL A   1      33.901  23.413  22.164  1.00  0.00    -0.061 NA
ATOM     18  C   UNL A   1      32.325  24.080  23.617  1.00  0.00     0.072 A 
ATOM     19  N   UNL A   1      33.488  24.616  21.762  1.00  0.00    -0.127 NA
ATOM     20  C   UNL A   1      31.500  24.138  24.858  1.00  0.00     0.069 C 
BRANCH  16  21
ATOM     21  C   UNL A   1      33.223  21.777  23.828  1.00  0.00     0.067 A 
ATOM     22  C   UNL A   1      33.747  19.175  24.625  1.00  0.00     0.119 A 
ATOM     23  C   UNL A   1      32.552  19.473  23.964  1.00  0.00     0.048 A 
ATOM     24  C   UNL A   1      34.666  20.180  24.902  1.00  0.00     0.048 A 
ATOM     25  C   UNL A   1      32.270  20.789  23.574  1.00  0.00     0.032 A 
ATOM     26  C   UNL A   1      34.388  21.487  24.544  1.00  0.00     0.032 A 
BRANCH  22  27
ATOM     27  O   UNL A   1      34.054  17.866  24.867  1.00  0.00    -0.494 OA
BRANCH  27  28
ATOM     28  C   UNL A   1      33.412  16.951  23.967  1.00  0.00     0.226 C 
ATOM     29  C   UNL A   1      34.270  16.589  22.762  1.00  0.00     0.049 C 
ENDBRANCH  27  28
ENDBRANCH  22  27
ENDBRANCH  16  21
ENDBRANCH  10  15
ENDBRANCH   7   9
ENDBRANCH   6   7
ENDBRANCH   5   6
ENDBRANCH   4   5
ENDBRANCH   3   4
ENDBRANCH   2   3
ENDBRANCH   1   2
BRANCH   1  30
ATOM     30  O   UNL A   1      33.866  33.373  28.973  1.00  0.00    -0.377 OA
BRANCH  30  31
ATOM     31  C   UNL A   1      33.306  34.679  29.094  1.00  0.00     0.188 C 
BRANCH  31  32
ATOM     32  C   UNL A   1      33.579  35.542  30.358  1.00  0.00     0.188 C 
BRANCH  32  33
ATOM     33  O   UNL A   1      33.178  34.962  31.590  1.00  0.00    -0.376 OA
BRANCH  33  34
ATOM     34  C   UNL A   1      34.088  34.485  32.560  1.00  0.00     0.202 C 
BRANCH  34  35
ATOM     35  C   UNL A   1      34.300  32.981  32.681  1.00  0.00     0.261 C 
BRANCH  35  36
ATOM     36  O   UNL A   1      35.317  32.477  31.840  1.00  0.00    -0.460 OA
BRANCH  36  37
ATOM     37  C   UNL A   1      36.307  31.848  32.497  1.00  0.00     0.338 C 
ATOM     38  O   UNL A   1      36.567  31.914  33.685  1.00  0.00    -0.246 OA
BRANCH  37  39
ATOM     39  C   UNL A   1      37.150  31.186  31.501  1.00  0.00     0.060 A 
ATOM     40  C   UNL A   1      36.912  29.825  31.328  1.00  0.00     0.016 A 
ATOM     41  C   UNL A   1      38.342  31.808  31.092  1.00  0.00     0.016 A 
ATOM     42  C   UNL A   1      37.989  29.038  31.014  1.00  0.00     0.010 A 
ATOM     43  C   UNL A   1      39.419  31.017  30.784  1.00  0.00     0.010 A 
ATOM     44  C   UNL A   1      39.247  29.642  30.857  1.00  0.00    -0.014 A 
BRANCH  44  45
ATOM     45  C   UNL A   1      40.372  28.759  30.681  1.00  0.00     0.031 A 
ATOM     46  C   UNL A   1      41.107  28.555  31.941  1.00  0.00     0.074 A 
ATOM     47  C   UNL A   1      40.694  28.200  29.503  1.00  0.00     0.049 A 
ATOM     48  N   UNL A   1      42.277  29.006  32.238  1.00  0.00    -0.248 NA
ATOM     49  C   UNL A   1      40.375  27.959  33.070  1.00  0.00     0.031 C 
ATOM     50  C   UNL A   1      39.915  28.142  28.265  1.00  0.00     0.029 A 
ATOM     51  N   UNL A   1      41.811  27.489  29.197  1.00  0.00    -0.354 N 
ATOM     52  C   UNL A   1      42.514  28.585  33.538  1.00  0.00     0.074 A 
ATOM     53  C   UNL A   1      41.259  28.107  34.055  1.00  0.00     0.031 C 
ATOM     54  C   UNL A   1      40.485  27.247  27.423  1.00  0.00     0.029 A 
ATOM     55  C   UNL A   1      41.736  26.786  28.005  1.00  0.00     0.049 A 
ATOM     56  H   UNL A   1      42.607  27.475  29.775  1.00  0.00     0.167 HD
ATOM     57  C   UNL A   1      43.787  28.413  33.977  1.00  0.00     0.037 A 
ATOM     58  C   UNL A   1      42.620  25.846  27.585  1.00  0.00     0.037 A 
ATOM     59  C   UNL A   1      44.720  29.175  33.186  1.00  0.00     0.049 A 
ATOM     60  C   UNL A   1      43.887  26.069  28.328  1.00  0.00     0.074 A 
ATOM     61  C   UNL A   1      44.890  30.522  32.923  1.00  0.00     0.029 A 
ATOM     62  N   UNL A   1      45.427  28.516  32.211  1.00  0.00    -0.354 N 
ATOM     63  N   UNL A   1      44.659  27.105  28.152  1.00  0.00    -0.248 NA
ATOM     64  C   UNL A   1      44.064  25.367  29.592  1.00  0.00     0.031 C 
ATOM     65  C   UNL A   1      45.291  30.590  31.557  1.00  0.00     0.029 A 
ATOM     66  C   UNL A   1      45.400  29.285  31.075  1.00  0.00     0.049 A 
ATOM     67  H   UNL A   1      45.873  27.643  32.309  1.00  0.00     0.167 HD
ATOM     68  C   UNL A   1      45.088  27.445  29.427  1.00  0.00     0.074 A 
ATOM     69  C   UNL A   1      44.767  26.288  30.258  1.00  0.00     0.031 C 
ATOM     70  C   UNL A   1      45.396  28.738  29.738  1.00  0.00     0.037 A 
BRANCH  57  71
ATOM     71  C   UNL A   1      44.194  27.244  34.834  1.00  0.00     0.064 A 
ATOM     72  C   UNL A   1      44.889  27.487  36.033  1.00  0.00     0.173 A 
ATOM     73  C   UNL A   1      44.202  25.904  34.384  1.00  0.00     0.173 A 
ATOM     74  F   UNL A   1      44.970  28.729  36.534  1.00  0.00    -0.203 F 
ATOM     75  C   UNL A   1      45.596  26.477  36.688  1.00  0.00     0.198 A 
ATOM     76  C   UNL A   1      44.861  24.890  35.071  1.00  0.00     0.198 A 
ATOM     77  F   UNL A   1      43.677  25.536  33.209  1.00  0.00    -0.203 F 
ATOM     78  F   UNL A   1      46.351  26.780  37.753  1.00  0.00    -0.200 F 
ATOM     79  C   UNL A   1      45.586  25.182  36.204  1.00  0.00     0.200 A 
ATOM     80  F   UNL A   1      44.857  23.646  34.569  1.00  0.00    -0.200 F 
ATOM     81  F   UNL A   1      46.316  24.227  36.795  1.00  0.00    -0.200 F 
ENDBRANCH  57  71
BRANCH  58  82
ATOM     82  C   UNL A   1      42.341  24.578  26.870  1.00  0.00     0.064 A 
ATOM     83  C   UNL A   1      43.096  24.204  25.746  1.00  0.00     0.173 A 
ATOM     84  C   UNL A   1      41.538  23.576  27.447  1.00  0.00     0.173 A 
ATOM     85  F   UNL A   1      43.923  25.086  25.165  1.00  0.00    -0.203 F 
ATOM     86  C   UNL A   1      43.075  22.895  25.250  1.00  0.00     0.198 A 
ATOM     87  C   UNL A   1      41.512  22.272  26.947  1.00  0.00     0.198 A 
ATOM     88  F   UNL A   1      40.839  23.812  28.566  1.00  0.00    -0.203 F 
ATOM     89  F   UNL A   1      43.863  22.558  24.220  1.00  0.00    -0.200 F 
ATOM     90  C   UNL A   1      42.292  21.928  25.858  1.00  0.00     0.200 A 
ATOM     91  F   UNL A   1      40.781  21.337  27.570  1.00  0.00    -0.200 F 
ATOM     92  F   UNL A   1      42.323  20.660  25.427  1.00  0.00    -0.200 F 
ENDBRANCH  58  82
BRANCH  70  93
ATOM     93  C   UNL A   1      45.530  29.712  28.598  1.00  0.00     0.064 A 
ATOM     94  C   UNL A   1      44.451  30.401  28.015  1.00  0.00     0.173 A 
ATOM     95  C   UNL A   1      46.818  30.047  28.161  1.00  0.00     0.173 A 
ATOM     96  F   UNL A   1      43.197  30.213  28.446  1.00  0.00    -0.203 F 
ATOM     97  C   UNL A   1      44.654  31.341  27.005  1.00  0.00     0.198 A 
ATOM     98  C   UNL A   1      47.021  31.015  27.181  1.00  0.00     0.198 A 
ATOM     99  F   UNL A   1      47.890  29.462  28.719  1.00  0.00    -0.203 F 
ATOM    100  F   UNL A   1      43.608  31.971  26.450  1.00  0.00    -0.200 F 
ATOM    101  C   UNL A   1      45.940  31.652  26.594  1.00  0.00     0.200 A 
ATOM    102  F   UNL A   1      48.269  31.347  26.823  1.00  0.00    -0.200 F 
ATOM    103  F   UNL A   1      46.140  32.584  25.652  1.00  0.00    -0.200 F 
ENDBRANCH  70  93
ENDBRANCH  44  45
ENDBRANCH  37  39
ENDBRANCH  36  37
ENDBRANCH  35  36
ENDBRANCH  34  35
ENDBRANCH  33  34
ENDBRANCH  32  33
ENDBRANCH  31  32
ENDBRANCH  30  31
ENDBRANCH   1  30
TORSDOF 24
ENDMDL
MODEL 3
REMARK VINA RESULT:     -10.6      4.202     10.641
REMARK SMILES CCOc1ccc(-n2nnc(-c3nc(C)c(C(=O)OCCOCCOCCOCCOC(=O)c4ccc(-c5c6nc(c(-c7c(F)c(F)c(F)c(F)c7F)c7ccc([nH]7)c(-c7c(F)c(F)c(F)c(F)c7F)c7nc(c(-c8c(F)c(F)c(F)c(F)c8F)c8ccc5[nH]8)C=C7)C=C6)cc4)s3)c2C)cc1
REMARK SMILES IDX 24 1 23 2 22 3 21 4 20 5 19 6 17 7 18 8 16 9 12 10 13 11
REMARK SMILES IDX 97 12 14 13 15 14 11 15 8 16 9 17 98 18 10 19 99 20 7 21
REMARK SMILES IDX 4 22 5 23 101 24 6 25 100 26 3 27 2 28 1 29 25 30 26 31
REMARK SMILES IDX 27 32 28 33 29 34 30 35 31 36 32 37 33 38 34 39 35 40 96 41
REMARK SMILES IDX 36 42 95 43 37 44 38 45 39 46 89 47 40 48 94 49 88 50 90 51
REMARK SMILES IDX 41 52 93 53 87 54 86 55 42 57 74 58 54 59 73 60 55 61 58 62
REMARK SMILES IDX 72 63 91 64 56 65 57 66 71 68 92 69 59 70 43 71 44 72 52 73
REMARK SMILES IDX 45 74 46 75 50 76 53 77 47 78 48 79 51 80 49 81 75 82 76 83
REMARK SMILES IDX 84 84 77 85 78 86 82 87 85 88 79 89 80 90 83 91 81 92 60 93
REMARK SMILES IDX 61 94 69 95 62 96 63 97 67 98 70 99 64 100 65 101 68 102
REMARK SMILES IDX 66 103
REMARK H PARENT 90 56 58 67
REMARK Flexibility Score: inf
ROOT
ATOM      1  C   UNL A   1      34.892  32.135  28.177  1.00  0.00     0.188 C 
ENDROOT
BRANCH   1   2
ATOM      2  C   UNL A   1      35.169  30.653  28.519  1.00  0.00     0.188 C 
BRANCH   2   3
ATOM      3  O   UNL A   1      34.481  29.579  27.896  1.00  0.00    -0.376 OA
BRANCH   3   4
ATOM      4  C   UNL A   1      33.830  29.676  26.639  1.00  0.00     0.202 C 
BRANCH   4   5
ATOM      5  C   UNL A   1      32.776  28.677  26.146  1.00  0.00     0.261 C 
BRANCH   5   6
ATOM      6  O   UNL A   1      31.448  29.172  26.086  1.00  0.00    -0.459 OA
BRANCH   6   7
ATOM      7  C   UNL A   1      31.086  29.825  24.952  1.00  0.00     0.350 C 
ATOM      8  O   UNL A   1      30.923  31.037  24.855  1.00  0.00    -0.245 OA
BRANCH   7   9
ATOM      9  C   UNL A   1      31.059  28.887  23.860  1.00  0.00     0.135 A 
ATOM     10  C   UNL A   1      31.589  27.093  22.357  1.00  0.00     0.146 A 
ATOM     11  N   UNL A   1      30.360  27.489  22.114  1.00  0.00    -0.239 NA
ATOM     12  S   UNL A   1      32.504  28.122  23.375  1.00  0.00    -0.105 S 
ATOM     13  C   UNL A   1      30.035  28.528  22.993  1.00  0.00     0.064 A 
ATOM     14  C   UNL A   1      28.678  29.134  22.893  1.00  0.00     0.068 C 
BRANCH  10  15
ATOM     15  C   UNL A   1      32.141  25.752  22.037  1.00  0.00     0.145 A 
ATOM     16  N   UNL A   1      32.822  23.722  22.345  1.00  0.00    -0.217 N 
ATOM     17  N   UNL A   1      33.426  24.199  21.232  1.00  0.00    -0.061 NA
ATOM     18  C   UNL A   1      32.055  24.705  22.935  1.00  0.00     0.072 A 
ATOM     19  N   UNL A   1      32.928  25.410  20.981  1.00  0.00    -0.127 NA
ATOM     20  C   UNL A   1      31.412  24.646  24.280  1.00  0.00     0.069 C 
BRANCH  16  21
ATOM     21  C   UNL A   1      33.036  22.428  22.849  1.00  0.00     0.067 A 
ATOM     22  C   UNL A   1      33.022  19.986  24.161  1.00  0.00     0.119 A 
ATOM     23  C   UNL A   1      33.928  20.979  24.547  1.00  0.00     0.048 A 
ATOM     24  C   UNL A   1      32.141  20.211  23.109  1.00  0.00     0.048 A 
ATOM     25  C   UNL A   1      33.955  22.209  23.877  1.00  0.00     0.032 A 
ATOM     26  C   UNL A   1      32.175  21.412  22.425  1.00  0.00     0.032 A 
BRANCH  22  27
ATOM     27  O   UNL A   1      32.925  18.855  24.921  1.00  0.00    -0.494 OA
BRANCH  27  28
ATOM     28  C   UNL A   1      32.595  17.682  24.162  1.00  0.00     0.226 C 
ATOM     29  C   UNL A   1      33.810  16.839  23.797  1.00  0.00     0.049 C 
ENDBRANCH  27  28
ENDBRANCH  22  27
ENDBRANCH  16  21
ENDBRANCH  10  15
ENDBRANCH   7   9
ENDBRANCH   6   7
ENDBRANCH   5   6
ENDBRANCH   4   5
ENDBRANCH   3   4
ENDBRANCH   2   3
ENDBRANCH   1   2
BRANCH   1  30
ATOM     30  O   UNL A   1      33.524  32.486  28.182  1.00  0.00    -0.377 OA
BRANCH  30  31
ATOM     31  C   UNL A   1      33.216  33.853  27.916  1.00  0.00     0.188 C 
BRANCH  31  32
ATOM     32  C   UNL A   1      34.027  34.992  28.595  1.00  0.00     0.188 C 
BRANCH  32  33
ATOM     33  O   UNL A   1      33.264  36.108  29.028  1.00  0.00    -0.376 OA
BRANCH  33  34
ATOM     34  C   UNL A   1      33.228  36.554  30.369  1.00  0.00     0.202 C 
BRANCH  34  35
ATOM     35  C   UNL A   1      32.961  35.534  31.469  1.00  0.00     0.261 C 
BRANCH  35  36
ATOM     36  O   UNL A   1      34.111  34.830  31.888  1.00  0.00    -0.460 OA
BRANCH  36  37
ATOM     37  C   UNL A   1      34.666  35.312  33.014  1.00  0.00     0.338 C 
ATOM     38  O   UNL A   1      34.506  36.415  33.505  1.00  0.00    -0.246 OA
BRANCH  37  39
ATOM     39  C   UNL A   1      35.652  34.335  33.475  1.00  0.00     0.060 A 
ATOM     40  C   UNL A   1      36.942  34.826  33.654  1.00  0.00     0.016 A 
ATOM     41  C   UNL A   1      35.372  32.964  33.335  1.00  0.00     0.016 A 
ATOM     42  C   UNL A   1      37.978  33.968  33.396  1.00  0.00     0.010 A 
ATOM     43  C   UNL A   1      36.411  32.109  33.071  1.00  0.00     0.010 A 
ATOM     44  C   UNL A   1      37.686  32.652  33.001  1.00  0.00    -0.014 A 
BRANCH  44  45
ATOM     45  C   UNL A   1      38.802  31.837  32.592  1.00  0.00     0.031 A 
ATOM     46  C   UNL A   1      39.684  31.511  33.726  1.00  0.00     0.074 A 
ATOM     47  C   UNL A   1      38.996  31.433  31.325  1.00  0.00     0.049 A 
ATOM     48  N   UNL A   1      40.871  31.966  33.940  1.00  0.00    -0.248 NA
ATOM     49  C   UNL A   1      39.103  30.760  34.849  1.00  0.00     0.031 C 
ATOM     50  C   UNL A   1      38.078  31.495  30.186  1.00  0.00     0.029 A 
ATOM     51  N   UNL A   1      40.084  30.804  30.810  1.00  0.00    -0.354 N 
ATOM     52  C   UNL A   1      41.267  31.402  35.143  1.00  0.00     0.074 A 
ATOM     53  C   UNL A   1      40.092  30.822  35.738  1.00  0.00     0.031 C 
ATOM     54  C   UNL A   1      38.565  30.726  29.182  1.00  0.00     0.029 A 
ATOM     55  C   UNL A   1      39.886  30.245  29.557  1.00  0.00     0.049 A 
ATOM     56  H   UNL A   1      40.943  30.750  31.287  1.00  0.00     0.167 HD
ATOM     57  C   UNL A   1      42.586  31.225  35.411  1.00  0.00     0.037 A 
ATOM     58  C   UNL A   1      40.734  29.393  28.928  1.00  0.00     0.037 A 
ATOM     59  C   UNL A   1      43.404  32.108  34.618  1.00  0.00     0.049 A 
ATOM     60  C   UNL A   1      42.075  29.572  29.544  1.00  0.00     0.074 A 
ATOM     61  C   UNL A   1      43.513  33.482  34.503  1.00  0.00     0.029 A 
ATOM     62  N   UNL A   1      44.005  31.594  33.495  1.00  0.00    -0.354 N 
ATOM     63  N   UNL A   1      42.798  30.648  29.409  1.00  0.00    -0.248 NA
ATOM     64  C   UNL A   1      42.414  28.732  30.685  1.00  0.00     0.031 C 
ATOM     65  C   UNL A   1      43.749  33.725  33.119  1.00  0.00     0.029 A 
ATOM     66  C   UNL A   1      43.829  32.491  32.473  1.00  0.00     0.049 A 
ATOM     67  H   UNL A   1      44.478  30.733  33.435  1.00  0.00     0.167 HD
ATOM     68  C   UNL A   1      43.366  30.850  30.659  1.00  0.00     0.074 A 
ATOM     69  C   UNL A   1      43.170  29.592  31.373  1.00  0.00     0.031 C 
ATOM     70  C   UNL A   1      43.680  32.107  31.088  1.00  0.00     0.037 A 
BRANCH  57  71
ATOM     71  C   UNL A   1      43.117  29.978  36.067  1.00  0.00     0.064 A 
ATOM     72  C   UNL A   1      44.041  30.102  37.120  1.00  0.00     0.173 A 
ATOM     73  C   UNL A   1      42.992  28.683  35.512  1.00  0.00     0.173 A 
ATOM     74  F   UNL A   1      44.259  31.293  37.699  1.00  0.00    -0.203 F 
ATOM     75  C   UNL A   1      44.831  29.028  37.533  1.00  0.00     0.198 A 
ATOM     76  C   UNL A   1      43.741  27.602  35.965  1.00  0.00     0.198 A 
ATOM     77  F   UNL A   1      42.236  28.430  34.439  1.00  0.00    -0.203 F 
ATOM     78  F   UNL A   1      45.789  29.222  38.449  1.00  0.00    -0.200 F 
ATOM     79  C   UNL A   1      44.684  27.781  36.953  1.00  0.00     0.200 A 
ATOM     80  F   UNL A   1      43.598  26.409  35.371  1.00  0.00    -0.200 F 
ATOM     81  F   UNL A   1      45.484  26.766  37.304  1.00  0.00    -0.200 F 
ENDBRANCH  57  71
BRANCH  58  82
ATOM     82  C   UNL A   1      40.401  28.210  28.100  1.00  0.00     0.064 A 
ATOM     83  C   UNL A   1      41.022  28.002  26.857  1.00  0.00     0.173 A 
ATOM     84  C   UNL A   1      39.699  27.115  28.640  1.00  0.00     0.173 A 
ATOM     85  F   UNL A   1      41.750  28.979  26.296  1.00  0.00    -0.203 F 
ATOM     86  C   UNL A   1      40.972  26.763  26.210  1.00  0.00     0.198 A 
ATOM     87  C   UNL A   1      39.645  25.881  27.990  1.00  0.00     0.198 A 
ATOM     88  F   UNL A   1      39.138  27.188  29.855  1.00  0.00    -0.203 F 
ATOM     89  F   UNL A   1      41.636  26.583  25.060  1.00  0.00    -0.200 F 
ATOM     90  C   UNL A   1      40.294  25.700  26.783  1.00  0.00     0.200 A 
ATOM     91  F   UNL A   1      39.018  24.850  28.575  1.00  0.00    -0.200 F 
ATOM     92  F   UNL A   1      40.302  24.495  26.198  1.00  0.00    -0.200 F 
ENDBRANCH  58  82
BRANCH  70  93
ATOM     93  C   UNL A   1      43.658  33.213  30.068  1.00  0.00     0.064 A 
ATOM     94  C   UNL A   1      44.722  33.509  29.196  1.00  0.00     0.173 A 
ATOM     95  C   UNL A   1      42.464  33.925  29.888  1.00  0.00     0.173 A 
ATOM     96  F   UNL A   1      45.862  32.807  29.234  1.00  0.00    -0.203 F 
ATOM     97  C   UNL A   1      44.608  34.506  28.228  1.00  0.00     0.198 A 
ATOM     98  C   UNL A   1      42.340  34.892  28.895  1.00  0.00     0.198 A 
ATOM     99  F   UNL A   1      41.397  33.649  30.654  1.00  0.00    -0.203 F 
ATOM    100  F   UNL A   1      45.644  34.783  27.421  1.00  0.00    -0.200 F 
ATOM    101  C   UNL A   1      43.415  35.192  28.074  1.00  0.00     0.200 A 
ATOM    102  F   UNL A   1      41.168  35.517  28.718  1.00  0.00    -0.200 F 
ATOM    103  F   UNL A   1      43.291  36.124  27.119  1.00  0.00    -0.200 F 
ENDBRANCH  70  93
ENDBRANCH  44  45
ENDBRANCH  37  39
ENDBRANCH  36  37
ENDBRANCH  35  36
ENDBRANCH  34  35
ENDBRANCH  33  34
ENDBRANCH  32  33
ENDBRANCH  31  32
ENDBRANCH  30  31
ENDBRANCH   1  30
TORSDOF 24
ENDMDL
