MODEL 1
REMARK VINA RESULT:      -8.4      0.000      0.000
REMARK SMILES Cc1c([C@H]2[C@H](C(=O)OCCOCCOCCOCCOC(=O)c3ccc(-c4c5nc(c(-c6c(F)c(F)c(F)c(F)c6F)c6ccc([nH]6)c(-c6c(F)c(F)c(F)c(F)c6F)c6nc(c(-c7c(F)c(F)c(F)c(F)c7F)c7ccc4[nH]7)C=C6)C=C5)cc3)OCC(=O)N2CC(C)C)cnn1C
REMARK SMILES IDX 14 1 13 2 12 3 11 4 10 5 9 6 8 7 6 8 7 9 5 10 4 11 90 12
REMARK SMILES IDX 86 13 88 14 87 15 89 16 3 17 1 18 2 19 97 20 95 21 96 22
REMARK SMILES IDX 98 23 91 24 92 25 93 26 94 27 15 28 16 29 17 30 18 31 19 32
REMARK SMILES IDX 20 33 21 34 22 35 23 36 24 37 85 38 25 39 84 40 26 41 27 42
REMARK SMILES IDX 28 43 78 44 29 45 83 46 77 47 79 48 30 49 82 50 76 51 75 52
REMARK SMILES IDX 31 54 63 55 43 56 62 57 44 58 47 59 61 60 80 61 45 62 46 63
REMARK SMILES IDX 60 65 81 66 48 67 32 68 33 69 41 70 34 71 35 72 39 73 42 74
REMARK SMILES IDX 36 75 37 76 40 77 38 78 64 79 65 80 73 81 66 82 67 83 71 84
REMARK SMILES IDX 74 85 68 86 69 87 72 88 70 89 49 90 50 91 58 92 51 93 52 94
REMARK SMILES IDX 56 95 59 96 53 97 54 98 57 99 55 100
REMARK H PARENT 79 53 47 64
REMARK Flexibility Score: inf
ROOT
ATOM      1  O   UNL A   1      35.608  33.641  31.204  1.00  0.00    -0.377 OA
ENDROOT
BRANCH   1   2
ATOM      2  C   UNL A   1      34.894  32.608  30.563  1.00  0.00     0.188 C 
BRANCH   2   3
ATOM      3  C   UNL A   1      34.764  32.788  29.048  1.00  0.00     0.188 C 
BRANCH   3   4
ATOM      4  O   UNL A   1      33.744  32.117  28.336  1.00  0.00    -0.376 OA
BRANCH   4   5
ATOM      5  C   UNL A   1      34.035  31.154  27.336  1.00  0.00     0.202 C 
BRANCH   5   6
ATOM      6  C   UNL A   1      34.730  29.799  27.585  1.00  0.00     0.261 C 
BRANCH   6   7
ATOM      7  O   UNL A   1      34.670  28.797  26.561  1.00  0.00    -0.461 OA
BRANCH   7   8
ATOM      8  C   UNL A   1      33.571  28.005  26.596  1.00  0.00     0.337 C 
ATOM      9  O   UNL A   1      32.772  27.990  27.527  1.00  0.00    -0.249 OA
BRANCH   8  10
ATOM     10  C   UNL A   1      33.423  27.094  25.369  1.00  0.00     0.255 C 
ATOM     11  C   UNL A   1      33.054  25.601  25.610  1.00  0.00     0.159 C 
ATOM     12  N   UNL A   1      31.610  25.272  25.561  1.00  0.00    -0.330 N 
ATOM     13  O   UNL A   1      32.601  27.652  24.348  1.00  0.00    -0.354 OA
ATOM     14  C   UNL A   1      30.680  26.247  25.196  1.00  0.00     0.249 C 
ATOM     15  C   UNL A   1      31.240  27.599  24.727  1.00  0.00     0.261 C 
ATOM     16  O   UNL A   1      29.463  26.091  25.310  1.00  0.00    -0.272 OA
BRANCH  11  17
ATOM     17  C   UNL A   1      33.907  24.753  24.691  1.00  0.00     0.019 A 
ATOM     18  C   UNL A   1      35.312  23.237  26.341  1.00  0.00     0.067 C 
ATOM     19  C   UNL A   1      34.885  23.812  25.038  1.00  0.00     0.040 A 
ATOM     20  N   UNL A   1      35.554  23.526  23.872  1.00  0.00    -0.273 N 
ATOM     21  C   UNL A   1      34.027  24.855  23.286  1.00  0.00     0.141 A 
ATOM     22  N   UNL A   1      34.998  24.088  22.790  1.00  0.00    -0.181 NA
ATOM     23  C   UNL A   1      36.821  22.837  23.749  1.00  0.00     0.174 C 
ENDBRANCH  11  17
BRANCH  12  24
ATOM     24  C   UNL A   1      31.104  24.053  26.241  1.00  0.00     0.123 C 
BRANCH  24  25
ATOM     25  C   UNL A   1      30.834  22.834  25.328  1.00  0.00     0.002 C 
ATOM     26  C   UNL A   1      30.874  23.215  23.845  1.00  0.00     0.009 C 
ATOM     27  C   UNL A   1      31.896  21.741  25.543  1.00  0.00     0.009 C 
ENDBRANCH  24  25
ENDBRANCH  12  24
ENDBRANCH   8  10
ENDBRANCH   7   8
ENDBRANCH   6   7
ENDBRANCH   5   6
ENDBRANCH   4   5
ENDBRANCH   3   4
ENDBRANCH   2   3
ENDBRANCH   1   2
BRANCH   1  28
ATOM     28  C   UNL A   1      36.235  33.272  32.428  1.00  0.00     0.188 C 
BRANCH  28  29
ATOM     29  C   UNL A   1      36.210  31.780  32.848  1.00  0.00     0.188 C 
BRANCH  29  30
ATOM     30  O   UNL A   1      37.420  31.068  32.629  1.00  0.00    -0.376 OA
BRANCH  30  31
ATOM     31  C   UNL A   1      37.404  29.649  32.567  1.00  0.00     0.202 C 
BRANCH  31  32
ATOM     32  C   UNL A   1      37.448  28.962  31.190  1.00  0.00     0.261 C 
BRANCH  32  33
ATOM     33  O   UNL A   1      37.182  29.791  30.049  1.00  0.00    -0.460 OA
BRANCH  33  34
ATOM     34  C   UNL A   1      38.168  29.954  29.145  1.00  0.00     0.338 C 
ATOM     35  O   UNL A   1      38.268  29.414  28.056  1.00  0.00    -0.246 OA
BRANCH  34  36
ATOM     36  C   UNL A   1      39.015  31.076  29.603  1.00  0.00     0.060 A 
ATOM     37  C   UNL A   1      40.331  30.809  30.007  1.00  0.00     0.016 A 
ATOM     38  C   UNL A   1      38.520  32.382  29.624  1.00  0.00     0.016 A 
ATOM     39  C   UNL A   1      41.143  31.842  30.472  1.00  0.00     0.010 A 
ATOM     40  C   UNL A   1      39.325  33.411  30.119  1.00  0.00     0.010 A 
ATOM     41  C   UNL A   1      40.626  33.138  30.580  1.00  0.00    -0.014 A 
BRANCH  41  42
ATOM     42  C   UNL A   1      41.358  34.151  31.378  1.00  0.00     0.031 A 
ATOM     43  C   UNL A   1      42.284  35.087  30.651  1.00  0.00     0.074 A 
ATOM     44  C   UNL A   1      41.187  34.259  32.706  1.00  0.00     0.049 A 
ATOM     45  N   UNL A   1      43.073  36.017  31.127  1.00  0.00    -0.248 NA
ATOM     46  C   UNL A   1      42.327  34.955  29.185  1.00  0.00     0.031 C 
ATOM     47  C   UNL A   1      40.278  33.448  33.511  1.00  0.00     0.029 A 
ATOM     48  N   UNL A   1      41.786  35.098  33.612  1.00  0.00    -0.354 N 
ATOM     49  C   UNL A   1      43.716  36.563  30.023  1.00  0.00     0.074 A 
ATOM     50  C   UNL A   1      43.245  35.850  28.857  1.00  0.00     0.031 C 
ATOM     51  C   UNL A   1      40.388  33.821  34.799  1.00  0.00     0.029 A 
ATOM     52  C   UNL A   1      41.402  34.869  34.911  1.00  0.00     0.049 A 
ATOM     53  H   UNL A   1      42.429  35.798  33.356  1.00  0.00     0.167 HD
ATOM     54  C   UNL A   1      44.616  37.574  29.987  1.00  0.00     0.037 A 
ATOM     55  C   UNL A   1      41.844  35.427  36.056  1.00  0.00     0.037 A 
ATOM     56  C   UNL A   1      45.076  38.284  31.150  1.00  0.00     0.049 A 
ATOM     57  C   UNL A   1      42.911  36.493  35.993  1.00  0.00     0.074 A 
ATOM     58  C   UNL A   1      45.964  39.343  31.217  1.00  0.00     0.029 A 
ATOM     59  N   UNL A   1      44.695  37.997  32.453  1.00  0.00    -0.354 N 
ATOM     60  N   UNL A   1      43.490  37.030  34.947  1.00  0.00    -0.248 NA
ATOM     61  C   UNL A   1      43.383  37.033  37.277  1.00  0.00     0.031 C 
ATOM     62  C   UNL A   1      46.174  39.650  32.564  1.00  0.00     0.029 A 
ATOM     63  C   UNL A   1      45.359  38.836  33.333  1.00  0.00     0.049 A 
ATOM     64  H   UNL A   1      44.049  37.302  32.712  1.00  0.00     0.167 HD
ATOM     65  C   UNL A   1      44.363  37.992  35.442  1.00  0.00     0.074 A 
ATOM     66  C   UNL A   1      44.226  37.975  36.883  1.00  0.00     0.031 C 
ATOM     67  C   UNL A   1      45.200  38.819  34.766  1.00  0.00     0.037 A 
BRANCH  54  68
ATOM     68  C   UNL A   1      45.196  37.945  28.653  1.00  0.00     0.064 A 
ATOM     69  C   UNL A   1      46.353  37.334  28.147  1.00  0.00     0.173 A 
ATOM     70  C   UNL A   1      44.556  38.903  27.851  1.00  0.00     0.173 A 
ATOM     71  F   UNL A   1      47.013  36.425  28.881  1.00  0.00    -0.203 F 
ATOM     72  C   UNL A   1      46.860  37.685  26.899  1.00  0.00     0.198 A 
ATOM     73  C   UNL A   1      45.046  39.226  26.590  1.00  0.00     0.198 A 
ATOM     74  F   UNL A   1      43.446  39.518  28.286  1.00  0.00    -0.203 F 
ATOM     75  F   UNL A   1      47.994  37.124  26.456  1.00  0.00    -0.200 F 
ATOM     76  C   UNL A   1      46.202  38.623  26.117  1.00  0.00     0.200 A 
ATOM     77  F   UNL A   1      44.401  40.122  25.831  1.00  0.00    -0.200 F 
ATOM     78  F   UNL A   1      46.685  38.951  24.911  1.00  0.00    -0.200 F 
ENDBRANCH  54  68
BRANCH  55  79
ATOM     79  C   UNL A   1      41.299  34.983  37.368  1.00  0.00     0.064 A 
ATOM     80  C   UNL A   1      41.821  33.857  38.023  1.00  0.00     0.173 A 
ATOM     81  C   UNL A   1      40.219  35.642  37.971  1.00  0.00     0.173 A 
ATOM     82  F   UNL A   1      42.837  33.174  37.474  1.00  0.00    -0.203 F 
ATOM     83  C   UNL A   1      41.263  33.393  39.213  1.00  0.00     0.198 A 
ATOM     84  C   UNL A   1      39.683  35.197  39.179  1.00  0.00     0.198 A 
ATOM     85  F   UNL A   1      39.677  36.721  37.385  1.00  0.00    -0.203 F 
ATOM     86  F   UNL A   1      41.741  32.278  39.783  1.00  0.00    -0.200 F 
ATOM     87  C   UNL A   1      40.199  34.066  39.792  1.00  0.00     0.200 A 
ATOM     88  F   UNL A   1      38.662  35.857  39.740  1.00  0.00    -0.200 F 
ATOM     89  F   UNL A   1      39.662  33.616  40.934  1.00  0.00    -0.200 F 
ENDBRANCH  55  79
BRANCH  67  90
ATOM     90  C   UNL A   1      45.993  39.814  35.566  1.00  0.00     0.064 A 
ATOM     91  C   UNL A   1      45.501  41.094  35.860  1.00  0.00     0.173 A 
ATOM     92  C   UNL A   1      47.250  39.461  36.084  1.00  0.00     0.173 A 
ATOM     93  F   UNL A   1      44.311  41.486  35.381  1.00  0.00    -0.203 F 
ATOM     94  C   UNL A   1      46.250  41.993  36.615  1.00  0.00     0.198 A 
ATOM     95  C   UNL A   1      47.979  40.349  36.870  1.00  0.00     0.198 A 
ATOM     96  F   UNL A   1      47.765  38.246  35.842  1.00  0.00    -0.203 F 
ATOM     97  F   UNL A   1      45.783  43.230  36.838  1.00  0.00    -0.200 F 
ATOM     98  C   UNL A   1      47.483  41.618  37.127  1.00  0.00     0.200 A 
ATOM     99  F   UNL A   1      49.160  39.976  37.380  1.00  0.00    -0.200 F 
ATOM    100  F   UNL A   1      48.196  42.481  37.863  1.00  0.00    -0.200 F 
ENDBRANCH  67  90
ENDBRANCH  41  42
ENDBRANCH  34  36
ENDBRANCH  33  34
ENDBRANCH  32  33
ENDBRANCH  31  32
ENDBRANCH  30  31
ENDBRANCH  29  30
ENDBRANCH  28  29
ENDBRANCH   1  28
TORSDOF 23
ENDMDL
MODEL 2
REMARK VINA RESULT:      -8.4      6.958     11.123
REMARK SMILES Cc1c([C@H]2[C@H](C(=O)OCCOCCOCCOCCOC(=O)c3ccc(-c4c5nc(c(-c6c(F)c(F)c(F)c(F)c6F)c6ccc([nH]6)c(-c6c(F)c(F)c(F)c(F)c6F)c6nc(c(-c7c(F)c(F)c(F)c(F)c7F)c7ccc4[nH]7)C=C6)C=C5)cc3)OCC(=O)N2CC(C)C)cnn1C
REMARK SMILES IDX 14 1 13 2 12 3 11 4 10 5 9 6 8 7 6 8 7 9 5 10 4 11 90 12
REMARK SMILES IDX 86 13 88 14 87 15 89 16 3 17 1 18 2 19 97 20 95 21 96 22
REMARK SMILES IDX 98 23 91 24 92 25 93 26 94 27 15 28 16 29 17 30 18 31 19 32
REMARK SMILES IDX 20 33 21 34 22 35 23 36 24 37 85 38 25 39 84 40 26 41 27 42
REMARK SMILES IDX 28 43 78 44 29 45 83 46 77 47 79 48 30 49 82 50 76 51 75 52
REMARK SMILES IDX 31 54 63 55 43 56 62 57 44 58 47 59 61 60 80 61 45 62 46 63
REMARK SMILES IDX 60 65 81 66 48 67 32 68 33 69 41 70 34 71 35 72 39 73 42 74
REMARK SMILES IDX 36 75 37 76 40 77 38 78 64 79 65 80 73 81 66 82 67 83 71 84
REMARK SMILES IDX 74 85 68 86 69 87 72 88 70 89 49 90 50 91 58 92 51 93 52 94
REMARK SMILES IDX 56 95 59 96 53 97 54 98 57 99 55 100
REMARK H PARENT 79 53 47 64
REMARK Flexibility Score: inf
ROOT
ATOM      1  O   UNL A   1      38.311  28.955  27.992  1.00  0.00    -0.377 OA
ENDROOT
BRANCH   1   2
ATOM      2  C   UNL A   1      37.689  30.130  28.458  1.00  0.00     0.188 C 
BRANCH   2   3
ATOM      3  C   UNL A   1      36.307  30.387  27.850  1.00  0.00     0.188 C 
BRANCH   3   4
ATOM      4  O   UNL A   1      35.443  29.306  27.562  1.00  0.00    -0.376 OA
BRANCH   4   5
ATOM      5  C   UNL A   1      34.098  29.507  27.159  1.00  0.00     0.202 C 
BRANCH   5   6
ATOM      6  C   UNL A   1      32.977  28.452  27.251  1.00  0.00     0.261 C 
BRANCH   6   7
ATOM      7  O   UNL A   1      33.114  27.236  26.501  1.00  0.00    -0.461 OA
BRANCH   7   8
ATOM      8  C   UNL A   1      31.977  26.511  26.371  1.00  0.00     0.337 C 
ATOM      9  O   UNL A   1      30.955  26.724  27.016  1.00  0.00    -0.249 OA
BRANCH   8  10
ATOM     10  C   UNL A   1      32.084  25.365  25.355  1.00  0.00     0.255 C 
ATOM     11  C   UNL A   1      33.504  24.945  24.875  1.00  0.00     0.159 C 
ATOM     12  N   UNL A   1      34.143  23.838  25.625  1.00  0.00    -0.330 N 
ATOM     13  O   UNL A   1      31.321  24.218  25.717  1.00  0.00    -0.354 OA
ATOM     14  C   UNL A   1      33.431  23.159  26.615  1.00  0.00     0.249 C 
ATOM     15  C   UNL A   1      31.947  23.523  26.777  1.00  0.00     0.261 C 
ATOM     16  O   UNL A   1      33.958  22.360  27.392  1.00  0.00    -0.272 OA
BRANCH  11  17
ATOM     17  C   UNL A   1      33.445  24.717  23.379  1.00  0.00     0.019 A 
ATOM     18  C   UNL A   1      33.367  27.159  22.365  1.00  0.00     0.067 C 
ATOM     19  C   UNL A   1      33.329  25.672  22.361  1.00  0.00     0.040 A 
ATOM     20  N   UNL A   1      33.040  24.963  21.220  1.00  0.00    -0.273 N 
ATOM     21  C   UNL A   1      33.313  23.486  22.698  1.00  0.00     0.141 A 
ATOM     22  N   UNL A   1      33.104  23.635  21.389  1.00  0.00    -0.181 NA
ATOM     23  C   UNL A   1      32.552  25.501  19.968  1.00  0.00     0.174 C 
ENDBRANCH  11  17
BRANCH  12  24
ATOM     24  C   UNL A   1      35.619  23.686  25.606  1.00  0.00     0.123 C 
BRANCH  24  25
ATOM     25  C   UNL A   1      36.166  22.516  24.754  1.00  0.00     0.002 C 
ATOM     26  C   UNL A   1      36.807  23.012  23.454  1.00  0.00     0.009 C 
ATOM     27  C   UNL A   1      37.246  21.734  25.521  1.00  0.00     0.009 C 
ENDBRANCH  24  25
ENDBRANCH  12  24
ENDBRANCH   8  10
ENDBRANCH   7   8
ENDBRANCH   6   7
ENDBRANCH   5   6
ENDBRANCH   4   5
ENDBRANCH   3   4
ENDBRANCH   2   3
ENDBRANCH   1   2
BRANCH   1  28
ATOM     28  C   UNL A   1      39.459  28.546  28.728  1.00  0.00     0.188 C 
BRANCH  28  29
ATOM     29  C   UNL A   1      40.272  27.331  28.211  1.00  0.00     0.188 C 
BRANCH  29  30
ATOM     30  O   UNL A   1      40.411  27.253  26.799  1.00  0.00    -0.376 OA
BRANCH  30  31
ATOM     31  C   UNL A   1      41.525  26.574  26.235  1.00  0.00     0.202 C 
BRANCH  31  32
ATOM     32  C   UNL A   1      41.392  25.079  25.892  1.00  0.00     0.261 C 
BRANCH  32  33
ATOM     33  O   UNL A   1      42.611  24.365  25.645  1.00  0.00    -0.460 OA
BRANCH  33  34
ATOM     34  C   UNL A   1      43.450  24.173  26.683  1.00  0.00     0.338 C 
ATOM     35  O   UNL A   1      43.397  23.289  27.521  1.00  0.00    -0.246 OA
BRANCH  34  36
ATOM     36  C   UNL A   1      44.592  25.097  26.514  1.00  0.00     0.060 A 
ATOM     37  C   UNL A   1      45.385  25.402  27.629  1.00  0.00     0.016 A 
ATOM     38  C   UNL A   1      44.883  25.651  25.266  1.00  0.00     0.016 A 
ATOM     39  C   UNL A   1      46.449  26.294  27.506  1.00  0.00     0.010 A 
ATOM     40  C   UNL A   1      45.931  26.567  25.151  1.00  0.00     0.010 A 
ATOM     41  C   UNL A   1      46.694  26.921  26.280  1.00  0.00    -0.014 A 
BRANCH  41  42
ATOM     42  C   UNL A   1      47.588  28.102  26.230  1.00  0.00     0.031 A 
ATOM     43  C   UNL A   1      46.986  29.455  26.500  1.00  0.00     0.074 A 
ATOM     44  C   UNL A   1      48.903  27.981  25.981  1.00  0.00     0.049 A 
ATOM     45  N   UNL A   1      47.542  30.639  26.462  1.00  0.00    -0.248 NA
ATOM     46  C   UNL A   1      45.559  29.473  26.861  1.00  0.00     0.031 C 
ATOM     47  C   UNL A   1      49.609  26.723  25.760  1.00  0.00     0.029 A 
ATOM     48  N   UNL A   1      49.876  28.942  25.866  1.00  0.00    -0.354 N 
ATOM     49  C   UNL A   1      46.531  31.538  26.774  1.00  0.00     0.074 A 
ATOM     50  C   UNL A   1      45.323  30.770  26.977  1.00  0.00     0.031 C 
ATOM     51  C   UNL A   1      50.906  26.990  25.521  1.00  0.00     0.029 A 
ATOM     52  C   UNL A   1      51.110  28.438  25.536  1.00  0.00     0.049 A 
ATOM     53  H   UNL A   1      49.707  29.902  26.005  1.00  0.00     0.167 HD
ATOM     54  C   UNL A   1      46.607  32.885  26.886  1.00  0.00     0.037 A 
ATOM     55  C   UNL A   1      52.261  29.079  25.252  1.00  0.00     0.037 A 
ATOM     56  C   UNL A   1      47.813  33.643  26.689  1.00  0.00     0.049 A 
ATOM     57  C   UNL A   1      52.295  30.588  25.301  1.00  0.00     0.074 A 
ATOM     58  C   UNL A   1      48.001  35.009  26.808  1.00  0.00     0.029 A 
ATOM     59  N   UNL A   1      49.034  33.101  26.317  1.00  0.00    -0.354 N 
ATOM     60  N   UNL A   1      51.347  31.432  25.630  1.00  0.00    -0.248 NA
ATOM     61  C   UNL A   1      53.567  31.233  24.941  1.00  0.00     0.031 C 
ATOM     62  C   UNL A   1      49.317  35.301  26.440  1.00  0.00     0.029 A 
ATOM     63  C   UNL A   1      49.971  34.111  26.167  1.00  0.00     0.049 A 
ATOM     64  H   UNL A   1      49.209  32.142  26.181  1.00  0.00     0.167 HD
ATOM     65  C   UNL A   1      51.916  32.698  25.554  1.00  0.00     0.074 A 
ATOM     66  C   UNL A   1      53.296  32.511  25.161  1.00  0.00     0.031 C 
ATOM     67  C   UNL A   1      51.348  33.907  25.791  1.00  0.00     0.037 A 
BRANCH  54  68
ATOM     68  C   UNL A   1      45.341  33.632  27.196  1.00  0.00     0.064 A 
ATOM     69  C   UNL A   1      44.946  33.912  28.512  1.00  0.00     0.173 A 
ATOM     70  C   UNL A   1      44.533  34.108  26.152  1.00  0.00     0.173 A 
ATOM     71  F   UNL A   1      45.673  33.465  29.547  1.00  0.00    -0.203 F 
ATOM     72  C   UNL A   1      43.775  34.621  28.772  1.00  0.00     0.198 A 
ATOM     73  C   UNL A   1      43.382  34.845  26.414  1.00  0.00     0.198 A 
ATOM     74  F   UNL A   1      44.865  33.868  24.875  1.00  0.00    -0.203 F 
ATOM     75  F   UNL A   1      43.390  34.836  30.038  1.00  0.00    -0.200 F 
ATOM     76  C   UNL A   1      43.000  35.096  27.724  1.00  0.00     0.200 A 
ATOM     77  F   UNL A   1      42.643  35.314  25.400  1.00  0.00    -0.200 F 
ATOM     78  F   UNL A   1      41.881  35.787  27.975  1.00  0.00    -0.200 F 
ENDBRANCH  54  68
BRANCH  55  79
ATOM     79  C   UNL A   1      53.479  28.311  24.877  1.00  0.00     0.064 A 
ATOM     80  C   UNL A   1      54.393  27.884  25.852  1.00  0.00     0.173 A 
ATOM     81  C   UNL A   1      53.779  28.028  23.537  1.00  0.00     0.173 A 
ATOM     82  F   UNL A   1      54.166  28.154  27.146  1.00  0.00    -0.203 F 
ATOM     83  C   UNL A   1      55.572  27.232  25.497  1.00  0.00     0.198 A 
ATOM     84  C   UNL A   1      54.943  27.345  23.186  1.00  0.00     0.198 A 
ATOM     85  F   UNL A   1      52.943  28.418  22.563  1.00  0.00    -0.203 F 
ATOM     86  F   UNL A   1      56.457  26.892  26.445  1.00  0.00    -0.200 F 
ATOM     87  C   UNL A   1      55.844  26.958  24.166  1.00  0.00     0.200 A 
ATOM     88  F   UNL A   1      55.196  27.074  21.899  1.00  0.00    -0.200 F 
ATOM     89  F   UNL A   1      56.980  26.334  23.827  1.00  0.00    -0.200 F 
ENDBRANCH  55  79
BRANCH  67  90
ATOM     90  C   UNL A   1      52.228  35.122  25.688  1.00  0.00     0.064 A 
ATOM     91  C   UNL A   1      52.468  35.765  24.465  1.00  0.00     0.173 A 
ATOM     92  C   UNL A   1      52.803  35.677  26.843  1.00  0.00     0.173 A 
ATOM     93  F   UNL A   1      51.952  35.271  23.329  1.00  0.00    -0.203 F 
ATOM     94  C   UNL A   1      53.276  36.898  24.398  1.00  0.00     0.198 A 
ATOM     95  C   UNL A   1      53.579  36.831  26.777  1.00  0.00     0.198 A 
ATOM     96  F   UNL A   1      52.598  35.109  28.041  1.00  0.00    -0.203 F 
ATOM     97  F   UNL A   1      53.535  37.464  23.211  1.00  0.00    -0.200 F 
ATOM     98  C   UNL A   1      53.822  37.435  25.554  1.00  0.00     0.200 A 
ATOM     99  F   UNL A   1      54.088  37.358  27.898  1.00  0.00    -0.200 F 
ATOM    100  F   UNL A   1      54.590  38.531  25.488  1.00  0.00    -0.200 F 
ENDBRANCH  67  90
ENDBRANCH  41  42
ENDBRANCH  34  36
ENDBRANCH  33  34
ENDBRANCH  32  33
ENDBRANCH  31  32
ENDBRANCH  30  31
ENDBRANCH  29  30
ENDBRANCH  28  29
ENDBRANCH   1  28
TORSDOF 23
ENDMDL
MODEL 3
REMARK VINA RESULT:      -8.3      6.125     12.527
REMARK SMILES Cc1c([C@H]2[C@H](C(=O)OCCOCCOCCOCCOC(=O)c3ccc(-c4c5nc(c(-c6c(F)c(F)c(F)c(F)c6F)c6ccc([nH]6)c(-c6c(F)c(F)c(F)c(F)c6F)c6nc(c(-c7c(F)c(F)c(F)c(F)c7F)c7ccc4[nH]7)C=C6)C=C5)cc3)OCC(=O)N2CC(C)C)cnn1C
REMARK SMILES IDX 14 1 13 2 12 3 11 4 10 5 9 6 8 7 6 8 7 9 5 10 4 11 90 12
REMARK SMILES IDX 86 13 88 14 87 15 89 16 3 17 1 18 2 19 97 20 95 21 96 22
REMARK SMILES IDX 98 23 91 24 92 25 93 26 94 27 15 28 16 29 17 30 18 31 19 32
REMARK SMILES IDX 20 33 21 34 22 35 23 36 24 37 85 38 25 39 84 40 26 41 27 42
REMARK SMILES IDX 28 43 78 44 29 45 83 46 77 47 79 48 30 49 82 50 76 51 75 52
REMARK SMILES IDX 31 54 63 55 43 56 62 57 44 58 47 59 61 60 80 61 45 62 46 63
REMARK SMILES IDX 60 65 81 66 48 67 32 68 33 69 41 70 34 71 35 72 39 73 42 74
REMARK SMILES IDX 36 75 37 76 40 77 38 78 64 79 65 80 73 81 66 82 67 83 71 84
REMARK SMILES IDX 74 85 68 86 69 87 72 88 70 89 49 90 50 91 58 92 51 93 52 94
REMARK SMILES IDX 56 95 59 96 53 97 54 98 57 99 55 100
REMARK H PARENT 79 53 47 64
REMARK Flexibility Score: inf
ROOT
ATOM      1  O   UNL A   1      48.884  28.634  26.042  1.00  0.00    -0.377 OA
ENDROOT
BRANCH   1   2
ATOM      2  C   UNL A   1      49.651  28.621  27.225  1.00  0.00     0.188 C 
BRANCH   2   3
ATOM      3  C   UNL A   1      49.061  27.752  28.340  1.00  0.00     0.188 C 
BRANCH   3   4
ATOM      4  O   UNL A   1      48.014  28.246  29.149  1.00  0.00    -0.376 OA
BRANCH   4   5
ATOM      5  C   UNL A   1      47.579  29.594  29.074  1.00  0.00     0.202 C 
BRANCH   5   6
ATOM      6  C   UNL A   1      46.899  30.373  30.219  1.00  0.00     0.261 C 
BRANCH   6   7
ATOM      7  O   UNL A   1      47.341  31.708  30.500  1.00  0.00    -0.461 OA
BRANCH   7   8
ATOM      8  C   UNL A   1      46.770  32.674  29.740  1.00  0.00     0.337 C 
ATOM      9  O   UNL A   1      47.403  33.423  29.002  1.00  0.00    -0.249 OA
BRANCH   8  10
ATOM     10  C   UNL A   1      45.247  32.774  29.904  1.00  0.00     0.255 C 
ATOM     11  C   UNL A   1      44.580  34.166  29.695  1.00  0.00     0.159 C 
ATOM     12  N   UNL A   1      44.075  34.446  28.330  1.00  0.00    -0.330 N 
ATOM     13  O   UNL A   1      44.535  31.769  29.189  1.00  0.00    -0.354 OA
ATOM     14  C   UNL A   1      44.103  33.450  27.353  1.00  0.00     0.249 C 
ATOM     15  C   UNL A   1      44.545  32.049  27.803  1.00  0.00     0.261 C 
ATOM     16  O   UNL A   1      43.870  33.670  26.163  1.00  0.00    -0.272 OA
BRANCH  11  17
ATOM     17  C   UNL A   1      43.545  34.358  30.783  1.00  0.00     0.019 A 
ATOM     18  C   UNL A   1      41.528  32.825  30.023  1.00  0.00     0.067 C 
ATOM     19  C   UNL A   1      42.253  33.822  30.854  1.00  0.00     0.040 A 
ATOM     20  N   UNL A   1      41.626  34.503  31.871  1.00  0.00    -0.273 N 
ATOM     21  C   UNL A   1      43.593  35.260  31.870  1.00  0.00     0.141 A 
ATOM     22  N   UNL A   1      42.445  35.320  32.547  1.00  0.00    -0.181 NA
ATOM     23  C   UNL A   1      40.207  34.522  32.151  1.00  0.00     0.174 C 
ENDBRANCH  11  17
BRANCH  12  24
ATOM     24  C   UNL A   1      43.889  35.849  27.883  1.00  0.00     0.123 C 
BRANCH  24  25
ATOM     25  C   UNL A   1      44.395  36.941  28.855  1.00  0.00     0.002 C 
ATOM     26  C   UNL A   1      45.731  37.533  28.398  1.00  0.00     0.009 C 
ATOM     27  C   UNL A   1      43.392  38.104  28.947  1.00  0.00     0.009 C 
ENDBRANCH  24  25
ENDBRANCH  12  24
ENDBRANCH   8  10
ENDBRANCH   7   8
ENDBRANCH   6   7
ENDBRANCH   5   6
ENDBRANCH   4   5
ENDBRANCH   3   4
ENDBRANCH   2   3
ENDBRANCH   1   2
BRANCH   1  28
ATOM     28  C   UNL A   1      48.812  27.389  25.355  1.00  0.00     0.188 C 
BRANCH  28  29
ATOM     29  C   UNL A   1      47.682  27.186  24.314  1.00  0.00     0.188 C 
BRANCH  29  30
ATOM     30  O   UNL A   1      47.408  25.834  23.973  1.00  0.00    -0.376 OA
BRANCH  30  31
ATOM     31  C   UNL A   1      47.115  24.892  24.995  1.00  0.00     0.202 C 
BRANCH  31  32
ATOM     32  C   UNL A   1      45.892  23.972  24.832  1.00  0.00     0.261 C 
BRANCH  32  33
ATOM     33  O   UNL A   1      44.666  24.597  24.425  1.00  0.00    -0.460 OA
BRANCH  33  34
ATOM     34  C   UNL A   1      43.509  24.039  24.834  1.00  0.00     0.338 C 
ATOM     35  O   UNL A   1      43.127  22.899  24.631  1.00  0.00    -0.246 OA
BRANCH  34  36
ATOM     36  C   UNL A   1      42.862  24.984  25.769  1.00  0.00     0.060 A 
ATOM     37  C   UNL A   1      43.328  26.305  25.827  1.00  0.00     0.016 A 
ATOM     38  C   UNL A   1      41.798  24.573  26.576  1.00  0.00     0.016 A 
ATOM     39  C   UNL A   1      42.757  27.209  26.721  1.00  0.00     0.010 A 
ATOM     40  C   UNL A   1      41.247  25.472  27.492  1.00  0.00     0.010 A 
ATOM     41  C   UNL A   1      41.751  26.782  27.594  1.00  0.00    -0.014 A 
BRANCH  41  42
ATOM     42  C   UNL A   1      41.387  27.628  28.756  1.00  0.00     0.031 A 
ATOM     43  C   UNL A   1      42.226  27.517  30.000  1.00  0.00     0.074 A 
ATOM     44  C   UNL A   1      40.360  28.493  28.705  1.00  0.00     0.049 A 
ATOM     45  N   UNL A   1      42.081  28.105  31.160  1.00  0.00    -0.248 NA
ATOM     46  C   UNL A   1      43.389  26.617  29.925  1.00  0.00     0.031 C 
ATOM     47  C   UNL A   1      39.511  28.730  27.541  1.00  0.00     0.029 A 
ATOM     48  N   UNL A   1      39.855  29.329  29.669  1.00  0.00    -0.354 N 
ATOM     49  C   UNL A   1      43.119  27.631  31.953  1.00  0.00     0.074 A 
ATOM     50  C   UNL A   1      43.873  26.692  31.154  1.00  0.00     0.031 C 
ATOM     51  C   UNL A   1      38.578  29.643  27.862  1.00  0.00     0.029 A 
ATOM     52  C   UNL A   1      38.742  30.025  29.265  1.00  0.00     0.049 A 
ATOM     53  H   UNL A   1      40.251  29.421  30.566  1.00  0.00     0.167 HD
ATOM     54  C   UNL A   1      43.417  27.956  33.233  1.00  0.00     0.037 A 
ATOM     55  C   UNL A   1      37.937  30.852  29.961  1.00  0.00     0.037 A 
ATOM     56  C   UNL A   1      42.666  28.896  34.021  1.00  0.00     0.049 A 
ATOM     57  C   UNL A   1      38.244  31.130  31.413  1.00  0.00     0.074 A 
ATOM     58  C   UNL A   1      42.903  29.316  35.318  1.00  0.00     0.029 A 
ATOM     59  N   UNL A   1      41.522  29.551  33.590  1.00  0.00    -0.354 N 
ATOM     60  N   UNL A   1      39.244  30.708  32.147  1.00  0.00    -0.248 NA
ATOM     61  C   UNL A   1      37.306  32.006  32.131  1.00  0.00     0.031 C 
ATOM     62  C   UNL A   1      41.864  30.171  35.696  1.00  0.00     0.029 A 
ATOM     63  C   UNL A   1      41.021  30.345  34.610  1.00  0.00     0.049 A 
ATOM     64  H   UNL A   1      41.125  29.466  32.694  1.00  0.00     0.167 HD
ATOM     65  C   UNL A   1      39.078  31.294  33.397  1.00  0.00     0.074 A 
ATOM     66  C   UNL A   1      37.888  32.114  33.316  1.00  0.00     0.031 C 
ATOM     67  C   UNL A   1      39.843  31.170  34.510  1.00  0.00     0.037 A 
BRANCH  54  68
ATOM     68  C   UNL A   1      44.581  27.259  33.877  1.00  0.00     0.064 A 
ATOM     69  C   UNL A   1      44.453  26.001  34.483  1.00  0.00     0.173 A 
ATOM     70  C   UNL A   1      45.855  27.848  33.849  1.00  0.00     0.173 A 
ATOM     71  F   UNL A   1      43.254  25.402  34.552  1.00  0.00    -0.203 F 
ATOM     72  C   UNL A   1      45.552  25.369  35.059  1.00  0.00     0.198 A 
ATOM     73  C   UNL A   1      46.957  27.198  34.395  1.00  0.00     0.198 A 
ATOM     74  F   UNL A   1      46.033  29.050  33.283  1.00  0.00    -0.203 F 
ATOM     75  F   UNL A   1      45.398  24.188  35.675  1.00  0.00    -0.200 F 
ATOM     76  C   UNL A   1      46.805  25.962  35.005  1.00  0.00     0.200 A 
ATOM     77  F   UNL A   1      48.168  27.767  34.330  1.00  0.00    -0.200 F 
ATOM     78  F   UNL A   1      47.863  25.347  35.549  1.00  0.00    -0.200 F 
ENDBRANCH  54  68
BRANCH  55  79
ATOM     79  C   UNL A   1      36.749  31.469  29.311  1.00  0.00     0.064 A 
ATOM     80  C   UNL A   1      35.637  30.693  28.952  1.00  0.00     0.173 A 
ATOM     81  C   UNL A   1      36.717  32.834  28.992  1.00  0.00     0.173 A 
ATOM     82  F   UNL A   1      35.629  29.376  29.210  1.00  0.00    -0.203 F 
ATOM     83  C   UNL A   1      34.555  31.252  28.274  1.00  0.00     0.198 A 
ATOM     84  C   UNL A   1      35.620  33.400  28.344  1.00  0.00     0.198 A 
ATOM     85  F   UNL A   1      37.756  33.623  29.307  1.00  0.00    -0.203 F 
ATOM     86  F   UNL A   1      33.536  30.473  27.888  1.00  0.00    -0.200 F 
ATOM     87  C   UNL A   1      34.545  32.605  27.976  1.00  0.00     0.200 A 
ATOM     88  F   UNL A   1      35.611  34.710  28.068  1.00  0.00    -0.200 F 
ATOM     89  F   UNL A   1      33.507  33.141  27.321  1.00  0.00    -0.200 F 
ENDBRANCH  55  79
BRANCH  67  90
ATOM     90  C   UNL A   1      39.455  31.977  35.717  1.00  0.00     0.064 A 
ATOM     91  C   UNL A   1      40.036  33.222  35.998  1.00  0.00     0.173 A 
ATOM     92  C   UNL A   1      38.450  31.514  36.582  1.00  0.00     0.173 A 
ATOM     93  F   UNL A   1      41.009  33.706  35.210  1.00  0.00    -0.203 F 
ATOM     94  C   UNL A   1      39.649  33.958  37.115  1.00  0.00     0.198 A 
ATOM     95  C   UNL A   1      38.039  32.270  37.677  1.00  0.00     0.198 A 
ATOM     96  F   UNL A   1      37.853  30.335  36.356  1.00  0.00    -0.203 F 
ATOM     97  F   UNL A   1      40.257  35.120  37.393  1.00  0.00    -0.200 F 
ATOM     98  C   UNL A   1      38.646  33.486  37.948  1.00  0.00     0.200 A 
ATOM     99  F   UNL A   1      37.055  31.821  38.467  1.00  0.00    -0.200 F 
ATOM    100  F   UNL A   1      38.267  34.201  39.016  1.00  0.00    -0.200 F 
ENDBRANCH  67  90
ENDBRANCH  41  42
ENDBRANCH  34  36
ENDBRANCH  33  34
ENDBRANCH  32  33
ENDBRANCH  31  32
ENDBRANCH  30  31
ENDBRANCH  29  30
ENDBRANCH  28  29
ENDBRANCH   1  28
TORSDOF 23
ENDMDL
