MODEL 1
REMARK VINA RESULT:     -10.8      0.000      0.000
REMARK SMILES CC(C)(C)c1cc(Nc2ccccc2C(=O)OCCOCCOCCOCCOC(=O)c2ccc(-c3c4nc(c(-c5c(F)c(F)c(F)c(F)c5F)c5ccc([nH]5)c(-c5c(F)c(F)c(F)c(F)c5F)c5nc(c(-c6c(F)c(F)c(F)c(F)c6F)c6ccc3[nH]6)C=C5)C=C4)cc2)cc2c1OCC2(C)C
REMARK SMILES IDX 22 1 21 2 20 3 19 4 18 5 17 6 15 7 16 8 14 9 9 10 10 11
REMARK SMILES IDX 11 12 13 13 12 14 8 15 7 17 5 18 6 19 97 20 96 21 98 22
REMARK SMILES IDX 95 23 100 24 99 25 101 26 102 27 2 28 1 29 3 30 4 31 23 32
REMARK SMILES IDX 24 33 25 34 26 35 27 36 28 37 29 38 30 39 31 40 32 41 33 42
REMARK SMILES IDX 94 43 34 44 93 45 35 46 36 47 37 48 87 49 38 50 92 51 86 52
REMARK SMILES IDX 88 53 39 54 91 55 85 56 84 57 40 59 72 60 52 61 71 62 53 63
REMARK SMILES IDX 56 64 70 65 89 66 54 67 55 68 69 70 90 71 57 72 41 73 42 74
REMARK SMILES IDX 50 75 43 76 44 77 48 78 51 79 45 80 46 81 49 82 47 83 73 84
REMARK SMILES IDX 74 85 82 86 75 87 76 88 80 89 83 90 77 91 78 92 81 93 79 94
REMARK SMILES IDX 58 95 59 96 67 97 60 98 61 99 65 100 68 101 62 102 63 103
REMARK SMILES IDX 66 104 64 105
REMARK H PARENT 8 16 88 58 56 69
REMARK Flexibility Score: inf
ROOT
ATOM      1  C   UNL A   1      35.137  31.177  27.716  1.00  0.00     0.188 C 
ENDROOT
BRANCH   1   2
ATOM      2  C   UNL A   1      33.737  30.717  27.264  1.00  0.00     0.188 C 
BRANCH   2   3
ATOM      3  O   UNL A   1      33.478  29.328  27.436  1.00  0.00    -0.376 OA
BRANCH   3   4
ATOM      4  C   UNL A   1      32.116  28.956  27.582  1.00  0.00     0.202 C 
BRANCH   4   5
ATOM      5  C   UNL A   1      31.843  27.470  27.314  1.00  0.00     0.261 C 
BRANCH   5   6
ATOM      6  O   UNL A   1      30.921  27.218  26.242  1.00  0.00    -0.460 OA
BRANCH   6   7
ATOM      7  C   UNL A   1      30.835  25.936  25.822  1.00  0.00     0.340 C 
ATOM      8  O   UNL A   1      30.406  25.004  26.484  1.00  0.00    -0.246 OA
BRANCH   7   9
ATOM      9  C   UNL A   1      31.180  25.823  24.380  1.00  0.00     0.083 A 
ATOM     10  C   UNL A   1      31.256  24.615  23.659  1.00  0.00     0.053 A 
ATOM     11  C   UNL A   1      31.489  24.703  22.270  1.00  0.00     0.027 A 
ATOM     12  C   UNL A   1      31.811  25.910  21.649  1.00  0.00     0.002 A 
ATOM     13  C   UNL A   1      31.505  27.041  23.745  1.00  0.00     0.018 A 
ATOM     14  C   UNL A   1      31.858  27.077  22.398  1.00  0.00     0.001 A 
BRANCH  10  15
ATOM     15  N   UNL A   1      31.268  23.341  24.278  1.00  0.00    -0.355 N 
ATOM     16  H   UNL A   1      30.442  23.083  24.748  1.00  0.00     0.167 HD
BRANCH  15  17
ATOM     17  C   UNL A   1      32.320  22.391  24.305  1.00  0.00     0.039 A 
ATOM     18  C   UNL A   1      34.718  21.881  24.748  1.00  0.00     0.002 A 
ATOM     19  C   UNL A   1      33.637  22.798  24.605  1.00  0.00     0.034 A 
ATOM     20  C   UNL A   1      34.398  20.535  24.580  1.00  0.00     0.127 A 
ATOM     21  C   UNL A   1      33.115  20.118  24.268  1.00  0.00     0.006 A 
ATOM     22  O   UNL A   1      35.265  19.484  24.716  1.00  0.00    -0.492 OA
ATOM     23  C   UNL A   1      32.086  21.028  24.109  1.00  0.00     0.034 A 
ATOM     24  C   UNL A   1      33.034  18.632  24.222  1.00  0.00     0.028 C 
ATOM     25  C   UNL A   1      34.533  18.304  24.319  1.00  0.00     0.240 C 
ATOM     26  C   UNL A   1      32.258  18.109  25.438  1.00  0.00     0.020 C 
ATOM     27  C   UNL A   1      32.423  18.097  22.925  1.00  0.00     0.020 C 
BRANCH  18  28
ATOM     28  C   UNL A   1      36.145  22.399  24.987  1.00  0.00    -0.009 C 
ATOM     29  C   UNL A   1      36.763  22.637  23.606  1.00  0.00     0.016 C 
ATOM     30  C   UNL A   1      37.090  21.440  25.745  1.00  0.00     0.016 C 
ATOM     31  C   UNL A   1      36.151  23.731  25.766  1.00  0.00     0.016 C 
ENDBRANCH  18  28
ENDBRANCH  15  17
ENDBRANCH  10  15
ENDBRANCH   7   9
ENDBRANCH   6   7
ENDBRANCH   5   6
ENDBRANCH   4   5
ENDBRANCH   3   4
ENDBRANCH   2   3
ENDBRANCH   1   2
BRANCH   1  32
ATOM     32  O   UNL A   1      35.273  32.262  28.620  1.00  0.00    -0.377 OA
BRANCH  32  33
ATOM     33  C   UNL A   1      34.118  32.932  29.103  1.00  0.00     0.188 C 
BRANCH  33  34
ATOM     34  C   UNL A   1      34.257  34.248  29.897  1.00  0.00     0.188 C 
BRANCH  34  35
ATOM     35  O   UNL A   1      35.194  34.201  30.962  1.00  0.00    -0.376 OA
BRANCH  35  36
ATOM     36  C   UNL A   1      34.673  34.371  32.272  1.00  0.00     0.202 C 
BRANCH  36  37
ATOM     37  C   UNL A   1      34.651  33.105  33.137  1.00  0.00     0.261 C 
BRANCH  37  38
ATOM     38  O   UNL A   1      35.634  32.110  32.809  1.00  0.00    -0.460 OA
BRANCH  38  39
ATOM     39  C   UNL A   1      36.776  32.079  33.531  1.00  0.00     0.338 C 
ATOM     40  O   UNL A   1      36.905  32.275  34.726  1.00  0.00    -0.246 OA
BRANCH  39  41
ATOM     41  C   UNL A   1      37.843  31.585  32.636  1.00  0.00     0.060 A 
ATOM     42  C   UNL A   1      37.637  31.573  31.257  1.00  0.00     0.016 A 
ATOM     43  C   UNL A   1      39.039  31.095  33.179  1.00  0.00     0.016 A 
ATOM     44  C   UNL A   1      38.644  31.090  30.423  1.00  0.00     0.010 A 
ATOM     45  C   UNL A   1      40.039  30.592  32.337  1.00  0.00     0.010 A 
ATOM     46  C   UNL A   1      39.855  30.597  30.949  1.00  0.00    -0.014 A 
BRANCH  46  47
ATOM     47  C   UNL A   1      40.968  30.283  30.013  1.00  0.00     0.031 A 
ATOM     48  C   UNL A   1      42.024  31.276  29.624  1.00  0.00     0.074 A 
ATOM     49  C   UNL A   1      41.040  29.021  29.548  1.00  0.00     0.049 A 
ATOM     50  N   UNL A   1      43.178  31.053  29.043  1.00  0.00    -0.248 NA
ATOM     51  C   UNL A   1      41.780  32.689  29.943  1.00  0.00     0.031 C 
ATOM     52  C   UNL A   1      40.052  27.977  29.816  1.00  0.00     0.029 A 
ATOM     53  N   UNL A   1      41.985  28.401  28.773  1.00  0.00    -0.354 N 
ATOM     54  C   UNL A   1      43.835  32.275  29.010  1.00  0.00     0.074 A 
ATOM     55  C   UNL A   1      42.921  33.254  29.563  1.00  0.00     0.031 C 
ATOM     56  C   UNL A   1      40.451  26.837  29.238  1.00  0.00     0.029 A 
ATOM     57  C   UNL A   1      41.712  27.076  28.540  1.00  0.00     0.049 A 
ATOM     58  H   UNL A   1      42.780  28.859  28.418  1.00  0.00     0.167 HD
ATOM     59  C   UNL A   1      45.097  32.538  28.590  1.00  0.00     0.037 A 
ATOM     60  C   UNL A   1      42.398  26.151  27.846  1.00  0.00     0.037 A 
ATOM     61  C   UNL A   1      45.965  31.578  27.954  1.00  0.00     0.049 A 
ATOM     62  C   UNL A   1      43.720  26.518  27.239  1.00  0.00     0.074 A 
ATOM     63  C   UNL A   1      47.262  31.753  27.501  1.00  0.00     0.029 A 
ATOM     64  N   UNL A   1      45.609  30.275  27.640  1.00  0.00    -0.354 N 
ATOM     65  N   UNL A   1      44.391  27.639  27.338  1.00  0.00    -0.248 NA
ATOM     66  C   UNL A   1      44.387  25.488  26.431  1.00  0.00     0.031 C 
ATOM     67  C   UNL A   1      47.659  30.585  26.842  1.00  0.00     0.029 A 
ATOM     68  C   UNL A   1      46.633  29.659  26.939  1.00  0.00     0.049 A 
ATOM     69  H   UNL A   1      44.753  29.851  27.880  1.00  0.00     0.167 HD
ATOM     70  C   UNL A   1      45.564  27.446  26.623  1.00  0.00     0.074 A 
ATOM     71  C   UNL A   1      45.522  26.093  26.109  1.00  0.00     0.031 C 
ATOM     72  C   UNL A   1      46.582  28.316  26.415  1.00  0.00     0.037 A 
BRANCH  59  73
ATOM     73  C   UNL A   1      45.642  33.919  28.812  1.00  0.00     0.064 A 
ATOM     74  C   UNL A   1      46.386  34.217  29.963  1.00  0.00     0.173 A 
ATOM     75  C   UNL A   1      45.540  34.910  27.825  1.00  0.00     0.173 A 
ATOM     76  F   UNL A   1      46.525  33.297  30.928  1.00  0.00    -0.203 F 
ATOM     77  C   UNL A   1      46.998  35.457  30.125  1.00  0.00     0.198 A 
ATOM     78  C   UNL A   1      46.169  36.144  27.980  1.00  0.00     0.198 A 
ATOM     79  F   UNL A   1      44.857  34.669  26.696  1.00  0.00    -0.203 F 
ATOM     80  F   UNL A   1      47.694  35.720  31.240  1.00  0.00    -0.200 F 
ATOM     81  C   UNL A   1      46.896  36.417  29.130  1.00  0.00     0.200 A 
ATOM     82  F   UNL A   1      46.084  37.064  27.010  1.00  0.00    -0.200 F 
ATOM     83  F   UNL A   1      47.503  37.603  29.276  1.00  0.00    -0.200 F 
ENDBRANCH  59  73
BRANCH  60  84
ATOM     84  C   UNL A   1      41.836  24.784  27.711  1.00  0.00     0.064 A 
ATOM     85  C   UNL A   1      40.782  24.517  26.830  1.00  0.00     0.173 A 
ATOM     86  C   UNL A   1      42.372  23.709  28.437  1.00  0.00     0.173 A 
ATOM     87  F   UNL A   1      40.226  25.516  26.128  1.00  0.00    -0.203 F 
ATOM     88  C   UNL A   1      40.282  23.225  26.681  1.00  0.00     0.198 A 
ATOM     89  C   UNL A   1      41.892  22.415  28.265  1.00  0.00     0.198 A 
ATOM     90  F   UNL A   1      43.387  23.914  29.290  1.00  0.00    -0.203 F 
ATOM     91  F   UNL A   1      39.254  23.000  25.852  1.00  0.00    -0.200 F 
ATOM     92  C   UNL A   1      40.843  22.174  27.391  1.00  0.00     0.200 A 
ATOM     93  F   UNL A   1      42.450  21.400  28.940  1.00  0.00    -0.200 F 
ATOM     94  F   UNL A   1      40.372  20.930  27.235  1.00  0.00    -0.200 F 
ENDBRANCH  60  84
BRANCH  72  95
ATOM     95  C   UNL A   1      47.740  27.841  25.587  1.00  0.00     0.064 A 
ATOM     96  C   UNL A   1      47.693  27.865  24.185  1.00  0.00     0.173 A 
ATOM     97  C   UNL A   1      48.930  27.412  26.195  1.00  0.00     0.173 A 
ATOM     98  F   UNL A   1      46.574  28.251  23.554  1.00  0.00    -0.203 F 
ATOM     99  C   UNL A   1      48.788  27.465  23.423  1.00  0.00     0.198 A 
ATOM    100  C   UNL A   1      50.033  27.041  25.431  1.00  0.00     0.198 A 
ATOM    101  F   UNL A   1      49.029  27.374  27.532  1.00  0.00    -0.203 F 
ATOM    102  F   UNL A   1      48.706  27.459  22.086  1.00  0.00    -0.200 F 
ATOM    103  C   UNL A   1      49.960  27.062  24.047  1.00  0.00     0.200 A 
ATOM    104  F   UNL A   1      51.169  26.666  26.036  1.00  0.00    -0.200 F 
ATOM    105  F   UNL A   1      51.017  26.691  23.313  1.00  0.00    -0.200 F 
ENDBRANCH  72  95
ENDBRANCH  46  47
ENDBRANCH  39  41
ENDBRANCH  38  39
ENDBRANCH  37  38
ENDBRANCH  36  37
ENDBRANCH  35  36
ENDBRANCH  34  35
ENDBRANCH  33  34
ENDBRANCH  32  33
ENDBRANCH   1  32
TORSDOF 23
ENDMDL
MODEL 2
REMARK VINA RESULT:     -10.7      0.378      2.526
REMARK SMILES CC(C)(C)c1cc(Nc2ccccc2C(=O)OCCOCCOCCOCCOC(=O)c2ccc(-c3c4nc(c(-c5c(F)c(F)c(F)c(F)c5F)c5ccc([nH]5)c(-c5c(F)c(F)c(F)c(F)c5F)c5nc(c(-c6c(F)c(F)c(F)c(F)c6F)c6ccc3[nH]6)C=C5)C=C4)cc2)cc2c1OCC2(C)C
REMARK SMILES IDX 22 1 21 2 20 3 19 4 18 5 17 6 15 7 16 8 14 9 9 10 10 11
REMARK SMILES IDX 11 12 13 13 12 14 8 15 7 17 5 18 6 19 97 20 96 21 98 22
REMARK SMILES IDX 95 23 100 24 99 25 101 26 102 27 2 28 1 29 3 30 4 31 23 32
REMARK SMILES IDX 24 33 25 34 26 35 27 36 28 37 29 38 30 39 31 40 32 41 33 42
REMARK SMILES IDX 94 43 34 44 93 45 35 46 36 47 37 48 87 49 38 50 92 51 86 52
REMARK SMILES IDX 88 53 39 54 91 55 85 56 84 57 40 59 72 60 52 61 71 62 53 63
REMARK SMILES IDX 56 64 70 65 89 66 54 67 55 68 69 70 90 71 57 72 41 73 42 74
REMARK SMILES IDX 50 75 43 76 44 77 48 78 51 79 45 80 46 81 49 82 47 83 73 84
REMARK SMILES IDX 74 85 82 86 75 87 76 88 80 89 83 90 77 91 78 92 81 93 79 94
REMARK SMILES IDX 58 95 59 96 67 97 60 98 61 99 65 100 68 101 62 102 63 103
REMARK SMILES IDX 66 104 64 105
REMARK H PARENT 8 16 88 58 56 69
REMARK Flexibility Score: inf
ROOT
ATOM      1  C   UNL A   1      34.490  30.702  27.756  1.00  0.00     0.188 C 
ENDROOT
BRANCH   1   2
ATOM      2  C   UNL A   1      33.164  30.781  26.974  1.00  0.00     0.188 C 
BRANCH   2   3
ATOM      3  O   UNL A   1      32.683  29.535  26.484  1.00  0.00    -0.376 OA
BRANCH   3   4
ATOM      4  C   UNL A   1      31.840  28.799  27.357  1.00  0.00     0.202 C 
BRANCH   4   5
ATOM      5  C   UNL A   1      31.860  27.284  27.117  1.00  0.00     0.261 C 
BRANCH   5   6
ATOM      6  O   UNL A   1      30.621  26.741  26.633  1.00  0.00    -0.460 OA
BRANCH   6   7
ATOM      7  C   UNL A   1      30.684  25.498  26.105  1.00  0.00     0.340 C 
ATOM      8  O   UNL A   1      30.382  24.468  26.687  1.00  0.00    -0.246 OA
BRANCH   7   9
ATOM      9  C   UNL A   1      31.015  25.552  24.656  1.00  0.00     0.083 A 
ATOM     10  C   UNL A   1      31.138  24.430  23.813  1.00  0.00     0.053 A 
ATOM     11  C   UNL A   1      31.348  24.672  22.439  1.00  0.00     0.027 A 
ATOM     12  C   UNL A   1      31.605  25.950  21.944  1.00  0.00     0.002 A 
ATOM     13  C   UNL A   1      31.275  26.842  24.149  1.00  0.00     0.018 A 
ATOM     14  C   UNL A   1      31.608  27.034  22.810  1.00  0.00     0.001 A 
BRANCH  10  15
ATOM     15  N   UNL A   1      31.217  23.100  24.297  1.00  0.00    -0.355 N 
ATOM     16  H   UNL A   1      30.359  22.668  24.510  1.00  0.00     0.167 HD
BRANCH  15  17
ATOM     17  C   UNL A   1      32.377  22.315  24.510  1.00  0.00     0.039 A 
ATOM     18  C   UNL A   1      33.460  20.071  24.508  1.00  0.00     0.002 A 
ATOM     19  C   UNL A   1      32.313  20.909  24.406  1.00  0.00     0.034 A 
ATOM     20  C   UNL A   1      34.673  20.725  24.713  1.00  0.00     0.127 A 
ATOM     21  C   UNL A   1      34.754  22.102  24.836  1.00  0.00     0.006 A 
ATOM     22  O   UNL A   1      35.901  20.125  24.795  1.00  0.00    -0.492 OA
ATOM     23  C   UNL A   1      33.624  22.895  24.758  1.00  0.00     0.034 A 
ATOM     24  C   UNL A   1      36.170  22.544  24.970  1.00  0.00     0.028 C 
ATOM     25  C   UNL A   1      36.836  21.169  25.146  1.00  0.00     0.240 C 
ATOM     26  C   UNL A   1      36.629  23.237  23.681  1.00  0.00     0.020 C 
ATOM     27  C   UNL A   1      36.412  23.447  26.181  1.00  0.00     0.020 C 
BRANCH  18  28
ATOM     28  C   UNL A   1      33.307  18.543  24.475  1.00  0.00    -0.009 C 
ATOM     29  C   UNL A   1      32.515  18.208  23.206  1.00  0.00     0.016 C 
ATOM     30  C   UNL A   1      32.541  17.917  25.662  1.00  0.00     0.016 C 
ATOM     31  C   UNL A   1      34.673  17.829  24.406  1.00  0.00     0.016 C 
ENDBRANCH  18  28
ENDBRANCH  15  17
ENDBRANCH  10  15
ENDBRANCH   7   9
ENDBRANCH   6   7
ENDBRANCH   5   6
ENDBRANCH   4   5
ENDBRANCH   3   4
ENDBRANCH   2   3
ENDBRANCH   1   2
BRANCH   1  32
ATOM     32  O   UNL A   1      34.899  31.786  28.576  1.00  0.00    -0.377 OA
BRANCH  32  33
ATOM     33  C   UNL A   1      34.051  32.913  28.737  1.00  0.00     0.188 C 
BRANCH  33  34
ATOM     34  C   UNL A   1      34.600  34.218  29.350  1.00  0.00     0.188 C 
BRANCH  34  35
ATOM     35  O   UNL A   1      35.387  34.039  30.518  1.00  0.00    -0.376 OA
BRANCH  35  36
ATOM     36  C   UNL A   1      34.749  34.308  31.758  1.00  0.00     0.202 C 
BRANCH  36  37
ATOM     37  C   UNL A   1      34.555  33.091  32.671  1.00  0.00     0.261 C 
BRANCH  37  38
ATOM     38  O   UNL A   1      35.515  32.033  32.511  1.00  0.00    -0.460 OA
BRANCH  38  39
ATOM     39  C   UNL A   1      36.632  32.067  33.269  1.00  0.00     0.338 C 
ATOM     40  O   UNL A   1      36.716  32.305  34.460  1.00  0.00    -0.246 OA
BRANCH  39  41
ATOM     41  C   UNL A   1      37.745  31.581  32.425  1.00  0.00     0.060 A 
ATOM     42  C   UNL A   1      37.567  31.467  31.047  1.00  0.00     0.016 A 
ATOM     43  C   UNL A   1      38.957  31.202  33.017  1.00  0.00     0.016 A 
ATOM     44  C   UNL A   1      38.617  30.994  30.262  1.00  0.00     0.010 A 
ATOM     45  C   UNL A   1      40.002  30.707  32.226  1.00  0.00     0.010 A 
ATOM     46  C   UNL A   1      39.845  30.612  30.837  1.00  0.00    -0.014 A 
BRANCH  46  47
ATOM     47  C   UNL A   1      40.992  30.306  29.941  1.00  0.00     0.031 A 
ATOM     48  C   UNL A   1      42.057  31.305  29.595  1.00  0.00     0.074 A 
ATOM     49  C   UNL A   1      41.087  29.046  29.475  1.00  0.00     0.049 A 
ATOM     50  N   UNL A   1      43.232  31.090  29.054  1.00  0.00    -0.248 NA
ATOM     51  C   UNL A   1      41.794  32.716  29.909  1.00  0.00     0.031 C 
ATOM     52  C   UNL A   1      40.095  27.996  29.704  1.00  0.00     0.029 A 
ATOM     53  N   UNL A   1      42.062  28.433  28.732  1.00  0.00    -0.354 N 
ATOM     54  C   UNL A   1      43.883  32.315  29.050  1.00  0.00     0.074 A 
ATOM     55  C   UNL A   1      42.946  33.288  29.572  1.00  0.00     0.031 C 
ATOM     56  C   UNL A   1      40.521  26.860  29.137  1.00  0.00     0.029 A 
ATOM     57  C   UNL A   1      41.805  27.108  28.486  1.00  0.00     0.049 A 
ATOM     58  H   UNL A   1      42.867  28.896  28.409  1.00  0.00     0.167 HD
ATOM     59  C   UNL A   1      45.159  32.586  28.677  1.00  0.00     0.037 A 
ATOM     60  C   UNL A   1      42.520  26.188  27.813  1.00  0.00     0.037 A 
ATOM     61  C   UNL A   1      46.054  31.632  28.069  1.00  0.00     0.049 A 
ATOM     62  C   UNL A   1      43.861  26.564  27.256  1.00  0.00     0.074 A 
ATOM     63  C   UNL A   1      47.365  31.815  27.664  1.00  0.00     0.029 A 
ATOM     64  N   UNL A   1      45.715  30.329  27.738  1.00  0.00    -0.354 N 
ATOM     65  N   UNL A   1      44.522  27.688  27.383  1.00  0.00    -0.248 NA
ATOM     66  C   UNL A   1      44.562  25.540  26.470  1.00  0.00     0.031 C 
ATOM     67  C   UNL A   1      47.792  30.651  27.016  1.00  0.00     0.029 A 
ATOM     68  C   UNL A   1      46.768  29.720  27.072  1.00  0.00     0.049 A 
ATOM     69  H   UNL A   1      44.854  29.900  27.945  1.00  0.00     0.167 HD
ATOM     70  C   UNL A   1      45.722  27.503  26.711  1.00  0.00     0.074 A 
ATOM     71  C   UNL A   1      45.705  26.151  26.191  1.00  0.00     0.031 C 
ATOM     72  C   UNL A   1      46.742  28.379  26.542  1.00  0.00     0.037 A 
BRANCH  59  73
ATOM     73  C   UNL A   1      45.689  33.969  28.923  1.00  0.00     0.064 A 
ATOM     74  C   UNL A   1      45.486  34.989  27.983  1.00  0.00     0.173 A 
ATOM     75  C   UNL A   1      46.282  34.314  30.146  1.00  0.00     0.173 A 
ATOM     76  F   UNL A   1      44.909  34.712  26.805  1.00  0.00    -0.203 F 
ATOM     77  C   UNL A   1      45.865  36.302  28.251  1.00  0.00     0.198 A 
ATOM     78  C   UNL A   1      46.644  35.632  30.419  1.00  0.00     0.198 A 
ATOM     79  F   UNL A   1      46.480  33.380  31.087  1.00  0.00    -0.203 F 
ATOM     80  F   UNL A   1      45.670  37.257  27.330  1.00  0.00    -0.200 F 
ATOM     81  C   UNL A   1      46.437  36.624  29.472  1.00  0.00     0.200 A 
ATOM     82  F   UNL A   1      47.180  35.945  31.607  1.00  0.00    -0.200 F 
ATOM     83  F   UNL A   1      46.783  37.891  29.738  1.00  0.00    -0.200 F 
ENDBRANCH  59  73
BRANCH  60  84
ATOM     84  C   UNL A   1      41.970  24.819  27.654  1.00  0.00     0.064 A 
ATOM     85  C   UNL A   1      42.460  23.749  28.413  1.00  0.00     0.173 A 
ATOM     86  C   UNL A   1      40.915  24.564  26.765  1.00  0.00     0.173 A 
ATOM     87  F   UNL A   1      43.479  23.942  29.263  1.00  0.00    -0.203 F 
ATOM     88  C   UNL A   1      41.916  22.473  28.286  1.00  0.00     0.198 A 
ATOM     89  C   UNL A   1      40.353  23.295  26.661  1.00  0.00     0.198 A 
ATOM     90  F   UNL A   1      40.409  25.558  26.020  1.00  0.00    -0.203 F 
ATOM     91  F   UNL A   1      42.420  21.459  29.002  1.00  0.00    -0.200 F 
ATOM     92  C   UNL A   1      40.858  22.249  27.417  1.00  0.00     0.200 A 
ATOM     93  F   UNL A   1      39.319  23.089  25.833  1.00  0.00    -0.200 F 
ATOM     94  F   UNL A   1      40.325  21.025  27.307  1.00  0.00    -0.200 F 
ENDBRANCH  60  84
BRANCH  72  95
ATOM     95  C   UNL A   1      47.932  27.912  25.755  1.00  0.00     0.064 A 
ATOM     96  C   UNL A   1      49.088  27.438  26.393  1.00  0.00     0.173 A 
ATOM     97  C   UNL A   1      47.898  27.882  24.353  1.00  0.00     0.173 A 
ATOM     98  F   UNL A   1      49.177  27.460  27.731  1.00  0.00    -0.203 F 
ATOM     99  C   UNL A   1      50.171  26.964  25.656  1.00  0.00     0.198 A 
ATOM    100  C   UNL A   1      48.971  27.380  23.620  1.00  0.00     0.198 A 
ATOM    101  F   UNL A   1      46.815  28.320  23.693  1.00  0.00    -0.203 F 
ATOM    102  F   UNL A   1      51.279  26.553  26.287  1.00  0.00    -0.200 F 
ATOM    103  C   UNL A   1      50.107  26.927  24.271  1.00  0.00     0.200 A 
ATOM    104  F   UNL A   1      48.902  27.331  22.282  1.00  0.00    -0.200 F 
ATOM    105  F   UNL A   1      51.144  26.457  23.565  1.00  0.00    -0.200 F 
ENDBRANCH  72  95
ENDBRANCH  46  47
ENDBRANCH  39  41
ENDBRANCH  38  39
ENDBRANCH  37  38
ENDBRANCH  36  37
ENDBRANCH  35  36
ENDBRANCH  34  35
ENDBRANCH  33  34
ENDBRANCH  32  33
ENDBRANCH   1  32
TORSDOF 23
ENDMDL
MODEL 3
REMARK VINA RESULT:     -10.4      4.744     11.057
REMARK SMILES CC(C)(C)c1cc(Nc2ccccc2C(=O)OCCOCCOCCOCCOC(=O)c2ccc(-c3c4nc(c(-c5c(F)c(F)c(F)c(F)c5F)c5ccc([nH]5)c(-c5c(F)c(F)c(F)c(F)c5F)c5nc(c(-c6c(F)c(F)c(F)c(F)c6F)c6ccc3[nH]6)C=C5)C=C4)cc2)cc2c1OCC2(C)C
REMARK SMILES IDX 22 1 21 2 20 3 19 4 18 5 17 6 15 7 16 8 14 9 9 10 10 11
REMARK SMILES IDX 11 12 13 13 12 14 8 15 7 17 5 18 6 19 97 20 96 21 98 22
REMARK SMILES IDX 95 23 100 24 99 25 101 26 102 27 2 28 1 29 3 30 4 31 23 32
REMARK SMILES IDX 24 33 25 34 26 35 27 36 28 37 29 38 30 39 31 40 32 41 33 42
REMARK SMILES IDX 94 43 34 44 93 45 35 46 36 47 37 48 87 49 38 50 92 51 86 52
REMARK SMILES IDX 88 53 39 54 91 55 85 56 84 57 40 59 72 60 52 61 71 62 53 63
REMARK SMILES IDX 56 64 70 65 89 66 54 67 55 68 69 70 90 71 57 72 41 73 42 74
REMARK SMILES IDX 50 75 43 76 44 77 48 78 51 79 45 80 46 81 49 82 47 83 73 84
REMARK SMILES IDX 74 85 82 86 75 87 76 88 80 89 83 90 77 91 78 92 81 93 79 94
REMARK SMILES IDX 58 95 59 96 67 97 60 98 61 99 65 100 68 101 62 102 63 103
REMARK SMILES IDX 66 104 64 105
REMARK H PARENT 8 16 88 58 56 69
REMARK Flexibility Score: inf
ROOT
ATOM      1  C   UNL A   1      32.828  36.669  31.587  1.00  0.00     0.188 C 
ENDROOT
BRANCH   1   2
ATOM      2  C   UNL A   1      33.805  35.718  32.307  1.00  0.00     0.188 C 
BRANCH   2   3
ATOM      3  O   UNL A   1      33.319  34.395  32.501  1.00  0.00    -0.376 OA
BRANCH   3   4
ATOM      4  C   UNL A   1      34.177  33.506  33.200  1.00  0.00     0.202 C 
BRANCH   4   5
ATOM      5  C   UNL A   1      35.586  34.061  33.443  1.00  0.00     0.261 C 
BRANCH   5   6
ATOM      6  O   UNL A   1      36.553  33.076  33.843  1.00  0.00    -0.460 OA
BRANCH   6   7
ATOM      7  C   UNL A   1      37.018  32.270  32.862  1.00  0.00     0.340 C 
ATOM      8  O   UNL A   1      36.790  31.075  32.763  1.00  0.00    -0.246 OA
BRANCH   7   9
ATOM      9  C   UNL A   1      37.717  33.059  31.812  1.00  0.00     0.083 A 
ATOM     10  C   UNL A   1      38.745  33.993  32.053  1.00  0.00     0.053 A 
ATOM     11  C   UNL A   1      39.373  34.569  30.929  1.00  0.00     0.027 A 
ATOM     12  C   UNL A   1      38.894  34.374  29.633  1.00  0.00     0.002 A 
ATOM     13  C   UNL A   1      37.239  32.865  30.499  1.00  0.00     0.018 A 
ATOM     14  C   UNL A   1      37.798  33.550  29.423  1.00  0.00     0.001 A 
BRANCH  10  15
ATOM     15  N   UNL A   1      39.058  34.486  33.344  1.00  0.00    -0.355 N 
ATOM     16  H   UNL A   1      38.618  35.328  33.601  1.00  0.00     0.167 HD
BRANCH  15  17
ATOM     17  C   UNL A   1      39.925  33.918  34.311  1.00  0.00     0.039 A 
ATOM     18  C   UNL A   1      41.082  34.111  36.508  1.00  0.00     0.002 A 
ATOM     19  C   UNL A   1      40.299  34.658  35.452  1.00  0.00     0.034 A 
ATOM     20  C   UNL A   1      41.461  32.779  36.355  1.00  0.00     0.127 A 
ATOM     21  C   UNL A   1      41.118  32.041  35.234  1.00  0.00     0.006 A 
ATOM     22  O   UNL A   1      42.172  32.040  37.263  1.00  0.00    -0.492 OA
ATOM     23  C   UNL A   1      40.378  32.600  34.209  1.00  0.00     0.034 A 
ATOM     24  C   UNL A   1      41.581  30.631  35.362  1.00  0.00     0.028 C 
ATOM     25  C   UNL A   1      42.445  30.772  36.625  1.00  0.00     0.240 C 
ATOM     26  C   UNL A   1      40.381  29.703  35.594  1.00  0.00     0.020 C 
ATOM     27  C   UNL A   1      42.406  30.153  34.165  1.00  0.00     0.020 C 
BRANCH  18  28
ATOM     28  C   UNL A   1      41.529  34.999  37.680  1.00  0.00    -0.009 C 
ATOM     29  C   UNL A   1      40.911  36.380  37.445  1.00  0.00     0.016 C 
ATOM     30  C   UNL A   1      43.053  35.205  37.824  1.00  0.00     0.016 C 
ATOM     31  C   UNL A   1      41.027  34.458  39.036  1.00  0.00     0.016 C 
ENDBRANCH  18  28
ENDBRANCH  15  17
ENDBRANCH  10  15
ENDBRANCH   7   9
ENDBRANCH   6   7
ENDBRANCH   5   6
ENDBRANCH   4   5
ENDBRANCH   3   4
ENDBRANCH   2   3
ENDBRANCH   1   2
BRANCH   1  32
ATOM     32  O   UNL A   1      32.292  36.314  30.321  1.00  0.00    -0.377 OA
BRANCH  32  33
ATOM     33  C   UNL A   1      33.161  36.084  29.223  1.00  0.00     0.188 C 
BRANCH  33  34
ATOM     34  C   UNL A   1      33.256  34.681  28.587  1.00  0.00     0.188 C 
BRANCH  34  35
ATOM     35  O   UNL A   1      34.373  34.493  27.731  1.00  0.00    -0.376 OA
BRANCH  35  36
ATOM     36  C   UNL A   1      34.963  33.201  27.736  1.00  0.00     0.202 C 
BRANCH  36  37
ATOM     37  C   UNL A   1      33.989  32.038  27.952  1.00  0.00     0.261 C 
BRANCH  37  38
ATOM     38  O   UNL A   1      34.488  30.946  28.742  1.00  0.00    -0.460 OA
BRANCH  38  39
ATOM     39  C   UNL A   1      34.898  29.830  28.101  1.00  0.00     0.338 C 
ATOM     40  O   UNL A   1      34.270  29.159  27.302  1.00  0.00    -0.246 OA
BRANCH  39  41
ATOM     41  C   UNL A   1      36.333  29.654  28.407  1.00  0.00     0.060 A 
ATOM     42  C   UNL A   1      36.728  29.338  29.706  1.00  0.00     0.016 A 
ATOM     43  C   UNL A   1      37.291  29.845  27.402  1.00  0.00     0.016 A 
ATOM     44  C   UNL A   1      38.085  29.189  29.988  1.00  0.00     0.010 A 
ATOM     45  C   UNL A   1      38.655  29.715  27.695  1.00  0.00     0.010 A 
ATOM     46  C   UNL A   1      39.063  29.372  28.990  1.00  0.00    -0.014 A 
BRANCH  46  47
ATOM     47  C   UNL A   1      40.473  29.007  29.293  1.00  0.00     0.031 A 
ATOM     48  C   UNL A   1      41.075  27.679  28.942  1.00  0.00     0.074 A 
ATOM     49  C   UNL A   1      41.243  29.955  29.861  1.00  0.00     0.049 A 
ATOM     50  N   UNL A   1      42.342  27.341  28.906  1.00  0.00    -0.248 NA
ATOM     51  C   UNL A   1      40.158  26.596  28.558  1.00  0.00     0.031 C 
ATOM     52  C   UNL A   1      40.765  31.269  30.290  1.00  0.00     0.029 A 
ATOM     53  N   UNL A   1      42.581  29.968  30.160  1.00  0.00    -0.354 N 
ATOM     54  C   UNL A   1      42.381  26.046  28.410  1.00  0.00     0.074 A 
ATOM     55  C   UNL A   1      41.006  25.627  28.227  1.00  0.00     0.031 C 
ATOM     56  C   UNL A   1      41.796  31.973  30.774  1.00  0.00     0.029 A 
ATOM     57  C   UNL A   1      43.003  31.152  30.710  1.00  0.00     0.049 A 
ATOM     58  H   UNL A   1      43.179  29.205  29.996  1.00  0.00     0.167 HD
ATOM     59  C   UNL A   1      43.469  25.297  28.104  1.00  0.00     0.037 A 
ATOM     60  C   UNL A   1      44.224  31.541  31.117  1.00  0.00     0.037 A 
ATOM     61  C   UNL A   1      44.832  25.683  28.376  1.00  0.00     0.049 A 
ATOM     62  C   UNL A   1      45.392  30.619  30.923  1.00  0.00     0.074 A 
ATOM     63  C   UNL A   1      45.998  24.992  28.096  1.00  0.00     0.029 A 
ATOM     64  N   UNL A   1      45.208  26.845  29.034  1.00  0.00    -0.354 N 
ATOM     65  N   UNL A   1      45.433  29.454  30.325  1.00  0.00    -0.248 NA
ATOM     66  C   UNL A   1      46.686  31.068  31.454  1.00  0.00     0.031 C 
ATOM     67  C   UNL A   1      47.071  25.695  28.654  1.00  0.00     0.029 A 
ATOM     68  C   UNL A   1      46.581  26.856  29.229  1.00  0.00     0.049 A 
ATOM     69  H   UNL A   1      44.591  27.556  29.320  1.00  0.00     0.167 HD
ATOM     70  C   UNL A   1      46.755  29.039  30.388  1.00  0.00     0.074 A 
ATOM     71  C   UNL A   1      47.489  30.085  31.070  1.00  0.00     0.031 C 
ATOM     72  C   UNL A   1      47.306  27.892  29.922  1.00  0.00     0.037 A 
BRANCH  59  73
ATOM     73  C   UNL A   1      43.251  23.979  27.419  1.00  0.00     0.064 A 
ATOM     74  C   UNL A   1      42.794  22.867  28.140  1.00  0.00     0.173 A 
ATOM     75  C   UNL A   1      43.368  23.854  26.027  1.00  0.00     0.173 A 
ATOM     76  F   UNL A   1      42.650  22.942  29.470  1.00  0.00    -0.203 F 
ATOM     77  C   UNL A   1      42.472  21.673  27.498  1.00  0.00     0.198 A 
ATOM     78  C   UNL A   1      43.029  22.664  25.384  1.00  0.00     0.198 A 
ATOM     79  F   UNL A   1      43.782  24.893  25.288  1.00  0.00    -0.203 F 
ATOM     80  F   UNL A   1      42.048  20.621  28.212  1.00  0.00    -0.200 F 
ATOM     81  C   UNL A   1      42.582  21.576  26.119  1.00  0.00     0.200 A 
ATOM     82  F   UNL A   1      43.118  22.576  24.050  1.00  0.00    -0.200 F 
ATOM     83  F   UNL A   1      42.252  20.435  25.499  1.00  0.00    -0.200 F 
ENDBRANCH  59  73
BRANCH  60  84
ATOM     84  C   UNL A   1      44.389  32.881  31.732  1.00  0.00     0.064 A 
ATOM     85  C   UNL A   1      44.491  34.033  30.944  1.00  0.00     0.173 A 
ATOM     86  C   UNL A   1      44.408  33.037  33.127  1.00  0.00     0.173 A 
ATOM     87  F   UNL A   1      44.495  33.932  29.607  1.00  0.00    -0.203 F 
ATOM     88  C   UNL A   1      44.610  35.293  31.527  1.00  0.00     0.198 A 
ATOM     89  C   UNL A   1      44.497  34.298  33.708  1.00  0.00     0.198 A 
ATOM     90  F   UNL A   1      44.309  31.963  33.925  1.00  0.00    -0.203 F 
ATOM     91  F   UNL A   1      44.735  36.378  30.751  1.00  0.00    -0.200 F 
ATOM     92  C   UNL A   1      44.603  35.425  32.908  1.00  0.00     0.200 A 
ATOM     93  F   UNL A   1      44.472  34.422  35.043  1.00  0.00    -0.200 F 
ATOM     94  F   UNL A   1      44.701  36.638  33.468  1.00  0.00    -0.200 F 
ENDBRANCH  60  84
BRANCH  72  95
ATOM     95  C   UNL A   1      48.779  27.694  30.137  1.00  0.00     0.064 A 
ATOM     96  C   UNL A   1      49.275  27.139  31.326  1.00  0.00     0.173 A 
ATOM     97  C   UNL A   1      49.699  28.007  29.125  1.00  0.00     0.173 A 
ATOM     98  F   UNL A   1      48.438  26.838  32.330  1.00  0.00    -0.203 F 
ATOM     99  C   UNL A   1      50.638  26.918  31.500  1.00  0.00     0.198 A 
ATOM    100  C   UNL A   1      51.060  27.757  29.290  1.00  0.00     0.198 A 
ATOM    101  F   UNL A   1      49.278  28.536  27.967  1.00  0.00    -0.203 F 
ATOM    102  F   UNL A   1      51.093  26.423  32.659  1.00  0.00    -0.200 F 
ATOM    103  C   UNL A   1      51.529  27.218  30.479  1.00  0.00     0.200 A 
ATOM    104  F   UNL A   1      51.916  28.034  28.297  1.00  0.00    -0.200 F 
ATOM    105  F   UNL A   1      52.838  26.990  30.642  1.00  0.00    -0.200 F 
ENDBRANCH  72  95
ENDBRANCH  46  47
ENDBRANCH  39  41
ENDBRANCH  38  39
ENDBRANCH  37  38
ENDBRANCH  36  37
ENDBRANCH  35  36
ENDBRANCH  34  35
ENDBRANCH  33  34
ENDBRANCH  32  33
ENDBRANCH   1  32
TORSDOF 23
ENDMDL
