MODEL 1
REMARK VINA RESULT:     -10.6      0.000      0.000
REMARK SMILES O=C(C[C@H]1S/C(=[NH+]\N=C\c2cc(Br)ccc2OCc2ccccc2)NC1=O)OCCOCCOCCOCCOC(=O)c1ccc(-c2c3nc(c(-c4c(F)c(F)c(F)c(F)c4F)c4ccc([nH]4)c(-c4c(F)c(F)c(F)c(F)c4F)c4nc(c(-c5c(F)c(F)c(F)c(F)c5F)c5ccc2[nH]5)C=C4)C=C3)cc1
REMARK SMILES IDX 32 1 31 2 30 3 29 4 28 5 2 6 1 7 3 8 4 9 5 10 26 11 6 12
REMARK SMILES IDX 25 13 27 14 7 15 8 18 9 19 10 20 11 21 16 22 12 23 15 24
REMARK SMILES IDX 13 25 14 26 17 27 18 28 19 29 20 30 24 31 21 32 23 33 22 34
REMARK SMILES IDX 33 35 34 36 35 37 36 38 37 39 38 40 39 41 40 42 41 43 42 44
REMARK SMILES IDX 43 45 44 46 105 47 45 48 104 49 46 50 47 51 48 52 98 53
REMARK SMILES IDX 49 54 103 55 97 56 99 57 50 58 102 59 96 60 95 61 51 63
REMARK SMILES IDX 83 64 63 65 82 66 64 67 67 68 81 69 100 70 65 71 66 72 80 74
REMARK SMILES IDX 101 75 68 76 52 77 53 78 61 79 54 80 55 81 59 82 62 83 56 84
REMARK SMILES IDX 57 85 60 86 58 87 84 88 85 89 93 90 86 91 87 92 91 93 94 94
REMARK SMILES IDX 88 95 89 96 92 97 90 98 69 99 70 100 78 101 71 102 72 103
REMARK SMILES IDX 76 104 79 105 73 106 74 107 77 108 75 109
REMARK H PARENT 25 16 7 17 99 62 67 73
REMARK Flexibility Score: inf
ROOT
ATOM      1  C   UNL A   1      34.946  31.667  28.564  1.00  0.00     0.188 C 
ENDROOT
BRANCH   1   2
ATOM      2  O   UNL A   1      34.783  30.479  27.812  1.00  0.00    -0.376 OA
BRANCH   2   3
ATOM      3  C   UNL A   1      33.616  30.003  27.174  1.00  0.00     0.202 C 
BRANCH   3   4
ATOM      4  C   UNL A   1      33.606  28.912  26.109  1.00  0.00     0.261 C 
BRANCH   4   5
ATOM      5  O   UNL A   1      33.329  29.301  24.766  1.00  0.00    -0.463 OA
BRANCH   5   6
ATOM      6  C   UNL A   1      33.676  28.558  23.693  1.00  0.00     0.307 C 
ATOM      7  O   UNL A   1      34.244  29.083  22.740  1.00  0.00    -0.252 OA
BRANCH   6   8
ATOM      8  C   UNL A   1      33.191  27.139  23.619  1.00  0.00     0.150 C 
BRANCH   8   9
ATOM      9  C   UNL A   1      32.808  26.670  22.226  1.00  0.00     0.184 C 
ATOM     10  S   UNL A   1      33.387  24.954  21.892  1.00  0.00    -0.020 SA
ATOM     11  C   UNL A   1      31.301  26.507  22.242  1.00  0.00     0.322 C 
ATOM     12  C   UNL A   1      31.925  24.276  22.541  1.00  0.00     0.337 C 
ATOM     13  N   UNL A   1      30.959  25.227  22.573  1.00  0.00    -0.202 N 
ATOM     14  O   UNL A   1      30.495  27.415  22.100  1.00  0.00    -0.246 OA
ATOM     15  N   UNL A   1      31.657  23.085  22.950  1.00  0.00    -0.142 N 
ATOM     16  H   UNL A   1      30.036  25.000  22.828  1.00  0.00     0.316 HD
ATOM     17  H   UNL A   1      30.765  22.855  23.296  1.00  0.00     0.343 HD
BRANCH  15  18
ATOM     18  N   UNL A   1      32.677  22.127  22.885  1.00  0.00    -0.093 NA
ATOM     19  C   UNL A   1      32.772  21.570  24.056  1.00  0.00     0.170 C 
BRANCH  19  20
ATOM     20  C   UNL A   1      33.700  20.487  24.404  1.00  0.00     0.040 A 
ATOM     21  C   UNL A   1      33.213  19.197  24.129  1.00  0.00     0.029 A 
ATOM     22  C   UNL A   1      35.042  20.667  24.777  1.00  0.00     0.128 A 
ATOM     23  C   UNL A   1      34.053  18.091  24.247  1.00  0.00     0.018 A 
ATOM     24  C   UNL A   1      35.847  19.525  24.949  1.00  0.00     0.048 A 
ATOM     25  Br  UNL A   1      33.425  16.374  23.768  1.00  0.00    -0.051 Br
ATOM     26  C   UNL A   1      35.366  18.245  24.673  1.00  0.00     0.019 A 
BRANCH  22  27
ATOM     27  O   UNL A   1      35.785  21.801  24.947  1.00  0.00    -0.488 OA
BRANCH  27  28
ATOM     28  C   UNL A   1      35.778  22.564  26.151  1.00  0.00     0.265 C 
BRANCH  28  29
ATOM     29  C   UNL A   1      34.450  23.185  26.545  1.00  0.00    -0.011 A 
ATOM     30  C   UNL A   1      33.625  22.471  27.429  1.00  0.00     0.007 A 
ATOM     31  C   UNL A   1      33.962  24.371  25.978  1.00  0.00     0.007 A 
ATOM     32  C   UNL A   1      32.303  22.866  27.638  1.00  0.00     0.000 A 
ATOM     33  C   UNL A   1      32.631  24.746  26.163  1.00  0.00     0.000 A 
ATOM     34  C   UNL A   1      31.797  23.983  26.976  1.00  0.00     0.000 A 
ENDBRANCH  28  29
ENDBRANCH  27  28
ENDBRANCH  22  27
ENDBRANCH  19  20
ENDBRANCH  15  18
ENDBRANCH   8   9
ENDBRANCH   6   8
ENDBRANCH   5   6
ENDBRANCH   4   5
ENDBRANCH   3   4
ENDBRANCH   2   3
ENDBRANCH   1   2
BRANCH   1  35
ATOM     35  C   UNL A   1      35.604  32.901  27.940  1.00  0.00     0.188 C 
BRANCH  35  36
ATOM     36  O   UNL A   1      34.762  34.001  27.636  1.00  0.00    -0.377 OA
BRANCH  36  37
ATOM     37  C   UNL A   1      33.520  33.990  28.312  1.00  0.00     0.188 C 
BRANCH  37  38
ATOM     38  C   UNL A   1      33.384  35.084  29.394  1.00  0.00     0.188 C 
BRANCH  38  39
ATOM     39  O   UNL A   1      33.640  34.798  30.755  1.00  0.00    -0.376 OA
BRANCH  39  40
ATOM     40  C   UNL A   1      34.810  34.106  31.158  1.00  0.00     0.202 C 
BRANCH  40  41
ATOM     41  C   UNL A   1      35.508  34.287  32.523  1.00  0.00     0.261 C 
BRANCH  41  42
ATOM     42  O   UNL A   1      36.871  33.869  32.640  1.00  0.00    -0.460 OA
BRANCH  42  43
ATOM     43  C   UNL A   1      37.074  32.679  33.243  1.00  0.00     0.338 C 
ATOM     44  O   UNL A   1      36.435  32.199  34.169  1.00  0.00    -0.246 OA
BRANCH  43  45
ATOM     45  C   UNL A   1      38.061  31.913  32.454  1.00  0.00     0.060 A 
ATOM     46  C   UNL A   1      39.162  31.374  33.133  1.00  0.00     0.016 A 
ATOM     47  C   UNL A   1      37.904  31.698  31.081  1.00  0.00     0.016 A 
ATOM     48  C   UNL A   1      40.132  30.658  32.442  1.00  0.00     0.010 A 
ATOM     49  C   UNL A   1      38.900  31.010  30.378  1.00  0.00     0.010 A 
ATOM     50  C   UNL A   1      40.038  30.528  31.051  1.00  0.00    -0.014 A 
BRANCH  50  51
ATOM     51  C   UNL A   1      41.252  30.106  30.315  1.00  0.00     0.031 A 
ATOM     52  C   UNL A   1      41.239  28.759  29.645  1.00  0.00     0.074 A 
ATOM     53  C   UNL A   1      42.292  30.940  30.145  1.00  0.00     0.049 A 
ATOM     54  N   UNL A   1      42.143  28.196  28.885  1.00  0.00    -0.248 NA
ATOM     55  C   UNL A   1      40.036  27.937  29.855  1.00  0.00     0.031 C 
ATOM     56  C   UNL A   1      42.397  32.284  30.708  1.00  0.00     0.029 A 
ATOM     57  N   UNL A   1      43.456  30.778  29.436  1.00  0.00    -0.354 N 
ATOM     58  C   UNL A   1      41.614  26.966  28.519  1.00  0.00     0.074 A 
ATOM     59  C   UNL A   1      40.332  26.839  29.178  1.00  0.00     0.031 C 
ATOM     60  C   UNL A   1      43.568  32.824  30.327  1.00  0.00     0.029 A 
ATOM     61  C   UNL A   1      44.303  31.854  29.515  1.00  0.00     0.049 A 
ATOM     62  H   UNL A   1      43.663  29.965  28.921  1.00  0.00     0.167 HD
ATOM     63  C   UNL A   1      42.138  26.034  27.689  1.00  0.00     0.037 A 
ATOM     64  C   UNL A   1      45.536  32.026  29.000  1.00  0.00     0.037 A 
ATOM     65  C   UNL A   1      43.419  26.155  27.046  1.00  0.00     0.049 A 
ATOM     66  C   UNL A   1      46.132  30.936  28.143  1.00  0.00     0.074 A 
ATOM     67  C   UNL A   1      44.049  25.262  26.199  1.00  0.00     0.029 A 
ATOM     68  N   UNL A   1      44.271  27.242  27.186  1.00  0.00    -0.354 N 
ATOM     69  N   UNL A   1      45.617  29.784  27.786  1.00  0.00    -0.248 NA
ATOM     70  C   UNL A   1      47.477  31.181  27.605  1.00  0.00     0.031 C 
ATOM     71  C   UNL A   1      45.307  25.781  25.872  1.00  0.00     0.029 A 
ATOM     72  C   UNL A   1      45.432  27.029  26.459  1.00  0.00     0.049 A 
ATOM     73  H   UNL A   1      44.079  28.044  27.723  1.00  0.00     0.167 HD
ATOM     74  C   UNL A   1      46.562  29.178  26.965  1.00  0.00     0.074 A 
ATOM     75  C   UNL A   1      47.667  30.108  26.851  1.00  0.00     0.031 C 
ATOM     76  C   UNL A   1      46.525  27.963  26.362  1.00  0.00     0.037 A 
BRANCH  63  77
ATOM     77  C   UNL A   1      41.332  24.789  27.449  1.00  0.00     0.064 A 
ATOM     78  C   UNL A   1      40.198  24.793  26.621  1.00  0.00     0.173 A 
ATOM     79  C   UNL A   1      41.713  23.570  28.029  1.00  0.00     0.173 A 
ATOM     80  F   UNL A   1      39.777  25.936  26.056  1.00  0.00    -0.203 F 
ATOM     81  C   UNL A   1      39.465  23.629  26.401  1.00  0.00     0.198 A 
ATOM     82  C   UNL A   1      40.999  22.402  27.781  1.00  0.00     0.198 A 
ATOM     83  F   UNL A   1      42.788  23.510  28.830  1.00  0.00    -0.203 F 
ATOM     84  F   UNL A   1      38.359  23.666  25.646  1.00  0.00    -0.200 F 
ATOM     85  C   UNL A   1      39.872  22.433  26.974  1.00  0.00     0.200 A 
ATOM     86  F   UNL A   1      41.401  21.245  28.324  1.00  0.00    -0.200 F 
ATOM     87  F   UNL A   1      39.174  21.310  26.752  1.00  0.00    -0.200 F 
ENDBRANCH  63  77
BRANCH  64  88
ATOM     88  C   UNL A   1      46.304  33.265  29.295  1.00  0.00     0.064 A 
ATOM     89  C   UNL A   1      47.187  33.342  30.382  1.00  0.00     0.173 A 
ATOM     90  C   UNL A   1      46.135  34.419  28.513  1.00  0.00     0.173 A 
ATOM     91  F   UNL A   1      47.365  32.276  31.175  1.00  0.00    -0.203 F 
ATOM     92  C   UNL A   1      47.846  34.530  30.692  1.00  0.00     0.198 A 
ATOM     93  C   UNL A   1      46.824  35.595  28.803  1.00  0.00     0.198 A 
ATOM     94  F   UNL A   1      45.301  34.403  27.463  1.00  0.00    -0.203 F 
ATOM     95  F   UNL A   1      48.635  34.592  31.774  1.00  0.00    -0.200 F 
ATOM     96  C   UNL A   1      47.669  35.654  29.899  1.00  0.00     0.200 A 
ATOM     97  F   UNL A   1      46.660  36.673  28.024  1.00  0.00    -0.200 F 
ATOM     98  F   UNL A   1      48.304  36.795  30.198  1.00  0.00    -0.200 F 
ENDBRANCH  64  88
BRANCH  76  99
ATOM     99  C   UNL A   1      47.702  27.588  25.502  1.00  0.00     0.064 A 
ATOM    100  C   UNL A   1      48.894  27.095  26.054  1.00  0.00     0.173 A 
ATOM    101  C   UNL A   1      47.634  27.721  24.106  1.00  0.00     0.173 A 
ATOM    102  F   UNL A   1      49.017  26.957  27.383  1.00  0.00    -0.203 F 
ATOM    103  C   UNL A   1      49.990  26.801  25.247  1.00  0.00     0.198 A 
ATOM    104  C   UNL A   1      48.718  27.387  23.299  1.00  0.00     0.198 A 
ATOM    105  F   UNL A   1      46.514  28.173  23.522  1.00  0.00    -0.203 F 
ATOM    106  F   UNL A   1      51.143  26.407  25.804  1.00  0.00    -0.200 F 
ATOM    107  C   UNL A   1      49.900  26.942  23.871  1.00  0.00     0.200 A 
ATOM    108  F   UNL A   1      48.621  27.504  21.967  1.00  0.00    -0.200 F 
ATOM    109  F   UNL A   1      50.957  26.662  23.096  1.00  0.00    -0.200 F 
ENDBRANCH  76  99
ENDBRANCH  50  51
ENDBRANCH  43  45
ENDBRANCH  42  43
ENDBRANCH  41  42
ENDBRANCH  40  41
ENDBRANCH  39  40
ENDBRANCH  38  39
ENDBRANCH  37  38
ENDBRANCH  36  37
ENDBRANCH  35  36
ENDBRANCH   1  35
TORSDOF 26
ENDMDL
MODEL 2
REMARK VINA RESULT:      -9.3      1.293      1.962
REMARK SMILES O=C(C[C@H]1S/C(=[NH+]\N=C\c2cc(Br)ccc2OCc2ccccc2)NC1=O)OCCOCCOCCOCCOC(=O)c1ccc(-c2c3nc(c(-c4c(F)c(F)c(F)c(F)c4F)c4ccc([nH]4)c(-c4c(F)c(F)c(F)c(F)c4F)c4nc(c(-c5c(F)c(F)c(F)c(F)c5F)c5ccc2[nH]5)C=C4)C=C3)cc1
REMARK SMILES IDX 32 1 31 2 30 3 29 4 28 5 2 6 1 7 3 8 4 9 5 10 26 11 6 12
REMARK SMILES IDX 25 13 27 14 7 15 8 18 9 19 10 20 11 21 16 22 12 23 15 24
REMARK SMILES IDX 13 25 14 26 17 27 18 28 19 29 20 30 24 31 21 32 23 33 22 34
REMARK SMILES IDX 33 35 34 36 35 37 36 38 37 39 38 40 39 41 40 42 41 43 42 44
REMARK SMILES IDX 43 45 44 46 105 47 45 48 104 49 46 50 47 51 48 52 98 53
REMARK SMILES IDX 49 54 103 55 97 56 99 57 50 58 102 59 96 60 95 61 51 63
REMARK SMILES IDX 83 64 63 65 82 66 64 67 67 68 81 69 100 70 65 71 66 72 80 74
REMARK SMILES IDX 101 75 68 76 52 77 53 78 61 79 54 80 55 81 59 82 62 83 56 84
REMARK SMILES IDX 57 85 60 86 58 87 84 88 85 89 93 90 86 91 87 92 91 93 94 94
REMARK SMILES IDX 88 95 89 96 92 97 90 98 69 99 70 100 78 101 71 102 72 103
REMARK SMILES IDX 76 104 79 105 73 106 74 107 77 108 75 109
REMARK H PARENT 25 16 7 17 99 62 67 73
REMARK Flexibility Score: inf
ROOT
ATOM      1  C   UNL A   1      34.295  31.755  28.241  1.00  0.00     0.188 C 
ENDROOT
BRANCH   1   2
ATOM      2  O   UNL A   1      33.557  31.051  27.262  1.00  0.00    -0.376 OA
BRANCH   2   3
ATOM      3  C   UNL A   1      32.287  31.369  26.729  1.00  0.00     0.202 C 
BRANCH   3   4
ATOM      4  C   UNL A   1      31.380  30.369  26.021  1.00  0.00     0.261 C 
BRANCH   4   5
ATOM      5  O   UNL A   1      30.680  30.816  24.862  1.00  0.00    -0.463 OA
BRANCH   5   6
ATOM      6  C   UNL A   1      30.351  30.003  23.835  1.00  0.00     0.307 C 
ATOM      7  O   UNL A   1      29.674  30.430  22.906  1.00  0.00    -0.252 OA
BRANCH   6   8
ATOM      8  C   UNL A   1      30.672  28.541  23.950  1.00  0.00     0.150 C 
BRANCH   8   9
ATOM      9  C   UNL A   1      29.972  27.655  22.935  1.00  0.00     0.184 C 
ATOM     10  S   UNL A   1      30.791  26.013  22.770  1.00  0.00    -0.020 SA
ATOM     11  C   UNL A   1      28.637  27.290  23.552  1.00  0.00     0.322 C 
ATOM     12  C   UNL A   1      29.826  25.342  24.049  1.00  0.00     0.337 C 
ATOM     13  N   UNL A   1      28.731  26.117  24.245  1.00  0.00    -0.202 N 
ATOM     14  O   UNL A   1      27.641  27.999  23.541  1.00  0.00    -0.246 OA
ATOM     15  N   UNL A   1      29.992  24.285  24.766  1.00  0.00    -0.142 N 
ATOM     16  H   UNL A   1      28.022  25.841  24.871  1.00  0.00     0.316 HD
ATOM     17  H   UNL A   1      29.344  24.037  25.463  1.00  0.00     0.343 HD
BRANCH  15  18
ATOM     18  N   UNL A   1      31.127  23.502  24.520  1.00  0.00    -0.093 NA
ATOM     19  C   UNL A   1      31.159  22.559  25.414  1.00  0.00     0.170 C 
BRANCH  19  20
ATOM     20  C   UNL A   1      32.172  21.499  25.491  1.00  0.00     0.040 A 
ATOM     21  C   UNL A   1      32.010  20.475  24.542  1.00  0.00     0.029 A 
ATOM     22  C   UNL A   1      33.338  21.557  26.272  1.00  0.00     0.128 A 
ATOM     23  C   UNL A   1      32.995  19.501  24.387  1.00  0.00     0.018 A 
ATOM     24  C   UNL A   1      34.283  20.523  26.137  1.00  0.00     0.048 A 
ATOM     25  Br  UNL A   1      32.825  18.192  23.034  1.00  0.00    -0.051 Br
ATOM     26  C   UNL A   1      34.126  19.509  25.193  1.00  0.00     0.019 A 
BRANCH  22  27
ATOM     27  O   UNL A   1      33.797  22.511  27.136  1.00  0.00    -0.488 OA
BRANCH  27  28
ATOM     28  C   UNL A   1      34.121  23.838  26.730  1.00  0.00     0.265 C 
BRANCH  28  29
ATOM     29  C   UNL A   1      34.574  24.010  25.293  1.00  0.00    -0.011 A 
ATOM     30  C   UNL A   1      34.016  25.060  24.545  1.00  0.00     0.007 A 
ATOM     31  C   UNL A   1      35.428  23.104  24.647  1.00  0.00     0.007 A 
ATOM     32  C   UNL A   1      34.205  25.124  23.164  1.00  0.00     0.000 A 
ATOM     33  C   UNL A   1      35.589  23.151  23.261  1.00  0.00     0.000 A 
ATOM     34  C   UNL A   1      34.961  24.148  22.519  1.00  0.00     0.000 A 
ENDBRANCH  28  29
ENDBRANCH  27  28
ENDBRANCH  22  27
ENDBRANCH  19  20
ENDBRANCH  15  18
ENDBRANCH   8   9
ENDBRANCH   6   8
ENDBRANCH   5   6
ENDBRANCH   4   5
ENDBRANCH   3   4
ENDBRANCH   2   3
ENDBRANCH   1   2
BRANCH   1  35
ATOM     35  C   UNL A   1      35.195  32.929  27.847  1.00  0.00     0.188 C 
BRANCH  35  36
ATOM     36  O   UNL A   1      34.610  34.222  27.848  1.00  0.00    -0.377 OA
BRANCH  36  37
ATOM     37  C   UNL A   1      33.260  34.252  28.266  1.00  0.00     0.188 C 
BRANCH  37  38
ATOM     38  C   UNL A   1      32.983  35.231  29.428  1.00  0.00     0.188 C 
BRANCH  38  39
ATOM     39  O   UNL A   1      33.304  34.888  30.762  1.00  0.00    -0.376 OA
BRANCH  39  40
ATOM     40  C   UNL A   1      34.514  34.223  31.084  1.00  0.00     0.202 C 
BRANCH  40  41
ATOM     41  C   UNL A   1      35.131  34.164  32.498  1.00  0.00     0.261 C 
BRANCH  41  42
ATOM     42  O   UNL A   1      36.529  33.883  32.609  1.00  0.00    -0.460 OA
BRANCH  42  43
ATOM     43  C   UNL A   1      36.852  32.728  33.227  1.00  0.00     0.338 C 
ATOM     44  O   UNL A   1      36.313  32.237  34.209  1.00  0.00    -0.246 OA
BRANCH  43  45
ATOM     45  C   UNL A   1      37.831  32.003  32.390  1.00  0.00     0.060 A 
ATOM     46  C   UNL A   1      38.753  31.170  33.039  1.00  0.00     0.016 A 
ATOM     47  C   UNL A   1      37.834  32.108  30.996  1.00  0.00     0.016 A 
ATOM     48  C   UNL A   1      39.708  30.476  32.307  1.00  0.00     0.010 A 
ATOM     49  C   UNL A   1      38.820  31.439  30.261  1.00  0.00     0.010 A 
ATOM     50  C   UNL A   1      39.786  30.657  30.921  1.00  0.00    -0.014 A 
BRANCH  50  51
ATOM     51  C   UNL A   1      41.025  30.218  30.237  1.00  0.00     0.031 A 
ATOM     52  C   UNL A   1      41.033  28.856  29.597  1.00  0.00     0.074 A 
ATOM     53  C   UNL A   1      42.071  31.048  30.085  1.00  0.00     0.049 A 
ATOM     54  N   UNL A   1      41.962  28.276  28.882  1.00  0.00    -0.248 NA
ATOM     55  C   UNL A   1      39.822  28.040  29.783  1.00  0.00     0.031 C 
ATOM     56  C   UNL A   1      42.159  32.404  30.621  1.00  0.00     0.029 A 
ATOM     57  N   UNL A   1      43.258  30.869  29.421  1.00  0.00    -0.354 N 
ATOM     58  C   UNL A   1      41.444  27.039  28.524  1.00  0.00     0.074 A 
ATOM     59  C   UNL A   1      40.140  26.928  29.141  1.00  0.00     0.031 C 
ATOM     60  C   UNL A   1      43.343  32.934  30.269  1.00  0.00     0.029 A 
ATOM     61  C   UNL A   1      44.104  31.946  29.505  1.00  0.00     0.049 A 
ATOM     62  H   UNL A   1      43.482  30.044  28.931  1.00  0.00     0.167 HD
ATOM     63  C   UNL A   1      41.995  26.088  27.734  1.00  0.00     0.037 A 
ATOM     64  C   UNL A   1      45.354  32.105  29.030  1.00  0.00     0.037 A 
ATOM     65  C   UNL A   1      43.298  26.194  27.134  1.00  0.00     0.049 A 
ATOM     66  C   UNL A   1      45.979  30.997  28.219  1.00  0.00     0.074 A 
ATOM     67  C   UNL A   1      43.956  25.281  26.329  1.00  0.00     0.029 A 
ATOM     68  N   UNL A   1      44.147  27.283  27.279  1.00  0.00    -0.354 N 
ATOM     69  N   UNL A   1      45.475  29.836  27.869  1.00  0.00    -0.248 NA
ATOM     70  C   UNL A   1      47.342  31.228  27.723  1.00  0.00     0.031 C 
ATOM     71  C   UNL A   1      45.225  25.792  26.035  1.00  0.00     0.029 A 
ATOM     72  C   UNL A   1      45.332  27.054  26.598  1.00  0.00     0.049 A 
ATOM     73  H   UNL A   1      43.937  28.097  27.792  1.00  0.00     0.167 HD
ATOM     74  C   UNL A   1      46.446  29.213  27.096  1.00  0.00     0.074 A 
ATOM     75  C   UNL A   1      47.556  30.139  27.000  1.00  0.00     0.031 C 
ATOM     76  C   UNL A   1      46.429  27.984  26.519  1.00  0.00     0.037 A 
BRANCH  63  77
ATOM     77  C   UNL A   1      41.196  24.839  27.494  1.00  0.00     0.064 A 
ATOM     78  C   UNL A   1      40.147  24.803  26.562  1.00  0.00     0.173 A 
ATOM     79  C   UNL A   1      41.500  23.655  28.181  1.00  0.00     0.173 A 
ATOM     80  F   UNL A   1      39.801  25.912  25.889  1.00  0.00    -0.203 F 
ATOM     81  C   UNL A   1      39.421  23.634  26.343  1.00  0.00     0.198 A 
ATOM     82  C   UNL A   1      40.794  22.480  27.937  1.00  0.00     0.198 A 
ATOM     83  F   UNL A   1      42.493  23.634  29.085  1.00  0.00    -0.203 F 
ATOM     84  F   UNL A   1      38.393  23.636  25.483  1.00  0.00    -0.200 F 
ATOM     85  C   UNL A   1      39.751  22.472  27.024  1.00  0.00     0.200 A 
ATOM     86  F   UNL A   1      41.124  21.355  28.587  1.00  0.00    -0.200 F 
ATOM     87  F   UNL A   1      39.060  21.345  26.805  1.00  0.00    -0.200 F 
ENDBRANCH  63  77
BRANCH  64  88
ATOM     88  C   UNL A   1      46.113  33.350  29.325  1.00  0.00     0.064 A 
ATOM     89  C   UNL A   1      46.986  33.438  30.418  1.00  0.00     0.173 A 
ATOM     90  C   UNL A   1      45.946  34.498  28.534  1.00  0.00     0.173 A 
ATOM     91  F   UNL A   1      47.163  32.378  31.220  1.00  0.00    -0.203 F 
ATOM     92  C   UNL A   1      47.637  34.631  30.727  1.00  0.00     0.198 A 
ATOM     93  C   UNL A   1      46.626  35.680  28.823  1.00  0.00     0.198 A 
ATOM     94  F   UNL A   1      45.122  34.472  27.476  1.00  0.00    -0.203 F 
ATOM     95  F   UNL A   1      48.416  34.704  31.815  1.00  0.00    -0.200 F 
ATOM     96  C   UNL A   1      47.461  35.749  29.926  1.00  0.00     0.200 A 
ATOM     97  F   UNL A   1      46.464  36.751  28.035  1.00  0.00    -0.200 F 
ATOM     98  F   UNL A   1      48.088  36.895  30.223  1.00  0.00    -0.200 F 
ENDBRANCH  64  88
BRANCH  76  99
ATOM     99  C   UNL A   1      47.634  27.590  25.709  1.00  0.00     0.064 A 
ATOM    100  C   UNL A   1      47.692  27.789  24.322  1.00  0.00     0.173 A 
ATOM    101  C   UNL A   1      48.750  27.008  26.332  1.00  0.00     0.173 A 
ATOM    102  F   UNL A   1      46.650  28.333  23.673  1.00  0.00    -0.203 F 
ATOM    103  C   UNL A   1      48.795  27.371  23.582  1.00  0.00     0.198 A 
ATOM    104  C   UNL A   1      49.869  26.629  25.596  1.00  0.00     0.198 A 
ATOM    105  F   UNL A   1      48.757  26.807  27.659  1.00  0.00    -0.203 F 
ATOM    106  F   UNL A   1      48.793  27.500  22.248  1.00  0.00    -0.200 F 
ATOM    107  C   UNL A   1      49.884  26.797  24.219  1.00  0.00     0.200 A 
ATOM    108  F   UNL A   1      50.929  26.093  26.217  1.00  0.00    -0.200 F 
ATOM    109  F   UNL A   1      50.944  26.392  23.506  1.00  0.00    -0.200 F 
ENDBRANCH  76  99
ENDBRANCH  50  51
ENDBRANCH  43  45
ENDBRANCH  42  43
ENDBRANCH  41  42
ENDBRANCH  40  41
ENDBRANCH  39  40
ENDBRANCH  38  39
ENDBRANCH  37  38
ENDBRANCH  36  37
ENDBRANCH  35  36
ENDBRANCH   1  35
TORSDOF 26
ENDMDL
MODEL 3
REMARK VINA RESULT:      -9.2      6.508      9.886
REMARK SMILES O=C(C[C@H]1S/C(=[NH+]\N=C\c2cc(Br)ccc2OCc2ccccc2)NC1=O)OCCOCCOCCOCCOC(=O)c1ccc(-c2c3nc(c(-c4c(F)c(F)c(F)c(F)c4F)c4ccc([nH]4)c(-c4c(F)c(F)c(F)c(F)c4F)c4nc(c(-c5c(F)c(F)c(F)c(F)c5F)c5ccc2[nH]5)C=C4)C=C3)cc1
REMARK SMILES IDX 32 1 31 2 30 3 29 4 28 5 2 6 1 7 3 8 4 9 5 10 26 11 6 12
REMARK SMILES IDX 25 13 27 14 7 15 8 18 9 19 10 20 11 21 16 22 12 23 15 24
REMARK SMILES IDX 13 25 14 26 17 27 18 28 19 29 20 30 24 31 21 32 23 33 22 34
REMARK SMILES IDX 33 35 34 36 35 37 36 38 37 39 38 40 39 41 40 42 41 43 42 44
REMARK SMILES IDX 43 45 44 46 105 47 45 48 104 49 46 50 47 51 48 52 98 53
REMARK SMILES IDX 49 54 103 55 97 56 99 57 50 58 102 59 96 60 95 61 51 63
REMARK SMILES IDX 83 64 63 65 82 66 64 67 67 68 81 69 100 70 65 71 66 72 80 74
REMARK SMILES IDX 101 75 68 76 52 77 53 78 61 79 54 80 55 81 59 82 62 83 56 84
REMARK SMILES IDX 57 85 60 86 58 87 84 88 85 89 93 90 86 91 87 92 91 93 94 94
REMARK SMILES IDX 88 95 89 96 92 97 90 98 69 99 70 100 78 101 71 102 72 103
REMARK SMILES IDX 76 104 79 105 73 106 74 107 77 108 75 109
REMARK H PARENT 25 16 7 17 99 62 67 73
REMARK Flexibility Score: inf
ROOT
ATOM      1  C   UNL A   1      39.387  24.607  27.624  1.00  0.00     0.188 C 
ENDROOT
BRANCH   1   2
ATOM      2  O   UNL A   1      39.274  23.368  26.950  1.00  0.00    -0.376 OA
BRANCH   2   3
ATOM      3  C   UNL A   1      38.322  22.987  25.978  1.00  0.00     0.202 C 
BRANCH   3   4
ATOM      4  C   UNL A   1      38.199  21.579  25.405  1.00  0.00     0.261 C 
BRANCH   4   5
ATOM      5  O   UNL A   1      37.169  21.341  24.448  1.00  0.00    -0.463 OA
BRANCH   5   6
ATOM      6  C   UNL A   1      35.998  20.743  24.754  1.00  0.00     0.307 C 
ATOM      7  O   UNL A   1      35.953  19.529  24.921  1.00  0.00    -0.252 OA
BRANCH   6   8
ATOM      8  C   UNL A   1      34.741  21.564  24.701  1.00  0.00     0.150 C 
BRANCH   8   9
ATOM      9  C   UNL A   1      33.978  21.644  26.012  1.00  0.00     0.184 C 
ATOM     10  S   UNL A   1      33.093  23.249  26.199  1.00  0.00    -0.020 SA
ATOM     11  C   UNL A   1      32.836  20.655  25.890  1.00  0.00     0.322 C 
ATOM     12  C   UNL A   1      31.683  22.627  25.397  1.00  0.00     0.337 C 
ATOM     13  N   UNL A   1      31.717  21.271  25.407  1.00  0.00    -0.202 N 
ATOM     14  O   UNL A   1      32.927  19.451  26.078  1.00  0.00    -0.246 OA
ATOM     15  N   UNL A   1      30.688  23.233  24.851  1.00  0.00    -0.142 N 
ATOM     16  H   UNL A   1      30.953  20.745  25.076  1.00  0.00     0.316 HD
ATOM     17  H   UNL A   1      29.954  22.729  24.430  1.00  0.00     0.343 HD
BRANCH  15  18
ATOM     18  N   UNL A   1      30.683  24.634  24.875  1.00  0.00    -0.093 NA
ATOM     19  C   UNL A   1      30.764  25.052  23.647  1.00  0.00     0.170 C 
BRANCH  19  20
ATOM     20  C   UNL A   1      30.754  26.460  23.231  1.00  0.00     0.040 A 
ATOM     21  C   UNL A   1      29.474  27.038  23.177  1.00  0.00     0.029 A 
ATOM     22  C   UNL A   1      31.896  27.265  23.095  1.00  0.00     0.128 A 
ATOM     23  C   UNL A   1      29.332  28.408  22.967  1.00  0.00     0.018 A 
ATOM     24  C   UNL A   1      31.719  28.634  22.821  1.00  0.00     0.048 A 
ATOM     25  Br  UNL A   1      27.615  29.197  23.008  1.00  0.00    -0.051 Br
ATOM     26  C   UNL A   1      30.449  29.210  22.771  1.00  0.00     0.019 A 
BRANCH  22  27
ATOM     27  O   UNL A   1      33.223  26.982  23.256  1.00  0.00    -0.488 OA
BRANCH  27  28
ATOM     28  C   UNL A   1      33.836  26.820  24.533  1.00  0.00     0.265 C 
BRANCH  28  29
ATOM     29  C   UNL A   1      33.327  27.723  25.642  1.00  0.00    -0.011 A 
ATOM     30  C   UNL A   1      32.335  27.221  26.500  1.00  0.00     0.007 A 
ATOM     31  C   UNL A   1      33.714  29.065  25.773  1.00  0.00     0.007 A 
ATOM     32  C   UNL A   1      31.659  28.071  27.375  1.00  0.00     0.000 A 
ATOM     33  C   UNL A   1      33.015  29.921  26.626  1.00  0.00     0.000 A 
ATOM     34  C   UNL A   1      31.976  29.428  27.411  1.00  0.00     0.000 A 
ENDBRANCH  28  29
ENDBRANCH  27  28
ENDBRANCH  22  27
ENDBRANCH  19  20
ENDBRANCH  15  18
ENDBRANCH   8   9
ENDBRANCH   6   8
ENDBRANCH   5   6
ENDBRANCH   4   5
ENDBRANCH   3   4
ENDBRANCH   2   3
ENDBRANCH   1   2
BRANCH   1  35
ATOM     35  C   UNL A   1      40.058  25.806  26.947  1.00  0.00     0.188 C 
BRANCH  35  36
ATOM     36  O   UNL A   1      40.759  26.712  27.783  1.00  0.00    -0.377 OA
BRANCH  36  37
ATOM     37  C   UNL A   1      40.570  28.075  27.455  1.00  0.00     0.188 C 
BRANCH  37  38
ATOM     38  C   UNL A   1      40.208  28.967  28.663  1.00  0.00     0.188 C 
BRANCH  38  39
ATOM     39  O   UNL A   1      39.019  29.734  28.671  1.00  0.00    -0.376 OA
BRANCH  39  40
ATOM     40  C   UNL A   1      37.779  29.181  28.262  1.00  0.00     0.202 C 
BRANCH  40  41
ATOM     41  C   UNL A   1      36.398  29.689  28.729  1.00  0.00     0.261 C 
BRANCH  41  42
ATOM     42  O   UNL A   1      36.261  30.107  30.090  1.00  0.00    -0.460 OA
BRANCH  42  43
ATOM     43  C   UNL A   1      36.728  31.340  30.379  1.00  0.00     0.338 C 
ATOM     44  O   UNL A   1      36.439  32.390  29.825  1.00  0.00    -0.246 OA
BRANCH  43  45
ATOM     45  C   UNL A   1      37.487  31.271  31.646  1.00  0.00     0.060 A 
ATOM     46  C   UNL A   1      38.562  32.155  31.810  1.00  0.00     0.016 A 
ATOM     47  C   UNL A   1      37.141  30.383  32.668  1.00  0.00     0.016 A 
ATOM     48  C   UNL A   1      39.322  32.127  32.973  1.00  0.00     0.010 A 
ATOM     49  C   UNL A   1      37.930  30.327  33.823  1.00  0.00     0.010 A 
ATOM     50  C   UNL A   1      39.049  31.169  33.957  1.00  0.00    -0.014 A 
BRANCH  50  51
ATOM     51  C   UNL A   1      40.090  30.917  34.981  1.00  0.00     0.031 A 
ATOM     52  C   UNL A   1      40.978  29.716  34.802  1.00  0.00     0.074 A 
ATOM     53  C   UNL A   1      40.318  31.790  35.975  1.00  0.00     0.049 A 
ATOM     54  N   UNL A   1      42.002  29.323  35.515  1.00  0.00    -0.248 NA
ATOM     55  C   UNL A   1      40.675  28.844  33.656  1.00  0.00     0.031 C 
ATOM     56  C   UNL A   1      39.553  33.010  36.222  1.00  0.00     0.029 A 
ATOM     57  N   UNL A   1      41.274  31.787  36.960  1.00  0.00    -0.354 N 
ATOM     58  C   UNL A   1      42.470  28.169  34.898  1.00  0.00     0.074 A 
ATOM     59  C   UNL A   1      41.590  27.896  33.783  1.00  0.00     0.031 C 
ATOM     60  C   UNL A   1      40.066  33.636  37.295  1.00  0.00     0.029 A 
ATOM     61  C   UNL A   1      41.179  32.848  37.824  1.00  0.00     0.049 A 
ATOM     62  H   UNL A   1      41.963  31.087  37.039  1.00  0.00     0.167 HD
ATOM     63  C   UNL A   1      43.549  27.417  35.218  1.00  0.00     0.037 A 
ATOM     64  C   UNL A   1      41.902  33.138  38.923  1.00  0.00     0.037 A 
ATOM     65  C   UNL A   1      44.413  27.683  36.336  1.00  0.00     0.049 A 
ATOM     66  C   UNL A   1      43.051  32.239  39.305  1.00  0.00     0.074 A 
ATOM     67  C   UNL A   1      45.524  26.974  36.757  1.00  0.00     0.029 A 
ATOM     68  N   UNL A   1      44.259  28.743  37.218  1.00  0.00    -0.354 N 
ATOM     69  N   UNL A   1      43.498  31.160  38.706  1.00  0.00    -0.248 NA
ATOM     70  C   UNL A   1      43.806  32.607  40.510  1.00  0.00     0.031 C 
ATOM     71  C   UNL A   1      46.008  27.572  37.926  1.00  0.00     0.029 A 
ATOM     72  C   UNL A   1      45.240  28.694  38.195  1.00  0.00     0.049 A 
ATOM     73  H   UNL A   1      43.554  29.429  37.158  1.00  0.00     0.167 HD
ATOM     74  C   UNL A   1      44.597  30.737  39.445  1.00  0.00     0.074 A 
ATOM     75  C   UNL A   1      44.768  31.696  40.517  1.00  0.00     0.031 C 
ATOM     76  C   UNL A   1      45.392  29.653  39.259  1.00  0.00     0.037 A 
BRANCH  63  77
ATOM     77  C   UNL A   1      43.838  26.221  34.357  1.00  0.00     0.064 A 
ATOM     78  C   UNL A   1      44.605  26.324  33.186  1.00  0.00     0.173 A 
ATOM     79  C   UNL A   1      43.369  24.950  34.722  1.00  0.00     0.173 A 
ATOM     80  F   UNL A   1      45.063  27.518  32.780  1.00  0.00    -0.203 F 
ATOM     81  C   UNL A   1      44.873  25.203  32.403  1.00  0.00     0.198 A 
ATOM     82  C   UNL A   1      43.666  23.827  33.955  1.00  0.00     0.198 A 
ATOM     83  F   UNL A   1      42.630  24.796  35.831  1.00  0.00    -0.203 F 
ATOM     84  F   UNL A   1      45.567  25.333  31.263  1.00  0.00    -0.200 F 
ATOM     85  C   UNL A   1      44.411  23.955  32.793  1.00  0.00     0.200 A 
ATOM     86  F   UNL A   1      43.230  22.620  34.341  1.00  0.00    -0.200 F 
ATOM     87  F   UNL A   1      44.679  22.876  32.045  1.00  0.00    -0.200 F 
ENDBRANCH  63  77
BRANCH  64  88
ATOM     88  C   UNL A   1      41.552  34.319  39.758  1.00  0.00     0.064 A 
ATOM     89  C   UNL A   1      40.613  34.233  40.796  1.00  0.00     0.173 A 
ATOM     90  C   UNL A   1      42.125  35.575  39.504  1.00  0.00     0.173 A 
ATOM     91  F   UNL A   1      40.017  33.062  41.064  1.00  0.00    -0.203 F 
ATOM     92  C   UNL A   1      40.239  35.361  41.525  1.00  0.00     0.198 A 
ATOM     93  C   UNL A   1      41.777  36.694  40.258  1.00  0.00     0.198 A 
ATOM     94  F   UNL A   1      43.028  35.716  38.522  1.00  0.00    -0.203 F 
ATOM     95  F   UNL A   1      39.292  35.262  42.468  1.00  0.00    -0.200 F 
ATOM     96  C   UNL A   1      40.826  36.589  41.259  1.00  0.00     0.200 A 
ATOM     97  F   UNL A   1      42.360  37.874  40.007  1.00  0.00    -0.200 F 
ATOM     98  F   UNL A   1      40.467  37.672  41.962  1.00  0.00    -0.200 F 
ENDBRANCH  64  88
BRANCH  76  99
ATOM     99  C   UNL A   1      46.535  29.469  40.221  1.00  0.00     0.064 A 
ATOM    100  C   UNL A   1      47.786  30.067  40.008  1.00  0.00     0.173 A 
ATOM    101  C   UNL A   1      46.373  28.685  41.375  1.00  0.00     0.173 A 
ATOM    102  F   UNL A   1      47.998  30.818  38.917  1.00  0.00    -0.203 F 
ATOM    103  C   UNL A   1      48.846  29.844  40.882  1.00  0.00     0.198 A 
ATOM    104  C   UNL A   1      47.424  28.498  42.270  1.00  0.00     0.198 A 
ATOM    105  F   UNL A   1      45.194  28.101  41.639  1.00  0.00    -0.203 F 
ATOM    106  F   UNL A   1      50.053  30.361  40.615  1.00  0.00    -0.200 F 
ATOM    107  C   UNL A   1      48.663  29.064  42.015  1.00  0.00     0.200 A 
ATOM    108  F   UNL A   1      47.238  27.761  43.374  1.00  0.00    -0.200 F 
ATOM    109  F   UNL A   1      49.686  28.847  42.853  1.00  0.00    -0.200 F 
ENDBRANCH  76  99
ENDBRANCH  50  51
ENDBRANCH  43  45
ENDBRANCH  42  43
ENDBRANCH  41  42
ENDBRANCH  40  41
ENDBRANCH  39  40
ENDBRANCH  38  39
ENDBRANCH  37  38
ENDBRANCH  36  37
ENDBRANCH  35  36
ENDBRANCH   1  35
TORSDOF 26
ENDMDL
