MODEL 1
REMARK VINA RESULT:     -10.6      0.000      0.000
REMARK SMILES Cc1cscc1C(=O)Nc1cc(Br)ccc1C(=O)OCCOCCOCCOCCOC(=O)c1ccc(-c2c3nc(c(-c4c(F)c(F)c(F)c(F)c4F)c4ccc([nH]4)c(-c4c(F)c(F)c(F)c(F)c4F)c4nc(c(-c5c(F)c(F)c(F)c(F)c5F)c5ccc2[nH]5)C=C4)C=C3)cc1
REMARK SMILES IDX 25 1 24 2 23 3 22 4 21 5 20 6 19 7 17 8 18 9 16 10 10 11
REMARK SMILES IDX 11 12 12 13 15 14 13 15 14 16 9 17 7 18 8 19 6 21 1 22 2 23
REMARK SMILES IDX 3 24 4 25 5 26 26 27 27 28 28 29 29 30 30 31 31 32 32 33
REMARK SMILES IDX 33 34 34 35 35 36 96 37 36 38 95 39 37 40 38 41 39 42 89 43
REMARK SMILES IDX 40 44 94 45 88 46 90 47 41 48 93 49 87 50 86 51 42 53 74 54
REMARK SMILES IDX 54 55 73 56 55 57 58 58 72 59 91 60 56 61 57 62 71 64 92 65
REMARK SMILES IDX 59 66 43 67 44 68 52 69 45 70 46 71 50 72 53 73 47 74 48 75
REMARK SMILES IDX 51 76 49 77 75 78 76 79 84 80 77 81 78 82 82 83 85 84 79 85
REMARK SMILES IDX 80 86 83 87 81 88 60 89 61 90 69 91 62 92 63 93 67 94 70 95
REMARK SMILES IDX 64 96 65 97 68 98 66 99
REMARK H PARENT 9 20 90 52 58 63
REMARK Flexibility Score: inf
ROOT
ATOM      1  O   UNL A   1      31.471  28.706  23.642  1.00  0.00    -0.377 OA
ENDROOT
BRANCH   1   2
ATOM      2  C   UNL A   1      32.368  27.747  23.110  1.00  0.00     0.188 C 
BRANCH   2   3
ATOM      3  C   UNL A   1      31.771  26.365  22.796  1.00  0.00     0.188 C 
BRANCH   3   4
ATOM      4  O   UNL A   1      32.375  25.740  21.679  1.00  0.00    -0.376 OA
BRANCH   4   5
ATOM      5  C   UNL A   1      32.907  24.434  21.795  1.00  0.00     0.202 C 
BRANCH   5   6
ATOM      6  C   UNL A   1      33.295  23.832  23.160  1.00  0.00     0.261 C 
BRANCH   6   7
ATOM      7  O   UNL A   1      33.316  22.402  23.268  1.00  0.00    -0.460 OA
BRANCH   7   8
ATOM      8  C   UNL A   1      32.259  21.824  23.870  1.00  0.00     0.340 C 
ATOM      9  O   UNL A   1      31.157  22.333  23.997  1.00  0.00    -0.246 OA
BRANCH   8  10
ATOM     10  C   UNL A   1      32.559  20.414  24.268  1.00  0.00     0.083 A 
ATOM     11  C   UNL A   1      32.826  19.953  25.580  1.00  0.00     0.057 A 
ATOM     12  C   UNL A   1      32.772  18.579  25.826  1.00  0.00     0.042 A 
ATOM     13  C   UNL A   1      32.710  17.679  24.760  1.00  0.00     0.020 A 
ATOM     14  C   UNL A   1      32.593  19.498  23.203  1.00  0.00     0.019 A 
ATOM     15  Br  UNL A   1      32.700  15.819  25.097  1.00  0.00    -0.051 Br
ATOM     16  C   UNL A   1      32.710  18.134  23.446  1.00  0.00     0.017 A 
BRANCH  11  17
ATOM     17  N   UNL A   1      33.172  20.861  26.591  1.00  0.00    -0.321 N 
ATOM     18  C   UNL A   1      34.293  21.590  26.916  1.00  0.00     0.256 C 
ATOM     19  O   UNL A   1      34.285  22.072  28.056  1.00  0.00    -0.269 OA
ATOM     20  H   UNL A   1      32.432  21.015  27.223  1.00  0.00     0.170 HD
BRANCH  18  21
ATOM     21  C   UNL A   1      35.444  21.867  26.024  1.00  0.00     0.053 A 
ATOM     22  C   UNL A   1      36.211  19.590  24.846  1.00  0.00     0.046 C 
ATOM     23  C   UNL A   1      36.277  21.051  25.140  1.00  0.00    -0.028 A 
ATOM     24  C   UNL A   1      37.229  21.820  24.484  1.00  0.00     0.069 A 
ATOM     25  S   UNL A   1      37.083  23.482  24.784  1.00  0.00    -0.151 S 
ATOM     26  C   UNL A   1      35.778  23.208  25.837  1.00  0.00     0.079 A 
ENDBRANCH  18  21
ENDBRANCH  11  17
ENDBRANCH   8  10
ENDBRANCH   7   8
ENDBRANCH   6   7
ENDBRANCH   5   6
ENDBRANCH   4   5
ENDBRANCH   3   4
ENDBRANCH   2   3
ENDBRANCH   1   2
BRANCH   1  27
ATOM     27  C   UNL A   1      31.766  29.321  24.898  1.00  0.00     0.188 C 
BRANCH  27  28
ATOM     28  C   UNL A   1      31.104  30.642  25.364  1.00  0.00     0.188 C 
BRANCH  28  29
ATOM     29  O   UNL A   1      31.554  31.115  26.623  1.00  0.00    -0.376 OA
BRANCH  29  30
ATOM     30  C   UNL A   1      31.569  32.510  26.851  1.00  0.00     0.202 C 
BRANCH  30  31
ATOM     31  C   UNL A   1      32.736  33.055  27.682  1.00  0.00     0.261 C 
BRANCH  31  32
ATOM     32  O   UNL A   1      32.964  34.470  27.590  1.00  0.00    -0.460 OA
BRANCH  32  33
ATOM     33  C   UNL A   1      33.110  35.150  28.745  1.00  0.00     0.338 C 
ATOM     34  O   UNL A   1      32.363  36.002  29.201  1.00  0.00    -0.246 OA
BRANCH  33  35
ATOM     35  C   UNL A   1      34.248  34.555  29.473  1.00  0.00     0.060 A 
ATOM     36  C   UNL A   1      35.526  34.597  28.900  1.00  0.00     0.016 A 
ATOM     37  C   UNL A   1      34.052  33.973  30.728  1.00  0.00     0.016 A 
ATOM     38  C   UNL A   1      36.609  34.026  29.570  1.00  0.00     0.010 A 
ATOM     39  C   UNL A   1      35.133  33.383  31.386  1.00  0.00     0.010 A 
ATOM     40  C   UNL A   1      36.409  33.379  30.797  1.00  0.00    -0.014 A 
BRANCH  40  41
ATOM     41  C   UNL A   1      37.487  32.541  31.375  1.00  0.00     0.031 A 
ATOM     42  C   UNL A   1      37.995  32.878  32.749  1.00  0.00     0.074 A 
ATOM     43  C   UNL A   1      38.001  31.497  30.702  1.00  0.00     0.049 A 
ATOM     44  N   UNL A   1      38.967  32.338  33.437  1.00  0.00    -0.248 NA
ATOM     45  C   UNL A   1      37.311  33.984  33.440  1.00  0.00     0.031 C 
ATOM     46  C   UNL A   1      37.570  31.049  29.381  1.00  0.00     0.029 A 
ATOM     47  N   UNL A   1      39.015  30.635  31.039  1.00  0.00    -0.354 N 
ATOM     48  C   UNL A   1      39.018  33.042  34.633  1.00  0.00     0.074 A 
ATOM     49  C   UNL A   1      38.002  34.069  34.565  1.00  0.00     0.031 C 
ATOM     50  C   UNL A   1      38.324  29.999  29.011  1.00  0.00     0.029 A 
ATOM     51  C   UNL A   1      39.315  29.728  30.052  1.00  0.00     0.049 A 
ATOM     52  H   UNL A   1      39.482  30.664  31.905  1.00  0.00     0.167 HD
ATOM     53  C   UNL A   1      39.836  32.845  35.694  1.00  0.00     0.037 A 
ATOM     54  C   UNL A   1      40.297  28.807  29.990  1.00  0.00     0.037 A 
ATOM     55  C   UNL A   1      40.852  31.826  35.752  1.00  0.00     0.049 A 
ATOM     56  C   UNL A   1      41.248  28.660  31.151  1.00  0.00     0.074 A 
ATOM     57  C   UNL A   1      41.718  31.530  36.789  1.00  0.00     0.029 A 
ATOM     58  N   UNL A   1      41.146  30.946  34.721  1.00  0.00    -0.354 N 
ATOM     59  N   UNL A   1      41.273  29.305  32.293  1.00  0.00    -0.248 NA
ATOM     60  C   UNL A   1      42.309  27.650  31.014  1.00  0.00     0.031 C 
ATOM     61  C   UNL A   1      42.581  30.516  36.361  1.00  0.00     0.029 A 
ATOM     62  C   UNL A   1      42.205  30.129  35.085  1.00  0.00     0.049 A 
ATOM     63  H   UNL A   1      40.674  30.907  33.858  1.00  0.00     0.167 HD
ATOM     64  C   UNL A   1      42.326  28.761  33.019  1.00  0.00     0.074 A 
ATOM     65  C   UNL A   1      42.906  27.722  32.196  1.00  0.00     0.031 C 
ATOM     66  C   UNL A   1      42.771  29.093  34.257  1.00  0.00     0.037 A 
BRANCH  53  67
ATOM     67  C   UNL A   1      39.689  33.774  36.864  1.00  0.00     0.064 A 
ATOM     68  C   UNL A   1      38.887  33.455  37.971  1.00  0.00     0.173 A 
ATOM     69  C   UNL A   1      40.381  34.995  36.890  1.00  0.00     0.173 A 
ATOM     70  F   UNL A   1      38.192  32.308  37.992  1.00  0.00    -0.203 F 
ATOM     71  C   UNL A   1      38.758  34.336  39.041  1.00  0.00     0.198 A 
ATOM     72  C   UNL A   1      40.279  35.857  37.978  1.00  0.00     0.198 A 
ATOM     73  F   UNL A   1      41.166  35.350  35.860  1.00  0.00    -0.203 F 
ATOM     74  F   UNL A   1      37.942  34.035  40.061  1.00  0.00    -0.200 F 
ATOM     75  C   UNL A   1      39.460  35.532  39.048  1.00  0.00     0.200 A 
ATOM     76  F   UNL A   1      40.970  37.005  37.989  1.00  0.00    -0.200 F 
ATOM     77  F   UNL A   1      39.341  36.375  40.083  1.00  0.00    -0.200 F 
ENDBRANCH  53  67
BRANCH  54  78
ATOM     78  C   UNL A   1      40.443  27.958  28.776  1.00  0.00     0.064 A 
ATOM     79  C   UNL A   1      41.213  28.382  27.684  1.00  0.00     0.173 A 
ATOM     80  C   UNL A   1      39.798  26.717  28.674  1.00  0.00     0.173 A 
ATOM     81  F   UNL A   1      41.827  29.575  27.720  1.00  0.00    -0.203 F 
ATOM     82  C   UNL A   1      41.318  27.606  26.532  1.00  0.00     0.198 A 
ATOM     83  C   UNL A   1      39.930  25.926  27.534  1.00  0.00     0.198 A 
ATOM     84  F   UNL A   1      39.041  26.268  29.686  1.00  0.00    -0.203 F 
ATOM     85  F   UNL A   1      42.018  28.059  25.482  1.00  0.00    -0.200 F 
ATOM     86  C   UNL A   1      40.683  26.375  26.461  1.00  0.00     0.200 A 
ATOM     87  F   UNL A   1      39.322  24.734  27.474  1.00  0.00    -0.200 F 
ATOM     88  F   UNL A   1      40.786  25.628  25.353  1.00  0.00    -0.200 F 
ENDBRANCH  54  78
BRANCH  66  89
ATOM     89  C   UNL A   1      43.915  28.295  34.821  1.00  0.00     0.064 A 
ATOM     90  C   UNL A   1      43.717  27.059  35.455  1.00  0.00     0.173 A 
ATOM     91  C   UNL A   1      45.234  28.756  34.685  1.00  0.00     0.173 A 
ATOM     92  F   UNL A   1      42.475  26.577  35.623  1.00  0.00    -0.203 F 
ATOM     93  C   UNL A   1      44.792  26.331  35.957  1.00  0.00     0.198 A 
ATOM     94  C   UNL A   1      46.310  28.008  35.156  1.00  0.00     0.198 A 
ATOM     95  F   UNL A   1      45.484  29.926  34.078  1.00  0.00    -0.203 F 
ATOM     96  F   UNL A   1      44.574  25.179  36.608  1.00  0.00    -0.200 F 
ATOM     97  C   UNL A   1      46.088  26.801  35.800  1.00  0.00     0.200 A 
ATOM     98  F   UNL A   1      47.562  28.455  34.984  1.00  0.00    -0.200 F 
ATOM     99  F   UNL A   1      47.122  26.093  36.276  1.00  0.00    -0.200 F 
ENDBRANCH  66  89
ENDBRANCH  40  41
ENDBRANCH  33  35
ENDBRANCH  32  33
ENDBRANCH  31  32
ENDBRANCH  30  31
ENDBRANCH  29  30
ENDBRANCH  28  29
ENDBRANCH  27  28
ENDBRANCH   1  27
TORSDOF 22
ENDMDL
MODEL 2
REMARK VINA RESULT:      -9.9      5.633     10.062
REMARK SMILES Cc1cscc1C(=O)Nc1cc(Br)ccc1C(=O)OCCOCCOCCOCCOC(=O)c1ccc(-c2c3nc(c(-c4c(F)c(F)c(F)c(F)c4F)c4ccc([nH]4)c(-c4c(F)c(F)c(F)c(F)c4F)c4nc(c(-c5c(F)c(F)c(F)c(F)c5F)c5ccc2[nH]5)C=C4)C=C3)cc1
REMARK SMILES IDX 25 1 24 2 23 3 22 4 21 5 20 6 19 7 17 8 18 9 16 10 10 11
REMARK SMILES IDX 11 12 12 13 15 14 13 15 14 16 9 17 7 18 8 19 6 21 1 22 2 23
REMARK SMILES IDX 3 24 4 25 5 26 26 27 27 28 28 29 29 30 30 31 31 32 32 33
REMARK SMILES IDX 33 34 34 35 35 36 96 37 36 38 95 39 37 40 38 41 39 42 89 43
REMARK SMILES IDX 40 44 94 45 88 46 90 47 41 48 93 49 87 50 86 51 42 53 74 54
REMARK SMILES IDX 54 55 73 56 55 57 58 58 72 59 91 60 56 61 57 62 71 64 92 65
REMARK SMILES IDX 59 66 43 67 44 68 52 69 45 70 46 71 50 72 53 73 47 74 48 75
REMARK SMILES IDX 51 76 49 77 75 78 76 79 84 80 77 81 78 82 82 83 85 84 79 85
REMARK SMILES IDX 80 86 83 87 81 88 60 89 61 90 69 91 62 92 63 93 67 94 70 95
REMARK SMILES IDX 64 96 65 97 68 98 66 99
REMARK H PARENT 9 20 90 52 58 63
REMARK Flexibility Score: inf
ROOT
ATOM      1  O   UNL A   1      32.609  36.380  30.513  1.00  0.00    -0.377 OA
ENDROOT
BRANCH   1   2
ATOM      2  C   UNL A   1      33.631  36.602  31.469  1.00  0.00     0.188 C 
BRANCH   2   3
ATOM      3  C   UNL A   1      33.162  36.981  32.884  1.00  0.00     0.188 C 
BRANCH   3   4
ATOM      4  O   UNL A   1      33.848  36.277  33.902  1.00  0.00    -0.376 OA
BRANCH   4   5
ATOM      5  C   UNL A   1      34.882  35.371  33.570  1.00  0.00     0.202 C 
BRANCH   5   6
ATOM      6  C   UNL A   1      35.408  34.333  34.580  1.00  0.00     0.261 C 
BRANCH   6   7
ATOM      7  O   UNL A   1      36.305  33.327  34.086  1.00  0.00    -0.460 OA
BRANCH   7   8
ATOM      8  C   UNL A   1      37.548  33.731  33.762  1.00  0.00     0.340 C 
ATOM      9  O   UNL A   1      37.906  34.893  33.660  1.00  0.00    -0.246 OA
BRANCH   8  10
ATOM     10  C   UNL A   1      38.490  32.573  33.657  1.00  0.00     0.083 A 
ATOM     11  C   UNL A   1      39.811  32.520  34.164  1.00  0.00     0.057 A 
ATOM     12  C   UNL A   1      40.436  31.276  34.264  1.00  0.00     0.042 A 
ATOM     13  C   UNL A   1      39.871  30.157  33.646  1.00  0.00     0.020 A 
ATOM     14  C   UNL A   1      37.982  31.464  32.961  1.00  0.00     0.019 A 
ATOM     15  Br  UNL A   1      40.754  28.488  33.733  1.00  0.00    -0.051 Br
ATOM     16  C   UNL A   1      38.691  30.268  32.920  1.00  0.00     0.017 A 
BRANCH  11  17
ATOM     17  N   UNL A   1      40.479  33.702  34.520  1.00  0.00    -0.321 N 
ATOM     18  C   UNL A   1      40.640  34.430  35.677  1.00  0.00     0.256 C 
ATOM     19  O   UNL A   1      41.083  35.574  35.511  1.00  0.00    -0.269 OA
ATOM     20  H   UNL A   1      40.948  34.110  33.755  1.00  0.00     0.170 HD
BRANCH  18  21
ATOM     21  C   UNL A   1      40.376  33.951  37.054  1.00  0.00     0.053 A 
ATOM     22  C   UNL A   1      42.672  33.914  38.428  1.00  0.00     0.046 C 
ATOM     23  C   UNL A   1      41.205  33.719  38.237  1.00  0.00    -0.028 A 
ATOM     24  C   UNL A   1      40.444  33.287  39.315  1.00  0.00     0.069 A 
ATOM     25  S   UNL A   1      38.777  33.270  39.007  1.00  0.00    -0.151 S 
ATOM     26  C   UNL A   1      39.037  33.791  37.411  1.00  0.00     0.079 A 
ENDBRANCH  18  21
ENDBRANCH  11  17
ENDBRANCH   8  10
ENDBRANCH   7   8
ENDBRANCH   6   7
ENDBRANCH   5   6
ENDBRANCH   4   5
ENDBRANCH   3   4
ENDBRANCH   2   3
ENDBRANCH   1   2
BRANCH   1  27
ATOM     27  C   UNL A   1      32.956  36.248  29.133  1.00  0.00     0.188 C 
BRANCH  27  28
ATOM     28  C   UNL A   1      33.418  34.909  28.506  1.00  0.00     0.188 C 
BRANCH  28  29
ATOM     29  O   UNL A   1      33.474  33.822  29.414  1.00  0.00    -0.376 OA
BRANCH  29  30
ATOM     30  C   UNL A   1      34.744  33.359  29.831  1.00  0.00     0.202 C 
BRANCH  30  31
ATOM     31  C   UNL A   1      35.782  33.125  28.728  1.00  0.00     0.261 C 
BRANCH  31  32
ATOM     32  O   UNL A   1      35.382  32.244  27.667  1.00  0.00    -0.460 OA
BRANCH  32  33
ATOM     33  C   UNL A   1      35.121  30.962  27.993  1.00  0.00     0.338 C 
ATOM     34  O   UNL A   1      34.034  30.403  27.983  1.00  0.00    -0.246 OA
BRANCH  33  35
ATOM     35  C   UNL A   1      36.414  30.278  28.193  1.00  0.00     0.060 A 
ATOM     36  C   UNL A   1      36.672  29.643  29.415  1.00  0.00     0.016 A 
ATOM     37  C   UNL A   1      37.360  30.252  27.166  1.00  0.00     0.016 A 
ATOM     38  C   UNL A   1      37.895  29.006  29.623  1.00  0.00     0.010 A 
ATOM     39  C   UNL A   1      38.592  29.632  27.385  1.00  0.00     0.010 A 
ATOM     40  C   UNL A   1      38.877  29.034  28.625  1.00  0.00    -0.014 A 
BRANCH  40  41
ATOM     41  C   UNL A   1      40.262  28.605  28.936  1.00  0.00     0.031 A 
ATOM     42  C   UNL A   1      41.150  29.552  29.693  1.00  0.00     0.074 A 
ATOM     43  C   UNL A   1      40.723  27.399  28.562  1.00  0.00     0.049 A 
ATOM     44  N   UNL A   1      42.410  29.433  30.025  1.00  0.00    -0.248 NA
ATOM     45  C   UNL A   1      40.530  30.813  30.132  1.00  0.00     0.031 C 
ATOM     46  C   UNL A   1      39.950  26.381  27.856  1.00  0.00     0.029 A 
ATOM     47  N   UNL A   1      41.966  26.836  28.715  1.00  0.00    -0.354 N 
ATOM     48  C   UNL A   1      42.733  30.602  30.701  1.00  0.00     0.074 A 
ATOM     49  C   UNL A   1      41.550  31.433  30.704  1.00  0.00     0.031 C 
ATOM     50  C   UNL A   1      40.741  25.318  27.625  1.00  0.00     0.029 A 
ATOM     51  C   UNL A   1      42.084  25.599  28.131  1.00  0.00     0.049 A 
ATOM     52  H   UNL A   1      42.702  27.277  29.198  1.00  0.00     0.167 HD
ATOM     53  C   UNL A   1      43.911  30.948  31.272  1.00  0.00     0.037 A 
ATOM     54  C   UNL A   1      43.162  24.802  27.997  1.00  0.00     0.037 A 
ATOM     55  C   UNL A   1      45.089  30.119  31.259  1.00  0.00     0.049 A 
ATOM     56  C   UNL A   1      44.486  25.245  28.571  1.00  0.00     0.074 A 
ATOM     57  C   UNL A   1      46.326  30.369  31.827  1.00  0.00     0.029 A 
ATOM     58  N   UNL A   1      45.179  28.886  30.630  1.00  0.00    -0.354 N 
ATOM     59  N   UNL A   1      44.779  26.335  29.237  1.00  0.00    -0.248 NA
ATOM     60  C   UNL A   1      45.628  24.340  28.376  1.00  0.00     0.031 C 
ATOM     61  C   UNL A   1      47.184  29.319  31.486  1.00  0.00     0.029 A 
ATOM     62  C   UNL A   1      46.462  28.378  30.768  1.00  0.00     0.049 A 
ATOM     63  H   UNL A   1      44.443  28.437  30.156  1.00  0.00     0.167 HD
ATOM     64  C   UNL A   1      46.126  26.234  29.566  1.00  0.00     0.074 A 
ATOM     65  C   UNL A   1      46.589  24.968  29.040  1.00  0.00     0.031 C 
ATOM     66  C   UNL A   1      46.909  27.112  30.244  1.00  0.00     0.037 A 
BRANCH  53  67
ATOM     67  C   UNL A   1      43.994  32.296  31.928  1.00  0.00     0.064 A 
ATOM     68  C   UNL A   1      43.870  32.455  33.317  1.00  0.00     0.173 A 
ATOM     69  C   UNL A   1      44.223  33.446  31.157  1.00  0.00     0.173 A 
ATOM     70  F   UNL A   1      43.635  31.391  34.100  1.00  0.00    -0.203 F 
ATOM     71  C   UNL A   1      43.941  33.715  33.904  1.00  0.00     0.198 A 
ATOM     72  C   UNL A   1      44.330  34.700  31.750  1.00  0.00     0.198 A 
ATOM     73  F   UNL A   1      44.353  33.352  29.825  1.00  0.00    -0.203 F 
ATOM     74  F   UNL A   1      43.763  33.849  35.226  1.00  0.00    -0.200 F 
ATOM     75  C   UNL A   1      44.178  34.836  33.122  1.00  0.00     0.200 A 
ATOM     76  F   UNL A   1      44.575  35.779  30.995  1.00  0.00    -0.200 F 
ATOM     77  F   UNL A   1      44.254  36.048  33.689  1.00  0.00    -0.200 F 
ENDBRANCH  53  67
BRANCH  54  78
ATOM     78  C   UNL A   1      43.044  23.506  27.275  1.00  0.00     0.064 A 
ATOM     79  C   UNL A   1      42.542  22.364  27.913  1.00  0.00     0.173 A 
ATOM     80  C   UNL A   1      43.454  23.378  25.939  1.00  0.00     0.173 A 
ATOM     81  F   UNL A   1      42.164  22.427  29.200  1.00  0.00    -0.203 F 
ATOM     82  C   UNL A   1      42.469  21.141  27.250  1.00  0.00     0.198 A 
ATOM     83  C   UNL A   1      43.350  22.161  25.267  1.00  0.00     0.198 A 
ATOM     84  F   UNL A   1      43.951  24.436  25.284  1.00  0.00    -0.203 F 
ATOM     85  F   UNL A   1      42.033  20.053  27.901  1.00  0.00    -0.200 F 
ATOM     86  C   UNL A   1      42.866  21.042  25.925  1.00  0.00     0.200 A 
ATOM     87  F   UNL A   1      43.726  22.073  23.984  1.00  0.00    -0.200 F 
ATOM     88  F   UNL A   1      42.794  19.866  25.287  1.00  0.00    -0.200 F 
ENDBRANCH  54  78
BRANCH  66  89
ATOM     89  C   UNL A   1      48.338  26.716  30.498  1.00  0.00     0.064 A 
ATOM     90  C   UNL A   1      49.381  27.120  29.652  1.00  0.00     0.173 A 
ATOM     91  C   UNL A   1      48.671  25.956  31.630  1.00  0.00     0.173 A 
ATOM     92  F   UNL A   1      49.118  27.838  28.549  1.00  0.00    -0.203 F 
ATOM     93  C   UNL A   1      50.699  26.753  29.914  1.00  0.00     0.198 A 
ATOM     94  C   UNL A   1      49.994  25.622  31.909  1.00  0.00     0.198 A 
ATOM     95  F   UNL A   1      47.715  25.550  32.479  1.00  0.00    -0.203 F 
ATOM     96  F   UNL A   1      51.673  27.105  29.062  1.00  0.00    -0.200 F 
ATOM     97  C   UNL A   1      51.005  26.012  31.046  1.00  0.00     0.200 A 
ATOM     98  F   UNL A   1      50.288  24.923  33.014  1.00  0.00    -0.200 F 
ATOM     99  F   UNL A   1      52.276  25.668  31.301  1.00  0.00    -0.200 F 
ENDBRANCH  66  89
ENDBRANCH  40  41
ENDBRANCH  33  35
ENDBRANCH  32  33
ENDBRANCH  31  32
ENDBRANCH  30  31
ENDBRANCH  29  30
ENDBRANCH  28  29
ENDBRANCH  27  28
ENDBRANCH   1  27
TORSDOF 22
ENDMDL
MODEL 3
REMARK VINA RESULT:      -9.5      5.149      9.989
REMARK SMILES Cc1cscc1C(=O)Nc1cc(Br)ccc1C(=O)OCCOCCOCCOCCOC(=O)c1ccc(-c2c3nc(c(-c4c(F)c(F)c(F)c(F)c4F)c4ccc([nH]4)c(-c4c(F)c(F)c(F)c(F)c4F)c4nc(c(-c5c(F)c(F)c(F)c(F)c5F)c5ccc2[nH]5)C=C4)C=C3)cc1
REMARK SMILES IDX 25 1 24 2 23 3 22 4 21 5 20 6 19 7 17 8 18 9 16 10 10 11
REMARK SMILES IDX 11 12 12 13 15 14 13 15 14 16 9 17 7 18 8 19 6 21 1 22 2 23
REMARK SMILES IDX 3 24 4 25 5 26 26 27 27 28 28 29 29 30 30 31 31 32 32 33
REMARK SMILES IDX 33 34 34 35 35 36 96 37 36 38 95 39 37 40 38 41 39 42 89 43
REMARK SMILES IDX 40 44 94 45 88 46 90 47 41 48 93 49 87 50 86 51 42 53 74 54
REMARK SMILES IDX 54 55 73 56 55 57 58 58 72 59 91 60 56 61 57 62 71 64 92 65
REMARK SMILES IDX 59 66 43 67 44 68 52 69 45 70 46 71 50 72 53 73 47 74 48 75
REMARK SMILES IDX 51 76 49 77 75 78 76 79 84 80 77 81 78 82 82 83 85 84 79 85
REMARK SMILES IDX 80 86 83 87 81 88 60 89 61 90 69 91 62 92 63 93 67 94 70 95
REMARK SMILES IDX 64 96 65 97 68 98 66 99
REMARK H PARENT 9 20 90 52 58 63
REMARK Flexibility Score: inf
ROOT
ATOM      1  O   UNL A   1      34.629  34.254  29.806  1.00  0.00    -0.377 OA
ENDROOT
BRANCH   1   2
ATOM      2  C   UNL A   1      34.133  33.596  28.652  1.00  0.00     0.188 C 
BRANCH   2   3
ATOM      3  C   UNL A   1      35.062  32.543  28.024  1.00  0.00     0.188 C 
BRANCH   3   4
ATOM      4  O   UNL A   1      34.368  31.410  27.539  1.00  0.00    -0.376 OA
BRANCH   4   5
ATOM      5  C   UNL A   1      34.877  30.110  27.770  1.00  0.00     0.202 C 
BRANCH   5   6
ATOM      6  C   UNL A   1      34.674  28.966  26.758  1.00  0.00     0.261 C 
BRANCH   6   7
ATOM      7  O   UNL A   1      33.420  28.914  26.064  1.00  0.00    -0.460 OA
BRANCH   7   8
ATOM      8  C   UNL A   1      33.453  28.494  24.784  1.00  0.00     0.340 C 
ATOM      9  O   UNL A   1      34.457  28.146  24.184  1.00  0.00    -0.246 OA
BRANCH   8  10
ATOM     10  C   UNL A   1      32.076  28.386  24.208  1.00  0.00     0.083 A 
ATOM     11  C   UNL A   1      30.976  27.711  24.791  1.00  0.00     0.057 A 
ATOM     12  C   UNL A   1      29.697  27.969  24.291  1.00  0.00     0.042 A 
ATOM     13  C   UNL A   1      29.542  28.671  23.093  1.00  0.00     0.020 A 
ATOM     14  C   UNL A   1      31.912  29.006  22.959  1.00  0.00     0.019 A 
ATOM     15  Br  UNL A   1      27.812  28.963  22.391  1.00  0.00    -0.051 Br
ATOM     16  C   UNL A   1      30.651  29.112  22.381  1.00  0.00     0.017 A 
BRANCH  11  17
ATOM     17  N   UNL A   1      31.182  26.780  25.820  1.00  0.00    -0.321 N 
ATOM     18  C   UNL A   1      31.627  25.480  25.894  1.00  0.00     0.256 C 
ATOM     19  O   UNL A   1      31.402  24.917  26.973  1.00  0.00    -0.269 OA
ATOM     20  H   UNL A   1      30.953  27.147  26.705  1.00  0.00     0.170 HD
BRANCH  18  21
ATOM     21  C   UNL A   1      32.364  24.747  24.838  1.00  0.00     0.053 A 
ATOM     22  C   UNL A   1      34.985  24.834  25.373  1.00  0.00     0.046 C 
ATOM     23  C   UNL A   1      33.776  24.456  24.585  1.00  0.00    -0.028 A 
ATOM     24  C   UNL A   1      33.940  23.683  23.443  1.00  0.00     0.069 A 
ATOM     25  S   UNL A   1      32.477  23.190  22.742  1.00  0.00    -0.151 S 
ATOM     26  C   UNL A   1      31.592  24.039  23.917  1.00  0.00     0.079 A 
ENDBRANCH  18  21
ENDBRANCH  11  17
ENDBRANCH   8  10
ENDBRANCH   7   8
ENDBRANCH   6   7
ENDBRANCH   5   6
ENDBRANCH   4   5
ENDBRANCH   3   4
ENDBRANCH   2   3
ENDBRANCH   1   2
BRANCH   1  27
ATOM     27  C   UNL A   1      33.730  34.577  30.869  1.00  0.00     0.188 C 
BRANCH  27  28
ATOM     28  C   UNL A   1      34.179  35.314  32.156  1.00  0.00     0.188 C 
BRANCH  28  29
ATOM     29  O   UNL A   1      34.451  34.465  33.258  1.00  0.00    -0.376 OA
BRANCH  29  30
ATOM     30  C   UNL A   1      35.642  34.675  33.990  1.00  0.00     0.202 C 
BRANCH  30  31
ATOM     31  C   UNL A   1      36.845  33.806  33.604  1.00  0.00     0.261 C 
BRANCH  31  32
ATOM     32  O   UNL A   1      36.808  33.235  32.287  1.00  0.00    -0.460 OA
BRANCH  32  33
ATOM     33  C   UNL A   1      36.535  31.917  32.192  1.00  0.00     0.338 C 
ATOM     34  O   UNL A   1      35.496  31.353  32.502  1.00  0.00    -0.246 OA
BRANCH  33  35
ATOM     35  C   UNL A   1      37.653  31.280  31.469  1.00  0.00     0.060 A 
ATOM     36  C   UNL A   1      38.672  30.653  32.198  1.00  0.00     0.016 A 
ATOM     37  C   UNL A   1      37.682  31.288  30.073  1.00  0.00     0.016 A 
ATOM     38  C   UNL A   1      39.743  30.059  31.528  1.00  0.00     0.010 A 
ATOM     39  C   UNL A   1      38.765  30.712  29.406  1.00  0.00     0.010 A 
ATOM     40  C   UNL A   1      39.815  30.123  30.131  1.00  0.00    -0.014 A 
BRANCH  40  41
ATOM     41  C   UNL A   1      41.069  29.743  29.436  1.00  0.00     0.031 A 
ATOM     42  C   UNL A   1      41.198  28.340  28.912  1.00  0.00     0.074 A 
ATOM     43  C   UNL A   1      42.071  30.622  29.267  1.00  0.00     0.049 A 
ATOM     44  N   UNL A   1      42.213  27.754  28.331  1.00  0.00    -0.248 NA
ATOM     45  C   UNL A   1      40.016  27.477  29.071  1.00  0.00     0.031 C 
ATOM     46  C   UNL A   1      42.053  32.017  29.698  1.00  0.00     0.029 A 
ATOM     47  N   UNL A   1      43.309  30.459  28.697  1.00  0.00    -0.354 N 
ATOM     48  C   UNL A   1      41.797  26.457  28.065  1.00  0.00     0.074 A 
ATOM     49  C   UNL A   1      40.450  26.329  28.576  1.00  0.00     0.031 C 
ATOM     50  C   UNL A   1      43.232  32.584  29.387  1.00  0.00     0.029 A 
ATOM     51  C   UNL A   1      44.100  31.580  28.772  1.00  0.00     0.049 A 
ATOM     52  H   UNL A   1      43.602  29.621  28.273  1.00  0.00     0.167 HD
ATOM     53  C   UNL A   1      42.476  25.463  27.444  1.00  0.00     0.037 A 
ATOM     54  C   UNL A   1      45.386  31.760  28.413  1.00  0.00     0.037 A 
ATOM     55  C   UNL A   1      43.820  25.594  26.945  1.00  0.00     0.049 A 
ATOM     56  C   UNL A   1      46.150  30.614  27.797  1.00  0.00     0.074 A 
ATOM     57  C   UNL A   1      44.589  24.654  26.283  1.00  0.00     0.029 A 
ATOM     58  N   UNL A   1      44.600  26.735  27.068  1.00  0.00    -0.354 N 
ATOM     59  N   UNL A   1      45.743  29.399  27.518  1.00  0.00    -0.248 NA
ATOM     60  C   UNL A   1      47.554  30.868  27.443  1.00  0.00     0.031 C 
ATOM     61  C   UNL A   1      45.857  25.202  26.064  1.00  0.00     0.029 A 
ATOM     62  C   UNL A   1      45.855  26.510  26.524  1.00  0.00     0.049 A 
ATOM     63  H   UNL A   1      44.307  27.579  27.481  1.00  0.00     0.167 HD
ATOM     64  C   UNL A   1      46.826  28.756  26.930  1.00  0.00     0.074 A 
ATOM     65  C   UNL A   1      47.904  29.720  26.879  1.00  0.00     0.031 C 
ATOM     66  C   UNL A   1      46.919  27.481  26.474  1.00  0.00     0.037 A 
BRANCH  53  67
ATOM     67  C   UNL A   1      41.788  24.136  27.304  1.00  0.00     0.064 A 
ATOM     68  C   UNL A   1      40.624  23.980  26.536  1.00  0.00     0.173 A 
ATOM     69  C   UNL A   1      42.315  22.995  27.930  1.00  0.00     0.173 A 
ATOM     70  F   UNL A   1      40.068  25.039  25.929  1.00  0.00    -0.203 F 
ATOM     71  C   UNL A   1      39.997  22.742  26.427  1.00  0.00     0.198 A 
ATOM     72  C   UNL A   1      41.707  21.752  27.789  1.00  0.00     0.198 A 
ATOM     73  F   UNL A   1      43.429  23.086  28.673  1.00  0.00    -0.203 F 
ATOM     74  F   UNL A   1      38.854  22.628  25.735  1.00  0.00    -0.200 F 
ATOM     75  C   UNL A   1      40.543  21.628  27.046  1.00  0.00     0.200 A 
ATOM     76  F   UNL A   1      42.244  20.674  28.375  1.00  0.00    -0.200 F 
ATOM     77  F   UNL A   1      39.943  20.434  26.934  1.00  0.00    -0.200 F 
ENDBRANCH  53  67
BRANCH  54  78
ATOM     78  C   UNL A   1      46.044  33.075  28.639  1.00  0.00     0.064 A 
ATOM     79  C   UNL A   1      46.707  33.358  29.842  1.00  0.00     0.173 A 
ATOM     80  C   UNL A   1      46.004  34.086  27.666  1.00  0.00     0.173 A 
ATOM     81  F   UNL A   1      46.748  32.436  30.816  1.00  0.00    -0.203 F 
ATOM     82  C   UNL A   1      47.288  34.603  30.069  1.00  0.00     0.198 A 
ATOM     83  C   UNL A   1      46.613  35.320  27.882  1.00  0.00     0.198 A 
ATOM     84  F   UNL A   1      45.375  33.872  26.501  1.00  0.00    -0.203 F 
ATOM     85  F   UNL A   1      47.869  34.863  31.248  1.00  0.00    -0.200 F 
ATOM     86  C   UNL A   1      47.248  35.581  29.086  1.00  0.00     0.200 A 
ATOM     87  F   UNL A   1      46.581  36.258  26.926  1.00  0.00    -0.200 F 
ATOM     88  F   UNL A   1      47.809  36.778  29.305  1.00  0.00    -0.200 F 
ENDBRANCH  54  78
BRANCH  66  89
ATOM     89  C   UNL A   1      48.216  27.065  25.835  1.00  0.00     0.064 A 
ATOM     90  C   UNL A   1      48.477  27.282  24.474  1.00  0.00     0.173 A 
ATOM     91  C   UNL A   1      49.229  26.478  26.609  1.00  0.00     0.173 A 
ATOM     92  F   UNL A   1      47.537  27.828  23.685  1.00  0.00    -0.203 F 
ATOM     93  C   UNL A   1      49.690  26.901  23.906  1.00  0.00     0.198 A 
ATOM     94  C   UNL A   1      50.456  26.132  26.046  1.00  0.00     0.198 A 
ATOM     95  F   UNL A   1      49.040  26.256  27.918  1.00  0.00    -0.203 F 
ATOM     96  F   UNL A   1      49.895  27.068  22.592  1.00  0.00    -0.200 F 
ATOM     97  C   UNL A   1      50.681  26.334  24.694  1.00  0.00     0.200 A 
ATOM     98  F   UNL A   1      51.418  25.603  26.815  1.00  0.00    -0.200 F 
ATOM     99  F   UNL A   1      51.852  25.977  24.148  1.00  0.00    -0.200 F 
ENDBRANCH  66  89
ENDBRANCH  40  41
ENDBRANCH  33  35
ENDBRANCH  32  33
ENDBRANCH  31  32
ENDBRANCH  30  31
ENDBRANCH  29  30
ENDBRANCH  28  29
ENDBRANCH  27  28
ENDBRANCH   1  27
TORSDOF 22
ENDMDL
