MODEL 1
REMARK VINA RESULT:      -8.4      0.000      0.000
REMARK SMILES COc1ccc([C@H]2CC(c3ccc(S(C)(=O)=O)cc3)=NN2c2ccc(C(=O)OCCOCCOCCOCCOC(=O)c3ccc(-c4c5nc(c(-c6c(F)c(F)c(F)c(F)c6F)c6ccc([nH]6)c(-c6c(F)c(F)c(F)c(F)c6F)c6nc(c(-c7c(F)c(F)c(F)c(F)c7F)c7ccc4[nH]7)C=C6)C=C5)cc3)cc2)cc1OC
REMARK SMILES IDX 33 1 32 2 31 3 30 4 29 5 28 6 26 7 27 8 25 9 22 10 23 11
REMARK SMILES IDX 107 12 24 13 106 14 21 15 7 16 8 17 9 18 20 19 6 20 3 21
REMARK SMILES IDX 4 22 109 23 5 24 108 25 2 26 1 27 110 28 111 29 10 30 11 31
REMARK SMILES IDX 19 32 12 33 18 34 13 35 14 36 15 37 16 38 17 39 34 40 35 41
REMARK SMILES IDX 36 42 37 43 38 44 39 45 40 46 41 47 42 48 43 49 44 50 105 51
REMARK SMILES IDX 45 52 104 53 46 54 47 55 48 56 98 57 49 58 103 59 97 60
REMARK SMILES IDX 99 61 50 62 102 63 96 64 95 65 51 67 83 68 63 69 82 70 64 71
REMARK SMILES IDX 67 72 81 73 100 74 65 75 66 76 80 78 101 79 68 80 52 81
REMARK SMILES IDX 53 82 61 83 54 84 55 85 59 86 62 87 56 88 57 89 60 90 58 91
REMARK SMILES IDX 84 92 85 93 93 94 86 95 87 96 91 97 94 98 88 99 89 100
REMARK SMILES IDX 92 101 90 102 69 103 70 104 78 105 71 106 72 107 76 108
REMARK SMILES IDX 79 109 73 110 74 111 77 112 75 113
REMARK H PARENT 99 66 67 77
REMARK Flexibility Score: inf
ROOT
ATOM      1  C   UNL A   1      34.065  34.782  28.360  1.00  0.00     0.188 C 
ENDROOT
BRANCH   1   2
ATOM      2  C   UNL A   1      33.272  35.229  29.608  1.00  0.00     0.188 C 
BRANCH   2   3
ATOM      3  O   UNL A   1      33.509  34.435  30.758  1.00  0.00    -0.376 OA
BRANCH   3   4
ATOM      4  C   UNL A   1      34.276  34.983  31.815  1.00  0.00     0.202 C 
BRANCH   4   5
ATOM      5  C   UNL A   1      35.549  34.238  32.243  1.00  0.00     0.261 C 
BRANCH   5   6
ATOM      6  O   UNL A   1      36.750  35.018  32.293  1.00  0.00    -0.460 OA
BRANCH   6   7
ATOM      7  C   UNL A   1      37.816  34.438  32.888  1.00  0.00     0.338 C 
ATOM      8  O   UNL A   1      37.810  33.821  33.939  1.00  0.00    -0.246 OA
BRANCH   7   9
ATOM      9  C   UNL A   1      38.973  34.511  31.967  1.00  0.00     0.060 A 
ATOM     10  C   UNL A   1      41.121  34.483  30.148  1.00  0.00     0.060 A 
ATOM     11  C   UNL A   1      39.799  34.604  29.697  1.00  0.00     0.029 A 
ATOM     12  C   UNL A   1      41.348  34.487  31.532  1.00  0.00     0.029 A 
ATOM     13  C   UNL A   1      38.729  34.581  30.593  1.00  0.00     0.018 A 
ATOM     14  C   UNL A   1      40.286  34.523  32.442  1.00  0.00     0.018 A 
BRANCH  10  15
ATOM     15  N   UNL A   1      42.150  34.296  29.236  1.00  0.00    -0.257 N 
ATOM     16  C   UNL A   1      42.580  35.279  28.238  1.00  0.00     0.144 C 
ATOM     17  C   UNL A   1      43.852  34.635  27.676  1.00  0.00     0.091 C 
ATOM     18  C   UNL A   1      43.693  33.243  28.219  1.00  0.00     0.071 C 
ATOM     19  N   UNL A   1      42.770  33.086  29.117  1.00  0.00    -0.176 NA
BRANCH  16  20
ATOM     20  C   UNL A   1      42.846  36.671  28.795  1.00  0.00    -0.019 A 
ATOM     21  C   UNL A   1      43.345  39.269  29.798  1.00  0.00     0.160 A 
ATOM     22  C   UNL A   1      42.473  39.076  28.719  1.00  0.00     0.051 A 
ATOM     23  C   UNL A   1      43.968  38.169  30.396  1.00  0.00     0.161 A 
ATOM     24  C   UNL A   1      42.233  37.791  28.217  1.00  0.00     0.010 A 
ATOM     25  C   UNL A   1      43.708  36.884  29.887  1.00  0.00     0.056 A 
BRANCH  21  26
ATOM     26  O   UNL A   1      43.446  40.530  30.321  1.00  0.00    -0.493 OA
ATOM     27  C   UNL A   1      42.178  41.175  30.443  1.00  0.00     0.278 C 
ENDBRANCH  21  26
BRANCH  23  28
ATOM     28  O   UNL A   1      44.814  38.154  31.473  1.00  0.00    -0.493 OA
ATOM     29  C   UNL A   1      44.277  38.420  32.758  1.00  0.00     0.278 C 
ENDBRANCH  23  28
ENDBRANCH  16  20
BRANCH  18  30
ATOM     30  C   UNL A   1      44.557  32.154  27.748  1.00  0.00    -0.002 A 
ATOM     31  C   UNL A   1      45.659  32.453  26.940  1.00  0.00     0.011 A 
ATOM     32  C   UNL A   1      44.279  30.835  28.117  1.00  0.00     0.011 A 
ATOM     33  C   UNL A   1      46.500  31.424  26.506  1.00  0.00     0.021 A 
ATOM     34  C   UNL A   1      45.103  29.803  27.663  1.00  0.00     0.021 A 
ATOM     35  C   UNL A   1      46.207  30.102  26.857  1.00  0.00     0.067 A 
BRANCH  35  36
ATOM     36  S   UNL A   1      47.275  28.793  26.299  1.00  0.00     0.175 S 
ATOM     37  C   UNL A   1      48.911  29.369  26.667  1.00  0.00     0.163 C 
ATOM     38  O   UNL A   1      46.995  27.642  27.135  1.00  0.00    -0.224 OA
ATOM     39  O   UNL A   1      47.155  28.714  24.856  1.00  0.00    -0.224 OA
ENDBRANCH  35  36
ENDBRANCH  18  30
ENDBRANCH  10  15
ENDBRANCH   7   9
ENDBRANCH   6   7
ENDBRANCH   5   6
ENDBRANCH   4   5
ENDBRANCH   3   4
ENDBRANCH   2   3
ENDBRANCH   1   2
BRANCH   1  40
ATOM     40  O   UNL A   1      33.465  33.889  27.429  1.00  0.00    -0.377 OA
BRANCH  40  41
ATOM     41  C   UNL A   1      32.170  33.352  27.682  1.00  0.00     0.188 C 
BRANCH  41  42
ATOM     42  C   UNL A   1      31.419  32.514  26.622  1.00  0.00     0.188 C 
BRANCH  42  43
ATOM     43  O   UNL A   1      32.128  31.380  26.158  1.00  0.00    -0.376 OA
BRANCH  43  44
ATOM     44  C   UNL A   1      32.121  30.220  26.969  1.00  0.00     0.202 C 
BRANCH  44  45
ATOM     45  C   UNL A   1      33.482  29.682  27.430  1.00  0.00     0.261 C 
BRANCH  45  46
ATOM     46  O   UNL A   1      34.576  30.612  27.404  1.00  0.00    -0.460 OA
BRANCH  46  47
ATOM     47  C   UNL A   1      35.096  30.997  28.588  1.00  0.00     0.338 C 
ATOM     48  O   UNL A   1      34.565  31.690  29.442  1.00  0.00    -0.246 OA
BRANCH  47  49
ATOM     49  C   UNL A   1      36.376  30.281  28.764  1.00  0.00     0.060 A 
ATOM     50  C   UNL A   1      36.586  29.520  29.923  1.00  0.00     0.016 A 
ATOM     51  C   UNL A   1      37.359  30.348  27.774  1.00  0.00     0.016 A 
ATOM     52  C   UNL A   1      37.795  28.847  30.106  1.00  0.00     0.010 A 
ATOM     53  C   UNL A   1      38.576  29.693  27.970  1.00  0.00     0.010 A 
ATOM     54  C   UNL A   1      38.813  28.967  29.151  1.00  0.00    -0.014 A 
BRANCH  54  55
ATOM     55  C   UNL A   1      40.186  28.504  29.468  1.00  0.00     0.031 A 
ATOM     56  C   UNL A   1      41.049  29.382  30.331  1.00  0.00     0.074 A 
ATOM     57  C   UNL A   1      40.658  27.333  29.006  1.00  0.00     0.049 A 
ATOM     58  N   UNL A   1      42.300  29.233  30.686  1.00  0.00    -0.248 NA
ATOM     59  C   UNL A   1      40.413  30.599  30.862  1.00  0.00     0.031 C 
ATOM     60  C   UNL A   1      39.907  26.378  28.195  1.00  0.00     0.029 A 
ATOM     61  N   UNL A   1      41.897  26.755  29.147  1.00  0.00    -0.354 N 
ATOM     62  C   UNL A   1      42.602  30.341  31.467  1.00  0.00     0.074 A 
ATOM     63  C   UNL A   1      41.416  31.168  31.512  1.00  0.00     0.031 C 
ATOM     64  C   UNL A   1      40.707  25.340  27.894  1.00  0.00     0.029 A 
ATOM     65  C   UNL A   1      42.035  25.576  28.459  1.00  0.00     0.049 A 
ATOM     66  H   UNL A   1      42.616  27.151  29.690  1.00  0.00     0.167 HD
ATOM     67  C   UNL A   1      43.766  30.639  32.092  1.00  0.00     0.037 A 
ATOM     68  C   UNL A   1      43.120  24.796  28.282  1.00  0.00     0.037 A 
ATOM     69  C   UNL A   1      44.942  29.812  32.046  1.00  0.00     0.049 A 
ATOM     70  C   UNL A   1      44.426  25.187  28.932  1.00  0.00     0.074 A 
ATOM     71  C   UNL A   1      46.159  30.009  32.672  1.00  0.00     0.029 A 
ATOM     72  N   UNL A   1      45.051  28.635  31.319  1.00  0.00    -0.354 N 
ATOM     73  N   UNL A   1      44.696  26.216  29.699  1.00  0.00    -0.248 NA
ATOM     74  C   UNL A   1      45.577  24.305  28.691  1.00  0.00     0.031 C 
ATOM     75  C   UNL A   1      47.026  28.990  32.271  1.00  0.00     0.029 A 
ATOM     76  C   UNL A   1      46.329  28.115  31.454  1.00  0.00     0.049 A 
ATOM     77  H   UNL A   1      44.328  28.230  30.787  1.00  0.00     0.167 HD
ATOM     78  C   UNL A   1      46.032  26.086  30.060  1.00  0.00     0.074 A 
ATOM     79  C   UNL A   1      46.514  24.871  29.439  1.00  0.00     0.031 C 
ATOM     80  C   UNL A   1      46.791  26.897  30.837  1.00  0.00     0.037 A 
BRANCH  67  81
ATOM     81  C   UNL A   1      43.838  31.934  32.850  1.00  0.00     0.064 A 
ATOM     82  C   UNL A   1      43.253  32.088  34.116  1.00  0.00     0.173 A 
ATOM     83  C   UNL A   1      44.540  33.026  32.315  1.00  0.00     0.173 A 
ATOM     84  F   UNL A   1      42.559  31.081  34.666  1.00  0.00    -0.203 F 
ATOM     85  C   UNL A   1      43.347  33.294  34.807  1.00  0.00     0.198 A 
ATOM     86  C   UNL A   1      44.660  34.217  33.022  1.00  0.00     0.198 A 
ATOM     87  F   UNL A   1      45.120  32.931  31.109  1.00  0.00    -0.203 F 
ATOM     88  F   UNL A   1      42.740  33.434  35.992  1.00  0.00    -0.200 F 
ATOM     89  C   UNL A   1      44.058  34.354  34.263  1.00  0.00     0.200 A 
ATOM     90  F   UNL A   1      45.361  35.234  32.502  1.00  0.00    -0.200 F 
ATOM     91  F   UNL A   1      44.159  35.509  34.935  1.00  0.00    -0.200 F 
ENDBRANCH  67  81
BRANCH  68  92
ATOM     92  C   UNL A   1      43.035  23.576  27.434  1.00  0.00     0.064 A 
ATOM     93  C   UNL A   1      42.537  22.369  27.945  1.00  0.00     0.173 A 
ATOM     94  C   UNL A   1      43.488  23.581  26.106  1.00  0.00     0.173 A 
ATOM     95  F   UNL A   1      42.118  22.302  29.217  1.00  0.00    -0.203 F 
ATOM     96  C   UNL A   1      42.521  21.209  27.171  1.00  0.00     0.198 A 
ATOM     97  C   UNL A   1      43.439  22.430  25.322  1.00  0.00     0.198 A 
ATOM     98  F   UNL A   1      43.980  24.706  25.567  1.00  0.00    -0.203 F 
ATOM     99  F   UNL A   1      42.098  20.055  27.706  1.00  0.00    -0.200 F 
ATOM    100  C   UNL A   1      42.967  21.241  25.859  1.00  0.00     0.200 A 
ATOM    101  F   UNL A   1      43.860  22.469  24.051  1.00  0.00    -0.200 F 
ATOM    102  F   UNL A   1      42.953  20.127  25.115  1.00  0.00    -0.200 F 
ENDBRANCH  68  92
BRANCH  80 103
ATOM    103  C   UNL A   1      48.211  26.478  31.105  1.00  0.00     0.064 A 
ATOM    104  C   UNL A   1      49.285  26.975  30.352  1.00  0.00     0.173 A 
ATOM    105  C   UNL A   1      48.502  25.603  32.162  1.00  0.00     0.173 A 
ATOM    106  F   UNL A   1      49.062  27.805  29.322  1.00  0.00    -0.203 F 
ATOM    107  C   UNL A   1      50.594  26.587  30.629  1.00  0.00     0.198 A 
ATOM    108  C   UNL A   1      49.815  25.246  32.461  1.00  0.00     0.198 A 
ATOM    109  F   UNL A   1      47.514  25.106  32.922  1.00  0.00    -0.203 F 
ATOM    110  F   UNL A   1      51.599  27.032  29.863  1.00  0.00    -0.200 F 
ATOM    111  C   UNL A   1      50.859  25.731  31.689  1.00  0.00     0.200 A 
ATOM    112  F   UNL A   1      50.068  24.435  33.497  1.00  0.00    -0.200 F 
ATOM    113  F   UNL A   1      52.119  25.368  31.961  1.00  0.00    -0.200 F 
ENDBRANCH  80 103
ENDBRANCH  54  55
ENDBRANCH  47  49
ENDBRANCH  46  47
ENDBRANCH  45  46
ENDBRANCH  44  45
ENDBRANCH  43  44
ENDBRANCH  42  43
ENDBRANCH  41  42
ENDBRANCH  40  41
ENDBRANCH   1  40
TORSDOF 26
ENDMDL
MODEL 2
REMARK VINA RESULT:      -6.8      1.163      1.916
REMARK SMILES COc1ccc([C@H]2CC(c3ccc(S(C)(=O)=O)cc3)=NN2c2ccc(C(=O)OCCOCCOCCOCCOC(=O)c3ccc(-c4c5nc(c(-c6c(F)c(F)c(F)c(F)c6F)c6ccc([nH]6)c(-c6c(F)c(F)c(F)c(F)c6F)c6nc(c(-c7c(F)c(F)c(F)c(F)c7F)c7ccc4[nH]7)C=C6)C=C5)cc3)cc2)cc1OC
REMARK SMILES IDX 33 1 32 2 31 3 30 4 29 5 28 6 26 7 27 8 25 9 22 10 23 11
REMARK SMILES IDX 107 12 24 13 106 14 21 15 7 16 8 17 9 18 20 19 6 20 3 21
REMARK SMILES IDX 4 22 109 23 5 24 108 25 2 26 1 27 110 28 111 29 10 30 11 31
REMARK SMILES IDX 19 32 12 33 18 34 13 35 14 36 15 37 16 38 17 39 34 40 35 41
REMARK SMILES IDX 36 42 37 43 38 44 39 45 40 46 41 47 42 48 43 49 44 50 105 51
REMARK SMILES IDX 45 52 104 53 46 54 47 55 48 56 98 57 49 58 103 59 97 60
REMARK SMILES IDX 99 61 50 62 102 63 96 64 95 65 51 67 83 68 63 69 82 70 64 71
REMARK SMILES IDX 67 72 81 73 100 74 65 75 66 76 80 78 101 79 68 80 52 81
REMARK SMILES IDX 53 82 61 83 54 84 55 85 59 86 62 87 56 88 57 89 60 90 58 91
REMARK SMILES IDX 84 92 85 93 93 94 86 95 87 96 91 97 94 98 88 99 89 100
REMARK SMILES IDX 92 101 90 102 69 103 70 104 78 105 71 106 72 107 76 108
REMARK SMILES IDX 79 109 73 110 74 111 77 112 75 113
REMARK H PARENT 99 66 67 77
REMARK Flexibility Score: inf
ROOT
ATOM      1  C   UNL A   1      33.678  35.027  29.050  1.00  0.00     0.188 C 
ENDROOT
BRANCH   1   2
ATOM      2  C   UNL A   1      32.719  35.413  30.197  1.00  0.00     0.188 C 
BRANCH   2   3
ATOM      3  O   UNL A   1      33.052  34.835  31.448  1.00  0.00    -0.376 OA
BRANCH   3   4
ATOM      4  C   UNL A   1      34.293  35.168  32.041  1.00  0.00     0.202 C 
BRANCH   4   5
ATOM      5  C   UNL A   1      35.405  34.109  32.028  1.00  0.00     0.261 C 
BRANCH   5   6
ATOM      6  O   UNL A   1      36.676  34.535  31.522  1.00  0.00    -0.460 OA
BRANCH   6   7
ATOM      7  C   UNL A   1      37.736  34.364  32.344  1.00  0.00     0.338 C 
ATOM      8  O   UNL A   1      37.695  34.034  33.517  1.00  0.00    -0.246 OA
BRANCH   7   9
ATOM      9  C   UNL A   1      38.979  34.464  31.546  1.00  0.00     0.060 A 
ATOM     10  C   UNL A   1      41.293  34.492  29.943  1.00  0.00     0.060 A 
ATOM     11  C   UNL A   1      40.024  34.681  29.376  1.00  0.00     0.029 A 
ATOM     12  C   UNL A   1      41.384  34.398  31.339  1.00  0.00     0.029 A 
ATOM     13  C   UNL A   1      38.871  34.631  30.162  1.00  0.00     0.018 A 
ATOM     14  C   UNL A   1      40.239  34.405  32.143  1.00  0.00     0.018 A 
BRANCH  10  15
ATOM     15  N   UNL A   1      42.401  34.335  29.122  1.00  0.00    -0.257 N 
ATOM     16  C   UNL A   1      42.828  35.287  28.093  1.00  0.00     0.144 C 
ATOM     17  C   UNL A   1      44.187  34.717  27.670  1.00  0.00     0.091 C 
ATOM     18  C   UNL A   1      44.097  33.354  28.295  1.00  0.00     0.071 C 
ATOM     19  N   UNL A   1      43.122  33.176  29.132  1.00  0.00    -0.176 NA
BRANCH  16  20
ATOM     20  C   UNL A   1      42.939  36.728  28.570  1.00  0.00    -0.019 A 
ATOM     21  C   UNL A   1      43.143  39.396  29.488  1.00  0.00     0.160 A 
ATOM     22  C   UNL A   1      43.922  38.383  30.062  1.00  0.00     0.051 A 
ATOM     23  C   UNL A   1      42.264  39.093  28.444  1.00  0.00     0.161 A 
ATOM     24  C   UNL A   1      43.814  37.061  29.613  1.00  0.00     0.010 A 
ATOM     25  C   UNL A   1      42.175  37.763  27.997  1.00  0.00     0.056 A 
BRANCH  21  26
ATOM     26  O   UNL A   1      43.378  40.686  29.884  1.00  0.00    -0.493 OA
ATOM     27  C   UNL A   1      42.283  41.241  30.612  1.00  0.00     0.278 C 
ENDBRANCH  21  26
BRANCH  23  28
ATOM     28  O   UNL A   1      41.456  39.946  27.739  1.00  0.00    -0.493 OA
ATOM     29  C   UNL A   1      41.444  39.851  26.324  1.00  0.00     0.278 C 
ENDBRANCH  23  28
ENDBRANCH  16  20
BRANCH  18  30
ATOM     30  C   UNL A   1      45.078  32.314  27.964  1.00  0.00    -0.002 A 
ATOM     31  C   UNL A   1      44.631  31.069  27.506  1.00  0.00     0.011 A 
ATOM     32  C   UNL A   1      46.444  32.576  28.100  1.00  0.00     0.011 A 
ATOM     33  C   UNL A   1      45.559  30.081  27.167  1.00  0.00     0.021 A 
ATOM     34  C   UNL A   1      47.373  31.581  27.787  1.00  0.00     0.021 A 
ATOM     35  C   UNL A   1      46.925  30.338  27.325  1.00  0.00     0.067 A 
BRANCH  35  36
ATOM     36  S   UNL A   1      48.107  29.077  26.899  1.00  0.00     0.175 S 
ATOM     37  C   UNL A   1      47.301  28.122  25.641  1.00  0.00     0.163 C 
ATOM     38  O   UNL A   1      49.242  29.753  26.306  1.00  0.00    -0.224 OA
ATOM     39  O   UNL A   1      48.270  28.220  28.058  1.00  0.00    -0.224 OA
ENDBRANCH  35  36
ENDBRANCH  18  30
ENDBRANCH  10  15
ENDBRANCH   7   9
ENDBRANCH   6   7
ENDBRANCH   5   6
ENDBRANCH   4   5
ENDBRANCH   3   4
ENDBRANCH   2   3
ENDBRANCH   1   2
BRANCH   1  40
ATOM     40  O   UNL A   1      33.438  33.840  28.303  1.00  0.00    -0.377 OA
BRANCH  40  41
ATOM     41  C   UNL A   1      32.107  33.458  27.972  1.00  0.00     0.188 C 
BRANCH  41  42
ATOM     42  C   UNL A   1      31.739  32.935  26.563  1.00  0.00     0.188 C 
BRANCH  42  43
ATOM     43  O   UNL A   1      32.346  31.704  26.216  1.00  0.00    -0.376 OA
BRANCH  43  44
ATOM     44  C   UNL A   1      32.061  30.577  27.023  1.00  0.00     0.202 C 
BRANCH  44  45
ATOM     45  C   UNL A   1      33.247  29.905  27.728  1.00  0.00     0.261 C 
BRANCH  45  46
ATOM     46  O   UNL A   1      34.505  29.946  27.037  1.00  0.00    -0.460 OA
BRANCH  46  47
ATOM     47  C   UNL A   1      35.403  30.874  27.428  1.00  0.00     0.338 C 
ATOM     48  O   UNL A   1      35.220  32.074  27.561  1.00  0.00    -0.246 OA
BRANCH  47  49
ATOM     49  C   UNL A   1      36.624  30.159  27.853  1.00  0.00     0.060 A 
ATOM     50  C   UNL A   1      36.637  29.489  29.084  1.00  0.00     0.016 A 
ATOM     51  C   UNL A   1      37.746  30.136  27.022  1.00  0.00     0.016 A 
ATOM     52  C   UNL A   1      37.788  28.819  29.501  1.00  0.00     0.010 A 
ATOM     53  C   UNL A   1      38.904  29.485  27.451  1.00  0.00     0.010 A 
ATOM     54  C   UNL A   1      38.942  28.852  28.706  1.00  0.00    -0.014 A 
BRANCH  54  55
ATOM     55  C   UNL A   1      40.239  28.398  29.264  1.00  0.00     0.031 A 
ATOM     56  C   UNL A   1      40.807  29.147  30.438  1.00  0.00     0.074 A 
ATOM     57  C   UNL A   1      40.900  27.348  28.746  1.00  0.00     0.049 A 
ATOM     58  N   UNL A   1      41.951  28.991  31.054  1.00  0.00    -0.248 NA
ATOM     59  C   UNL A   1      39.967  30.223  30.990  1.00  0.00     0.031 C 
ATOM     60  C   UNL A   1      40.436  26.520  27.636  1.00  0.00     0.029 A 
ATOM     61  N   UNL A   1      42.118  26.808  29.085  1.00  0.00    -0.354 N 
ATOM     62  C   UNL A   1      41.974  29.957  32.052  1.00  0.00     0.074 A 
ATOM     63  C   UNL A   1      40.744  30.711  31.945  1.00  0.00     0.031 C 
ATOM     64  C   UNL A   1      41.367  25.586  27.372  1.00  0.00     0.029 A 
ATOM     65  C   UNL A   1      42.507  25.775  28.269  1.00  0.00     0.049 A 
ATOM     66  H   UNL A   1      42.658  27.133  29.841  1.00  0.00     0.167 HD
ATOM     67  C   UNL A   1      42.935  30.189  32.977  1.00  0.00     0.037 A 
ATOM     68  C   UNL A   1      43.664  25.086  28.234  1.00  0.00     0.037 A 
ATOM     69  C   UNL A   1      44.154  29.434  33.081  1.00  0.00     0.049 A 
ATOM     70  C   UNL A   1      44.750  25.412  29.232  1.00  0.00     0.074 A 
ATOM     71  C   UNL A   1      45.175  29.569  34.005  1.00  0.00     0.029 A 
ATOM     72  N   UNL A   1      44.524  28.409  32.223  1.00  0.00    -0.354 N 
ATOM     73  N   UNL A   1      44.751  26.300  30.197  1.00  0.00    -0.248 NA
ATOM     74  C   UNL A   1      45.994  24.636  29.136  1.00  0.00     0.031 C 
ATOM     75  C   UNL A   1      46.193  28.675  33.664  1.00  0.00     0.029 A 
ATOM     76  C   UNL A   1      45.776  27.928  32.574  1.00  0.00     0.049 A 
ATOM     77  H   UNL A   1      43.978  28.074  31.475  1.00  0.00     0.167 HD
ATOM     78  C   UNL A   1      45.975  26.165  30.841  1.00  0.00     0.074 A 
ATOM     79  C   UNL A   1      46.685  25.100  30.167  1.00  0.00     0.031 C 
ATOM     80  C   UNL A   1      46.466  26.859  31.898  1.00  0.00     0.037 A 
BRANCH  67  81
ATOM     81  C   UNL A   1      42.724  31.332  33.928  1.00  0.00     0.064 A 
ATOM     82  C   UNL A   1      41.983  31.188  35.111  1.00  0.00     0.173 A 
ATOM     83  C   UNL A   1      43.308  32.582  33.669  1.00  0.00     0.173 A 
ATOM     84  F   UNL A   1      41.391  30.020  35.399  1.00  0.00    -0.203 F 
ATOM     85  C   UNL A   1      41.815  32.259  35.986  1.00  0.00     0.198 A 
ATOM     86  C   UNL A   1      43.167  33.639  34.562  1.00  0.00     0.198 A 
ATOM     87  F   UNL A   1      44.029  32.773  32.554  1.00  0.00    -0.203 F 
ATOM     88  F   UNL A   1      41.063  32.112  37.085  1.00  0.00    -0.200 F 
ATOM     89  C   UNL A   1      42.414  33.480  35.715  1.00  0.00     0.200 A 
ATOM     90  F   UNL A   1      43.760  34.814  34.305  1.00  0.00    -0.200 F 
ATOM     91  F   UNL A   1      42.262  34.506  36.564  1.00  0.00    -0.200 F 
ENDBRANCH  67  81
BRANCH  68  92
ATOM     92  C   UNL A   1      43.877  24.031  27.205  1.00  0.00     0.064 A 
ATOM     93  C   UNL A   1      44.580  24.302  26.023  1.00  0.00     0.173 A 
ATOM     94  C   UNL A   1      43.344  22.742  27.364  1.00  0.00     0.173 A 
ATOM     95  F   UNL A   1      45.084  25.526  25.808  1.00  0.00    -0.203 F 
ATOM     96  C   UNL A   1      44.720  23.334  25.029  1.00  0.00     0.198 A 
ATOM     97  C   UNL A   1      43.515  21.765  26.386  1.00  0.00     0.198 A 
ATOM     98  F   UNL A   1      42.658  22.431  28.473  1.00  0.00    -0.203 F 
ATOM     99  F   UNL A   1      45.344  23.639  23.883  1.00  0.00    -0.200 F 
ATOM    100  C   UNL A   1      44.193  22.065  25.213  1.00  0.00     0.200 A 
ATOM    101  F   UNL A   1      43.014  20.537  26.574  1.00  0.00    -0.200 F 
ATOM    102  F   UNL A   1      44.325  21.135  24.258  1.00  0.00    -0.200 F 
ENDBRANCH  68  92
BRANCH  80 103
ATOM    103  C   UNL A   1      47.817  26.460  32.427  1.00  0.00     0.064 A 
ATOM    104  C   UNL A   1      48.996  27.084  31.995  1.00  0.00     0.173 A 
ATOM    105  C   UNL A   1      47.925  25.471  33.417  1.00  0.00     0.173 A 
ATOM    106  F   UNL A   1      48.952  28.027  31.042  1.00  0.00    -0.203 F 
ATOM    107  C   UNL A   1      50.235  26.711  32.511  1.00  0.00     0.198 A 
ATOM    108  C   UNL A   1      49.160  25.127  33.959  1.00  0.00     0.198 A 
ATOM    109  F   UNL A   1      46.828  24.850  33.875  1.00  0.00    -0.203 F 
ATOM    110  F   UNL A   1      51.353  27.283  32.045  1.00  0.00    -0.200 F 
ATOM    111  C   UNL A   1      50.315  25.740  33.499  1.00  0.00     0.200 A 
ATOM    112  F   UNL A   1      49.232  24.203  34.927  1.00  0.00    -0.200 F 
ATOM    113  F   UNL A   1      51.507  25.391  34.003  1.00  0.00    -0.200 F 
ENDBRANCH  80 103
ENDBRANCH  54  55
ENDBRANCH  47  49
ENDBRANCH  46  47
ENDBRANCH  45  46
ENDBRANCH  44  45
ENDBRANCH  43  44
ENDBRANCH  42  43
ENDBRANCH  41  42
ENDBRANCH  40  41
ENDBRANCH   1  40
TORSDOF 26
ENDMDL
MODEL 3
REMARK VINA RESULT:      -6.7      3.631      6.206
REMARK SMILES COc1ccc([C@H]2CC(c3ccc(S(C)(=O)=O)cc3)=NN2c2ccc(C(=O)OCCOCCOCCOCCOC(=O)c3ccc(-c4c5nc(c(-c6c(F)c(F)c(F)c(F)c6F)c6ccc([nH]6)c(-c6c(F)c(F)c(F)c(F)c6F)c6nc(c(-c7c(F)c(F)c(F)c(F)c7F)c7ccc4[nH]7)C=C6)C=C5)cc3)cc2)cc1OC
REMARK SMILES IDX 33 1 32 2 31 3 30 4 29 5 28 6 26 7 27 8 25 9 22 10 23 11
REMARK SMILES IDX 107 12 24 13 106 14 21 15 7 16 8 17 9 18 20 19 6 20 3 21
REMARK SMILES IDX 4 22 109 23 5 24 108 25 2 26 1 27 110 28 111 29 10 30 11 31
REMARK SMILES IDX 19 32 12 33 18 34 13 35 14 36 15 37 16 38 17 39 34 40 35 41
REMARK SMILES IDX 36 42 37 43 38 44 39 45 40 46 41 47 42 48 43 49 44 50 105 51
REMARK SMILES IDX 45 52 104 53 46 54 47 55 48 56 98 57 49 58 103 59 97 60
REMARK SMILES IDX 99 61 50 62 102 63 96 64 95 65 51 67 83 68 63 69 82 70 64 71
REMARK SMILES IDX 67 72 81 73 100 74 65 75 66 76 80 78 101 79 68 80 52 81
REMARK SMILES IDX 53 82 61 83 54 84 55 85 59 86 62 87 56 88 57 89 60 90 58 91
REMARK SMILES IDX 84 92 85 93 93 94 86 95 87 96 91 97 94 98 88 99 89 100
REMARK SMILES IDX 92 101 90 102 69 103 70 104 78 105 71 106 72 107 76 108
REMARK SMILES IDX 79 109 73 110 74 111 77 112 75 113
REMARK H PARENT 99 66 67 77
REMARK Flexibility Score: inf
ROOT
ATOM      1  C   UNL A   1      38.604  34.598  30.323  1.00  0.00     0.188 C 
ENDROOT
BRANCH   1   2
ATOM      2  C   UNL A   1      39.925  33.804  30.415  1.00  0.00     0.188 C 
BRANCH   2   3
ATOM      3  O   UNL A   1      40.292  33.445  31.736  1.00  0.00    -0.376 OA
BRANCH   3   4
ATOM      4  C   UNL A   1      40.573  34.475  32.666  1.00  0.00     0.202 C 
BRANCH   4   5
ATOM      5  C   UNL A   1      41.978  35.095  32.652  1.00  0.00     0.261 C 
BRANCH   5   6
ATOM      6  O   UNL A   1      42.688  35.077  33.896  1.00  0.00    -0.460 OA
BRANCH   6   7
ATOM      7  C   UNL A   1      43.371  33.945  34.179  1.00  0.00     0.338 C 
ATOM      8  O   UNL A   1      43.481  33.422  35.276  1.00  0.00    -0.246 OA
BRANCH   7   9
ATOM      9  C   UNL A   1      43.820  33.330  32.910  1.00  0.00     0.060 A 
ATOM     10  C   UNL A   1      44.594  32.303  30.406  1.00  0.00     0.060 A 
ATOM     11  C   UNL A   1      45.157  33.488  30.902  1.00  0.00     0.029 A 
ATOM     12  C   UNL A   1      43.719  31.590  31.238  1.00  0.00     0.029 A 
ATOM     13  C   UNL A   1      44.750  34.020  32.127  1.00  0.00     0.018 A 
ATOM     14  C   UNL A   1      43.347  32.084  32.494  1.00  0.00     0.018 A 
BRANCH  10  15
ATOM     15  N   UNL A   1      44.855  31.906  29.102  1.00  0.00    -0.257 N 
ATOM     16  C   UNL A   1      44.153  32.401  27.915  1.00  0.00     0.144 C 
ATOM     17  C   UNL A   1      44.980  31.796  26.775  1.00  0.00     0.091 C 
ATOM     18  C   UNL A   1      45.778  30.786  27.548  1.00  0.00     0.071 C 
ATOM     19  N   UNL A   1      45.729  30.891  28.840  1.00  0.00    -0.176 NA
BRANCH  16  20
ATOM     20  C   UNL A   1      44.069  33.918  27.815  1.00  0.00    -0.019 A 
ATOM     21  C   UNL A   1      43.882  36.734  27.620  1.00  0.00     0.160 A 
ATOM     22  C   UNL A   1      42.889  35.996  28.278  1.00  0.00     0.051 A 
ATOM     23  C   UNL A   1      44.984  36.077  27.063  1.00  0.00     0.161 A 
ATOM     24  C   UNL A   1      42.978  34.602  28.367  1.00  0.00     0.010 A 
ATOM     25  C   UNL A   1      45.063  34.677  27.169  1.00  0.00     0.056 A 
BRANCH  21  26
ATOM     26  O   UNL A   1      43.803  38.100  27.671  1.00  0.00    -0.493 OA
ATOM     27  C   UNL A   1      42.967  38.637  26.646  1.00  0.00     0.278 C 
ENDBRANCH  21  26
BRANCH  23  28
ATOM     28  O   UNL A   1      46.062  36.624  26.420  1.00  0.00    -0.493 OA
ATOM     29  C   UNL A   1      46.965  35.755  25.756  1.00  0.00     0.278 C 
ENDBRANCH  23  28
ENDBRANCH  16  20
BRANCH  18  30
ATOM     30  C   UNL A   1      46.566  29.762  26.850  1.00  0.00    -0.002 A 
ATOM     31  C   UNL A   1      47.947  29.695  27.064  1.00  0.00     0.011 A 
ATOM     32  C   UNL A   1      45.932  28.863  25.989  1.00  0.00     0.011 A 
ATOM     33  C   UNL A   1      48.701  28.709  26.421  1.00  0.00     0.021 A 
ATOM     34  C   UNL A   1      46.687  27.893  25.325  1.00  0.00     0.021 A 
ATOM     35  C   UNL A   1      48.068  27.824  25.542  1.00  0.00     0.067 A 
BRANCH  35  36
ATOM     36  S   UNL A   1      49.029  26.572  24.719  1.00  0.00     0.175 S 
ATOM     37  C   UNL A   1      49.295  27.218  23.089  1.00  0.00     0.163 C 
ATOM     38  O   UNL A   1      50.306  26.512  25.403  1.00  0.00    -0.224 OA
ATOM     39  O   UNL A   1      48.195  25.393  24.590  1.00  0.00    -0.224 OA
ENDBRANCH  35  36
ENDBRANCH  18  30
ENDBRANCH  10  15
ENDBRANCH   7   9
ENDBRANCH   6   7
ENDBRANCH   5   6
ENDBRANCH   4   5
ENDBRANCH   3   4
ENDBRANCH   2   3
ENDBRANCH   1   2
BRANCH   1  40
ATOM     40  O   UNL A   1      37.830  34.539  29.130  1.00  0.00    -0.377 OA
BRANCH  40  41
ATOM     41  C   UNL A   1      36.664  33.723  29.070  1.00  0.00     0.188 C 
BRANCH  41  42
ATOM     42  C   UNL A   1      35.397  34.174  28.307  1.00  0.00     0.188 C 
BRANCH  42  43
ATOM     43  O   UNL A   1      34.270  34.414  29.130  1.00  0.00    -0.376 OA
BRANCH  43  44
ATOM     44  C   UNL A   1      33.858  35.755  29.312  1.00  0.00     0.202 C 
BRANCH  44  45
ATOM     45  C   UNL A   1      32.523  35.985  30.032  1.00  0.00     0.261 C 
BRANCH  45  46
ATOM     46  O   UNL A   1      32.582  36.722  31.263  1.00  0.00    -0.460 OA
BRANCH  46  47
ATOM     47  C   UNL A   1      32.477  36.026  32.413  1.00  0.00     0.338 C 
ATOM     48  O   UNL A   1      31.516  35.972  33.164  1.00  0.00    -0.246 OA
BRANCH  47  49
ATOM     49  C   UNL A   1      33.682  35.178  32.529  1.00  0.00     0.060 A 
ATOM     50  C   UNL A   1      33.536  33.792  32.680  1.00  0.00     0.016 A 
ATOM     51  C   UNL A   1      34.952  35.753  32.469  1.00  0.00     0.016 A 
ATOM     52  C   UNL A   1      34.665  32.981  32.801  1.00  0.00     0.010 A 
ATOM     53  C   UNL A   1      36.080  34.944  32.613  1.00  0.00     0.010 A 
ATOM     54  C   UNL A   1      35.942  33.559  32.813  1.00  0.00    -0.014 A 
BRANCH  54  55
ATOM     55  C   UNL A   1      37.116  32.753  33.229  1.00  0.00     0.031 A 
ATOM     56  C   UNL A   1      37.759  33.065  34.551  1.00  0.00     0.074 A 
ATOM     57  C   UNL A   1      37.602  31.767  32.455  1.00  0.00     0.049 A 
ATOM     58  N   UNL A   1      38.832  32.556  35.100  1.00  0.00    -0.248 NA
ATOM     59  C   UNL A   1      37.100  34.100  35.366  1.00  0.00     0.031 C 
ATOM     60  C   UNL A   1      37.045  31.344  31.173  1.00  0.00     0.029 A 
ATOM     61  N   UNL A   1      38.692  30.949  32.637  1.00  0.00    -0.354 N 
ATOM     62  C   UNL A   1      38.984  33.217  36.312  1.00  0.00     0.074 A 
ATOM     63  C   UNL A   1      37.911  34.182  36.409  1.00  0.00     0.031 C 
ATOM     64  C   UNL A   1      37.808  30.356  30.672  1.00  0.00     0.029 A 
ATOM     65  C   UNL A   1      38.926  30.103  31.580  1.00  0.00     0.049 A 
ATOM     66  H   UNL A   1      39.250  30.969  33.447  1.00  0.00     0.167 HD
ATOM     67  C   UNL A   1      39.933  33.031  37.260  1.00  0.00     0.037 A 
ATOM     68  C   UNL A   1      39.945  29.249  31.363  1.00  0.00     0.037 A 
ATOM     69  C   UNL A   1      40.996  32.067  37.159  1.00  0.00     0.049 A 
ATOM     70  C   UNL A   1      41.030  29.111  32.405  1.00  0.00     0.074 A 
ATOM     71  C   UNL A   1      41.987  31.778  38.080  1.00  0.00     0.029 A 
ATOM     72  N   UNL A   1      41.214  31.243  36.064  1.00  0.00    -0.354 N 
ATOM     73  N   UNL A   1      41.148  29.710  33.564  1.00  0.00    -0.248 NA
ATOM     74  C   UNL A   1      42.122  28.174  32.104  1.00  0.00     0.031 C 
ATOM     75  C   UNL A   1      42.845  30.831  37.515  1.00  0.00     0.029 A 
ATOM     76  C   UNL A   1      42.347  30.472  36.273  1.00  0.00     0.049 A 
ATOM     77  H   UNL A   1      40.648  31.212  35.259  1.00  0.00     0.167 HD
ATOM     78  C   UNL A   1      42.303  29.199  34.145  1.00  0.00     0.074 A 
ATOM     79  C   UNL A   1      42.842  28.230  33.216  1.00  0.00     0.031 C 
ATOM     80  C   UNL A   1      42.866  29.503  35.342  1.00  0.00     0.037 A 
BRANCH  67  81
ATOM     81  C   UNL A   1      39.888  33.914  38.473  1.00  0.00     0.064 A 
ATOM     82  C   UNL A   1      40.567  35.141  38.525  1.00  0.00     0.173 A 
ATOM     83  C   UNL A   1      39.118  33.543  39.587  1.00  0.00     0.173 A 
ATOM     84  F   UNL A   1      41.328  35.536  37.494  1.00  0.00    -0.203 F 
ATOM     85  C   UNL A   1      40.497  35.951  39.656  1.00  0.00     0.198 A 
ATOM     86  C   UNL A   1      39.024  34.370  40.701  1.00  0.00     0.198 A 
ATOM     87  F   UNL A   1      38.447  32.382  39.589  1.00  0.00    -0.203 F 
ATOM     88  F   UNL A   1      41.193  37.094  39.703  1.00  0.00    -0.200 F 
ATOM     89  C   UNL A   1      39.719  35.569  40.739  1.00  0.00     0.200 A 
ATOM     90  F   UNL A   1      38.259  34.007  41.740  1.00  0.00    -0.200 F 
ATOM     91  F   UNL A   1      39.643  36.356  41.822  1.00  0.00    -0.200 F 
ENDBRANCH  67  81
BRANCH  68  92
ATOM     92  C   UNL A   1      40.010  28.469  30.097  1.00  0.00     0.064 A 
ATOM     93  C   UNL A   1      40.677  28.969  28.969  1.00  0.00     0.173 A 
ATOM     94  C   UNL A   1      39.371  27.225  29.975  1.00  0.00     0.173 A 
ATOM     95  F   UNL A   1      41.279  30.166  29.023  1.00  0.00    -0.203 F 
ATOM     96  C   UNL A   1      40.680  28.269  27.763  1.00  0.00     0.198 A 
ATOM     97  C   UNL A   1      39.405  26.510  28.780  1.00  0.00     0.198 A 
ATOM     98  F   UNL A   1      38.714  26.702  31.020  1.00  0.00    -0.203 F 
ATOM     99  F   UNL A   1      41.272  28.800  26.684  1.00  0.00    -0.200 F 
ATOM    100  C   UNL A   1      40.049  27.038  27.671  1.00  0.00     0.200 A 
ATOM    101  F   UNL A   1      38.803  25.316  28.699  1.00  0.00    -0.200 F 
ATOM    102  F   UNL A   1      40.049  26.366  26.512  1.00  0.00    -0.200 F 
ENDBRANCH  68  92
BRANCH  80 103
ATOM    103  C   UNL A   1      44.103  28.747  35.742  1.00  0.00     0.064 A 
ATOM    104  C   UNL A   1      45.389  29.219  35.445  1.00  0.00     0.173 A 
ATOM    105  C   UNL A   1      43.997  27.555  36.476  1.00  0.00     0.173 A 
ATOM    106  F   UNL A   1      45.548  30.347  34.734  1.00  0.00    -0.203 F 
ATOM    107  C   UNL A   1      46.522  28.512  35.841  1.00  0.00     0.198 A 
ATOM    108  C   UNL A   1      45.131  26.870  36.904  1.00  0.00     0.198 A 
ATOM    109  F   UNL A   1      42.791  27.064  36.798  1.00  0.00    -0.203 F 
ATOM    110  F   UNL A   1      47.740  28.954  35.499  1.00  0.00    -0.200 F 
ATOM    111  C   UNL A   1      46.393  27.344  36.578  1.00  0.00     0.200 A 
ATOM    112  F   UNL A   1      45.002  25.753  37.633  1.00  0.00    -0.200 F 
ATOM    113  F   UNL A   1      47.484  26.671  36.969  1.00  0.00    -0.200 F 
ENDBRANCH  80 103
ENDBRANCH  54  55
ENDBRANCH  47  49
ENDBRANCH  46  47
ENDBRANCH  45  46
ENDBRANCH  44  45
ENDBRANCH  43  44
ENDBRANCH  42  43
ENDBRANCH  41  42
ENDBRANCH  40  41
ENDBRANCH   1  40
TORSDOF 26
ENDMDL
