MODEL 1
REMARK VINA RESULT:     -11.8      0.000      0.000
REMARK SMILES Cc1ccc(C(=O)OCCOCCOCCOCCOC(=O)c2ccc(-c3c4nc(c(-c5c(F)c(F)c(F)c(F)c5F)c5ccc([nH]5)c(-c5c(F)c(F)c(F)c(F)c5F)c5nc(c(-c6c(F)c(F)c(F)c(F)c6F)c6ccc3[nH]6)C=C5)C=C4)cc2)cc1NC(=O)Cc1ccc2ccccc2c1
REMARK SMILES IDX 13 1 12 2 11 3 10 4 9 5 8 6 6 7 7 8 5 9 1 10 2 11 3 12 87 13
REMARK SMILES IDX 4 14 86 15 88 16 89 17 90 19 91 20 92 21 93 22 101 23 94 24
REMARK SMILES IDX 100 25 95 26 99 27 96 28 98 29 97 30 14 31 15 32 16 33 17 34
REMARK SMILES IDX 18 35 19 36 20 37 21 38 22 39 23 40 24 41 85 42 25 43 84 44
REMARK SMILES IDX 26 45 27 46 28 47 78 48 29 49 83 50 77 51 79 52 30 53 82 54
REMARK SMILES IDX 76 55 75 56 31 58 63 59 43 60 62 61 44 62 47 63 61 64 80 65
REMARK SMILES IDX 45 66 46 67 60 69 81 70 48 71 32 72 33 73 41 74 34 75 35 76
REMARK SMILES IDX 39 77 42 78 36 79 37 80 40 81 38 82 64 83 65 84 73 85 66 86
REMARK SMILES IDX 67 87 71 88 74 89 68 90 69 91 72 92 70 93 49 94 50 95 58 96
REMARK SMILES IDX 51 97 52 98 56 99 59 100 53 101 54 102 57 103 55 104
REMARK H PARENT 88 18 79 57 47 68
REMARK Flexibility Score: inf
ROOT
ATOM      1  C   UNL A   1      41.306  22.209  27.420  1.00  0.00     0.188 C 
ENDROOT
BRANCH   1   2
ATOM      2  C   UNL A   1      40.178  22.237  26.312  1.00  0.00     0.188 C 
BRANCH   2   3
ATOM      3  O   UNL A   1      39.145  23.378  26.121  1.00  0.00    -0.376 OA
BRANCH   3   4
ATOM      4  C   UNL A   1      37.586  23.545  26.607  1.00  0.00     0.202 C 
BRANCH   4   5
ATOM      5  C   UNL A   1      35.876  23.609  25.900  1.00  0.00     0.261 C 
BRANCH   5   6
ATOM      6  O   UNL A   1      34.800  24.976  25.311  1.00  0.00    -0.460 OA
BRANCH   6   7
ATOM      7  C   UNL A   1      33.485  25.868  25.592  1.00  0.00     0.338 C 
ATOM      8  O   UNL A   1      32.402  25.294  25.391  1.00  0.00    -0.246 OA
BRANCH   7   9
ATOM      9  C   UNL A   1      33.231  27.535  26.079  1.00  0.00     0.062 A 
ATOM     10  C   UNL A   1      31.692  31.626  26.810  1.00  0.00     0.046 C 
ATOM     11  C   UNL A   1      32.342  30.288  26.558  1.00  0.00    -0.027 A 
ATOM     12  C   UNL A   1      31.459  29.218  26.256  1.00  0.00     0.006 A 
ATOM     13  C   UNL A   1      33.718  30.042  26.671  1.00  0.00     0.044 A 
ATOM     14  C   UNL A   1      31.888  27.900  25.996  1.00  0.00     0.016 A 
ATOM     15  C   UNL A   1      34.082  28.679  26.507  1.00  0.00     0.042 A 
BRANCH  13  16
ATOM     16  N   UNL A   1      34.609  31.161  26.929  1.00  0.00    -0.326 N 
ATOM     17  C   UNL A   1      35.000  32.065  27.914  1.00  0.00     0.228 C 
ATOM     18  H   UNL A   1      35.122  31.349  26.111  1.00  0.00     0.169 HD
ATOM     19  O   UNL A   1      35.932  32.822  27.615  1.00  0.00    -0.274 OA
BRANCH  17  20
ATOM     20  C   UNL A   1      34.385  32.123  29.284  1.00  0.00     0.135 C 
BRANCH  20  21
ATOM     21  C   UNL A   1      35.178  32.282  30.613  1.00  0.00    -0.038 A 
ATOM     22  C   UNL A   1      36.562  32.273  30.439  1.00  0.00     0.005 A 
ATOM     23  C   UNL A   1      34.764  32.646  31.907  1.00  0.00     0.013 A 
ATOM     24  C   UNL A   1      37.503  32.678  31.385  1.00  0.00     0.009 A 
ATOM     25  C   UNL A   1      35.714  33.060  32.936  1.00  0.00    -0.018 A 
ATOM     26  C   UNL A   1      37.093  33.103  32.629  1.00  0.00    -0.018 A 
ATOM     27  C   UNL A   1      35.383  33.469  34.251  1.00  0.00     0.009 A 
ATOM     28  C   UNL A   1      38.066  33.567  33.538  1.00  0.00     0.009 A 
ATOM     29  C   UNL A   1      36.357  33.932  35.165  1.00  0.00     0.001 A 
ATOM     30  C   UNL A   1      37.697  33.992  34.804  1.00  0.00     0.001 A 
ENDBRANCH  20  21
ENDBRANCH  17  20
ENDBRANCH  13  16
ENDBRANCH   7   9
ENDBRANCH   6   7
ENDBRANCH   5   6
ENDBRANCH   4   5
ENDBRANCH   3   4
ENDBRANCH   2   3
ENDBRANCH   1   2
BRANCH   1  31
ATOM     31  O   UNL A   1      41.776  20.936  27.848  1.00  0.00    -0.377 OA
BRANCH  31  32
ATOM     32  C   UNL A   1      41.714  19.989  26.800  1.00  0.00     0.188 C 
BRANCH  32  33
ATOM     33  C   UNL A   1      42.493  18.723  27.148  1.00  0.00     0.188 C 
BRANCH  33  34
ATOM     34  O   UNL A   1      43.725  18.650  26.453  1.00  0.00    -0.376 OA
BRANCH  34  35
ATOM     35  C   UNL A   1      43.673  18.642  25.034  1.00  0.00     0.202 C 
BRANCH  35  36
ATOM     36  C   UNL A   1      44.581  19.776  24.557  1.00  0.00     0.261 C 
BRANCH  36  37
ATOM     37  O   UNL A   1      43.945  21.053  24.826  1.00  0.00    -0.460 OA
BRANCH  37  38
ATOM     38  C   UNL A   1      44.518  22.133  24.261  1.00  0.00     0.338 C 
ATOM     39  O   UNL A   1      44.485  22.402  23.032  1.00  0.00    -0.246 OA
BRANCH  38  40
ATOM     40  C   UNL A   1      45.393  22.830  25.242  1.00  0.00     0.060 A 
ATOM     41  C   UNL A   1      45.268  22.590  26.603  1.00  0.00     0.016 A 
ATOM     42  C   UNL A   1      46.166  23.934  24.845  1.00  0.00     0.016 A 
ATOM     43  C   UNL A   1      45.745  23.555  27.504  1.00  0.00     0.010 A 
ATOM     44  C   UNL A   1      46.429  24.981  25.746  1.00  0.00     0.010 A 
ATOM     45  C   UNL A   1      46.032  24.881  27.084  1.00  0.00    -0.014 A 
BRANCH  45  46
ATOM     46  C   UNL A   1      46.047  26.213  28.073  1.00  0.00     0.031 A 
ATOM     47  C   UNL A   1      44.336  26.543  27.683  1.00  0.00     0.074 A 
ATOM     48  C   UNL A   1      47.251  27.189  28.720  1.00  0.00     0.049 A 
ATOM     49  N   UNL A   1      43.858  27.646  27.140  1.00  0.00    -0.248 NA
ATOM     50  C   UNL A   1      43.258  25.529  27.640  1.00  0.00     0.031 C 
ATOM     51  C   UNL A   1      47.280  28.751  29.420  1.00  0.00     0.029 A 
ATOM     52  N   UNL A   1      48.735  27.374  28.548  1.00  0.00    -0.354 N 
ATOM     53  C   UNL A   1      42.529  27.689  27.374  1.00  0.00     0.074 A 
ATOM     54  C   UNL A   1      42.187  26.285  27.330  1.00  0.00     0.031 C 
ATOM     55  C   UNL A   1      48.425  29.416  29.388  1.00  0.00     0.029 A 
ATOM     56  C   UNL A   1      49.180  28.724  28.433  1.00  0.00     0.049 A 
ATOM     57  H   UNL A   1      49.358  26.612  28.516  1.00  0.00     0.167 HD
ATOM     58  C   UNL A   1      41.947  28.803  27.936  1.00  0.00     0.037 A 
ATOM     59  C   UNL A   1      49.750  29.421  27.397  1.00  0.00     0.037 A 
ATOM     60  C   UNL A   1      42.918  29.898  28.312  1.00  0.00     0.049 A 
ATOM     61  C   UNL A   1      48.894  30.735  27.217  1.00  0.00     0.074 A 
ATOM     62  C   UNL A   1      43.358  30.305  29.569  1.00  0.00     0.029 A 
ATOM     63  N   UNL A   1      43.799  30.552  27.413  1.00  0.00    -0.354 N 
ATOM     64  N   UNL A   1      47.578  30.731  27.261  1.00  0.00    -0.248 NA
ATOM     65  C   UNL A   1      49.404  32.100  27.225  1.00  0.00     0.031 C 
ATOM     66  C   UNL A   1      44.509  31.122  29.441  1.00  0.00     0.029 A 
ATOM     67  C   UNL A   1      44.787  31.300  28.093  1.00  0.00     0.049 A 
ATOM     68  H   UNL A   1      43.731  30.492  26.432  1.00  0.00     0.167 HD
ATOM     69  C   UNL A   1      47.055  31.996  27.344  1.00  0.00     0.074 A 
ATOM     70  C   UNL A   1      48.262  32.822  27.299  1.00  0.00     0.031 C 
ATOM     71  C   UNL A   1      45.709  32.293  27.485  1.00  0.00     0.037 A 
BRANCH  58  72
ATOM     72  C   UNL A   1      40.585  28.584  28.614  1.00  0.00     0.064 A 
ATOM     73  C   UNL A   1      39.359  28.983  28.046  1.00  0.00     0.173 A 
ATOM     74  C   UNL A   1      40.469  28.075  29.925  1.00  0.00     0.173 A 
ATOM     75  F   UNL A   1      39.233  29.231  26.739  1.00  0.00    -0.203 F 
ATOM     76  C   UNL A   1      38.185  29.100  28.801  1.00  0.00     0.198 A 
ATOM     77  C   UNL A   1      39.313  28.236  30.698  1.00  0.00     0.198 A 
ATOM     78  F   UNL A   1      41.481  27.394  30.484  1.00  0.00    -0.203 F 
ATOM     79  F   UNL A   1      37.057  29.531  28.215  1.00  0.00    -0.200 F 
ATOM     80  C   UNL A   1      38.177  28.783  30.143  1.00  0.00     0.200 A 
ATOM     81  F   UNL A   1      39.315  27.868  31.988  1.00  0.00    -0.200 F 
ATOM     82  F   UNL A   1      37.071  28.954  30.880  1.00  0.00    -0.200 F 
ENDBRANCH  58  72
BRANCH  59  83
ATOM     83  C   UNL A   1      50.492  28.689  26.294  1.00  0.00     0.064 A 
ATOM     84  C   UNL A   1      49.821  27.919  25.307  1.00  0.00     0.173 A 
ATOM     85  C   UNL A   1      51.854  28.888  26.042  1.00  0.00     0.173 A 
ATOM     86  F   UNL A   1      48.492  27.784  25.311  1.00  0.00    -0.203 F 
ATOM     87  C   UNL A   1      50.443  27.379  24.182  1.00  0.00     0.198 A 
ATOM     88  C   UNL A   1      52.464  28.418  24.862  1.00  0.00     0.198 A 
ATOM     89  F   UNL A   1      52.583  29.655  26.864  1.00  0.00    -0.203 F 
ATOM     90  F   UNL A   1      49.728  26.656  23.307  1.00  0.00    -0.200 F 
ATOM     91  C   UNL A   1      51.760  27.662  23.938  1.00  0.00     0.200 A 
ATOM     92  F   UNL A   1      53.733  28.754  24.592  1.00  0.00    -0.200 F 
ATOM     93  F   UNL A   1      52.330  27.248  22.799  1.00  0.00    -0.200 F 
ENDBRANCH  59  83
BRANCH  71  94
ATOM     94  C   UNL A   1      45.126  33.689  27.279  1.00  0.00     0.064 A 
ATOM     95  C   UNL A   1      44.162  33.970  26.299  1.00  0.00     0.173 A 
ATOM     96  C   UNL A   1      45.383  34.753  28.188  1.00  0.00     0.173 A 
ATOM     97  F   UNL A   1      43.755  33.029  25.437  1.00  0.00    -0.203 F 
ATOM     98  C   UNL A   1      43.535  35.217  26.208  1.00  0.00     0.198 A 
ATOM     99  C   UNL A   1      44.716  35.976  28.127  1.00  0.00     0.198 A 
ATOM    100  F   UNL A   1      46.270  34.648  29.184  1.00  0.00    -0.203 F 
ATOM    101  F   UNL A   1      42.644  35.437  25.232  1.00  0.00    -0.200 F 
ATOM    102  C   UNL A   1      43.797  36.212  27.132  1.00  0.00     0.200 A 
ATOM    103  F   UNL A   1      44.956  36.912  29.058  1.00  0.00    -0.200 F 
ATOM    104  F   UNL A   1      43.149  37.382  27.074  1.00  0.00    -0.200 F 
ENDBRANCH  71  94
ENDBRANCH  45  46
ENDBRANCH  38  40
ENDBRANCH  37  38
ENDBRANCH  36  37
ENDBRANCH  35  36
ENDBRANCH  34  35
ENDBRANCH  33  34
ENDBRANCH  32  33
ENDBRANCH  31  32
ENDBRANCH   1  31
TORSDOF 23
ENDMDL
MODEL 2
REMARK VINA RESULT:     -11.7      5.585     11.272
REMARK SMILES Cc1ccc(C(=O)OCCOCCOCCOCCOC(=O)c2ccc(-c3c4nc(c(-c5c(F)c(F)c(F)c(F)c5F)c5ccc([nH]5)c(-c5c(F)c(F)c(F)c(F)c5F)c5nc(c(-c6c(F)c(F)c(F)c(F)c6F)c6ccc3[nH]6)C=C5)C=C4)cc2)cc1NC(=O)Cc1ccc2ccccc2c1
REMARK SMILES IDX 13 1 12 2 11 3 10 4 9 5 8 6 6 7 7 8 5 9 1 10 2 11 3 12 87 13
REMARK SMILES IDX 4 14 86 15 88 16 89 17 90 19 91 20 92 21 93 22 101 23 94 24
REMARK SMILES IDX 100 25 95 26 99 27 96 28 98 29 97 30 14 31 15 32 16 33 17 34
REMARK SMILES IDX 18 35 19 36 20 37 21 38 22 39 23 40 24 41 85 42 25 43 84 44
REMARK SMILES IDX 26 45 27 46 28 47 78 48 29 49 83 50 77 51 79 52 30 53 82 54
REMARK SMILES IDX 76 55 75 56 31 58 63 59 43 60 62 61 44 62 47 63 61 64 80 65
REMARK SMILES IDX 45 66 46 67 60 69 81 70 48 71 32 72 33 73 41 74 34 75 35 76
REMARK SMILES IDX 39 77 42 78 36 79 37 80 40 81 38 82 64 83 65 84 73 85 66 86
REMARK SMILES IDX 67 87 71 88 74 89 68 90 69 91 72 92 70 93 49 94 50 95 58 96
REMARK SMILES IDX 51 97 52 98 56 99 59 100 53 101 54 102 57 103 55 104
REMARK H PARENT 88 18 79 57 47 68
REMARK Flexibility Score: inf
ROOT
ATOM      1  C   UNL A   1      43.641  22.144  26.384  1.00  0.00     0.188 C 
ENDROOT
BRANCH   1   2
ATOM      2  C   UNL A   1      42.323  22.999  26.199  1.00  0.00     0.188 C 
BRANCH   2   3
ATOM      3  O   UNL A   1      40.900  22.412  26.008  1.00  0.00    -0.376 OA
BRANCH   3   4
ATOM      4  C   UNL A   1      39.437  22.857  26.603  1.00  0.00     0.202 C 
BRANCH   4   5
ATOM      5  C   UNL A   1      37.982  23.910  26.155  1.00  0.00     0.261 C 
BRANCH   5   6
ATOM      6  O   UNL A   1      36.683  23.793  24.860  1.00  0.00    -0.460 OA
BRANCH   6   7
ATOM      7  C   UNL A   1      35.230  24.288  24.367  1.00  0.00     0.338 C 
ATOM      8  O   UNL A   1      34.575  23.452  23.723  1.00  0.00    -0.246 OA
BRANCH   7   9
ATOM      9  C   UNL A   1      34.359  25.808  24.488  1.00  0.00     0.062 A 
ATOM     10  C   UNL A   1      32.255  29.478  25.808  1.00  0.00     0.046 C 
ATOM     11  C   UNL A   1      32.888  28.226  25.251  1.00  0.00    -0.027 A 
ATOM     12  C   UNL A   1      33.800  27.558  26.109  1.00  0.00     0.006 A 
ATOM     13  C   UNL A   1      32.680  27.747  23.949  1.00  0.00     0.044 A 
ATOM     14  C   UNL A   1      34.485  26.377  25.753  1.00  0.00     0.016 A 
ATOM     15  C   UNL A   1      33.476  26.621  23.608  1.00  0.00     0.042 A 
BRANCH  13  16
ATOM     16  N   UNL A   1      31.702  28.416  23.106  1.00  0.00    -0.326 N 
ATOM     17  C   UNL A   1      30.368  28.378  22.708  1.00  0.00     0.228 C 
ATOM     18  H   UNL A   1      32.144  29.169  22.652  1.00  0.00     0.169 HD
ATOM     19  O   UNL A   1      29.995  29.305  21.976  1.00  0.00    -0.274 OA
BRANCH  17  20
ATOM     20  C   UNL A   1      29.395  27.321  23.150  1.00  0.00     0.135 C 
BRANCH  20  21
ATOM     21  C   UNL A   1      29.779  26.001  23.877  1.00  0.00    -0.038 A 
ATOM     22  C   UNL A   1      29.989  24.930  23.009  1.00  0.00     0.005 A 
ATOM     23  C   UNL A   1      30.160  25.747  25.207  1.00  0.00     0.013 A 
ATOM     24  C   UNL A   1      30.612  23.727  23.338  1.00  0.00     0.009 A 
ATOM     25  C   UNL A   1      30.799  24.495  25.603  1.00  0.00    -0.018 A 
ATOM     26  C   UNL A   1      31.050  23.505  24.625  1.00  0.00    -0.018 A 
ATOM     27  C   UNL A   1      31.240  24.168  26.909  1.00  0.00     0.009 A 
ATOM     28  C   UNL A   1      31.734  22.305  24.908  1.00  0.00     0.009 A 
ATOM     29  C   UNL A   1      31.923  22.964  27.195  1.00  0.00     0.001 A 
ATOM     30  C   UNL A   1      32.181  22.038  26.192  1.00  0.00     0.001 A 
ENDBRANCH  20  21
ENDBRANCH  17  20
ENDBRANCH  13  16
ENDBRANCH   7   9
ENDBRANCH   6   7
ENDBRANCH   5   6
ENDBRANCH   4   5
ENDBRANCH   3   4
ENDBRANCH   2   3
ENDBRANCH   1   2
BRANCH   1  31
ATOM     31  O   UNL A   1      44.345  21.760  25.209  1.00  0.00    -0.377 OA
BRANCH  31  32
ATOM     32  C   UNL A   1      44.589  22.872  24.371  1.00  0.00     0.188 C 
BRANCH  32  33
ATOM     33  C   UNL A   1      45.854  23.618  24.793  1.00  0.00     0.188 C 
BRANCH  33  34
ATOM     34  O   UNL A   1      45.677  25.023  24.756  1.00  0.00    -0.376 OA
BRANCH  34  35
ATOM     35  C   UNL A   1      45.177  25.648  25.928  1.00  0.00     0.202 C 
BRANCH  35  36
ATOM     36  C   UNL A   1      43.918  26.410  25.513  1.00  0.00     0.261 C 
BRANCH  36  37
ATOM     37  O   UNL A   1      43.520  27.309  26.581  1.00  0.00    -0.460 OA
BRANCH  37  38
ATOM     38  C   UNL A   1      42.659  26.810  27.489  1.00  0.00     0.338 C 
ATOM     39  O   UNL A   1      41.525  26.338  27.218  1.00  0.00    -0.246 OA
BRANCH  38  40
ATOM     40  C   UNL A   1      43.127  27.112  28.869  1.00  0.00     0.060 A 
ATOM     41  C   UNL A   1      43.577  28.381  29.206  1.00  0.00     0.016 A 
ATOM     42  C   UNL A   1      43.381  26.070  29.776  1.00  0.00     0.016 A 
ATOM     43  C   UNL A   1      44.420  28.523  30.320  1.00  0.00     0.010 A 
ATOM     44  C   UNL A   1      44.396  26.196  30.741  1.00  0.00     0.010 A 
ATOM     45  C   UNL A   1      45.083  27.405  30.893  1.00  0.00    -0.014 A 
BRANCH  45  46
ATOM     46  C   UNL A   1      46.477  27.480  31.789  1.00  0.00     0.031 A 
ATOM     47  C   UNL A   1      47.415  26.826  30.417  1.00  0.00     0.074 A 
ATOM     48  C   UNL A   1      46.822  27.572  33.430  1.00  0.00     0.049 A 
ATOM     49  N   UNL A   1      48.136  25.721  30.420  1.00  0.00    -0.248 NA
ATOM     50  C   UNL A   1      47.287  27.264  29.008  1.00  0.00     0.031 C 
ATOM     51  C   UNL A   1      48.215  27.281  34.381  1.00  0.00     0.029 A 
ATOM     52  N   UNL A   1      46.065  27.455  34.726  1.00  0.00    -0.354 N 
ATOM     53  C   UNL A   1      48.995  25.777  29.380  1.00  0.00     0.074 A 
ATOM     54  C   UNL A   1      48.210  26.494  28.400  1.00  0.00     0.031 C 
ATOM     55  C   UNL A   1      48.034  26.983  35.659  1.00  0.00     0.029 A 
ATOM     56  C   UNL A   1      46.677  26.646  35.728  1.00  0.00     0.049 A 
ATOM     57  H   UNL A   1      45.202  27.908  34.873  1.00  0.00     0.167 HD
ATOM     58  C   UNL A   1      50.343  25.569  29.567  1.00  0.00     0.037 A 
ATOM     59  C   UNL A   1      46.312  25.451  36.296  1.00  0.00     0.037 A 
ATOM     60  C   UNL A   1      50.753  25.353  31.004  1.00  0.00     0.049 A 
ATOM     61  C   UNL A   1      47.563  24.496  36.171  1.00  0.00     0.074 A 
ATOM     62  C   UNL A   1      51.435  26.200  31.874  1.00  0.00     0.029 A 
ATOM     63  N   UNL A   1      50.263  24.321  31.846  1.00  0.00    -0.354 N 
ATOM     64  N   UNL A   1      48.286  24.421  35.074  1.00  0.00    -0.248 NA
ATOM     65  C   UNL A   1      48.213  23.784  37.265  1.00  0.00     0.031 C 
ATOM     66  C   UNL A   1      51.304  25.738  33.208  1.00  0.00     0.029 A 
ATOM     67  C   UNL A   1      50.586  24.550  33.203  1.00  0.00     0.049 A 
ATOM     68  H   UNL A   1      49.759  23.539  31.525  1.00  0.00     0.167 HD
ATOM     69  C   UNL A   1      49.460  23.739  35.268  1.00  0.00     0.074 A 
ATOM     70  C   UNL A   1      49.348  23.345  36.673  1.00  0.00     0.031 C 
ATOM     71  C   UNL A   1      50.451  23.574  34.314  1.00  0.00     0.037 A 
BRANCH  58  72
ATOM     72  C   UNL A   1      51.270  26.133  28.478  1.00  0.00     0.064 A 
ATOM     73  C   UNL A   1      51.566  25.456  27.278  1.00  0.00     0.173 A 
ATOM     74  C   UNL A   1      52.001  27.328  28.655  1.00  0.00     0.173 A 
ATOM     75  F   UNL A   1      50.794  24.469  26.815  1.00  0.00    -0.203 F 
ATOM     76  C   UNL A   1      52.658  25.802  26.471  1.00  0.00     0.198 A 
ATOM     77  C   UNL A   1      53.122  27.650  27.881  1.00  0.00     0.198 A 
ATOM     78  F   UNL A   1      51.630  28.222  29.584  1.00  0.00    -0.203 F 
ATOM     79  F   UNL A   1      52.918  25.089  25.364  1.00  0.00    -0.200 F 
ATOM     80  C   UNL A   1      53.472  26.863  26.806  1.00  0.00     0.200 A 
ATOM     81  F   UNL A   1      53.866  28.720  28.196  1.00  0.00    -0.200 F 
ATOM     82  F   UNL A   1      54.553  27.155  26.068  1.00  0.00    -0.200 F 
ENDBRANCH  58  72
BRANCH  59  83
ATOM     83  C   UNL A   1      44.860  25.013  36.301  1.00  0.00     0.064 A 
ATOM     84  C   UNL A   1      43.874  25.655  37.098  1.00  0.00     0.173 A 
ATOM     85  C   UNL A   1      44.345  24.097  35.376  1.00  0.00     0.173 A 
ATOM     86  F   UNL A   1      44.184  26.674  37.903  1.00  0.00    -0.203 F 
ATOM     87  C   UNL A   1      42.506  25.403  37.001  1.00  0.00     0.198 A 
ATOM     88  C   UNL A   1      42.959  23.907  35.217  1.00  0.00     0.198 A 
ATOM     89  F   UNL A   1      45.168  23.477  34.519  1.00  0.00    -0.203 F 
ATOM     90  F   UNL A   1      41.650  26.052  37.804  1.00  0.00    -0.200 F 
ATOM     91  C   UNL A   1      42.043  24.554  36.031  1.00  0.00     0.200 A 
ATOM     92  F   UNL A   1      42.506  23.130  34.223  1.00  0.00    -0.200 F 
ATOM     93  F   UNL A   1      40.725  24.401  35.855  1.00  0.00    -0.200 F 
ENDBRANCH  59  83
BRANCH  71  94
ATOM     94  C   UNL A   1      51.598  22.574  34.452  1.00  0.00     0.064 A 
ATOM     95  C   UNL A   1      52.760  22.852  35.189  1.00  0.00     0.173 A 
ATOM     96  C   UNL A   1      51.482  21.230  34.003  1.00  0.00     0.173 A 
ATOM     97  F   UNL A   1      52.953  24.052  35.752  1.00  0.00    -0.203 F 
ATOM     98  C   UNL A   1      53.741  21.883  35.424  1.00  0.00     0.198 A 
ATOM     99  C   UNL A   1      52.435  20.254  34.286  1.00  0.00     0.198 A 
ATOM    100  F   UNL A   1      50.434  20.798  33.292  1.00  0.00    -0.203 F 
ATOM    101  F   UNL A   1      54.843  22.215  36.108  1.00  0.00    -0.200 F 
ATOM    102  C   UNL A   1      53.571  20.582  34.991  1.00  0.00     0.200 A 
ATOM    103  F   UNL A   1      52.231  18.988  33.891  1.00  0.00    -0.200 F 
ATOM    104  F   UNL A   1      54.485  19.645  35.271  1.00  0.00    -0.200 F 
ENDBRANCH  71  94
ENDBRANCH  45  46
ENDBRANCH  38  40
ENDBRANCH  37  38
ENDBRANCH  36  37
ENDBRANCH  35  36
ENDBRANCH  34  35
ENDBRANCH  33  34
ENDBRANCH  32  33
ENDBRANCH  31  32
ENDBRANCH   1  31
TORSDOF 23
ENDMDL
MODEL 3
REMARK VINA RESULT:     -11.7      6.559      9.520
REMARK SMILES Cc1ccc(C(=O)OCCOCCOCCOCCOC(=O)c2ccc(-c3c4nc(c(-c5c(F)c(F)c(F)c(F)c5F)c5ccc([nH]5)c(-c5c(F)c(F)c(F)c(F)c5F)c5nc(c(-c6c(F)c(F)c(F)c(F)c6F)c6ccc3[nH]6)C=C5)C=C4)cc2)cc1NC(=O)Cc1ccc2ccccc2c1
REMARK SMILES IDX 13 1 12 2 11 3 10 4 9 5 8 6 6 7 7 8 5 9 1 10 2 11 3 12 87 13
REMARK SMILES IDX 4 14 86 15 88 16 89 17 90 19 91 20 92 21 93 22 101 23 94 24
REMARK SMILES IDX 100 25 95 26 99 27 96 28 98 29 97 30 14 31 15 32 16 33 17 34
REMARK SMILES IDX 18 35 19 36 20 37 21 38 22 39 23 40 24 41 85 42 25 43 84 44
REMARK SMILES IDX 26 45 27 46 28 47 78 48 29 49 83 50 77 51 79 52 30 53 82 54
REMARK SMILES IDX 76 55 75 56 31 58 63 59 43 60 62 61 44 62 47 63 61 64 80 65
REMARK SMILES IDX 45 66 46 67 60 69 81 70 48 71 32 72 33 73 41 74 34 75 35 76
REMARK SMILES IDX 39 77 42 78 36 79 37 80 40 81 38 82 64 83 65 84 73 85 66 86
REMARK SMILES IDX 67 87 71 88 74 89 68 90 69 91 72 92 70 93 49 94 50 95 58 96
REMARK SMILES IDX 51 97 52 98 56 99 59 100 53 101 54 102 57 103 55 104
REMARK H PARENT 88 18 79 57 47 68
REMARK Flexibility Score: inf
ROOT
ATOM      1  C   UNL A   1      42.580  21.043  26.808  1.00  0.00     0.188 C 
ENDROOT
BRANCH   1   2
ATOM      2  C   UNL A   1      41.192  20.845  26.075  1.00  0.00     0.188 C 
BRANCH   2   3
ATOM      3  O   UNL A   1      39.955  21.763  26.246  1.00  0.00    -0.376 OA
BRANCH   3   4
ATOM      4  C   UNL A   1      38.394  21.609  25.764  1.00  0.00     0.202 C 
BRANCH   4   5
ATOM      5  C   UNL A   1      37.198  22.353  24.562  1.00  0.00     0.261 C 
BRANCH   5   6
ATOM      6  O   UNL A   1      35.854  23.596  24.717  1.00  0.00    -0.460 OA
BRANCH   6   7
ATOM      7  C   UNL A   1      34.810  24.549  23.941  1.00  0.00     0.338 C 
ATOM      8  O   UNL A   1      34.550  24.212  22.773  1.00  0.00    -0.246 OA
BRANCH   7   9
ATOM      9  C   UNL A   1      33.973  26.033  24.366  1.00  0.00     0.062 A 
ATOM     10  C   UNL A   1      32.113  29.502  26.400  1.00  0.00     0.046 C 
ATOM     11  C   UNL A   1      32.646  28.330  25.614  1.00  0.00    -0.027 A 
ATOM     12  C   UNL A   1      33.680  27.584  26.239  1.00  0.00     0.006 A 
ATOM     13  C   UNL A   1      32.235  27.995  24.316  1.00  0.00     0.044 A 
ATOM     14  C   UNL A   1      34.297  26.461  25.652  1.00  0.00     0.016 A 
ATOM     15  C   UNL A   1      32.965  26.926  23.731  1.00  0.00     0.042 A 
BRANCH  13  16
ATOM     16  N   UNL A   1      31.140  28.739  23.716  1.00  0.00    -0.326 N 
ATOM     17  C   UNL A   1      29.794  28.647  23.370  1.00  0.00     0.228 C 
ATOM     18  H   UNL A   1      31.469  29.631  23.463  1.00  0.00     0.169 HD
ATOM     19  O   UNL A   1      29.278  29.680  22.924  1.00  0.00    -0.274 OA
BRANCH  17  20
ATOM     20  C   UNL A   1      28.969  27.404  23.549  1.00  0.00     0.135 C 
BRANCH  20  21
ATOM     21  C   UNL A   1      29.504  26.047  24.089  1.00  0.00    -0.038 A 
ATOM     22  C   UNL A   1      29.848  25.145  23.082  1.00  0.00     0.005 A 
ATOM     23  C   UNL A   1      29.902  25.649  25.378  1.00  0.00     0.013 A 
ATOM     24  C   UNL A   1      30.609  23.989  23.251  1.00  0.00     0.009 A 
ATOM     25  C   UNL A   1      30.685  24.437  25.606  1.00  0.00    -0.018 A 
ATOM     26  C   UNL A   1      31.061  23.636  24.503  1.00  0.00    -0.018 A 
ATOM     27  C   UNL A   1      31.152  23.978  26.863  1.00  0.00     0.009 A 
ATOM     28  C   UNL A   1      31.882  22.497  24.628  1.00  0.00     0.009 A 
ATOM     29  C   UNL A   1      31.973  22.834  26.990  1.00  0.00     0.001 A 
ATOM     30  C   UNL A   1      32.348  22.101  25.871  1.00  0.00     0.001 A 
ENDBRANCH  20  21
ENDBRANCH  17  20
ENDBRANCH  13  16
ENDBRANCH   7   9
ENDBRANCH   6   7
ENDBRANCH   5   6
ENDBRANCH   4   5
ENDBRANCH   3   4
ENDBRANCH   2   3
ENDBRANCH   1   2
BRANCH   1  31
ATOM     31  O   UNL A   1      43.378  22.154  26.413  1.00  0.00    -0.377 OA
BRANCH  31  32
ATOM     32  C   UNL A   1      44.382  21.764  25.497  1.00  0.00     0.188 C 
BRANCH  32  33
ATOM     33  C   UNL A   1      45.657  22.581  25.691  1.00  0.00     0.188 C 
BRANCH  33  34
ATOM     34  O   UNL A   1      45.493  23.926  25.279  1.00  0.00    -0.376 OA
BRANCH  34  35
ATOM     35  C   UNL A   1      46.617  24.574  24.704  1.00  0.00     0.202 C 
BRANCH  35  36
ATOM     36  C   UNL A   1      46.558  26.034  25.156  1.00  0.00     0.261 C 
BRANCH  36  37
ATOM     37  O   UNL A   1      47.238  26.176  26.431  1.00  0.00    -0.460 OA
BRANCH  37  38
ATOM     38  C   UNL A   1      46.523  26.733  27.427  1.00  0.00     0.338 C 
ATOM     39  O   UNL A   1      46.188  27.944  27.479  1.00  0.00    -0.246 OA
BRANCH  38  40
ATOM     40  C   UNL A   1      46.392  25.783  28.566  1.00  0.00     0.060 A 
ATOM     41  C   UNL A   1      45.347  24.871  28.614  1.00  0.00     0.016 A 
ATOM     42  C   UNL A   1      47.149  25.967  29.734  1.00  0.00     0.016 A 
ATOM     43  C   UNL A   1      44.979  24.334  29.858  1.00  0.00     0.010 A 
ATOM     44  C   UNL A   1      46.628  25.599  30.987  1.00  0.00     0.010 A 
ATOM     45  C   UNL A   1      45.402  24.931  31.076  1.00  0.00    -0.014 A 
BRANCH  45  46
ATOM     46  C   UNL A   1      44.627  24.774  32.534  1.00  0.00     0.031 A 
ATOM     47  C   UNL A   1      44.191  26.505  32.509  1.00  0.00     0.074 A 
ATOM     48  C   UNL A   1      44.688  23.658  33.788  1.00  0.00     0.049 A 
ATOM     49  N   UNL A   1      44.519  27.406  33.416  1.00  0.00    -0.248 NA
ATOM     50  C   UNL A   1      43.655  27.235  31.338  1.00  0.00     0.031 C 
ATOM     51  C   UNL A   1      44.190  23.667  35.427  1.00  0.00     0.029 A 
ATOM     52  N   UNL A   1      45.548  22.488  34.185  1.00  0.00    -0.354 N 
ATOM     53  C   UNL A   1      43.692  28.464  33.275  1.00  0.00     0.074 A 
ATOM     54  C   UNL A   1      43.476  28.469  31.846  1.00  0.00     0.031 C 
ATOM     55  C   UNL A   1      44.800  22.835  36.257  1.00  0.00     0.029 A 
ATOM     56  C   UNL A   1      45.948  22.452  35.554  1.00  0.00     0.049 A 
ATOM     57  H   UNL A   1      45.817  21.792  33.542  1.00  0.00     0.167 HD
ATOM     58  C   UNL A   1      43.000  28.966  34.354  1.00  0.00     0.037 A 
ATOM     59  C   UNL A   1      47.175  22.573  36.157  1.00  0.00     0.037 A 
ATOM     60  C   UNL A   1      43.197  28.199  35.641  1.00  0.00     0.049 A 
ATOM     61  C   UNL A   1      47.020  23.687  37.265  1.00  0.00     0.074 A 
ATOM     62  C   UNL A   1      42.324  27.348  36.314  1.00  0.00     0.029 A 
ATOM     63  N   UNL A   1      44.446  27.980  36.276  1.00  0.00    -0.354 N 
ATOM     64  N   UNL A   1      46.364  24.808  37.051  1.00  0.00    -0.248 NA
ATOM     65  C   UNL A   1      47.345  23.544  38.679  1.00  0.00     0.031 C 
ATOM     66  C   UNL A   1      43.032  26.587  37.278  1.00  0.00     0.029 A 
ATOM     67  C   UNL A   1      44.361  26.986  37.278  1.00  0.00     0.049 A 
ATOM     68  H   UNL A   1      45.274  28.462  36.048  1.00  0.00     0.167 HD
ATOM     69  C   UNL A   1      46.131  25.506  38.208  1.00  0.00     0.074 A 
ATOM     70  C   UNL A   1      46.793  24.662  39.204  1.00  0.00     0.031 C 
ATOM     71  C   UNL A   1      45.395  26.677  38.297  1.00  0.00     0.037 A 
BRANCH  58  72
ATOM     72  C   UNL A   1      41.749  29.798  34.026  1.00  0.00     0.064 A 
ATOM     73  C   UNL A   1      41.671  31.192  34.208  1.00  0.00     0.173 A 
ATOM     74  C   UNL A   1      40.531  29.203  33.632  1.00  0.00     0.173 A 
ATOM     75  F   UNL A   1      42.764  31.954  34.315  1.00  0.00    -0.203 F 
ATOM     76  C   UNL A   1      40.449  31.878  34.243  1.00  0.00     0.198 A 
ATOM     77  C   UNL A   1      39.303  29.871  33.714  1.00  0.00     0.198 A 
ATOM     78  F   UNL A   1      40.509  27.954  33.142  1.00  0.00    -0.203 F 
ATOM     79  F   UNL A   1      40.435  33.200  34.468  1.00  0.00    -0.200 F 
ATOM     80  C   UNL A   1      39.260  31.205  34.055  1.00  0.00     0.200 A 
ATOM     81  F   UNL A   1      38.164  29.206  33.471  1.00  0.00    -0.200 F 
ATOM     82  F   UNL A   1      38.088  31.848  34.151  1.00  0.00    -0.200 F 
ENDBRANCH  58  72
BRANCH  59  83
ATOM     83  C   UNL A   1      48.445  22.257  35.390  1.00  0.00     0.064 A 
ATOM     84  C   UNL A   1      49.023  20.959  35.377  1.00  0.00     0.173 A 
ATOM     85  C   UNL A   1      49.016  23.151  34.477  1.00  0.00     0.173 A 
ATOM     86  F   UNL A   1      48.483  19.948  36.062  1.00  0.00    -0.203 F 
ATOM     87  C   UNL A   1      50.082  20.584  34.551  1.00  0.00     0.198 A 
ATOM     88  C   UNL A   1      50.025  22.748  33.580  1.00  0.00     0.198 A 
ATOM     89  F   UNL A   1      48.514  24.386  34.345  1.00  0.00    -0.203 F 
ATOM     90  F   UNL A   1      50.569  19.337  34.616  1.00  0.00    -0.200 F 
ATOM     91  C   UNL A   1      50.559  21.470  33.621  1.00  0.00     0.200 A 
ATOM     92  F   UNL A   1      50.442  23.593  32.628  1.00  0.00    -0.200 F 
ATOM     93  F   UNL A   1      51.491  21.076  32.745  1.00  0.00    -0.200 F 
ENDBRANCH  59  83
BRANCH  71  94
ATOM     94  C   UNL A   1      45.398  27.584  39.526  1.00  0.00     0.064 A 
ATOM     95  C   UNL A   1      44.872  27.183  40.764  1.00  0.00     0.173 A 
ATOM     96  C   UNL A   1      46.102  28.820  39.548  1.00  0.00     0.173 A 
ATOM     97  F   UNL A   1      44.267  25.996  40.909  1.00  0.00    -0.203 F 
ATOM     98  C   UNL A   1      45.002  27.965  41.916  1.00  0.00     0.198 A 
ATOM     99  C   UNL A   1      46.276  29.570  40.709  1.00  0.00     0.198 A 
ATOM    100  F   UNL A   1      46.668  29.342  38.454  1.00  0.00    -0.203 F 
ATOM    101  F   UNL A   1      44.453  27.545  43.063  1.00  0.00    -0.200 F 
ATOM    102  C   UNL A   1      45.719  29.147  41.894  1.00  0.00     0.200 A 
ATOM    103  F   UNL A   1      47.010  30.692  40.674  1.00  0.00    -0.200 F 
ATOM    104  F   UNL A   1      45.891  29.861  43.013  1.00  0.00    -0.200 F 
ENDBRANCH  71  94
ENDBRANCH  45  46
ENDBRANCH  38  40
ENDBRANCH  37  38
ENDBRANCH  36  37
ENDBRANCH  35  36
ENDBRANCH  34  35
ENDBRANCH  33  34
ENDBRANCH  32  33
ENDBRANCH  31  32
ENDBRANCH   1  31
TORSDOF 23
ENDMDL
