MODEL 1
REMARK VINA RESULT:     -10.9      0.000      0.000
REMARK SMILES Cc1ccc(N2C(=O)C[C@H](Sc3ccccc3C(=O)OCCOCCOCCOCCOC(=O)c3ccc(-c4c5nc(c(-c6c(F)c(F)c(F)c(F)c6F)c6ccc([nH]6)c(-c6c(F)c(F)c(F)c(F)c6F)c6nc(c(-c7c(F)c(F)c(F)c(F)c7F)c7ccc4[nH]7)C=C6)C=C5)cc3)C2=O)cc1
REMARK SMILES IDX 25 1 24 2 23 3 22 4 21 5 20 6 18 7 19 8 17 9 12 10 13 11
REMARK SMILES IDX 14 12 16 13 15 14 11 15 10 16 6 17 7 18 98 19 8 20 9 21
REMARK SMILES IDX 99 22 5 23 1 24 2 25 3 26 101 27 4 28 100 29 26 30 27 31
REMARK SMILES IDX 28 32 29 33 30 34 31 35 32 36 33 37 34 38 35 39 36 40 97 41
REMARK SMILES IDX 37 42 96 43 38 44 39 45 40 46 90 47 41 48 95 49 89 50 91 51
REMARK SMILES IDX 42 52 94 53 88 54 87 55 43 57 75 58 55 59 74 60 56 61 59 62
REMARK SMILES IDX 73 63 92 64 57 65 58 66 72 68 93 69 60 70 44 71 45 72 53 73
REMARK SMILES IDX 46 74 47 75 51 76 54 77 48 78 49 79 52 80 50 81 76 82 77 83
REMARK SMILES IDX 85 84 78 85 79 86 83 87 86 88 80 89 81 90 84 91 82 92 61 93
REMARK SMILES IDX 62 94 70 95 63 96 64 97 68 98 71 99 65 100 66 101 69 102
REMARK SMILES IDX 67 103
REMARK H PARENT 91 56 59 67
REMARK Flexibility Score: inf
ROOT
ATOM      1  C   UNL A   1      40.906  21.364  26.662  1.00  0.00     0.188 C 
ENDROOT
BRANCH   1   2
ATOM      2  C   UNL A   1      39.485  21.142  26.131  1.00  0.00     0.188 C 
BRANCH   2   3
ATOM      3  O   UNL A   1      38.732  22.332  25.980  1.00  0.00    -0.376 OA
BRANCH   3   4
ATOM      4  C   UNL A   1      37.376  22.241  25.558  1.00  0.00     0.202 C 
BRANCH   4   5
ATOM      5  C   UNL A   1      36.995  22.307  24.088  1.00  0.00     0.261 C 
BRANCH   5   6
ATOM      6  O   UNL A   1      35.735  22.904  23.875  1.00  0.00    -0.460 OA
BRANCH   6   7
ATOM      7  C   UNL A   1      34.911  22.908  24.933  1.00  0.00     0.339 C 
ATOM      8  O   UNL A   1      34.778  23.802  25.752  1.00  0.00    -0.246 OA
BRANCH   7   9
ATOM      9  C   UNL A   1      34.000  21.777  24.674  1.00  0.00     0.073 A 
ATOM     10  C   UNL A   1      33.134  21.786  23.563  1.00  0.00     0.023 A 
ATOM     11  C   UNL A   1      32.299  20.674  23.400  1.00  0.00     0.016 A 
ATOM     12  C   UNL A   1      32.387  19.557  24.245  1.00  0.00     0.001 A 
ATOM     13  C   UNL A   1      34.109  20.635  25.507  1.00  0.00     0.017 A 
ATOM     14  C   UNL A   1      33.316  19.520  25.277  1.00  0.00     0.001 A 
BRANCH  10  15
ATOM     15  S   UNL A   1      32.844  23.164  22.441  1.00  0.00    -0.111 SA
BRANCH  15  16
ATOM     16  C   UNL A   1      31.604  24.285  23.222  1.00  0.00     0.151 C 
ATOM     17  N   UNL A   1      32.229  26.019  24.659  1.00  0.00    -0.250 N 
ATOM     18  C   UNL A   1      31.609  25.091  25.446  1.00  0.00     0.235 C 
ATOM     19  C   UNL A   1      32.057  25.723  23.334  1.00  0.00     0.247 C 
ATOM     20  O   UNL A   1      31.328  25.211  26.611  1.00  0.00    -0.274 OA
ATOM     21  C   UNL A   1      31.160  23.938  24.608  1.00  0.00     0.126 C 
ATOM     22  O   UNL A   1      32.167  26.485  22.383  1.00  0.00    -0.273 OA
BRANCH  17  23
ATOM     23  C   UNL A   1      32.501  27.286  25.208  1.00  0.00     0.052 A 
ATOM     24  C   UNL A   1      33.080  30.948  27.413  1.00  0.00     0.044 C 
ATOM     25  C   UNL A   1      32.874  29.658  26.675  1.00  0.00    -0.051 A 
ATOM     26  C   UNL A   1      31.715  29.465  25.909  1.00  0.00     0.005 A 
ATOM     27  C   UNL A   1      33.841  28.649  26.709  1.00  0.00     0.005 A 
ATOM     28  C   UNL A   1      31.530  28.290  25.174  1.00  0.00     0.027 A 
ATOM     29  C   UNL A   1      33.650  27.466  25.988  1.00  0.00     0.027 A 
ENDBRANCH  17  23
ENDBRANCH  15  16
ENDBRANCH  10  15
ENDBRANCH   7   9
ENDBRANCH   6   7
ENDBRANCH   5   6
ENDBRANCH   4   5
ENDBRANCH   3   4
ENDBRANCH   2   3
ENDBRANCH   1   2
BRANCH   1  30
ATOM     30  O   UNL A   1      41.758  22.214  25.898  1.00  0.00    -0.377 OA
BRANCH  30  31
ATOM     31  C   UNL A   1      43.070  22.378  26.436  1.00  0.00     0.188 C 
BRANCH  31  32
ATOM     32  C   UNL A   1      43.583  23.791  26.644  1.00  0.00     0.188 C 
BRANCH  32  33
ATOM     33  O   UNL A   1      42.439  24.637  26.606  1.00  0.00    -0.376 OA
BRANCH  33  34
ATOM     34  C   UNL A   1      42.640  25.960  26.142  1.00  0.00     0.202 C 
BRANCH  34  35
ATOM     35  C   UNL A   1      41.324  26.699  25.879  1.00  0.00     0.261 C 
BRANCH  35  36
ATOM     36  O   UNL A   1      40.857  27.352  27.091  1.00  0.00    -0.460 OA
BRANCH  36  37
ATOM     37  C   UNL A   1      39.961  26.690  27.880  1.00  0.00     0.338 C 
ATOM     38  O   UNL A   1      39.166  25.858  27.473  1.00  0.00    -0.246 OA
BRANCH  37  39
ATOM     39  C   UNL A   1      40.054  27.118  29.312  1.00  0.00     0.060 A 
ATOM     40  C   UNL A   1      38.948  27.060  30.178  1.00  0.00     0.016 A 
ATOM     41  C   UNL A   1      41.196  27.770  29.745  1.00  0.00     0.016 A 
ATOM     42  C   UNL A   1      38.939  27.794  31.387  1.00  0.00     0.010 A 
ATOM     43  C   UNL A   1      41.122  28.594  30.856  1.00  0.00     0.010 A 
ATOM     44  C   UNL A   1      39.990  28.654  31.690  1.00  0.00    -0.014 A 
BRANCH  44  45
ATOM     45  C   UNL A   1      39.976  29.713  32.744  1.00  0.00     0.031 A 
ATOM     46  C   UNL A   1      40.787  29.452  34.007  1.00  0.00     0.074 A 
ATOM     47  C   UNL A   1      39.601  30.986  32.401  1.00  0.00     0.049 A 
ATOM     48  N   UNL A   1      41.048  30.313  34.936  1.00  0.00    -0.248 NA
ATOM     49  C   UNL A   1      41.466  28.180  34.287  1.00  0.00     0.031 C 
ATOM     50  C   UNL A   1      40.064  32.236  33.002  1.00  0.00     0.029 A 
ATOM     51  N   UNL A   1      38.809  31.481  31.342  1.00  0.00    -0.354 N 
ATOM     52  C   UNL A   1      42.151  29.883  35.670  1.00  0.00     0.074 A 
ATOM     53  C   UNL A   1      42.299  28.503  35.286  1.00  0.00     0.031 C 
ATOM     54  C   UNL A   1      39.588  33.318  32.362  1.00  0.00     0.029 A 
ATOM     55  C   UNL A   1      38.448  32.821  31.664  1.00  0.00     0.049 A 
ATOM     56  H   UNL A   1      38.552  30.991  30.528  1.00  0.00     0.167 HD
ATOM     57  C   UNL A   1      42.877  30.796  36.404  1.00  0.00     0.037 A 
ATOM     58  C   UNL A   1      37.179  33.104  32.092  1.00  0.00     0.037 A 
ATOM     59  C   UNL A   1      42.206  32.128  36.434  1.00  0.00     0.049 A 
ATOM     60  C   UNL A   1      37.139  33.394  33.618  1.00  0.00     0.074 A 
ATOM     61  C   UNL A   1      42.587  33.454  36.277  1.00  0.00     0.029 A 
ATOM     62  N   UNL A   1      40.812  32.178  36.496  1.00  0.00    -0.354 N 
ATOM     63  N   UNL A   1      38.204  33.399  34.395  1.00  0.00    -0.248 NA
ATOM     64  C   UNL A   1      35.959  33.712  34.406  1.00  0.00     0.031 C 
ATOM     65  C   UNL A   1      41.406  34.266  36.202  1.00  0.00     0.029 A 
ATOM     66  C   UNL A   1      40.298  33.453  36.377  1.00  0.00     0.049 A 
ATOM     67  H   UNL A   1      40.249  31.380  36.614  1.00  0.00     0.167 HD
ATOM     68  C   UNL A   1      37.920  33.638  35.702  1.00  0.00     0.074 A 
ATOM     69  C   UNL A   1      36.472  33.815  35.654  1.00  0.00     0.031 C 
ATOM     70  C   UNL A   1      38.881  33.656  36.693  1.00  0.00     0.037 A 
BRANCH  57  71
ATOM     71  C   UNL A   1      44.300  30.589  36.990  1.00  0.00     0.064 A 
ATOM     72  C   UNL A   1      45.357  30.106  36.174  1.00  0.00     0.173 A 
ATOM     73  C   UNL A   1      44.678  30.745  38.346  1.00  0.00     0.173 A 
ATOM     74  F   UNL A   1      45.200  29.956  34.852  1.00  0.00    -0.203 F 
ATOM     75  C   UNL A   1      46.631  29.766  36.669  1.00  0.00     0.198 A 
ATOM     76  C   UNL A   1      45.973  30.469  38.828  1.00  0.00     0.198 A 
ATOM     77  F   UNL A   1      43.807  31.125  39.285  1.00  0.00    -0.203 F 
ATOM     78  F   UNL A   1      47.553  29.250  35.843  1.00  0.00    -0.200 F 
ATOM     79  C   UNL A   1      46.944  29.958  37.995  1.00  0.00     0.200 A 
ATOM     80  F   UNL A   1      46.262  30.684  40.122  1.00  0.00    -0.200 F 
ATOM     81  F   UNL A   1      48.162  29.654  38.467  1.00  0.00    -0.200 F 
ENDBRANCH  57  71
BRANCH  58  82
ATOM     82  C   UNL A   1      36.235  32.450  31.114  1.00  0.00     0.064 A 
ATOM     83  C   UNL A   1      36.131  33.126  29.863  1.00  0.00     0.173 A 
ATOM     84  C   UNL A   1      36.142  31.050  31.071  1.00  0.00     0.173 A 
ATOM     85  F   UNL A   1      36.174  34.468  29.828  1.00  0.00    -0.203 F 
ATOM     86  C   UNL A   1      36.227  32.439  28.648  1.00  0.00     0.198 A 
ATOM     87  C   UNL A   1      36.191  30.367  29.843  1.00  0.00     0.198 A 
ATOM     88  F   UNL A   1      36.224  30.339  32.205  1.00  0.00    -0.203 F 
ATOM     89  F   UNL A   1      36.359  33.116  27.497  1.00  0.00    -0.200 F 
ATOM     90  C   UNL A   1      36.312  31.059  28.645  1.00  0.00     0.200 A 
ATOM     91  F   UNL A   1      36.252  29.027  29.828  1.00  0.00    -0.200 F 
ATOM     92  F   UNL A   1      36.571  30.401  27.505  1.00  0.00    -0.200 F 
ENDBRANCH  58  82
BRANCH  70  93
ATOM     93  C   UNL A   1      38.575  33.772  38.169  1.00  0.00     0.064 A 
ATOM     94  C   UNL A   1      37.948  32.759  38.893  1.00  0.00     0.173 A 
ATOM     95  C   UNL A   1      38.877  34.950  38.910  1.00  0.00     0.173 A 
ATOM     96  F   UNL A   1      37.401  31.707  38.269  1.00  0.00    -0.203 F 
ATOM     97  C   UNL A   1      37.833  32.823  40.282  1.00  0.00     0.198 A 
ATOM     98  C   UNL A   1      38.706  35.037  40.284  1.00  0.00     0.198 A 
ATOM     99  F   UNL A   1      39.359  36.064  38.347  1.00  0.00    -0.203 F 
ATOM    100  F   UNL A   1      37.333  31.775  40.947  1.00  0.00    -0.200 F 
ATOM    101  C   UNL A   1      38.232  33.950  40.978  1.00  0.00     0.200 A 
ATOM    102  F   UNL A   1      39.026  36.171  40.922  1.00  0.00    -0.200 F 
ATOM    103  F   UNL A   1      38.147  33.996  42.312  1.00  0.00    -0.200 F 
ENDBRANCH  70  93
ENDBRANCH  44  45
ENDBRANCH  37  39
ENDBRANCH  36  37
ENDBRANCH  35  36
ENDBRANCH  34  35
ENDBRANCH  33  34
ENDBRANCH  32  33
ENDBRANCH  31  32
ENDBRANCH  30  31
ENDBRANCH   1  30
TORSDOF 23
ENDMDL
MODEL 2
REMARK VINA RESULT:      -9.5      1.818      2.322
REMARK SMILES Cc1ccc(N2C(=O)C[C@H](Sc3ccccc3C(=O)OCCOCCOCCOCCOC(=O)c3ccc(-c4c5nc(c(-c6c(F)c(F)c(F)c(F)c6F)c6ccc([nH]6)c(-c6c(F)c(F)c(F)c(F)c6F)c6nc(c(-c7c(F)c(F)c(F)c(F)c7F)c7ccc4[nH]7)C=C6)C=C5)cc3)C2=O)cc1
REMARK SMILES IDX 25 1 24 2 23 3 22 4 21 5 20 6 18 7 19 8 17 9 12 10 13 11
REMARK SMILES IDX 14 12 16 13 15 14 11 15 10 16 6 17 7 18 98 19 8 20 9 21
REMARK SMILES IDX 99 22 5 23 1 24 2 25 3 26 101 27 4 28 100 29 26 30 27 31
REMARK SMILES IDX 28 32 29 33 30 34 31 35 32 36 33 37 34 38 35 39 36 40 97 41
REMARK SMILES IDX 37 42 96 43 38 44 39 45 40 46 90 47 41 48 95 49 89 50 91 51
REMARK SMILES IDX 42 52 94 53 88 54 87 55 43 57 75 58 55 59 74 60 56 61 59 62
REMARK SMILES IDX 73 63 92 64 57 65 58 66 72 68 93 69 60 70 44 71 45 72 53 73
REMARK SMILES IDX 46 74 47 75 51 76 54 77 48 78 49 79 52 80 50 81 76 82 77 83
REMARK SMILES IDX 85 84 78 85 79 86 83 87 86 88 80 89 81 90 84 91 82 92 61 93
REMARK SMILES IDX 62 94 70 95 63 96 64 97 68 98 71 99 65 100 66 101 69 102
REMARK SMILES IDX 67 103
REMARK H PARENT 91 56 59 67
REMARK Flexibility Score: inf
ROOT
ATOM      1  C   UNL A   1      40.528  20.925  26.755  1.00  0.00     0.188 C 
ENDROOT
BRANCH   1   2
ATOM      2  C   UNL A   1      39.329  20.763  25.814  1.00  0.00     0.188 C 
BRANCH   2   3
ATOM      3  O   UNL A   1      38.629  21.968  25.558  1.00  0.00    -0.376 OA
BRANCH   3   4
ATOM      4  C   UNL A   1      37.293  21.901  25.074  1.00  0.00     0.202 C 
BRANCH   4   5
ATOM      5  C   UNL A   1      36.936  22.342  23.664  1.00  0.00     0.261 C 
BRANCH   5   6
ATOM      6  O   UNL A   1      35.670  22.958  23.587  1.00  0.00    -0.460 OA
BRANCH   6   7
ATOM      7  C   UNL A   1      34.938  22.919  24.710  1.00  0.00     0.339 C 
ATOM      8  O   UNL A   1      34.879  23.779  25.573  1.00  0.00    -0.246 OA
BRANCH   7   9
ATOM      9  C   UNL A   1      34.005  21.800  24.485  1.00  0.00     0.073 A 
ATOM     10  C   UNL A   1      33.056  21.849  23.444  1.00  0.00     0.023 A 
ATOM     11  C   UNL A   1      32.206  20.744  23.309  1.00  0.00     0.016 A 
ATOM     12  C   UNL A   1      32.354  19.599  24.105  1.00  0.00     0.001 A 
ATOM     13  C   UNL A   1      34.173  20.630  25.267  1.00  0.00     0.017 A 
ATOM     14  C   UNL A   1      33.359  19.525  25.061  1.00  0.00     0.001 A 
BRANCH  10  15
ATOM     15  S   UNL A   1      32.687  23.265  22.396  1.00  0.00    -0.111 SA
BRANCH  15  16
ATOM     16  C   UNL A   1      31.481  24.338  23.289  1.00  0.00     0.151 C 
ATOM     17  N   UNL A   1      32.167  26.079  24.689  1.00  0.00    -0.250 N 
ATOM     18  C   UNL A   1      31.645  25.125  25.515  1.00  0.00     0.235 C 
ATOM     19  C   UNL A   1      31.895  25.789  23.379  1.00  0.00     0.247 C 
ATOM     20  O   UNL A   1      31.457  25.225  26.700  1.00  0.00    -0.274 OA
ATOM     21  C   UNL A   1      31.164  23.965  24.703  1.00  0.00     0.126 C 
ATOM     22  O   UNL A   1      31.901  26.563  22.432  1.00  0.00    -0.273 OA
BRANCH  17  23
ATOM     23  C   UNL A   1      32.443  27.349  25.229  1.00  0.00     0.052 A 
ATOM     24  C   UNL A   1      33.124  30.997  27.427  1.00  0.00     0.044 C 
ATOM     25  C   UNL A   1      32.887  29.711  26.691  1.00  0.00    -0.051 A 
ATOM     26  C   UNL A   1      31.644  29.464  26.092  1.00  0.00     0.005 A 
ATOM     27  C   UNL A   1      33.904  28.761  26.561  1.00  0.00     0.005 A 
ATOM     28  C   UNL A   1      31.422  28.294  25.358  1.00  0.00     0.027 A 
ATOM     29  C   UNL A   1      33.679  27.583  25.843  1.00  0.00     0.027 A 
ENDBRANCH  17  23
ENDBRANCH  15  16
ENDBRANCH  10  15
ENDBRANCH   7   9
ENDBRANCH   6   7
ENDBRANCH   5   6
ENDBRANCH   4   5
ENDBRANCH   3   4
ENDBRANCH   2   3
ENDBRANCH   1   2
BRANCH   1  30
ATOM     30  O   UNL A   1      41.671  21.602  26.240  1.00  0.00    -0.377 OA
BRANCH  30  31
ATOM     31  C   UNL A   1      41.664  23.015  26.441  1.00  0.00     0.188 C 
BRANCH  31  32
ATOM     32  C   UNL A   1      41.183  23.543  27.780  1.00  0.00     0.188 C 
BRANCH  32  33
ATOM     33  O   UNL A   1      42.294  23.448  28.664  1.00  0.00    -0.376 OA
BRANCH  33  34
ATOM     34  C   UNL A   1      43.332  24.395  28.487  1.00  0.00     0.202 C 
BRANCH  34  35
ATOM     35  C   UNL A   1      43.466  25.353  29.674  1.00  0.00     0.261 C 
BRANCH  35  36
ATOM     36  O   UNL A   1      43.585  26.726  29.208  1.00  0.00    -0.460 OA
BRANCH  36  37
ATOM     37  C   UNL A   1      42.607  27.220  28.392  1.00  0.00     0.338 C 
ATOM     38  O   UNL A   1      42.397  26.833  27.255  1.00  0.00    -0.246 OA
BRANCH  37  39
ATOM     39  C   UNL A   1      41.829  28.315  29.054  1.00  0.00     0.060 A 
ATOM     40  C   UNL A   1      42.001  29.666  28.703  1.00  0.00     0.016 A 
ATOM     41  C   UNL A   1      41.068  28.017  30.171  1.00  0.00     0.016 A 
ATOM     42  C   UNL A   1      41.555  30.697  29.561  1.00  0.00     0.010 A 
ATOM     43  C   UNL A   1      40.763  29.028  31.068  1.00  0.00     0.010 A 
ATOM     44  C   UNL A   1      41.020  30.386  30.808  1.00  0.00    -0.014 A 
BRANCH  44  45
ATOM     45  C   UNL A   1      40.808  31.348  31.932  1.00  0.00     0.031 A 
ATOM     46  C   UNL A   1      41.867  31.389  33.025  1.00  0.00     0.074 A 
ATOM     47  C   UNL A   1      39.939  32.393  31.755  1.00  0.00     0.049 A 
ATOM     48  N   UNL A   1      41.956  32.270  33.967  1.00  0.00    -0.248 NA
ATOM     49  C   UNL A   1      43.001  30.458  33.092  1.00  0.00     0.031 C 
ATOM     50  C   UNL A   1      40.013  33.717  32.373  1.00  0.00     0.029 A 
ATOM     51  N   UNL A   1      38.847  32.574  30.878  1.00  0.00    -0.354 N 
ATOM     52  C   UNL A   1      43.250  32.272  34.481  1.00  0.00     0.074 A 
ATOM     53  C   UNL A   1      43.822  31.053  33.969  1.00  0.00     0.031 C 
ATOM     54  C   UNL A   1      39.071  34.553  31.905  1.00  0.00     0.029 A 
ATOM     55  C   UNL A   1      38.086  33.677  31.359  1.00  0.00     0.049 A 
ATOM     56  H   UNL A   1      38.648  32.035  30.078  1.00  0.00     0.167 HD
ATOM     57  C   UNL A   1      43.711  33.379  35.160  1.00  0.00     0.037 A 
ATOM     58  C   UNL A   1      36.899  33.459  32.004  1.00  0.00     0.037 A 
ATOM     59  C   UNL A   1      42.617  34.364  35.403  1.00  0.00     0.049 A 
ATOM     60  C   UNL A   1      37.025  33.691  33.535  1.00  0.00     0.074 A 
ATOM     61  C   UNL A   1      42.454  35.738  35.294  1.00  0.00     0.029 A 
ATOM     62  N   UNL A   1      41.336  33.889  35.689  1.00  0.00    -0.354 N 
ATOM     63  N   UNL A   1      38.135  34.081  34.131  1.00  0.00    -0.248 NA
ATOM     64  C   UNL A   1      35.970  33.533  34.523  1.00  0.00     0.031 C 
ATOM     65  C   UNL A   1      41.064  36.052  35.472  1.00  0.00     0.029 A 
ATOM     66  C   UNL A   1      40.380  34.881  35.755  1.00  0.00     0.049 A 
ATOM     67  H   UNL A   1      41.133  32.936  35.830  1.00  0.00     0.167 HD
ATOM     68  C   UNL A   1      38.019  34.177  35.481  1.00  0.00     0.074 A 
ATOM     69  C   UNL A   1      36.622  33.801  35.678  1.00  0.00     0.031 C 
ATOM     70  C   UNL A   1      39.066  34.536  36.307  1.00  0.00     0.037 A 
BRANCH  57  71
ATOM     71  C   UNL A   1      45.191  33.709  35.496  1.00  0.00     0.064 A 
ATOM     72  C   UNL A   1      46.120  34.004  34.463  1.00  0.00     0.173 A 
ATOM     73  C   UNL A   1      45.790  33.659  36.778  1.00  0.00     0.173 A 
ATOM     74  F   UNL A   1      45.721  34.152  33.193  1.00  0.00    -0.203 F 
ATOM     75  C   UNL A   1      47.500  34.177  34.682  1.00  0.00     0.198 A 
ATOM     76  C   UNL A   1      47.160  33.899  37.005  1.00  0.00     0.198 A 
ATOM     77  F   UNL A   1      45.097  33.330  37.871  1.00  0.00    -0.203 F 
ATOM     78  F   UNL A   1      48.321  34.384  33.641  1.00  0.00    -0.200 F 
ATOM     79  C   UNL A   1      48.020  34.135  35.955  1.00  0.00     0.200 A 
ATOM     80  F   UNL A   1      47.642  33.875  38.258  1.00  0.00    -0.200 F 
ATOM     81  F   UNL A   1      49.331  34.318  36.171  1.00  0.00    -0.200 F 
ENDBRANCH  57  71
BRANCH  58  82
ATOM     82  C   UNL A   1      36.101  32.515  31.138  1.00  0.00     0.064 A 
ATOM     83  C   UNL A   1      35.806  33.023  29.839  1.00  0.00     0.173 A 
ATOM     84  C   UNL A   1      36.331  31.133  31.226  1.00  0.00     0.173 A 
ATOM     85  F   UNL A   1      35.538  34.330  29.683  1.00  0.00    -0.203 F 
ATOM     86  C   UNL A   1      36.021  32.259  28.687  1.00  0.00     0.198 A 
ATOM     87  C   UNL A   1      36.499  30.361  30.063  1.00  0.00     0.198 A 
ATOM     88  F   UNL A   1      36.609  30.575  32.412  1.00  0.00    -0.203 F 
ATOM     89  F   UNL A   1      35.959  32.832  27.475  1.00  0.00    -0.200 F 
ATOM     90  C   UNL A   1      36.421  30.941  28.803  1.00  0.00     0.200 A 
ATOM     91  F   UNL A   1      36.867  29.076  30.164  1.00  0.00    -0.200 F 
ATOM     92  F   UNL A   1      36.791  30.250  27.714  1.00  0.00    -0.200 F 
ENDBRANCH  58  82
BRANCH  70  93
ATOM     93  C   UNL A   1      39.005  34.507  37.817  1.00  0.00     0.064 A 
ATOM     94  C   UNL A   1      39.151  35.651  38.601  1.00  0.00     0.173 A 
ATOM     95  C   UNL A   1      38.831  33.293  38.540  1.00  0.00     0.173 A 
ATOM     96  F   UNL A   1      39.556  36.807  38.059  1.00  0.00    -0.203 F 
ATOM     97  C   UNL A   1      38.921  35.622  39.976  1.00  0.00     0.198 A 
ATOM     98  C   UNL A   1      38.663  33.257  39.917  1.00  0.00     0.198 A 
ATOM     99  F   UNL A   1      38.806  32.091  37.954  1.00  0.00    -0.203 F 
ATOM    100  F   UNL A   1      38.954  36.766  40.670  1.00  0.00    -0.200 F 
ATOM    101  C   UNL A   1      38.655  34.431  40.630  1.00  0.00     0.200 A 
ATOM    102  F   UNL A   1      38.488  32.080  40.533  1.00  0.00    -0.200 F 
ATOM    103  F   UNL A   1      38.406  34.413  41.944  1.00  0.00    -0.200 F 
ENDBRANCH  70  93
ENDBRANCH  44  45
ENDBRANCH  37  39
ENDBRANCH  36  37
ENDBRANCH  35  36
ENDBRANCH  34  35
ENDBRANCH  33  34
ENDBRANCH  32  33
ENDBRANCH  31  32
ENDBRANCH  30  31
ENDBRANCH   1  30
TORSDOF 23
ENDMDL
MODEL 3
REMARK VINA RESULT:      -9.2      6.275     11.304
REMARK SMILES Cc1ccc(N2C(=O)C[C@H](Sc3ccccc3C(=O)OCCOCCOCCOCCOC(=O)c3ccc(-c4c5nc(c(-c6c(F)c(F)c(F)c(F)c6F)c6ccc([nH]6)c(-c6c(F)c(F)c(F)c(F)c6F)c6nc(c(-c7c(F)c(F)c(F)c(F)c7F)c7ccc4[nH]7)C=C6)C=C5)cc3)C2=O)cc1
REMARK SMILES IDX 25 1 24 2 23 3 22 4 21 5 20 6 18 7 19 8 17 9 12 10 13 11
REMARK SMILES IDX 14 12 16 13 15 14 11 15 10 16 6 17 7 18 98 19 8 20 9 21
REMARK SMILES IDX 99 22 5 23 1 24 2 25 3 26 101 27 4 28 100 29 26 30 27 31
REMARK SMILES IDX 28 32 29 33 30 34 31 35 32 36 33 37 34 38 35 39 36 40 97 41
REMARK SMILES IDX 37 42 96 43 38 44 39 45 40 46 90 47 41 48 95 49 89 50 91 51
REMARK SMILES IDX 42 52 94 53 88 54 87 55 43 57 75 58 55 59 74 60 56 61 59 62
REMARK SMILES IDX 73 63 92 64 57 65 58 66 72 68 93 69 60 70 44 71 45 72 53 73
REMARK SMILES IDX 46 74 47 75 51 76 54 77 48 78 49 79 52 80 50 81 76 82 77 83
REMARK SMILES IDX 85 84 78 85 79 86 83 87 86 88 80 89 81 90 84 91 82 92 61 93
REMARK SMILES IDX 62 94 70 95 63 96 64 97 68 98 71 99 65 100 66 101 69 102
REMARK SMILES IDX 67 103
REMARK H PARENT 91 56 59 67
REMARK Flexibility Score: inf
ROOT
ATOM      1  C   UNL A   1      38.480  30.254  28.869  1.00  0.00     0.188 C 
ENDROOT
BRANCH   1   2
ATOM      2  C   UNL A   1      37.607  29.424  27.920  1.00  0.00     0.188 C 
BRANCH   2   3
ATOM      3  O   UNL A   1      36.609  30.174  27.251  1.00  0.00    -0.376 OA
BRANCH   3   4
ATOM      4  C   UNL A   1      35.295  30.214  27.796  1.00  0.00     0.202 C 
BRANCH   4   5
ATOM      5  C   UNL A   1      34.590  31.533  28.071  1.00  0.00     0.261 C 
BRANCH   5   6
ATOM      6  O   UNL A   1      35.325  32.650  27.621  1.00  0.00    -0.460 OA
BRANCH   6   7
ATOM      7  C   UNL A   1      35.995  33.321  28.570  1.00  0.00     0.339 C 
ATOM      8  O   UNL A   1      37.205  33.443  28.661  1.00  0.00    -0.246 OA
BRANCH   7   9
ATOM      9  C   UNL A   1      34.953  34.125  29.236  1.00  0.00     0.073 A 
ATOM     10  C   UNL A   1      34.896  34.210  30.642  1.00  0.00     0.023 A 
ATOM     11  C   UNL A   1      33.869  34.990  31.188  1.00  0.00     0.016 A 
ATOM     12  C   UNL A   1      32.997  35.732  30.377  1.00  0.00     0.001 A 
ATOM     13  C   UNL A   1      34.092  34.900  28.420  1.00  0.00     0.017 A 
ATOM     14  C   UNL A   1      33.129  35.717  28.994  1.00  0.00     0.001 A 
BRANCH  10  15
ATOM     15  S   UNL A   1      35.880  33.263  31.814  1.00  0.00    -0.111 SA
BRANCH  15  16
ATOM     16  C   UNL A   1      36.243  34.348  33.261  1.00  0.00     0.151 C 
ATOM     17  N   UNL A   1      37.826  33.767  34.881  1.00  0.00    -0.250 N 
ATOM     18  C   UNL A   1      36.612  33.668  35.498  1.00  0.00     0.235 C 
ATOM     19  C   UNL A   1      37.701  34.375  33.661  1.00  0.00     0.247 C 
ATOM     20  O   UNL A   1      36.415  33.456  36.667  1.00  0.00    -0.274 OA
ATOM     21  C   UNL A   1      35.526  34.033  34.537  1.00  0.00     0.126 C 
ATOM     22  O   UNL A   1      38.582  34.924  33.012  1.00  0.00    -0.273 OA
BRANCH  17  23
ATOM     23  C   UNL A   1      38.985  33.710  35.677  1.00  0.00     0.052 A 
ATOM     24  C   UNL A   1      42.788  33.923  37.702  1.00  0.00     0.044 C 
ATOM     25  C   UNL A   1      41.473  33.876  36.980  1.00  0.00    -0.051 A 
ATOM     26  C   UNL A   1      41.223  32.865  36.041  1.00  0.00     0.005 A 
ATOM     27  C   UNL A   1      40.470  34.811  37.254  1.00  0.00     0.005 A 
ATOM     28  C   UNL A   1      39.985  32.776  35.397  1.00  0.00     0.027 A 
ATOM     29  C   UNL A   1      39.237  34.734  36.599  1.00  0.00     0.027 A 
ENDBRANCH  17  23
ENDBRANCH  15  16
ENDBRANCH  10  15
ENDBRANCH   7   9
ENDBRANCH   6   7
ENDBRANCH   5   6
ENDBRANCH   4   5
ENDBRANCH   3   4
ENDBRANCH   2   3
ENDBRANCH   1   2
BRANCH   1  30
ATOM     30  O   UNL A   1      37.948  30.532  30.163  1.00  0.00    -0.377 OA
BRANCH  30  31
ATOM     31  C   UNL A   1      37.172  29.475  30.726  1.00  0.00     0.188 C 
BRANCH  31  32
ATOM     32  C   UNL A   1      37.885  28.446  31.584  1.00  0.00     0.188 C 
BRANCH  32  33
ATOM     33  O   UNL A   1      37.294  28.531  32.875  1.00  0.00    -0.376 OA
BRANCH  33  34
ATOM     34  C   UNL A   1      37.437  29.761  33.561  1.00  0.00     0.202 C 
BRANCH  34  35
ATOM     35  C   UNL A   1      38.902  30.139  33.796  1.00  0.00     0.261 C 
BRANCH  35  36
ATOM     36  O   UNL A   1      39.691  28.955  34.097  1.00  0.00    -0.460 OA
BRANCH  36  37
ATOM     37  C   UNL A   1      40.910  29.121  34.689  1.00  0.00     0.338 C 
ATOM     38  O   UNL A   1      41.184  28.751  35.819  1.00  0.00    -0.246 OA
BRANCH  37  39
ATOM     39  C   UNL A   1      41.874  29.831  33.791  1.00  0.00     0.060 A 
ATOM     40  C   UNL A   1      43.008  30.494  34.294  1.00  0.00     0.016 A 
ATOM     41  C   UNL A   1      41.544  30.010  32.459  1.00  0.00     0.016 A 
ATOM     42  C   UNL A   1      43.692  31.452  33.510  1.00  0.00     0.010 A 
ATOM     43  C   UNL A   1      42.131  31.047  31.752  1.00  0.00     0.010 A 
ATOM     44  C   UNL A   1      43.195  31.815  32.261  1.00  0.00    -0.014 A 
BRANCH  44  45
ATOM     45  C   UNL A   1      43.610  33.013  31.470  1.00  0.00     0.031 A 
ATOM     46  C   UNL A   1      43.187  34.378  31.997  1.00  0.00     0.074 A 
ATOM     47  C   UNL A   1      44.644  32.893  30.578  1.00  0.00     0.049 A 
ATOM     48  N   UNL A   1      43.601  35.524  31.563  1.00  0.00    -0.248 NA
ATOM     49  C   UNL A   1      42.300  34.563  33.153  1.00  0.00     0.031 C 
ATOM     50  C   UNL A   1      45.595  33.933  30.183  1.00  0.00     0.029 A 
ATOM     51  N   UNL A   1      45.180  31.776  29.901  1.00  0.00    -0.354 N 
ATOM     52  C   UNL A   1      43.379  36.496  32.535  1.00  0.00     0.074 A 
ATOM     53  C   UNL A   1      42.473  35.856  33.455  1.00  0.00     0.031 C 
ATOM     54  C   UNL A   1      46.558  33.463  29.373  1.00  0.00     0.029 A 
ATOM     55  C   UNL A   1      45.995  32.266  28.840  1.00  0.00     0.049 A 
ATOM     56  H   UNL A   1      45.021  30.830  30.122  1.00  0.00     0.167 HD
ATOM     57  C   UNL A   1      44.103  37.668  32.503  1.00  0.00     0.037 A 
ATOM     58  C   UNL A   1      45.542  32.212  27.549  1.00  0.00     0.037 A 
ATOM     59  C   UNL A   1      44.910  37.775  31.253  1.00  0.00     0.049 A 
ATOM     60  C   UNL A   1      45.121  33.614  27.029  1.00  0.00     0.074 A 
ATOM     61  C   UNL A   1      46.209  38.134  30.920  1.00  0.00     0.029 A 
ATOM     62  N   UNL A   1      44.373  37.289  30.061  1.00  0.00    -0.354 N 
ATOM     63  N   UNL A   1      45.220  34.722  27.736  1.00  0.00    -0.248 NA
ATOM     64  C   UNL A   1      44.581  33.921  25.714  1.00  0.00     0.031 C 
ATOM     65  C   UNL A   1      46.435  37.811  29.539  1.00  0.00     0.029 A 
ATOM     66  C   UNL A   1      45.259  37.313  29.004  1.00  0.00     0.049 A 
ATOM     67  H   UNL A   1      43.449  36.960  29.981  1.00  0.00     0.167 HD
ATOM     68  C   UNL A   1      44.752  35.821  27.089  1.00  0.00     0.074 A 
ATOM     69  C   UNL A   1      44.342  35.249  25.810  1.00  0.00     0.031 C 
ATOM     70  C   UNL A   1      44.730  37.080  27.657  1.00  0.00     0.037 A 
BRANCH  57  71
ATOM     71  C   UNL A   1      44.251  38.696  33.658  1.00  0.00     0.064 A 
ATOM     72  C   UNL A   1      43.677  39.991  33.554  1.00  0.00     0.173 A 
ATOM     73  C   UNL A   1      45.012  38.524  34.839  1.00  0.00     0.173 A 
ATOM     74  F   UNL A   1      42.873  40.313  32.532  1.00  0.00    -0.203 F 
ATOM     75  C   UNL A   1      43.886  41.014  34.498  1.00  0.00     0.198 A 
ATOM     76  C   UNL A   1      45.166  39.526  35.818  1.00  0.00     0.198 A 
ATOM     77  F   UNL A   1      45.687  37.398  35.090  1.00  0.00    -0.203 F 
ATOM     78  F   UNL A   1      43.365  42.232  34.290  1.00  0.00    -0.200 F 
ATOM     79  C   UNL A   1      44.622  40.779  35.637  1.00  0.00     0.200 A 
ATOM     80  F   UNL A   1      45.870  39.268  36.931  1.00  0.00    -0.200 F 
ATOM     81  F   UNL A   1      44.808  41.745  36.549  1.00  0.00    -0.200 F 
ENDBRANCH  57  71
BRANCH  58  82
ATOM     82  C   UNL A   1      45.046  30.806  27.322  1.00  0.00     0.064 A 
ATOM     83  C   UNL A   1      46.082  29.829  27.229  1.00  0.00     0.173 A 
ATOM     84  C   UNL A   1      43.851  30.385  27.927  1.00  0.00     0.173 A 
ATOM     85  F   UNL A   1      47.241  30.147  26.629  1.00  0.00    -0.203 F 
ATOM     86  C   UNL A   1      46.027  28.632  27.951  1.00  0.00     0.198 A 
ATOM     87  C   UNL A   1      43.788  29.158  28.610  1.00  0.00     0.198 A 
ATOM     88  F   UNL A   1      42.826  31.240  28.047  1.00  0.00    -0.203 F 
ATOM     89  F   UNL A   1      47.108  27.841  28.030  1.00  0.00    -0.200 F 
ATOM     90  C   UNL A   1      44.897  28.325  28.685  1.00  0.00     0.200 A 
ATOM     91  F   UNL A   1      42.689  28.840  29.309  1.00  0.00    -0.200 F 
ATOM     92  F   UNL A   1      44.896  27.267  29.511  1.00  0.00    -0.200 F 
ENDBRANCH  58  82
BRANCH  70  93
ATOM     93  C   UNL A   1      44.082  38.288  27.018  1.00  0.00     0.064 A 
ATOM     94  C   UNL A   1      42.703  38.407  26.853  1.00  0.00     0.173 A 
ATOM     95  C   UNL A   1      44.850  39.370  26.505  1.00  0.00     0.173 A 
ATOM     96  F   UNL A   1      41.892  37.362  27.072  1.00  0.00    -0.203 F 
ATOM     97  C   UNL A   1      42.123  39.599  26.418  1.00  0.00     0.198 A 
ATOM     98  C   UNL A   1      44.274  40.534  26.014  1.00  0.00     0.198 A 
ATOM     99  F   UNL A   1      46.187  39.362  26.461  1.00  0.00    -0.203 F 
ATOM    100  F   UNL A   1      40.790  39.707  26.390  1.00  0.00    -0.200 F 
ATOM    101  C   UNL A   1      42.907  40.668  26.022  1.00  0.00     0.200 A 
ATOM    102  F   UNL A   1      45.057  41.522  25.561  1.00  0.00    -0.200 F 
ATOM    103  F   UNL A   1      42.347  41.819  25.633  1.00  0.00    -0.200 F 
ENDBRANCH  70  93
ENDBRANCH  44  45
ENDBRANCH  37  39
ENDBRANCH  36  37
ENDBRANCH  35  36
ENDBRANCH  34  35
ENDBRANCH  33  34
ENDBRANCH  32  33
ENDBRANCH  31  32
ENDBRANCH  30  31
ENDBRANCH   1  30
TORSDOF 23
ENDMDL
