MODEL 1
REMARK VINA RESULT:     -10.1      0.000      0.000
REMARK SMILES COc1ccc(C(=O)c2ccccc2)cc1[C@@H](C)C(=O)OCCOCCOCCOCCOC(=O)c1ccc(-c2c3nc(c(-c4c(F)c(F)c(F)c(F)c4F)c4ccc([nH]4)c(-c4c(F)c(F)c(F)c(F)c4F)c4nc(c(-c5c(F)c(F)c(F)c(F)c5F)c5ccc2[nH]5)C=C4)C=C3)cc1
REMARK SMILES IDX 26 1 25 2 24 3 23 4 22 5 21 6 19 7 20 8 17 9 18 10 16 11
REMARK SMILES IDX 3 12 4 13 5 14 15 15 6 16 2 17 1 18 7 19 8 20 9 21 10 22
REMARK SMILES IDX 14 23 11 24 13 25 12 26 27 27 28 28 29 29 30 30 31 31 32 32
REMARK SMILES IDX 33 33 34 34 35 35 36 36 37 37 98 38 38 39 97 40 39 41 40 42
REMARK SMILES IDX 41 43 91 44 42 45 96 46 90 47 92 48 43 49 95 50 89 51 88 52
REMARK SMILES IDX 44 54 76 55 56 56 75 57 57 58 60 59 74 60 93 61 58 62 59 63
REMARK SMILES IDX 73 65 94 66 61 67 45 68 46 69 54 70 47 71 48 72 52 73 55 74
REMARK SMILES IDX 49 75 50 76 53 77 51 78 77 79 78 80 86 81 79 82 80 83 84 84
REMARK SMILES IDX 87 85 81 86 82 87 85 88 83 89 62 90 63 91 71 92 64 93 65 94
REMARK SMILES IDX 69 95 72 96 66 97 67 98 70 99 68 100
REMARK H PARENT 92 53 60 64
REMARK Flexibility Score: inf
ROOT
ATOM      1  C   UNL A   1      35.958  21.676  24.734  1.00  0.00     0.188 C 
ENDROOT
BRANCH   1   2
ATOM      2  C   UNL A   1      35.739  20.178  24.996  1.00  0.00     0.188 C 
BRANCH   2   3
ATOM      3  O   UNL A   1      34.511  19.554  24.655  1.00  0.00    -0.376 OA
BRANCH   3   4
ATOM      4  C   UNL A   1      33.280  20.175  24.989  1.00  0.00     0.202 C 
BRANCH   4   5
ATOM      5  C   UNL A   1      32.361  20.779  23.906  1.00  0.00     0.261 C 
BRANCH   5   6
ATOM      6  O   UNL A   1      32.623  22.131  23.477  1.00  0.00    -0.463 OA
BRANCH   6   7
ATOM      7  C   UNL A   1      32.053  23.123  24.209  1.00  0.00     0.313 C 
ATOM      8  O   UNL A   1      30.853  23.383  24.174  1.00  0.00    -0.252 OA
BRANCH   7   9
ATOM      9  C   UNL A   1      33.025  23.967  25.034  1.00  0.00     0.130 C 
ATOM     10  C   UNL A   1      32.901  23.548  26.498  1.00  0.00     0.025 C 
BRANCH   9  11
ATOM     11  C   UNL A   1      33.002  25.489  24.898  1.00  0.00     0.009 A 
ATOM     12  C   UNL A   1      33.414  26.142  23.721  1.00  0.00     0.122 A 
ATOM     13  C   UNL A   1      33.430  27.541  23.625  1.00  0.00     0.047 A 
ATOM     14  C   UNL A   1      32.995  28.323  24.693  1.00  0.00     0.016 A 
ATOM     15  C   UNL A   1      32.552  26.303  25.955  1.00  0.00     0.020 A 
ATOM     16  C   UNL A   1      32.549  27.709  25.866  1.00  0.00     0.023 A 
BRANCH  12  17
ATOM     17  O   UNL A   1      33.860  25.435  22.636  1.00  0.00    -0.496 OA
ATOM     18  C   UNL A   1      32.927  25.523  21.555  1.00  0.00     0.278 C 
ENDBRANCH  12  17
BRANCH  16  19
ATOM     19  C   UNL A   1      32.034  28.577  26.968  1.00  0.00     0.193 C 
ATOM     20  O   UNL A   1      31.328  28.120  27.862  1.00  0.00    -0.289 OA
BRANCH  19  21
ATOM     21  C   UNL A   1      32.449  29.991  27.040  1.00  0.00     0.022 A 
ATOM     22  C   UNL A   1      31.538  30.956  26.621  1.00  0.00     0.012 A 
ATOM     23  C   UNL A   1      33.665  30.361  27.627  1.00  0.00     0.012 A 
ATOM     24  C   UNL A   1      31.819  32.294  26.872  1.00  0.00     0.001 A 
ATOM     25  C   UNL A   1      33.939  31.709  27.856  1.00  0.00     0.001 A 
ATOM     26  C   UNL A   1      33.009  32.676  27.486  1.00  0.00     0.000 A 
ENDBRANCH  19  21
ENDBRANCH  16  19
ENDBRANCH   9  11
ENDBRANCH   7   9
ENDBRANCH   6   7
ENDBRANCH   5   6
ENDBRANCH   4   5
ENDBRANCH   3   4
ENDBRANCH   2   3
ENDBRANCH   1   2
BRANCH   1  27
ATOM     27  O   UNL A   1      36.080  22.481  25.889  1.00  0.00    -0.377 OA
BRANCH  27  28
ATOM     28  C   UNL A   1      36.820  23.682  25.727  1.00  0.00     0.188 C 
BRANCH  28  29
ATOM     29  C   UNL A   1      38.268  23.692  26.255  1.00  0.00     0.188 C 
BRANCH  29  30
ATOM     30  O   UNL A   1      39.077  22.648  25.728  1.00  0.00    -0.376 OA
BRANCH  30  31
ATOM     31  C   UNL A   1      39.267  21.466  26.491  1.00  0.00     0.202 C 
BRANCH  31  32
ATOM     32  C   UNL A   1      39.844  20.222  25.791  1.00  0.00     0.261 C 
BRANCH  32  33
ATOM     33  O   UNL A   1      40.783  19.430  26.534  1.00  0.00    -0.460 OA
BRANCH  33  34
ATOM     34  C   UNL A   1      42.048  19.339  26.080  1.00  0.00     0.338 C 
ATOM     35  O   UNL A   1      42.544  18.408  25.467  1.00  0.00    -0.246 OA
BRANCH  34  36
ATOM     36  C   UNL A   1      42.698  20.655  26.272  1.00  0.00     0.060 A 
ATOM     37  C   UNL A   1      42.715  21.231  27.553  1.00  0.00     0.016 A 
ATOM     38  C   UNL A   1      43.283  21.323  25.196  1.00  0.00     0.016 A 
ATOM     39  C   UNL A   1      43.261  22.502  27.750  1.00  0.00     0.010 A 
ATOM     40  C   UNL A   1      43.809  22.603  25.390  1.00  0.00     0.010 A 
ATOM     41  C   UNL A   1      43.756  23.220  26.657  1.00  0.00    -0.014 A 
BRANCH  41  42
ATOM     42  C   UNL A   1      43.985  24.687  26.735  1.00  0.00     0.031 A 
ATOM     43  C   UNL A   1      45.398  25.174  26.642  1.00  0.00     0.074 A 
ATOM     44  C   UNL A   1      42.994  25.576  26.918  1.00  0.00     0.049 A 
ATOM     45  N   UNL A   1      45.883  26.366  26.867  1.00  0.00    -0.248 NA
ATOM     46  C   UNL A   1      46.396  24.185  26.202  1.00  0.00     0.031 C 
ATOM     47  C   UNL A   1      41.576  25.275  26.841  1.00  0.00     0.029 A 
ATOM     48  N   UNL A   1      43.034  26.905  27.262  1.00  0.00    -0.354 N 
ATOM     49  C   UNL A   1      47.234  26.276  26.576  1.00  0.00     0.074 A 
ATOM     50  C   UNL A   1      47.507  24.902  26.218  1.00  0.00     0.031 C 
ATOM     51  C   UNL A   1      40.873  26.335  27.277  1.00  0.00     0.029 A 
ATOM     52  C   UNL A   1      41.806  27.399  27.638  1.00  0.00     0.049 A 
ATOM     53  H   UNL A   1      43.855  27.448  27.243  1.00  0.00     0.167 HD
ATOM     54  C   UNL A   1      48.156  27.265  26.577  1.00  0.00     0.037 A 
ATOM     55  C   UNL A   1      41.481  28.563  28.234  1.00  0.00     0.037 A 
ATOM     56  C   UNL A   1      47.875  28.622  26.957  1.00  0.00     0.049 A 
ATOM     57  C   UNL A   1      42.558  29.595  28.437  1.00  0.00     0.074 A 
ATOM     58  C   UNL A   1      48.737  29.702  26.997  1.00  0.00     0.029 A 
ATOM     59  N   UNL A   1      46.636  29.079  27.385  1.00  0.00    -0.354 N 
ATOM     60  N   UNL A   1      43.832  29.521  28.141  1.00  0.00    -0.248 NA
ATOM     61  C   UNL A   1      42.149  30.889  29.004  1.00  0.00     0.031 C 
ATOM     62  C   UNL A   1      48.037  30.796  27.514  1.00  0.00     0.029 A 
ATOM     63  C   UNL A   1      46.719  30.419  27.723  1.00  0.00     0.049 A 
ATOM     64  H   UNL A   1      45.820  28.532  27.439  1.00  0.00     0.167 HD
ATOM     65  C   UNL A   1      44.360  30.778  28.404  1.00  0.00     0.074 A 
ATOM     66  C   UNL A   1      43.273  31.587  28.918  1.00  0.00     0.031 C 
ATOM     67  C   UNL A   1      45.623  31.223  28.202  1.00  0.00     0.037 A 
BRANCH  54  68
ATOM     68  C   UNL A   1      49.554  26.896  26.181  1.00  0.00     0.064 A 
ATOM     69  C   UNL A   1      49.993  26.994  24.851  1.00  0.00     0.173 A 
ATOM     70  C   UNL A   1      50.467  26.440  27.143  1.00  0.00     0.173 A 
ATOM     71  F   UNL A   1      49.153  27.407  23.890  1.00  0.00    -0.203 F 
ATOM     72  C   UNL A   1      51.285  26.617  24.495  1.00  0.00     0.198 A 
ATOM     73  C   UNL A   1      51.767  26.097  26.788  1.00  0.00     0.198 A 
ATOM     74  F   UNL A   1      50.096  26.327  28.427  1.00  0.00    -0.203 F 
ATOM     75  F   UNL A   1      51.664  26.661  23.210  1.00  0.00    -0.200 F 
ATOM     76  C   UNL A   1      52.172  26.176  25.464  1.00  0.00     0.200 A 
ATOM     77  F   UNL A   1      52.628  25.682  27.728  1.00  0.00    -0.200 F 
ATOM     78  F   UNL A   1      53.417  25.815  25.121  1.00  0.00    -0.200 F 
ENDBRANCH  54  68
BRANCH  55  79
ATOM     79  C   UNL A   1      40.081  28.825  28.662  1.00  0.00     0.064 A 
ATOM     80  C   UNL A   1      39.659  28.554  29.970  1.00  0.00     0.173 A 
ATOM     81  C   UNL A   1      39.127  29.324  27.761  1.00  0.00     0.173 A 
ATOM     82  F   UNL A   1      40.529  28.059  30.863  1.00  0.00    -0.203 F 
ATOM     83  C   UNL A   1      38.334  28.746  30.354  1.00  0.00     0.198 A 
ATOM     84  C   UNL A   1      37.806  29.537  28.153  1.00  0.00     0.198 A 
ATOM     85  F   UNL A   1      39.477  29.601  26.496  1.00  0.00    -0.203 F 
ATOM     86  F   UNL A   1      37.949  28.434  31.599  1.00  0.00    -0.200 F 
ATOM     87  C   UNL A   1      37.409  29.239  29.448  1.00  0.00     0.200 A 
ATOM     88  F   UNL A   1      36.916  30.024  27.277  1.00  0.00    -0.200 F 
ATOM     89  F   UNL A   1      36.133  29.418  29.818  1.00  0.00    -0.200 F 
ENDBRANCH  55  79
BRANCH  67  90
ATOM     90  C   UNL A   1      45.900  32.678  28.443  1.00  0.00     0.064 A 
ATOM     91  C   UNL A   1      46.432  33.148  29.651  1.00  0.00     0.173 A 
ATOM     92  C   UNL A   1      45.711  33.603  27.402  1.00  0.00     0.173 A 
ATOM     93  F   UNL A   1      46.615  32.308  30.681  1.00  0.00    -0.203 F 
ATOM     94  C   UNL A   1      46.760  34.491  29.811  1.00  0.00     0.198 A 
ATOM     95  C   UNL A   1      46.072  34.938  27.554  1.00  0.00     0.198 A 
ATOM     96  F   UNL A   1      45.207  33.203  26.224  1.00  0.00    -0.203 F 
ATOM     97  F   UNL A   1      47.238  34.927  30.984  1.00  0.00    -0.200 F 
ATOM     98  C   UNL A   1      46.593  35.382  28.759  1.00  0.00     0.200 A 
ATOM     99  F   UNL A   1      45.928  35.790  26.530  1.00  0.00    -0.200 F 
ATOM    100  F   UNL A   1      46.936  36.669  28.907  1.00  0.00    -0.200 F 
ENDBRANCH  67  90
ENDBRANCH  41  42
ENDBRANCH  34  36
ENDBRANCH  33  34
ENDBRANCH  32  33
ENDBRANCH  31  32
ENDBRANCH  30  31
ENDBRANCH  29  30
ENDBRANCH  28  29
ENDBRANCH  27  28
ENDBRANCH   1  27
TORSDOF 24
ENDMDL
MODEL 2
REMARK VINA RESULT:      -9.9      4.262      9.656
REMARK SMILES COc1ccc(C(=O)c2ccccc2)cc1[C@@H](C)C(=O)OCCOCCOCCOCCOC(=O)c1ccc(-c2c3nc(c(-c4c(F)c(F)c(F)c(F)c4F)c4ccc([nH]4)c(-c4c(F)c(F)c(F)c(F)c4F)c4nc(c(-c5c(F)c(F)c(F)c(F)c5F)c5ccc2[nH]5)C=C4)C=C3)cc1
REMARK SMILES IDX 26 1 25 2 24 3 23 4 22 5 21 6 19 7 20 8 17 9 18 10 16 11
REMARK SMILES IDX 3 12 4 13 5 14 15 15 6 16 2 17 1 18 7 19 8 20 9 21 10 22
REMARK SMILES IDX 14 23 11 24 13 25 12 26 27 27 28 28 29 29 30 30 31 31 32 32
REMARK SMILES IDX 33 33 34 34 35 35 36 36 37 37 98 38 38 39 97 40 39 41 40 42
REMARK SMILES IDX 41 43 91 44 42 45 96 46 90 47 92 48 43 49 95 50 89 51 88 52
REMARK SMILES IDX 44 54 76 55 56 56 75 57 57 58 60 59 74 60 93 61 58 62 59 63
REMARK SMILES IDX 73 65 94 66 61 67 45 68 46 69 54 70 47 71 48 72 52 73 55 74
REMARK SMILES IDX 49 75 50 76 53 77 51 78 77 79 78 80 86 81 79 82 80 83 84 84
REMARK SMILES IDX 87 85 81 86 82 87 85 88 83 89 62 90 63 91 71 92 64 93 65 94
REMARK SMILES IDX 69 95 72 96 66 97 67 98 70 99 68 100
REMARK H PARENT 92 53 60 64
REMARK Flexibility Score: inf
ROOT
ATOM      1  C   UNL A   1      46.525  20.032  24.571  1.00  0.00     0.188 C 
ENDROOT
BRANCH   1   2
ATOM      2  C   UNL A   1      45.889  21.198  25.343  1.00  0.00     0.188 C 
BRANCH   2   3
ATOM      3  O   UNL A   1      45.688  22.457  24.720  1.00  0.00    -0.376 OA
BRANCH   3   4
ATOM      4  C   UNL A   1      44.379  22.990  24.598  1.00  0.00     0.202 C 
BRANCH   4   5
ATOM      5  C   UNL A   1      44.036  24.408  25.101  1.00  0.00     0.261 C 
BRANCH   5   6
ATOM      6  O   UNL A   1      44.860  25.502  24.647  1.00  0.00    -0.463 OA
BRANCH   6   7
ATOM      7  C   UNL A   1      44.624  26.715  25.210  1.00  0.00     0.313 C 
ATOM      8  O   UNL A   1      43.600  27.364  25.011  1.00  0.00    -0.252 OA
BRANCH   7   9
ATOM      9  C   UNL A   1      45.767  27.275  26.058  1.00  0.00     0.130 C 
ATOM     10  C   UNL A   1      45.518  28.766  26.274  1.00  0.00     0.025 C 
BRANCH   9  11
ATOM     11  C   UNL A   1      47.213  27.018  25.636  1.00  0.00     0.009 A 
ATOM     12  C   UNL A   1      47.739  27.511  24.427  1.00  0.00     0.122 A 
ATOM     13  C   UNL A   1      49.054  27.231  24.030  1.00  0.00     0.047 A 
ATOM     14  C   UNL A   1      49.891  26.479  24.853  1.00  0.00     0.016 A 
ATOM     15  C   UNL A   1      48.085  26.275  26.455  1.00  0.00     0.020 A 
ATOM     16  C   UNL A   1      49.412  25.998  26.075  1.00  0.00     0.023 A 
BRANCH  12  17
ATOM     17  O   UNL A   1      46.971  28.252  23.568  1.00  0.00    -0.496 OA
ATOM     18  C   UNL A   1      47.506  28.209  22.242  1.00  0.00     0.278 C 
ENDBRANCH  12  17
BRANCH  16  19
ATOM     19  C   UNL A   1      50.355  25.247  26.958  1.00  0.00     0.193 C 
ATOM     20  O   UNL A   1      49.959  24.348  27.694  1.00  0.00    -0.289 OA
BRANCH  19  21
ATOM     21  C   UNL A   1      51.802  25.524  26.885  1.00  0.00     0.022 A 
ATOM     22  C   UNL A   1      52.347  26.381  27.837  1.00  0.00     0.012 A 
ATOM     23  C   UNL A   1      52.625  24.851  25.973  1.00  0.00     0.012 A 
ATOM     24  C   UNL A   1      53.730  26.494  27.922  1.00  0.00     0.001 A 
ATOM     25  C   UNL A   1      54.010  24.989  26.061  1.00  0.00     0.001 A 
ATOM     26  C   UNL A   1      54.563  25.805  27.043  1.00  0.00     0.000 A 
ENDBRANCH  19  21
ENDBRANCH  16  19
ENDBRANCH   9  11
ENDBRANCH   7   9
ENDBRANCH   6   7
ENDBRANCH   5   6
ENDBRANCH   4   5
ENDBRANCH   3   4
ENDBRANCH   2   3
ENDBRANCH   1   2
BRANCH   1  27
ATOM     27  O   UNL A   1      45.886  18.782  24.727  1.00  0.00    -0.377 OA
BRANCH  27  28
ATOM     28  C   UNL A   1      44.779  18.762  25.615  1.00  0.00     0.188 C 
BRANCH  28  29
ATOM     29  C   UNL A   1      43.372  18.795  24.985  1.00  0.00     0.188 C 
BRANCH  29  30
ATOM     30  O   UNL A   1      42.566  19.873  25.442  1.00  0.00    -0.376 OA
BRANCH  30  31
ATOM     31  C   UNL A   1      42.220  19.945  26.818  1.00  0.00     0.202 C 
BRANCH  31  32
ATOM     32  C   UNL A   1      41.358  21.127  27.300  1.00  0.00     0.261 C 
BRANCH  32  33
ATOM     33  O   UNL A   1      40.984  22.106  26.320  1.00  0.00    -0.460 OA
BRANCH  33  34
ATOM     34  C   UNL A   1      39.742  22.627  26.373  1.00  0.00     0.338 C 
ATOM     35  O   UNL A   1      38.688  22.032  26.223  1.00  0.00    -0.246 OA
BRANCH  34  36
ATOM     36  C   UNL A   1      39.854  24.024  26.847  1.00  0.00     0.060 A 
ATOM     37  C   UNL A   1      40.482  24.978  26.031  1.00  0.00     0.016 A 
ATOM     38  C   UNL A   1      39.348  24.394  28.094  1.00  0.00     0.016 A 
ATOM     39  C   UNL A   1      40.661  26.288  26.482  1.00  0.00     0.010 A 
ATOM     40  C   UNL A   1      39.548  25.699  28.554  1.00  0.00     0.010 A 
ATOM     41  C   UNL A   1      40.249  26.640  27.771  1.00  0.00    -0.014 A 
BRANCH  41  42
ATOM     42  C   UNL A   1      40.750  27.873  28.433  1.00  0.00     0.031 A 
ATOM     43  C   UNL A   1      42.143  27.848  28.982  1.00  0.00     0.074 A 
ATOM     44  C   UNL A   1      40.003  28.979  28.586  1.00  0.00     0.049 A 
ATOM     45  N   UNL A   1      42.745  28.708  29.759  1.00  0.00    -0.248 NA
ATOM     46  C   UNL A   1      42.981  26.710  28.570  1.00  0.00     0.031 C 
ATOM     47  C   UNL A   1      38.719  29.216  27.952  1.00  0.00     0.029 A 
ATOM     48  N   UNL A   1      40.195  30.090  29.372  1.00  0.00    -0.354 N 
ATOM     49  C   UNL A   1      44.036  28.228  29.911  1.00  0.00     0.074 A 
ATOM     50  C   UNL A   1      44.115  26.971  29.199  1.00  0.00     0.031 C 
ATOM     51  C   UNL A   1      38.159  30.317  28.481  1.00  0.00     0.029 A 
ATOM     52  C   UNL A   1      39.069  30.874  29.478  1.00  0.00     0.049 A 
ATOM     53  H   UNL A   1      41.049  30.303  29.813  1.00  0.00     0.167 HD
ATOM     54  C   UNL A   1      45.071  28.805  30.562  1.00  0.00     0.037 A 
ATOM     55  C   UNL A   1      38.798  31.900  30.307  1.00  0.00     0.037 A 
ATOM     56  C   UNL A   1      44.972  30.043  31.285  1.00  0.00     0.049 A 
ATOM     57  C   UNL A   1      39.895  32.416  31.200  1.00  0.00     0.074 A 
ATOM     58  C   UNL A   1      45.958  30.715  31.982  1.00  0.00     0.029 A 
ATOM     59  N   UNL A   1      43.807  30.785  31.419  1.00  0.00    -0.354 N 
ATOM     60  N   UNL A   1      41.124  31.977  31.328  1.00  0.00    -0.248 NA
ATOM     61  C   UNL A   1      39.592  33.596  32.023  1.00  0.00     0.031 C 
ATOM     62  C   UNL A   1      45.374  31.827  32.595  1.00  0.00     0.029 A 
ATOM     63  C   UNL A   1      44.042  31.891  32.217  1.00  0.00     0.049 A 
ATOM     64  H   UNL A   1      42.942  30.558  31.007  1.00  0.00     0.167 HD
ATOM     65  C   UNL A   1      41.763  32.872  32.175  1.00  0.00     0.074 A 
ATOM     66  C   UNL A   1      40.775  33.860  32.560  1.00  0.00     0.031 C 
ATOM     67  C   UNL A   1      43.060  32.887  32.566  1.00  0.00     0.037 A 
BRANCH  54  68
ATOM     68  C   UNL A   1      46.383  28.080  30.538  1.00  0.00     0.064 A 
ATOM     69  C   UNL A   1      47.412  28.449  29.657  1.00  0.00     0.173 A 
ATOM     70  C   UNL A   1      46.615  27.005  31.407  1.00  0.00     0.173 A 
ATOM     71  F   UNL A   1      47.233  29.459  28.793  1.00  0.00    -0.203 F 
ATOM     72  C   UNL A   1      48.613  27.745  29.626  1.00  0.00     0.198 A 
ATOM     73  C   UNL A   1      47.829  26.326  31.396  1.00  0.00     0.198 A 
ATOM     74  F   UNL A   1      45.663  26.612  32.267  1.00  0.00    -0.203 F 
ATOM     75  F   UNL A   1      49.558  28.076  28.735  1.00  0.00    -0.200 F 
ATOM     76  C   UNL A   1      48.822  26.689  30.499  1.00  0.00     0.200 A 
ATOM     77  F   UNL A   1      48.035  25.313  32.249  1.00  0.00    -0.200 F 
ATOM     78  F   UNL A   1      49.980  26.014  30.469  1.00  0.00    -0.200 F 
ENDBRANCH  54  68
BRANCH  55  79
ATOM     79  C   UNL A   1      37.447  32.521  30.320  1.00  0.00     0.064 A 
ATOM     80  C   UNL A   1      36.482  32.138  31.261  1.00  0.00     0.173 A 
ATOM     81  C   UNL A   1      37.083  33.490  29.372  1.00  0.00     0.173 A 
ATOM     82  F   UNL A   1      36.776  31.203  32.177  1.00  0.00    -0.203 F 
ATOM     83  C   UNL A   1      35.198  32.679  31.237  1.00  0.00     0.198 A 
ATOM     84  C   UNL A   1      35.805  34.047  29.363  1.00  0.00     0.198 A 
ATOM     85  F   UNL A   1      37.969  33.893  28.448  1.00  0.00    -0.203 F 
ATOM     86  F   UNL A   1      34.282  32.259  32.120  1.00  0.00    -0.200 F 
ATOM     87  C   UNL A   1      34.860  33.633  30.291  1.00  0.00     0.200 A 
ATOM     88  F   UNL A   1      35.484  34.977  28.453  1.00  0.00    -0.200 F 
ATOM     89  F   UNL A   1      33.623  34.149  30.266  1.00  0.00    -0.200 F 
ENDBRANCH  55  79
BRANCH  67  90
ATOM     90  C   UNL A   1      43.532  34.054  33.383  1.00  0.00     0.064 A 
ATOM     91  C   UNL A   1      43.997  35.237  32.796  1.00  0.00     0.173 A 
ATOM     92  C   UNL A   1      43.427  34.010  34.783  1.00  0.00     0.173 A 
ATOM     93  F   UNL A   1      44.132  35.324  31.464  1.00  0.00    -0.203 F 
ATOM     94  C   UNL A   1      44.344  36.334  33.581  1.00  0.00     0.198 A 
ATOM     95  C   UNL A   1      43.742  35.118  35.562  1.00  0.00     0.198 A 
ATOM     96  F   UNL A   1      42.984  32.900  35.394  1.00  0.00    -0.203 F 
ATOM     97  F   UNL A   1      44.817  37.447  33.003  1.00  0.00    -0.200 F 
ATOM     98  C   UNL A   1      44.204  36.279  34.961  1.00  0.00     0.200 A 
ATOM     99  F   UNL A   1      43.586  35.067  36.892  1.00  0.00    -0.200 F 
ATOM    100  F   UNL A   1      44.512  37.345  35.711  1.00  0.00    -0.200 F 
ENDBRANCH  67  90
ENDBRANCH  41  42
ENDBRANCH  34  36
ENDBRANCH  33  34
ENDBRANCH  32  33
ENDBRANCH  31  32
ENDBRANCH  30  31
ENDBRANCH  29  30
ENDBRANCH  28  29
ENDBRANCH  27  28
ENDBRANCH   1  27
TORSDOF 24
ENDMDL
MODEL 3
REMARK VINA RESULT:      -9.4      4.530     11.049
REMARK SMILES COc1ccc(C(=O)c2ccccc2)cc1[C@@H](C)C(=O)OCCOCCOCCOCCOC(=O)c1ccc(-c2c3nc(c(-c4c(F)c(F)c(F)c(F)c4F)c4ccc([nH]4)c(-c4c(F)c(F)c(F)c(F)c4F)c4nc(c(-c5c(F)c(F)c(F)c(F)c5F)c5ccc2[nH]5)C=C4)C=C3)cc1
REMARK SMILES IDX 26 1 25 2 24 3 23 4 22 5 21 6 19 7 20 8 17 9 18 10 16 11
REMARK SMILES IDX 3 12 4 13 5 14 15 15 6 16 2 17 1 18 7 19 8 20 9 21 10 22
REMARK SMILES IDX 14 23 11 24 13 25 12 26 27 27 28 28 29 29 30 30 31 31 32 32
REMARK SMILES IDX 33 33 34 34 35 35 36 36 37 37 98 38 38 39 97 40 39 41 40 42
REMARK SMILES IDX 41 43 91 44 42 45 96 46 90 47 92 48 43 49 95 50 89 51 88 52
REMARK SMILES IDX 44 54 76 55 56 56 75 57 57 58 60 59 74 60 93 61 58 62 59 63
REMARK SMILES IDX 73 65 94 66 61 67 45 68 46 69 54 70 47 71 48 72 52 73 55 74
REMARK SMILES IDX 49 75 50 76 53 77 51 78 77 79 78 80 86 81 79 82 80 83 84 84
REMARK SMILES IDX 87 85 81 86 82 87 85 88 83 89 62 90 63 91 71 92 64 93 65 94
REMARK SMILES IDX 69 95 72 96 66 97 67 98 70 99 68 100
REMARK H PARENT 92 53 60 64
REMARK Flexibility Score: inf
ROOT
ATOM      1  C   UNL A   1      44.815  18.882  24.995  1.00  0.00     0.188 C 
ENDROOT
BRANCH   1   2
ATOM      2  C   UNL A   1      44.520  20.317  24.532  1.00  0.00     0.188 C 
BRANCH   2   3
ATOM      3  O   UNL A   1      45.491  21.341  24.682  1.00  0.00    -0.376 OA
BRANCH   3   4
ATOM      4  C   UNL A   1      45.328  22.580  24.010  1.00  0.00     0.202 C 
BRANCH   4   5
ATOM      5  C   UNL A   1      44.891  23.854  24.762  1.00  0.00     0.261 C 
BRANCH   5   6
ATOM      6  O   UNL A   1      44.705  23.763  26.190  1.00  0.00    -0.463 OA
BRANCH   6   7
ATOM      7  C   UNL A   1      45.772  24.088  26.964  1.00  0.00     0.313 C 
ATOM      8  O   UNL A   1      46.879  23.570  26.840  1.00  0.00    -0.252 OA
BRANCH   7   9
ATOM      9  C   UNL A   1      45.488  25.099  28.077  1.00  0.00     0.130 C 
ATOM     10  C   UNL A   1      44.051  24.897  28.553  1.00  0.00     0.025 C 
BRANCH   9  11
ATOM     11  C   UNL A   1      45.783  26.580  27.841  1.00  0.00     0.009 A 
ATOM     12  C   UNL A   1      47.076  27.118  27.979  1.00  0.00     0.122 A 
ATOM     13  C   UNL A   1      47.325  28.486  27.803  1.00  0.00     0.047 A 
ATOM     14  C   UNL A   1      46.290  29.347  27.445  1.00  0.00     0.016 A 
ATOM     15  C   UNL A   1      44.759  27.469  27.462  1.00  0.00     0.020 A 
ATOM     16  C   UNL A   1      44.998  28.844  27.268  1.00  0.00     0.023 A 
BRANCH  12  17
ATOM     17  O   UNL A   1      48.139  26.329  28.336  1.00  0.00    -0.496 OA
ATOM     18  C   UNL A   1      49.308  26.686  27.592  1.00  0.00     0.278 C 
ENDBRANCH  12  17
BRANCH  16  19
ATOM     19  C   UNL A   1      43.926  29.786  26.825  1.00  0.00     0.193 C 
ATOM     20  O   UNL A   1      43.034  29.423  26.064  1.00  0.00    -0.289 OA
BRANCH  19  21
ATOM     21  C   UNL A   1      43.879  31.153  27.378  1.00  0.00     0.022 A 
ATOM     22  C   UNL A   1      43.545  31.297  28.721  1.00  0.00     0.012 A 
ATOM     23  C   UNL A   1      44.280  32.258  26.617  1.00  0.00     0.012 A 
ATOM     24  C   UNL A   1      43.697  32.544  29.317  1.00  0.00     0.001 A 
ATOM     25  C   UNL A   1      44.411  33.505  27.227  1.00  0.00     0.001 A 
ATOM     26  C   UNL A   1      44.127  33.646  28.582  1.00  0.00     0.000 A 
ENDBRANCH  19  21
ENDBRANCH  16  19
ENDBRANCH   9  11
ENDBRANCH   7   9
ENDBRANCH   6   7
ENDBRANCH   5   6
ENDBRANCH   4   5
ENDBRANCH   3   4
ENDBRANCH   2   3
ENDBRANCH   1   2
BRANCH   1  27
ATOM     27  O   UNL A   1      43.680  18.097  25.296  1.00  0.00    -0.377 OA
BRANCH  27  28
ATOM     28  C   UNL A   1      42.884  18.555  26.378  1.00  0.00     0.188 C 
BRANCH  28  29
ATOM     29  C   UNL A   1      41.466  19.059  26.044  1.00  0.00     0.188 C 
BRANCH  29  30
ATOM     30  O   UNL A   1      41.313  20.466  26.178  1.00  0.00    -0.376 OA
BRANCH  30  31
ATOM     31  C   UNL A   1      42.038  21.149  27.190  1.00  0.00     0.202 C 
BRANCH  31  32
ATOM     32  C   UNL A   1      41.612  22.581  27.563  1.00  0.00     0.261 C 
BRANCH  32  33
ATOM     33  O   UNL A   1      41.206  23.443  26.490  1.00  0.00    -0.460 OA
BRANCH  33  34
ATOM     34  C   UNL A   1      39.967  23.972  26.524  1.00  0.00     0.338 C 
ATOM     35  O   UNL A   1      38.938  23.462  26.113  1.00  0.00    -0.246 OA
BRANCH  34  36
ATOM     36  C   UNL A   1      40.023  25.211  27.332  1.00  0.00     0.060 A 
ATOM     37  C   UNL A   1      40.859  26.262  26.922  1.00  0.00     0.016 A 
ATOM     38  C   UNL A   1      39.260  25.336  28.494  1.00  0.00     0.016 A 
ATOM     39  C   UNL A   1      40.983  27.414  27.701  1.00  0.00     0.010 A 
ATOM     40  C   UNL A   1      39.401  26.480  29.284  1.00  0.00     0.010 A 
ATOM     41  C   UNL A   1      40.300  27.504  28.918  1.00  0.00    -0.014 A 
BRANCH  41  42
ATOM     42  C   UNL A   1      40.684  28.504  29.948  1.00  0.00     0.031 A 
ATOM     43  C   UNL A   1      39.747  29.648  30.187  1.00  0.00     0.074 A 
ATOM     44  C   UNL A   1      41.835  28.443  30.638  1.00  0.00     0.049 A 
ATOM     45  N   UNL A   1      39.928  30.740  30.880  1.00  0.00    -0.248 NA
ATOM     46  C   UNL A   1      38.409  29.525  29.584  1.00  0.00     0.031 C 
ATOM     47  C   UNL A   1      42.744  27.311  30.651  1.00  0.00     0.029 A 
ATOM     48  N   UNL A   1      42.463  29.382  31.420  1.00  0.00    -0.354 N 
ATOM     49  C   UNL A   1      38.723  31.422  30.815  1.00  0.00     0.074 A 
ATOM     50  C   UNL A   1      37.839  30.656  29.966  1.00  0.00     0.031 C 
ATOM     51  C   UNL A   1      43.883  27.665  31.271  1.00  0.00     0.029 A 
ATOM     52  C   UNL A   1      43.764  29.048  31.720  1.00  0.00     0.049 A 
ATOM     53  H   UNL A   1      42.029  30.209  31.733  1.00  0.00     0.167 HD
ATOM     54  C   UNL A   1      38.381  32.572  31.439  1.00  0.00     0.037 A 
ATOM     55  C   UNL A   1      44.750  29.788  32.264  1.00  0.00     0.037 A 
ATOM     56  C   UNL A   1      39.278  33.336  32.261  1.00  0.00     0.049 A 
ATOM     57  C   UNL A   1      44.421  31.167  32.771  1.00  0.00     0.074 A 
ATOM     58  C   UNL A   1      39.034  34.516  32.938  1.00  0.00     0.029 A 
ATOM     59  N   UNL A   1      40.603  33.001  32.502  1.00  0.00    -0.354 N 
ATOM     60  N   UNL A   1      43.277  31.805  32.732  1.00  0.00    -0.248 NA
ATOM     61  C   UNL A   1      45.497  31.909  33.444  1.00  0.00     0.031 C 
ATOM     62  C   UNL A   1      40.230  34.932  33.531  1.00  0.00     0.029 A 
ATOM     63  C   UNL A   1      41.199  33.971  33.289  1.00  0.00     0.049 A 
ATOM     64  H   UNL A   1      41.052  32.193  32.163  1.00  0.00     0.167 HD
ATOM     65  C   UNL A   1      43.470  32.981  33.444  1.00  0.00     0.074 A 
ATOM     66  C   UNL A   1      44.853  32.985  33.875  1.00  0.00     0.031 C 
ATOM     67  C   UNL A   1      42.568  33.948  33.740  1.00  0.00     0.037 A 
BRANCH  54  68
ATOM     68  C   UNL A   1      36.985  33.076  31.223  1.00  0.00     0.064 A 
ATOM     69  C   UNL A   1      36.624  33.770  30.057  1.00  0.00     0.173 A 
ATOM     70  C   UNL A   1      35.996  32.860  32.193  1.00  0.00     0.173 A 
ATOM     71  F   UNL A   1      37.538  34.018  29.107  1.00  0.00    -0.203 F 
ATOM     72  C   UNL A   1      35.332  34.258  29.887  1.00  0.00     0.198 A 
ATOM     73  C   UNL A   1      34.697  33.320  32.004  1.00  0.00     0.198 A 
ATOM     74  F   UNL A   1      36.290  32.203  33.325  1.00  0.00    -0.203 F 
ATOM     75  F   UNL A   1      35.025  34.971  28.794  1.00  0.00    -0.200 F 
ATOM     76  C   UNL A   1      34.369  34.027  30.857  1.00  0.00     0.200 A 
ATOM     77  F   UNL A   1      33.764  33.085  32.936  1.00  0.00    -0.200 F 
ATOM     78  F   UNL A   1      33.124  34.496  30.691  1.00  0.00    -0.200 F 
ENDBRANCH  54  68
BRANCH  55  79
ATOM     79  C   UNL A   1      46.127  29.241  32.378  1.00  0.00     0.064 A 
ATOM     80  C   UNL A   1      47.104  29.526  31.415  1.00  0.00     0.173 A 
ATOM     81  C   UNL A   1      46.487  28.394  33.439  1.00  0.00     0.173 A 
ATOM     82  F   UNL A   1      46.803  30.315  30.373  1.00  0.00    -0.203 F 
ATOM     83  C   UNL A   1      48.377  28.966  31.492  1.00  0.00     0.198 A 
ATOM     84  C   UNL A   1      47.769  27.853  33.527  1.00  0.00     0.198 A 
ATOM     85  F   UNL A   1      45.591  28.088  34.389  1.00  0.00    -0.203 F 
ATOM     86  F   UNL A   1      49.276  29.220  30.531  1.00  0.00    -0.200 F 
ATOM     87  C   UNL A   1      48.710  28.133  32.548  1.00  0.00     0.200 A 
ATOM     88  F   UNL A   1      48.091  27.056  34.555  1.00  0.00    -0.200 F 
ATOM     89  F   UNL A   1      49.935  27.591  32.618  1.00  0.00    -0.200 F 
ENDBRANCH  55  79
BRANCH  67  90
ATOM     90  C   UNL A   1      43.005  35.058  34.651  1.00  0.00     0.064 A 
ATOM     91  C   UNL A   1      43.432  36.299  34.164  1.00  0.00     0.173 A 
ATOM     92  C   UNL A   1      42.901  34.896  36.043  1.00  0.00     0.173 A 
ATOM     93  F   UNL A   1      43.564  36.499  32.844  1.00  0.00    -0.203 F 
ATOM     94  C   UNL A   1      43.745  37.338  35.037  1.00  0.00     0.198 A 
ATOM     95  C   UNL A   1      43.182  35.946  36.910  1.00  0.00     0.198 A 
ATOM     96  F   UNL A   1      42.493  33.726  36.560  1.00  0.00    -0.203 F 
ATOM     97  F   UNL A   1      44.182  38.509  34.552  1.00  0.00    -0.200 F 
ATOM     98  C   UNL A   1      43.607  37.166  36.407  1.00  0.00     0.200 A 
ATOM     99  F   UNL A   1      43.029  35.781  38.231  1.00  0.00    -0.200 F 
ATOM    100  F   UNL A   1      43.883  38.176  37.243  1.00  0.00    -0.200 F 
ENDBRANCH  67  90
ENDBRANCH  41  42
ENDBRANCH  34  36
ENDBRANCH  33  34
ENDBRANCH  32  33
ENDBRANCH  31  32
ENDBRANCH  30  31
ENDBRANCH  29  30
ENDBRANCH  28  29
ENDBRANCH  27  28
ENDBRANCH   1  27
TORSDOF 24
ENDMDL
