MODEL 1
REMARK VINA RESULT:     -10.4      0.000      0.000
REMARK SMILES C[C@@H]([NH2+][C@H]1CCOC2(CCOCC2)C1)C(=O)OCCOCCOCCOCCOC(=O)c1ccc(-c2c3nc(c(-c4c(F)c(F)c(F)c(F)c4F)c4ccc([nH]4)c(-c4c(F)c(F)c(F)c(F)c4F)c4nc(c(-c5c(F)c(F)c(F)c(F)c5F)c5ccc2[nH]5)C=C4)C=C3)cc1
REMARK SMILES IDX 23 1 22 2 21 3 20 4 19 5 18 6 17 7 15 8 16 9 2 10 1 11 3 12
REMARK SMILES IDX 4 15 5 16 14 17 6 18 8 19 7 20 9 21 13 22 10 23 12 24 11 25
REMARK SMILES IDX 24 26 25 27 26 28 27 29 28 30 29 31 30 32 31 33 32 34 33 35
REMARK SMILES IDX 94 36 34 37 93 38 35 39 36 40 37 41 87 42 38 43 92 44 86 45
REMARK SMILES IDX 88 46 39 47 91 48 85 49 84 50 40 52 72 53 52 54 71 55 53 56
REMARK SMILES IDX 56 57 70 58 89 59 54 60 55 61 69 63 90 64 57 65 41 66 42 67
REMARK SMILES IDX 50 68 43 69 44 70 48 71 51 72 45 73 46 74 49 75 47 76 73 77
REMARK SMILES IDX 74 78 82 79 75 80 76 81 80 82 83 83 77 84 78 85 81 86 79 87
REMARK SMILES IDX 58 88 59 89 67 90 60 91 61 92 65 93 68 94 62 95 63 96 66 97
REMARK SMILES IDX 64 98
REMARK H PARENT 3 13 3 14 88 51 56 62
REMARK Flexibility Score: inf
ROOT
ATOM      1  O   UNL A   1      41.299  20.758  26.982  1.00  0.00    -0.377 OA
ENDROOT
BRANCH   1   2
ATOM      2  C   UNL A   1      40.774  21.808  26.190  1.00  0.00     0.188 C 
BRANCH   2   3
ATOM      3  C   UNL A   1      39.305  22.184  26.434  1.00  0.00     0.188 C 
BRANCH   3   4
ATOM      4  O   UNL A   1      38.378  21.460  25.657  1.00  0.00    -0.376 OA
BRANCH   4   5
ATOM      5  C   UNL A   1      37.360  22.035  24.862  1.00  0.00     0.202 C 
BRANCH   5   6
ATOM      6  C   UNL A   1      36.627  23.379  25.090  1.00  0.00     0.261 C 
BRANCH   6   7
ATOM      7  O   UNL A   1      35.681  23.512  26.149  1.00  0.00    -0.459 OA
BRANCH   7   8
ATOM      8  C   UNL A   1      34.706  22.584  26.107  1.00  0.00     0.364 C 
ATOM      9  O   UNL A   1      34.495  21.836  27.063  1.00  0.00    -0.245 OA
BRANCH   8  10
ATOM     10  C   UNL A   1      33.848  22.573  24.801  1.00  0.00     0.290 C 
ATOM     11  C   UNL A   1      33.537  21.196  24.211  1.00  0.00     0.088 C 
BRANCH  10  12
ATOM     12  N   UNL A   1      32.576  23.346  24.954  1.00  0.00    -0.332 N 
ATOM     13  H   UNL A   1      32.331  23.385  25.943  1.00  0.00     0.347 HD
ATOM     14  H   UNL A   1      31.852  22.873  24.413  1.00  0.00     0.347 HD
BRANCH  12  15
ATOM     15  C   UNL A   1      32.701  24.716  24.444  1.00  0.00     0.188 C 
ATOM     16  C   UNL A   1      33.235  24.811  23.006  1.00  0.00     0.093 C 
ATOM     17  C   UNL A   1      31.432  25.549  24.560  1.00  0.00     0.100 C 
ATOM     18  C   UNL A   1      33.499  26.267  22.662  1.00  0.00     0.167 C 
ATOM     19  C   UNL A   1      31.791  27.017  24.211  1.00  0.00     0.078 C 
ATOM     20  O   UNL A   1      32.338  27.064  22.877  1.00  0.00    -0.374 OA
ATOM     21  C   UNL A   1      32.756  27.665  25.239  1.00  0.00     0.064 C 
ATOM     22  C   UNL A   1      30.509  27.858  24.179  1.00  0.00     0.064 C 
ATOM     23  C   UNL A   1      32.966  29.140  24.937  1.00  0.00     0.163 C 
ATOM     24  C   UNL A   1      30.842  29.324  23.924  1.00  0.00     0.163 C 
ATOM     25  O   UNL A   1      31.717  29.827  24.934  1.00  0.00    -0.381 OA
ENDBRANCH  12  15
ENDBRANCH  10  12
ENDBRANCH   8  10
ENDBRANCH   7   8
ENDBRANCH   6   7
ENDBRANCH   5   6
ENDBRANCH   4   5
ENDBRANCH   3   4
ENDBRANCH   2   3
ENDBRANCH   1   2
BRANCH   1  26
ATOM     26  C   UNL A   1      41.585  19.496  26.383  1.00  0.00     0.188 C 
BRANCH  26  27
ATOM     27  C   UNL A   1      43.008  19.115  25.912  1.00  0.00     0.188 C 
BRANCH  27  28
ATOM     28  O   UNL A   1      43.519  19.907  24.856  1.00  0.00    -0.376 OA
BRANCH  28  29
ATOM     29  C   UNL A   1      44.299  21.043  25.187  1.00  0.00     0.202 C 
BRANCH  29  30
ATOM     30  C   UNL A   1      44.164  22.279  24.286  1.00  0.00     0.261 C 
BRANCH  30  31
ATOM     31  O   UNL A   1      43.536  23.433  24.869  1.00  0.00    -0.460 OA
BRANCH  31  32
ATOM     32  C   UNL A   1      44.298  24.517  25.121  1.00  0.00     0.338 C 
ATOM     33  O   UNL A   1      45.345  24.828  24.576  1.00  0.00    -0.246 OA
BRANCH  32  34
ATOM     34  C   UNL A   1      43.545  25.393  26.042  1.00  0.00     0.060 A 
ATOM     35  C   UNL A   1      43.737  26.781  25.979  1.00  0.00     0.016 A 
ATOM     36  C   UNL A   1      42.644  24.847  26.958  1.00  0.00     0.016 A 
ATOM     37  C   UNL A   1      43.059  27.623  26.860  1.00  0.00     0.010 A 
ATOM     38  C   UNL A   1      41.986  25.688  27.858  1.00  0.00     0.010 A 
ATOM     39  C   UNL A   1      42.219  27.076  27.838  1.00  0.00    -0.014 A 
BRANCH  39  40
ATOM     40  C   UNL A   1      41.757  27.914  28.971  1.00  0.00     0.031 A 
ATOM     41  C   UNL A   1      42.520  27.836  30.265  1.00  0.00     0.074 A 
ATOM     42  C   UNL A   1      40.695  28.729  28.861  1.00  0.00     0.049 A 
ATOM     43  N   UNL A   1      42.268  28.397  31.418  1.00  0.00    -0.248 NA
ATOM     44  C   UNL A   1      43.732  27.001  30.254  1.00  0.00     0.031 C 
ATOM     45  C   UNL A   1      39.903  28.928  27.649  1.00  0.00     0.029 A 
ATOM     46  N   UNL A   1      40.089  29.531  29.797  1.00  0.00    -0.354 N 
ATOM     47  C   UNL A   1      43.279  27.972  32.272  1.00  0.00     0.074 A 
ATOM     48  C   UNL A   1      44.130  27.083  31.513  1.00  0.00     0.031 C 
ATOM     49  C   UNL A   1      38.900  29.781  27.922  1.00  0.00     0.029 A 
ATOM     50  C   UNL A   1      38.957  30.154  29.336  1.00  0.00     0.049 A 
ATOM     51  H   UNL A   1      40.435  29.648  30.712  1.00  0.00     0.167 HD
ATOM     52  C   UNL A   1      43.480  28.297  33.570  1.00  0.00     0.037 A 
ATOM     53  C   UNL A   1      38.053  30.910  29.991  1.00  0.00     0.037 A 
ATOM     54  C   UNL A   1      42.627  29.180  34.320  1.00  0.00     0.049 A 
ATOM     55  C   UNL A   1      38.254  31.197  31.460  1.00  0.00     0.074 A 
ATOM     56  C   UNL A   1      42.758  29.594  35.634  1.00  0.00     0.029 A 
ATOM     57  N   UNL A   1      41.475  29.774  33.826  1.00  0.00    -0.354 N 
ATOM     58  N   UNL A   1      39.225  30.817  32.254  1.00  0.00    -0.248 NA
ATOM     59  C   UNL A   1      37.232  32.021  32.122  1.00  0.00     0.031 C 
ATOM     60  C   UNL A   1      41.648  30.382  35.954  1.00  0.00     0.029 A 
ATOM     61  C   UNL A   1      40.865  30.522  34.820  1.00  0.00     0.049 A 
ATOM     62  H   UNL A   1      41.140  29.678  32.905  1.00  0.00     0.167 HD
ATOM     63  C   UNL A   1      38.949  31.379  33.495  1.00  0.00     0.074 A 
ATOM     64  C   UNL A   1      37.726  32.137  33.346  1.00  0.00     0.031 C 
ATOM     65  C   UNL A   1      39.649  31.279  34.654  1.00  0.00     0.037 A 
BRANCH  52  66
ATOM     66  C   UNL A   1      44.644  27.660  34.272  1.00  0.00     0.064 A 
ATOM     67  C   UNL A   1      45.907  28.270  34.325  1.00  0.00     0.173 A 
ATOM     68  C   UNL A   1      44.488  26.425  34.920  1.00  0.00     0.173 A 
ATOM     69  F   UNL A   1      46.115  29.445  33.710  1.00  0.00    -0.203 F 
ATOM     70  C   UNL A   1      46.976  27.653  34.970  1.00  0.00     0.198 A 
ATOM     71  C   UNL A   1      45.550  25.827  35.595  1.00  0.00     0.198 A 
ATOM     72  F   UNL A   1      43.302  25.797  34.904  1.00  0.00    -0.203 F 
ATOM     73  F   UNL A   1      48.186  28.228  34.957  1.00  0.00    -0.200 F 
ATOM     74  C   UNL A   1      46.794  26.436  35.611  1.00  0.00     0.200 A 
ATOM     75  F   UNL A   1      45.367  24.658  36.226  1.00  0.00    -0.200 F 
ATOM     76  F   UNL A   1      47.822  25.847  36.236  1.00  0.00    -0.200 F 
ENDBRANCH  52  66
BRANCH  53  77
ATOM     77  C   UNL A   1      36.859  31.430  29.273  1.00  0.00     0.064 A 
ATOM     78  C   UNL A   1      36.745  32.786  28.937  1.00  0.00     0.173 A 
ATOM     79  C   UNL A   1      35.795  30.583  28.927  1.00  0.00     0.173 A 
ATOM     80  F   UNL A   1      37.721  33.643  29.270  1.00  0.00    -0.203 F 
ATOM     81  C   UNL A   1      35.606  33.278  28.300  1.00  0.00     0.198 A 
ATOM     82  C   UNL A   1      34.672  31.069  28.261  1.00  0.00     0.198 A 
ATOM     83  F   UNL A   1      35.849  29.277  29.229  1.00  0.00    -0.203 F 
ATOM     84  F   UNL A   1      35.501  34.588  28.037  1.00  0.00    -0.200 F 
ATOM     85  C   UNL A   1      34.574  32.418  27.955  1.00  0.00     0.200 A 
ATOM     86  F   UNL A   1      33.683  30.232  27.919  1.00  0.00    -0.200 F 
ATOM     87  F   UNL A   1      33.482  32.891  27.339  1.00  0.00    -0.200 F 
ENDBRANCH  53  77
BRANCH  65  88
ATOM     88  C   UNL A   1      39.139  32.043  35.845  1.00  0.00     0.064 A 
ATOM     89  C   UNL A   1      39.465  33.390  36.058  1.00  0.00     0.173 A 
ATOM     90  C   UNL A   1      38.265  31.429  36.756  1.00  0.00     0.173 A 
ATOM     91  F   UNL A   1      40.306  34.021  35.226  1.00  0.00    -0.203 F 
ATOM     92  C   UNL A   1      38.954  34.087  37.152  1.00  0.00     0.198 A 
ATOM     93  C   UNL A   1      37.728  32.138  37.827  1.00  0.00     0.198 A 
ATOM     94  F   UNL A   1      37.911  30.144  36.595  1.00  0.00    -0.203 F 
ATOM     95  F   UNL A   1      39.318  35.359  37.362  1.00  0.00    -0.200 F 
ATOM     96  C   UNL A   1      38.080  33.463  38.029  1.00  0.00     0.200 A 
ATOM     97  F   UNL A   1      36.867  31.539  38.662  1.00  0.00    -0.200 F 
ATOM     98  F   UNL A   1      37.578  34.139  39.072  1.00  0.00    -0.200 F 
ENDBRANCH  65  88
ENDBRANCH  39  40
ENDBRANCH  32  34
ENDBRANCH  31  32
ENDBRANCH  30  31
ENDBRANCH  29  30
ENDBRANCH  28  29
ENDBRANCH  27  28
ENDBRANCH  26  27
ENDBRANCH   1  26
TORSDOF 22
ENDMDL
MODEL 2
REMARK VINA RESULT:     -10.3      1.522      2.732
REMARK SMILES C[C@@H]([NH2+][C@H]1CCOC2(CCOCC2)C1)C(=O)OCCOCCOCCOCCOC(=O)c1ccc(-c2c3nc(c(-c4c(F)c(F)c(F)c(F)c4F)c4ccc([nH]4)c(-c4c(F)c(F)c(F)c(F)c4F)c4nc(c(-c5c(F)c(F)c(F)c(F)c5F)c5ccc2[nH]5)C=C4)C=C3)cc1
REMARK SMILES IDX 23 1 22 2 21 3 20 4 19 5 18 6 17 7 15 8 16 9 2 10 1 11 3 12
REMARK SMILES IDX 4 15 5 16 14 17 6 18 8 19 7 20 9 21 13 22 10 23 12 24 11 25
REMARK SMILES IDX 24 26 25 27 26 28 27 29 28 30 29 31 30 32 31 33 32 34 33 35
REMARK SMILES IDX 94 36 34 37 93 38 35 39 36 40 37 41 87 42 38 43 92 44 86 45
REMARK SMILES IDX 88 46 39 47 91 48 85 49 84 50 40 52 72 53 52 54 71 55 53 56
REMARK SMILES IDX 56 57 70 58 89 59 54 60 55 61 69 63 90 64 57 65 41 66 42 67
REMARK SMILES IDX 50 68 43 69 44 70 48 71 51 72 45 73 46 74 49 75 47 76 73 77
REMARK SMILES IDX 74 78 82 79 75 80 76 81 80 82 83 83 77 84 78 85 81 86 79 87
REMARK SMILES IDX 58 88 59 89 67 90 60 91 61 92 65 93 68 94 62 95 63 96 66 97
REMARK SMILES IDX 64 98
REMARK H PARENT 3 13 3 14 88 51 56 62
REMARK Flexibility Score: inf
ROOT
ATOM      1  O   UNL A   1      44.245  18.077  24.862  1.00  0.00    -0.377 OA
ENDROOT
BRANCH   1   2
ATOM      2  C   UNL A   1      43.537  18.515  26.008  1.00  0.00     0.188 C 
BRANCH   2   3
ATOM      3  C   UNL A   1      42.535  19.660  25.800  1.00  0.00     0.188 C 
BRANCH   3   4
ATOM      4  O   UNL A   1      42.836  20.838  26.513  1.00  0.00    -0.376 OA
BRANCH   4   5
ATOM      5  C   UNL A   1      41.945  21.514  27.377  1.00  0.00     0.202 C 
BRANCH   5   6
ATOM      6  C   UNL A   1      40.399  21.546  27.307  1.00  0.00     0.261 C 
BRANCH   6   7
ATOM      7  O   UNL A   1      39.736  21.564  26.045  1.00  0.00    -0.459 OA
BRANCH   7   8
ATOM      8  C   UNL A   1      38.572  22.241  26.068  1.00  0.00     0.364 C 
ATOM      9  O   UNL A   1      38.500  23.373  26.550  1.00  0.00    -0.245 OA
BRANCH   8  10
ATOM     10  C   UNL A   1      37.362  21.514  25.398  1.00  0.00     0.290 C 
ATOM     11  C   UNL A   1      37.601  20.065  24.970  1.00  0.00     0.088 C 
BRANCH  10  12
ATOM     12  N   UNL A   1      36.124  21.586  26.237  1.00  0.00    -0.332 N 
ATOM     13  H   UNL A   1      36.327  22.127  27.077  1.00  0.00     0.347 HD
ATOM     14  H   UNL A   1      35.846  20.633  26.471  1.00  0.00     0.347 HD
BRANCH  12  15
ATOM     15  C   UNL A   1      35.012  22.221  25.521  1.00  0.00     0.188 C 
ATOM     16  C   UNL A   1      33.683  22.228  26.291  1.00  0.00     0.093 C 
ATOM     17  C   UNL A   1      35.307  23.629  25.024  1.00  0.00     0.100 C 
ATOM     18  C   UNL A   1      32.577  22.734  25.382  1.00  0.00     0.167 C 
ATOM     19  C   UNL A   1      34.144  24.060  24.093  1.00  0.00     0.078 C 
ATOM     20  O   UNL A   1      32.906  24.005  24.830  1.00  0.00    -0.374 OA
ATOM     21  C   UNL A   1      34.064  23.217  22.793  1.00  0.00     0.064 C 
ATOM     22  C   UNL A   1      34.337  25.526  23.687  1.00  0.00     0.064 C 
ATOM     23  C   UNL A   1      33.004  23.764  21.851  1.00  0.00     0.163 C 
ATOM     24  C   UNL A   1      33.254  25.951  22.701  1.00  0.00     0.163 C 
ATOM     25  O   UNL A   1      33.278  25.126  21.536  1.00  0.00    -0.381 OA
ENDBRANCH  12  15
ENDBRANCH  10  12
ENDBRANCH   8  10
ENDBRANCH   7   8
ENDBRANCH   6   7
ENDBRANCH   5   6
ENDBRANCH   4   5
ENDBRANCH   3   4
ENDBRANCH   2   3
ENDBRANCH   1   2
BRANCH   1  26
ATOM     26  C   UNL A   1      45.266  18.901  24.303  1.00  0.00     0.188 C 
BRANCH  26  27
ATOM     27  C   UNL A   1      46.379  19.532  25.172  1.00  0.00     0.188 C 
BRANCH  27  28
ATOM     28  O   UNL A   1      46.742  20.852  24.811  1.00  0.00    -0.376 OA
BRANCH  28  29
ATOM     29  C   UNL A   1      45.870  21.910  25.172  1.00  0.00     0.202 C 
BRANCH  29  30
ATOM     30  C   UNL A   1      45.824  23.134  24.246  1.00  0.00     0.261 C 
BRANCH  30  31
ATOM     31  O   UNL A   1      45.180  24.308  24.766  1.00  0.00    -0.460 OA
BRANCH  31  32
ATOM     32  C   UNL A   1      43.854  24.257  25.006  1.00  0.00     0.338 C 
ATOM     33  O   UNL A   1      43.027  23.559  24.443  1.00  0.00    -0.246 OA
BRANCH  32  34
ATOM     34  C   UNL A   1      43.585  25.051  26.223  1.00  0.00     0.060 A 
ATOM     35  C   UNL A   1      42.755  24.519  27.220  1.00  0.00     0.016 A 
ATOM     36  C   UNL A   1      44.160  26.313  26.383  1.00  0.00     0.016 A 
ATOM     37  C   UNL A   1      42.464  25.265  28.362  1.00  0.00     0.010 A 
ATOM     38  C   UNL A   1      43.847  27.070  27.514  1.00  0.00     0.010 A 
ATOM     39  C   UNL A   1      42.969  26.565  28.490  1.00  0.00    -0.014 A 
BRANCH  39  40
ATOM     40  C   UNL A   1      42.412  27.476  29.520  1.00  0.00     0.031 A 
ATOM     41  C   UNL A   1      43.107  27.547  30.851  1.00  0.00     0.074 A 
ATOM     42  C   UNL A   1      41.324  28.228  29.285  1.00  0.00     0.049 A 
ATOM     43  N   UNL A   1      42.771  28.195  31.936  1.00  0.00    -0.248 NA
ATOM     44  C   UNL A   1      44.353  26.773  30.975  1.00  0.00     0.031 C 
ATOM     45  C   UNL A   1      40.590  28.283  28.023  1.00  0.00     0.029 A 
ATOM     46  N   UNL A   1      40.635  29.079  30.114  1.00  0.00    -0.354 N 
ATOM     47  C   UNL A   1      43.752  27.894  32.873  1.00  0.00     0.074 A 
ATOM     48  C   UNL A   1      44.680  26.983  32.239  1.00  0.00     0.031 C 
ATOM     49  C   UNL A   1      39.538  29.108  28.169  1.00  0.00     0.029 A 
ATOM     50  C   UNL A   1      39.504  29.606  29.544  1.00  0.00     0.049 A 
ATOM     51  H   UNL A   1      40.926  29.291  31.031  1.00  0.00     0.167 HD
ATOM     52  C   UNL A   1      43.870  28.340  34.145  1.00  0.00     0.037 A 
ATOM     53  C   UNL A   1      38.535  30.373  30.084  1.00  0.00     0.037 A 
ATOM     54  C   UNL A   1      42.941  29.245  34.770  1.00  0.00     0.049 A 
ATOM     55  C   UNL A   1      38.645  30.795  31.529  1.00  0.00     0.074 A 
ATOM     56  C   UNL A   1      42.984  29.777  36.047  1.00  0.00     0.029 A 
ATOM     57  N   UNL A   1      41.793  29.738  34.168  1.00  0.00    -0.354 N 
ATOM     58  N   UNL A   1      39.588  30.532  32.401  1.00  0.00    -0.248 NA
ATOM     59  C   UNL A   1      37.555  31.625  32.063  1.00  0.00     0.031 C 
ATOM     60  C   UNL A   1      41.826  30.537  36.240  1.00  0.00     0.029 A 
ATOM     61  C   UNL A   1      41.099  30.540  35.060  1.00  0.00     0.049 A 
ATOM     62  H   UNL A   1      41.512  29.546  33.244  1.00  0.00     0.167 HD
ATOM     63  C   UNL A   1      39.223  31.187  33.572  1.00  0.00     0.074 A 
ATOM     64  C   UNL A   1      37.977  31.870  33.295  1.00  0.00     0.031 C 
ATOM     65  C   UNL A   1      39.863  31.222  34.767  1.00  0.00     0.037 A 
BRANCH  52  66
ATOM     66  C   UNL A   1      45.021  27.823  34.958  1.00  0.00     0.064 A 
ATOM     67  C   UNL A   1      46.266  28.469  34.981  1.00  0.00     0.173 A 
ATOM     68  C   UNL A   1      44.869  26.669  35.742  1.00  0.00     0.173 A 
ATOM     69  F   UNL A   1      46.471  29.567  34.238  1.00  0.00    -0.203 F 
ATOM     70  C   UNL A   1      47.324  27.962  35.732  1.00  0.00     0.198 A 
ATOM     71  C   UNL A   1      45.918  26.184  36.520  1.00  0.00     0.198 A 
ATOM     72  F   UNL A   1      43.699  26.012  35.760  1.00  0.00    -0.203 F 
ATOM     73  F   UNL A   1      48.521  28.563  35.693  1.00  0.00    -0.200 F 
ATOM     74  C   UNL A   1      47.146  26.825  36.507  1.00  0.00     0.200 A 
ATOM     75  F   UNL A   1      45.738  25.094  37.279  1.00  0.00    -0.200 F 
ATOM     76  F   UNL A   1      48.164  26.341  37.233  1.00  0.00    -0.200 F 
ENDBRANCH  52  66
BRANCH  53  77
ATOM     77  C   UNL A   1      37.359  30.771  29.264  1.00  0.00     0.064 A 
ATOM     78  C   UNL A   1      37.223  32.076  28.773  1.00  0.00     0.173 A 
ATOM     79  C   UNL A   1      36.335  29.857  28.972  1.00  0.00     0.173 A 
ATOM     80  F   UNL A   1      38.160  32.996  29.047  1.00  0.00    -0.203 F 
ATOM     81  C   UNL A   1      36.100  32.458  28.039  1.00  0.00     0.198 A 
ATOM     82  C   UNL A   1      35.230  30.230  28.211  1.00  0.00     0.198 A 
ATOM     83  F   UNL A   1      36.411  28.595  29.421  1.00  0.00    -0.203 F 
ATOM     84  F   UNL A   1      35.971  33.726  27.627  1.00  0.00    -0.200 F 
ATOM     85  C   UNL A   1      35.108  31.532  27.752  1.00  0.00     0.200 A 
ATOM     86  F   UNL A   1      34.279  29.329  27.925  1.00  0.00    -0.200 F 
ATOM     87  F   UNL A   1      34.032  31.899  27.043  1.00  0.00    -0.200 F 
ENDBRANCH  53  77
BRANCH  65  88
ATOM     88  C   UNL A   1      39.259  32.061  35.859  1.00  0.00     0.064 A 
ATOM     89  C   UNL A   1      38.318  31.541  36.760  1.00  0.00     0.173 A 
ATOM     90  C   UNL A   1      39.672  33.391  36.039  1.00  0.00     0.173 A 
ATOM     91  F   UNL A   1      37.879  30.281  36.626  1.00  0.00    -0.203 F 
ATOM     92  C   UNL A   1      37.796  32.329  37.785  1.00  0.00     0.198 A 
ATOM     93  C   UNL A   1      39.175  34.163  37.085  1.00  0.00     0.198 A 
ATOM     94  F   UNL A   1      40.577  33.936  35.212  1.00  0.00    -0.203 F 
ATOM     95  F   UNL A   1      36.862  31.826  38.604  1.00  0.00    -0.200 F 
ATOM     96  C   UNL A   1      38.232  33.635  37.952  1.00  0.00     0.200 A 
ATOM     97  F   UNL A   1      39.614  35.419  37.257  1.00  0.00    -0.200 F 
ATOM     98  F   UNL A   1      37.739  34.385  38.947  1.00  0.00    -0.200 F 
ENDBRANCH  65  88
ENDBRANCH  39  40
ENDBRANCH  32  34
ENDBRANCH  31  32
ENDBRANCH  30  31
ENDBRANCH  29  30
ENDBRANCH  28  29
ENDBRANCH  27  28
ENDBRANCH  26  27
ENDBRANCH   1  26
TORSDOF 22
ENDMDL
MODEL 3
REMARK VINA RESULT:     -10.2      0.910      2.027
REMARK SMILES C[C@@H]([NH2+][C@H]1CCOC2(CCOCC2)C1)C(=O)OCCOCCOCCOCCOC(=O)c1ccc(-c2c3nc(c(-c4c(F)c(F)c(F)c(F)c4F)c4ccc([nH]4)c(-c4c(F)c(F)c(F)c(F)c4F)c4nc(c(-c5c(F)c(F)c(F)c(F)c5F)c5ccc2[nH]5)C=C4)C=C3)cc1
REMARK SMILES IDX 23 1 22 2 21 3 20 4 19 5 18 6 17 7 15 8 16 9 2 10 1 11 3 12
REMARK SMILES IDX 4 15 5 16 14 17 6 18 8 19 7 20 9 21 13 22 10 23 12 24 11 25
REMARK SMILES IDX 24 26 25 27 26 28 27 29 28 30 29 31 30 32 31 33 32 34 33 35
REMARK SMILES IDX 94 36 34 37 93 38 35 39 36 40 37 41 87 42 38 43 92 44 86 45
REMARK SMILES IDX 88 46 39 47 91 48 85 49 84 50 40 52 72 53 52 54 71 55 53 56
REMARK SMILES IDX 56 57 70 58 89 59 54 60 55 61 69 63 90 64 57 65 41 66 42 67
REMARK SMILES IDX 50 68 43 69 44 70 48 71 51 72 45 73 46 74 49 75 47 76 73 77
REMARK SMILES IDX 74 78 82 79 75 80 76 81 80 82 83 83 77 84 78 85 81 86 79 87
REMARK SMILES IDX 58 88 59 89 67 90 60 91 61 92 65 93 68 94 62 95 63 96 66 97
REMARK SMILES IDX 64 98
REMARK H PARENT 3 13 3 14 88 51 56 62
REMARK Flexibility Score: inf
ROOT
ATOM      1  O   UNL A   1      40.719  21.958  27.273  1.00  0.00    -0.377 OA
ENDROOT
BRANCH   1   2
ATOM      2  C   UNL A   1      39.533  22.377  26.624  1.00  0.00     0.188 C 
BRANCH   2   3
ATOM      3  C   UNL A   1      38.849  21.348  25.712  1.00  0.00     0.188 C 
BRANCH   3   4
ATOM      4  O   UNL A   1      37.830  21.875  24.894  1.00  0.00    -0.376 OA
BRANCH   4   5
ATOM      5  C   UNL A   1      37.216  23.137  25.072  1.00  0.00     0.202 C 
BRANCH   5   6
ATOM      6  C   UNL A   1      35.882  23.635  24.465  1.00  0.00     0.261 C 
BRANCH   6   7
ATOM      7  O   UNL A   1      35.334  22.999  23.313  1.00  0.00    -0.459 OA
BRANCH   7   8
ATOM      8  C   UNL A   1      34.064  23.367  23.060  1.00  0.00     0.364 C 
ATOM      9  O   UNL A   1      33.802  24.202  22.193  1.00  0.00    -0.245 OA
BRANCH   8  10
ATOM     10  C   UNL A   1      32.972  22.624  23.895  1.00  0.00     0.290 C 
ATOM     11  C   UNL A   1      33.062  21.096  23.913  1.00  0.00     0.088 C 
BRANCH  10  12
ATOM     12  N   UNL A   1      32.893  23.132  25.301  1.00  0.00    -0.332 N 
ATOM     13  H   UNL A   1      33.834  23.355  25.624  1.00  0.00     0.347 HD
ATOM     14  H   UNL A   1      32.469  22.405  25.876  1.00  0.00     0.347 HD
BRANCH  12  15
ATOM     15  C   UNL A   1      32.059  24.335  25.403  1.00  0.00     0.188 C 
ATOM     16  C   UNL A   1      30.819  24.174  26.294  1.00  0.00     0.093 C 
ATOM     17  C   UNL A   1      32.814  25.590  25.822  1.00  0.00     0.100 C 
ATOM     18  C   UNL A   1      29.944  25.410  26.169  1.00  0.00     0.167 C 
ATOM     19  C   UNL A   1      31.861  26.800  25.648  1.00  0.00     0.078 C 
ATOM     20  O   UNL A   1      30.684  26.593  26.456  1.00  0.00    -0.374 OA
ATOM     21  C   UNL A   1      31.487  27.070  24.166  1.00  0.00     0.064 C 
ATOM     22  C   UNL A   1      32.540  28.062  26.195  1.00  0.00     0.064 C 
ATOM     23  C   UNL A   1      30.671  28.345  24.032  1.00  0.00     0.163 C 
ATOM     24  C   UNL A   1      31.659  29.284  25.958  1.00  0.00     0.163 C 
ATOM     25  O   UNL A   1      31.392  29.452  24.565  1.00  0.00    -0.381 OA
ENDBRANCH  12  15
ENDBRANCH  10  12
ENDBRANCH   8  10
ENDBRANCH   7   8
ENDBRANCH   6   7
ENDBRANCH   5   6
ENDBRANCH   4   5
ENDBRANCH   3   4
ENDBRANCH   2   3
ENDBRANCH   1   2
BRANCH   1  26
ATOM     26  C   UNL A   1      40.988  20.567  27.428  1.00  0.00     0.188 C 
BRANCH  26  27
ATOM     27  C   UNL A   1      42.224  19.894  26.786  1.00  0.00     0.188 C 
BRANCH  27  28
ATOM     28  O   UNL A   1      42.618  20.434  25.538  1.00  0.00    -0.376 OA
BRANCH  28  29
ATOM     29  C   UNL A   1      43.883  21.068  25.452  1.00  0.00     0.202 C 
BRANCH  29  30
ATOM     30  C   UNL A   1      43.998  22.292  24.532  1.00  0.00     0.261 C 
BRANCH  30  31
ATOM     31  O   UNL A   1      43.357  23.497  24.983  1.00  0.00    -0.460 OA
BRANCH  31  32
ATOM     32  C   UNL A   1      44.125  24.581  25.213  1.00  0.00     0.338 C 
ATOM     33  O   UNL A   1      45.156  24.893  24.640  1.00  0.00    -0.246 OA
BRANCH  32  34
ATOM     34  C   UNL A   1      43.397  25.457  26.155  1.00  0.00     0.060 A 
ATOM     35  C   UNL A   1      43.653  26.836  26.147  1.00  0.00     0.016 A 
ATOM     36  C   UNL A   1      42.457  24.919  27.036  1.00  0.00     0.016 A 
ATOM     37  C   UNL A   1      42.999  27.675  27.048  1.00  0.00     0.010 A 
ATOM     38  C   UNL A   1      41.822  25.756  27.956  1.00  0.00     0.010 A 
ATOM     39  C   UNL A   1      42.118  27.131  27.991  1.00  0.00    -0.014 A 
BRANCH  39  40
ATOM     40  C   UNL A   1      41.676  27.948  29.148  1.00  0.00     0.031 A 
ATOM     41  C   UNL A   1      42.425  27.803  30.444  1.00  0.00     0.074 A 
ATOM     42  C   UNL A   1      40.642  28.802  29.057  1.00  0.00     0.049 A 
ATOM     43  N   UNL A   1      42.184  28.336  31.613  1.00  0.00    -0.248 NA
ATOM     44  C   UNL A   1      43.609  26.929  30.414  1.00  0.00     0.031 C 
ATOM     45  C   UNL A   1      39.867  29.066  27.847  1.00  0.00     0.029 A 
ATOM     46  N   UNL A   1      40.056  29.593  30.015  1.00  0.00    -0.354 N 
ATOM     47  C   UNL A   1      43.173  27.849  32.459  1.00  0.00     0.074 A 
ATOM     48  C   UNL A   1      44.000  26.957  31.678  1.00  0.00     0.031 C 
ATOM     49  C   UNL A   1      38.891  29.942  28.141  1.00  0.00     0.029 A 
ATOM     50  C   UNL A   1      38.949  30.268  29.566  1.00  0.00     0.049 A 
ATOM     51  H   UNL A   1      40.398  29.669  30.935  1.00  0.00     0.167 HD
ATOM     52  C   UNL A   1      43.374  28.126  33.769  1.00  0.00     0.037 A 
ATOM     53  C   UNL A   1      38.066  31.033  30.239  1.00  0.00     0.037 A 
ATOM     54  C   UNL A   1      42.545  29.013  34.541  1.00  0.00     0.049 A 
ATOM     55  C   UNL A   1      38.265  31.265  31.718  1.00  0.00     0.074 A 
ATOM     56  C   UNL A   1      42.679  29.380  35.869  1.00  0.00     0.029 A 
ATOM     57  N   UNL A   1      41.417  29.660  34.058  1.00  0.00    -0.354 N 
ATOM     58  N   UNL A   1      39.216  30.828  32.506  1.00  0.00    -0.248 NA
ATOM     59  C   UNL A   1      37.265  32.101  32.399  1.00  0.00     0.031 C 
ATOM     60  C   UNL A   1      41.594  30.194  36.206  1.00  0.00     0.029 A 
ATOM     61  C   UNL A   1      40.824  30.396  35.072  1.00  0.00     0.049 A 
ATOM     62  H   UNL A   1      41.087  29.605  33.132  1.00  0.00     0.167 HD
ATOM     63  C   UNL A   1      38.949  31.359  33.763  1.00  0.00     0.074 A 
ATOM     64  C   UNL A   1      37.753  32.161  33.630  1.00  0.00     0.031 C 
ATOM     65  C   UNL A   1      39.636  31.199  34.922  1.00  0.00     0.037 A 
BRANCH  52  66
ATOM     66  C   UNL A   1      44.511  27.428  34.458  1.00  0.00     0.064 A 
ATOM     67  C   UNL A   1      44.351  26.183  35.083  1.00  0.00     0.173 A 
ATOM     68  C   UNL A   1      45.789  28.010  34.477  1.00  0.00     0.173 A 
ATOM     69  F   UNL A   1      43.148  25.589  35.108  1.00  0.00    -0.203 F 
ATOM     70  C   UNL A   1      45.418  25.562  35.729  1.00  0.00     0.198 A 
ATOM     71  C   UNL A   1      46.861  27.370  35.093  1.00  0.00     0.198 A 
ATOM     72  F   UNL A   1      45.999  29.200  33.892  1.00  0.00    -0.203 F 
ATOM     73  F   UNL A   1      45.227  24.400  36.370  1.00  0.00    -0.200 F 
ATOM     74  C   UNL A   1      46.673  26.152  35.726  1.00  0.00     0.200 A 
ATOM     75  F   UNL A   1      48.076  27.936  35.075  1.00  0.00    -0.200 F 
ATOM     76  F   UNL A   1      47.699  25.551  36.344  1.00  0.00    -0.200 F 
ENDBRANCH  52  66
BRANCH  53  77
ATOM     77  C   UNL A   1      36.895  31.615  29.530  1.00  0.00     0.064 A 
ATOM     78  C   UNL A   1      35.818  30.815  29.124  1.00  0.00     0.173 A 
ATOM     79  C   UNL A   1      36.838  32.984  29.226  1.00  0.00     0.173 A 
ATOM     80  F   UNL A   1      35.836  29.496  29.365  1.00  0.00    -0.203 F 
ATOM     81  C   UNL A   1      34.740  31.357  28.424  1.00  0.00     0.198 A 
ATOM     82  C   UNL A   1      35.746  33.530  28.556  1.00  0.00     0.198 A 
ATOM     83  F   UNL A   1      37.844  33.796  29.587  1.00  0.00    -0.203 F 
ATOM     84  F   UNL A   1      33.750  30.559  28.002  1.00  0.00    -0.200 F 
ATOM     85  C   UNL A   1      34.702  32.715  28.148  1.00  0.00     0.200 A 
ATOM     86  F   UNL A   1      35.707  34.846  28.302  1.00  0.00    -0.200 F 
ATOM     87  F   UNL A   1      33.664  33.235  27.479  1.00  0.00    -0.200 F 
ENDBRANCH  53  77
BRANCH  65  88
ATOM     88  C   UNL A   1      39.143  31.940  36.134  1.00  0.00     0.064 A 
ATOM     89  C   UNL A   1      39.541  33.256  36.412  1.00  0.00     0.173 A 
ATOM     90  C   UNL A   1      38.212  31.342  36.998  1.00  0.00     0.173 A 
ATOM     91  F   UNL A   1      40.438  33.870  35.626  1.00  0.00    -0.203 F 
ATOM     92  C   UNL A   1      39.045  33.935  37.523  1.00  0.00     0.198 A 
ATOM     93  C   UNL A   1      37.691  32.035  38.087  1.00  0.00     0.198 A 
ATOM     94  F   UNL A   1      37.788  30.088  36.774  1.00  0.00    -0.203 F 
ATOM     95  F   UNL A   1      39.477  35.173  37.796  1.00  0.00    -0.200 F 
ATOM     96  C   UNL A   1      38.114  33.328  38.353  1.00  0.00     0.200 A 
ATOM     97  F   UNL A   1      36.776  31.454  38.875  1.00  0.00    -0.200 F 
ATOM     98  F   UNL A   1      37.628  33.988  39.413  1.00  0.00    -0.200 F 
ENDBRANCH  65  88
ENDBRANCH  39  40
ENDBRANCH  32  34
ENDBRANCH  31  32
ENDBRANCH  30  31
ENDBRANCH  29  30
ENDBRANCH  28  29
ENDBRANCH  27  28
ENDBRANCH  26  27
ENDBRANCH   1  26
TORSDOF 22
ENDMDL
