MODEL 1
REMARK VINA RESULT:     -11.1      0.000      0.000
REMARK SMILES O=C(OCCOCCOCCOCCOC(=O)c1ccc(N2C(=O)/C(=C/C3=c4ccccc4=NC3)SC2=S)cc1O)c1ccc(-c2c3nc(c(-c4c(F)c(F)c(F)c(F)c4F)c4ccc([nH]4)c(-c4c(F)c(F)c(F)c(F)c4F)c4nc(c(-c5c(F)c(F)c(F)c(F)c5F)c5ccc2[nH]5)C=C4)C=C3)cc1
REMARK SMILES IDX 9 1 8 2 7 3 6 4 5 5 4 6 3 7 2 8 1 9 42 10 43 11 104 12 44 13
REMARK SMILES IDX 103 14 45 15 46 16 47 17 97 18 48 19 102 20 96 21 98 22
REMARK SMILES IDX 49 23 101 24 95 25 94 26 50 28 82 29 62 30 81 31 63 32 66 33
REMARK SMILES IDX 80 34 99 35 64 36 65 37 79 39 100 40 67 41 51 42 52 43 60 44
REMARK SMILES IDX 53 45 54 46 58 47 61 48 55 49 56 50 59 51 57 52 83 53 84 54
REMARK SMILES IDX 92 55 85 56 86 57 90 58 93 59 87 60 88 61 91 62 89 63 68 64
REMARK SMILES IDX 69 65 77 66 70 67 71 68 75 69 78 70 72 71 73 72 76 73 74 74
REMARK SMILES IDX 10 75 11 76 12 77 13 78 14 79 15 80 16 81 17 82 18 83 19 84
REMARK SMILES IDX 40 85 20 86 39 87 21 88 41 89 22 91 23 92 37 93 24 94 25 95
REMARK SMILES IDX 36 96 38 97 26 98 27 99 28 100 35 101 29 102 33 103 34 104
REMARK SMILES IDX 30 105 32 106 31 107
REMARK H PARENT 98 27 66 38 41 90
REMARK Flexibility Score: inf
ROOT
ATOM      1  O   UNL A   1      34.319  29.799  27.151  1.00  0.00    -0.377 OA
ENDROOT
BRANCH   1   2
ATOM      2  C   UNL A   1      33.865  31.054  27.650  1.00  0.00     0.188 C 
BRANCH   2   3
ATOM      3  C   UNL A   1      34.957  31.953  28.228  1.00  0.00     0.188 C 
BRANCH   3   4
ATOM      4  O   UNL A   1      34.401  32.972  29.071  1.00  0.00    -0.376 OA
BRANCH   4   5
ATOM      5  C   UNL A   1      33.587  33.923  28.388  1.00  0.00     0.202 C 
BRANCH   5   6
ATOM      6  C   UNL A   1      33.398  35.251  29.117  1.00  0.00     0.261 C 
BRANCH   6   7
ATOM      7  O   UNL A   1      32.530  35.170  30.252  1.00  0.00    -0.460 OA
BRANCH   7   8
ATOM      8  C   UNL A   1      32.841  35.172  31.569  1.00  0.00     0.338 C 
ATOM      9  O   UNL A   1      32.006  35.647  32.341  1.00  0.00    -0.246 OA
BRANCH   8  10
ATOM     10  C   UNL A   1      34.139  34.696  32.168  1.00  0.00     0.060 A 
ATOM     11  C   UNL A   1      34.086  33.459  32.843  1.00  0.00     0.016 A 
ATOM     12  C   UNL A   1      35.377  35.345  32.119  1.00  0.00     0.016 A 
ATOM     13  C   UNL A   1      35.226  32.887  33.416  1.00  0.00     0.010 A 
ATOM     14  C   UNL A   1      36.519  34.790  32.700  1.00  0.00     0.010 A 
ATOM     15  C   UNL A   1      36.454  33.546  33.325  1.00  0.00    -0.014 A 
BRANCH  15  16
ATOM     16  C   UNL A   1      37.712  32.856  33.661  1.00  0.00     0.031 A 
ATOM     17  C   UNL A   1      38.507  33.213  34.871  1.00  0.00     0.074 A 
ATOM     18  C   UNL A   1      38.163  31.964  32.761  1.00  0.00     0.049 A 
ATOM     19  N   UNL A   1      39.585  32.639  35.336  1.00  0.00    -0.248 NA
ATOM     20  C   UNL A   1      38.054  34.377  35.648  1.00  0.00     0.031 C 
ATOM     21  C   UNL A   1      37.495  31.654  31.493  1.00  0.00     0.029 A 
ATOM     22  N   UNL A   1      39.279  31.175  32.753  1.00  0.00    -0.354 N 
ATOM     23  C   UNL A   1      39.930  33.351  36.475  1.00  0.00     0.074 A 
ATOM     24  C   UNL A   1      38.980  34.436  36.600  1.00  0.00     0.031 C 
ATOM     25  C   UNL A   1      38.208  30.731  30.835  1.00  0.00     0.029 A 
ATOM     26  C   UNL A   1      39.375  30.382  31.637  1.00  0.00     0.049 A 
ATOM     27  H   UNL A   1      39.947  31.175  33.476  1.00  0.00     0.167 HD
ATOM     28  C   UNL A   1      40.942  33.091  37.337  1.00  0.00     0.037 A 
ATOM     29  C   UNL A   1      40.292  29.454  31.311  1.00  0.00     0.037 A 
ATOM     30  C   UNL A   1      41.878  32.008  37.159  1.00  0.00     0.049 A 
ATOM     31  C   UNL A   1      41.379  29.156  32.298  1.00  0.00     0.074 A 
ATOM     32  C   UNL A   1      42.879  31.578  38.011  1.00  0.00     0.029 A 
ATOM     33  N   UNL A   1      41.938  31.196  36.030  1.00  0.00    -0.354 N 
ATOM     34  N   UNL A   1      41.609  29.723  33.458  1.00  0.00    -0.248 NA
ATOM     35  C   UNL A   1      42.316  28.082  31.954  1.00  0.00     0.031 C 
ATOM     36  C   UNL A   1      43.579  30.546  37.376  1.00  0.00     0.029 A 
ATOM     37  C   UNL A   1      42.984  30.296  36.147  1.00  0.00     0.049 A 
ATOM     38  H   UNL A   1      41.326  31.254  35.262  1.00  0.00     0.167 HD
ATOM     39  C   UNL A   1      42.712  29.077  33.988  1.00  0.00     0.074 A 
ATOM     40  C   UNL A   1      43.092  28.056  33.030  1.00  0.00     0.031 C 
ATOM     41  C   UNL A   1      43.353  29.310  35.160  1.00  0.00     0.037 A 
BRANCH  28  42
ATOM     42  C   UNL A   1      41.083  33.964  38.553  1.00  0.00     0.064 A 
ATOM     43  C   UNL A   1      41.915  35.095  38.547  1.00  0.00     0.173 A 
ATOM     44  C   UNL A   1      40.322  33.722  39.707  1.00  0.00     0.173 A 
ATOM     45  F   UNL A   1      42.664  35.378  37.471  1.00  0.00    -0.203 F 
ATOM     46  C   UNL A   1      41.994  35.936  39.655  1.00  0.00     0.198 A 
ATOM     47  C   UNL A   1      40.383  34.580  40.803  1.00  0.00     0.198 A 
ATOM     48  F   UNL A   1      39.501  32.663  39.766  1.00  0.00    -0.203 F 
ATOM     49  F   UNL A   1      42.819  36.993  39.634  1.00  0.00    -0.200 F 
ATOM     50  C   UNL A   1      41.222  35.684  40.779  1.00  0.00     0.200 A 
ATOM     51  F   UNL A   1      39.623  34.345  41.882  1.00  0.00    -0.200 F 
ATOM     52  F   UNL A   1      41.286  36.504  41.836  1.00  0.00    -0.200 F 
ENDBRANCH  28  42
BRANCH  29  53
ATOM     53  C   UNL A   1      40.120  28.702  30.045  1.00  0.00     0.064 A 
ATOM     54  C   UNL A   1      40.726  29.149  28.864  1.00  0.00     0.173 A 
ATOM     55  C   UNL A   1      39.476  27.455  30.020  1.00  0.00     0.173 A 
ATOM     56  F   UNL A   1      41.353  30.334  28.841  1.00  0.00    -0.203 F 
ATOM     57  C   UNL A   1      40.705  28.373  27.707  1.00  0.00     0.198 A 
ATOM     58  C   UNL A   1      39.474  26.671  28.868  1.00  0.00     0.198 A 
ATOM     59  F   UNL A   1      38.902  26.973  31.131  1.00  0.00    -0.203 F 
ATOM     60  F   UNL A   1      41.298  28.822  26.592  1.00  0.00    -0.200 F 
ATOM     61  C   UNL A   1      40.092  27.129  27.714  1.00  0.00     0.200 A 
ATOM     62  F   UNL A   1      38.903  25.459  28.885  1.00  0.00    -0.200 F 
ATOM     63  F   UNL A   1      40.105  26.367  26.611  1.00  0.00    -0.200 F 
ENDBRANCH  29  53
BRANCH  41  64
ATOM     64  C   UNL A   1      44.557  28.468  35.453  1.00  0.00     0.064 A 
ATOM     65  C   UNL A   1      45.847  28.922  35.147  1.00  0.00     0.173 A 
ATOM     66  C   UNL A   1      44.427  27.239  36.117  1.00  0.00     0.173 A 
ATOM     67  F   UNL A   1      46.017  30.084  34.499  1.00  0.00    -0.203 F 
ATOM     68  C   UNL A   1      46.967  28.173  35.491  1.00  0.00     0.198 A 
ATOM     69  C   UNL A   1      45.551  26.505  36.484  1.00  0.00     0.198 A 
ATOM     70  F   UNL A   1      43.213  26.767  36.435  1.00  0.00    -0.203 F 
ATOM     71  F   UNL A   1      48.191  28.612  35.166  1.00  0.00    -0.200 F 
ATOM     72  C   UNL A   1      46.819  26.971  36.168  1.00  0.00     0.200 A 
ATOM     73  F   UNL A   1      45.408  25.352  37.150  1.00  0.00    -0.200 F 
ATOM     74  F   UNL A   1      47.901  26.261  36.517  1.00  0.00    -0.200 F 
ENDBRANCH  41  64
ENDBRANCH  15  16
ENDBRANCH   8  10
ENDBRANCH   7   8
ENDBRANCH   6   7
ENDBRANCH   5   6
ENDBRANCH   4   5
ENDBRANCH   3   4
ENDBRANCH   2   3
ENDBRANCH   1   2
BRANCH   1  75
ATOM     75  C   UNL A   1      33.544  29.192  26.124  1.00  0.00     0.188 C 
BRANCH  75  76
ATOM     76  C   UNL A   1      32.862  27.839  26.412  1.00  0.00     0.188 C 
BRANCH  76  77
ATOM     77  O   UNL A   1      31.456  27.832  26.210  1.00  0.00    -0.376 OA
BRANCH  77  78
ATOM     78  C   UNL A   1      31.027  27.505  24.893  1.00  0.00     0.202 C 
BRANCH  78  79
ATOM     79  C   UNL A   1      30.219  26.209  24.743  1.00  0.00     0.261 C 
BRANCH  79  80
ATOM     80  O   UNL A   1      30.979  24.992  24.814  1.00  0.00    -0.460 OA
BRANCH  80  81
ATOM     81  C   UNL A   1      31.170  24.413  26.025  1.00  0.00     0.341 C 
ATOM     82  O   UNL A   1      30.323  24.166  26.854  1.00  0.00    -0.246 OA
BRANCH  81  83
ATOM     83  C   UNL A   1      32.560  23.886  26.048  1.00  0.00     0.101 A 
ATOM     84  C   UNL A   1      33.465  24.357  25.081  1.00  0.00     0.022 A 
ATOM     85  C   UNL A   1      33.011  23.026  27.051  1.00  0.00     0.132 A 
ATOM     86  C   UNL A   1      34.812  23.969  25.119  1.00  0.00     0.028 A 
ATOM     87  C   UNL A   1      34.342  22.600  27.064  1.00  0.00     0.073 A 
ATOM     88  C   UNL A   1      35.242  23.052  26.083  1.00  0.00     0.054 A 
BRANCH  85  89
ATOM     89  O   UNL A   1      32.144  22.566  28.001  1.00  0.00    -0.507 OA
ATOM     90  H   UNL A   1      31.743  21.725  27.901  1.00  0.00     0.293 HD
ENDBRANCH  85  89
BRANCH  88  91
ATOM     91  N   UNL A   1      36.519  22.439  25.964  1.00  0.00    -0.261 N 
ATOM     92  C   UNL A   1      37.685  23.111  26.321  1.00  0.00     0.270 C 
ATOM     93  C   UNL A   1      36.670  21.170  25.419  1.00  0.00     0.152 C 
ATOM     94  O   UNL A   1      37.780  24.248  26.766  1.00  0.00    -0.268 OA
ATOM     95  C   UNL A   1      38.871  22.223  26.093  1.00  0.00     0.081 C 
ATOM     96  S   UNL A   1      38.360  20.710  25.450  1.00  0.00    -0.054 SA
ATOM     97  S   UNL A   1      35.518  20.169  24.735  1.00  0.00    -0.051 S 
ATOM     98  C   UNL A   1      40.138  22.566  26.375  1.00  0.00     0.027 C 
BRANCH  98  99
ATOM     99  C   UNL A   1      41.302  21.741  26.128  1.00  0.00    -0.016 C 
ATOM    100  C   UNL A   1      42.464  22.112  25.591  1.00  0.00     0.005 A 
ATOM    101  C   UNL A   1      41.345  20.284  26.509  1.00  0.00     0.179 C 
ATOM    102  C   UNL A   1      43.003  23.319  25.052  1.00  0.00     0.011 A 
ATOM    103  C   UNL A   1      43.270  20.878  25.672  1.00  0.00     0.065 A 
ATOM    104  N   UNL A   1      42.709  19.816  26.162  1.00  0.00    -0.280 NA
ATOM    105  C   UNL A   1      44.275  23.323  24.618  1.00  0.00     0.001 A 
ATOM    106  C   UNL A   1      44.665  20.966  25.190  1.00  0.00     0.028 A 
ATOM    107  C   UNL A   1      45.110  22.135  24.700  1.00  0.00     0.002 A 
ENDBRANCH  98  99
ENDBRANCH  88  91
ENDBRANCH  81  83
ENDBRANCH  80  81
ENDBRANCH  79  80
ENDBRANCH  78  79
ENDBRANCH  77  78
ENDBRANCH  76  77
ENDBRANCH  75  76
ENDBRANCH   1  75
TORSDOF 23
ENDMDL
MODEL 2
REMARK VINA RESULT:     -11.0      0.686      6.729
REMARK SMILES O=C(OCCOCCOCCOCCOC(=O)c1ccc(N2C(=O)/C(=C/C3=c4ccccc4=NC3)SC2=S)cc1O)c1ccc(-c2c3nc(c(-c4c(F)c(F)c(F)c(F)c4F)c4ccc([nH]4)c(-c4c(F)c(F)c(F)c(F)c4F)c4nc(c(-c5c(F)c(F)c(F)c(F)c5F)c5ccc2[nH]5)C=C4)C=C3)cc1
REMARK SMILES IDX 9 1 8 2 7 3 6 4 5 5 4 6 3 7 2 8 1 9 42 10 43 11 104 12 44 13
REMARK SMILES IDX 103 14 45 15 46 16 47 17 97 18 48 19 102 20 96 21 98 22
REMARK SMILES IDX 49 23 101 24 95 25 94 26 50 28 82 29 62 30 81 31 63 32 66 33
REMARK SMILES IDX 80 34 99 35 64 36 65 37 79 39 100 40 67 41 51 42 52 43 60 44
REMARK SMILES IDX 53 45 54 46 58 47 61 48 55 49 56 50 59 51 57 52 83 53 84 54
REMARK SMILES IDX 92 55 85 56 86 57 90 58 93 59 87 60 88 61 91 62 89 63 68 64
REMARK SMILES IDX 69 65 77 66 70 67 71 68 75 69 78 70 72 71 73 72 76 73 74 74
REMARK SMILES IDX 10 75 11 76 12 77 13 78 14 79 15 80 16 81 17 82 18 83 19 84
REMARK SMILES IDX 40 85 20 86 39 87 21 88 41 89 22 91 23 92 37 93 24 94 25 95
REMARK SMILES IDX 36 96 38 97 26 98 27 99 28 100 35 101 29 102 33 103 34 104
REMARK SMILES IDX 30 105 32 106 31 107
REMARK H PARENT 98 27 66 38 41 90
REMARK Flexibility Score: inf
ROOT
ATOM      1  O   UNL A   1      34.370  29.900  27.270  1.00  0.00    -0.377 OA
ENDROOT
BRANCH   1   2
ATOM      2  C   UNL A   1      33.866  31.182  27.632  1.00  0.00     0.188 C 
BRANCH   2   3
ATOM      3  C   UNL A   1      34.854  32.079  28.376  1.00  0.00     0.188 C 
BRANCH   3   4
ATOM      4  O   UNL A   1      34.173  33.076  29.151  1.00  0.00    -0.376 OA
BRANCH   4   5
ATOM      5  C   UNL A   1      33.474  34.048  28.375  1.00  0.00     0.202 C 
BRANCH   5   6
ATOM      6  C   UNL A   1      33.217  35.374  29.086  1.00  0.00     0.261 C 
BRANCH   6   7
ATOM      7  O   UNL A   1      32.408  35.255  30.261  1.00  0.00    -0.460 OA
BRANCH   7   8
ATOM      8  C   UNL A   1      32.759  35.393  31.561  1.00  0.00     0.338 C 
ATOM      9  O   UNL A   1      31.991  36.028  32.284  1.00  0.00    -0.246 OA
BRANCH   8  10
ATOM     10  C   UNL A   1      34.032  34.885  32.186  1.00  0.00     0.060 A 
ATOM     11  C   UNL A   1      33.925  33.675  32.902  1.00  0.00     0.016 A 
ATOM     12  C   UNL A   1      35.296  35.481  32.127  1.00  0.00     0.016 A 
ATOM     13  C   UNL A   1      35.036  33.076  33.504  1.00  0.00     0.010 A 
ATOM     14  C   UNL A   1      36.410  34.901  32.736  1.00  0.00     0.010 A 
ATOM     15  C   UNL A   1      36.290  33.682  33.401  1.00  0.00    -0.014 A 
BRANCH  15  16
ATOM     16  C   UNL A   1      37.516  32.954  33.771  1.00  0.00     0.031 A 
ATOM     17  C   UNL A   1      38.106  31.906  32.889  1.00  0.00     0.074 A 
ATOM     18  C   UNL A   1      38.014  33.205  34.994  1.00  0.00     0.049 A 
ATOM     19  N   UNL A   1      39.222  31.243  33.044  1.00  0.00    -0.248 NA
ATOM     20  C   UNL A   1      37.338  31.531  31.692  1.00  0.00     0.031 C 
ATOM     21  C   UNL A   1      37.416  34.132  35.960  1.00  0.00     0.029 A 
ATOM     22  N   UNL A   1      39.107  32.703  35.645  1.00  0.00    -0.354 N 
ATOM     23  C   UNL A   1      39.309  30.390  31.955  1.00  0.00     0.074 A 
ATOM     24  C   UNL A   1      38.104  30.576  31.174  1.00  0.00     0.031 C 
ATOM     25  C   UNL A   1      38.156  34.142  37.076  1.00  0.00     0.029 A 
ATOM     26  C   UNL A   1      39.280  33.230  36.900  1.00  0.00     0.049 A 
ATOM     27  H   UNL A   1      39.710  32.031  35.252  1.00  0.00     0.167 HD
ATOM     28  C   UNL A   1      40.325  29.549  31.643  1.00  0.00     0.037 A 
ATOM     29  C   UNL A   1      40.257  33.020  37.800  1.00  0.00     0.037 A 
ATOM     30  C   UNL A   1      41.497  29.382  32.465  1.00  0.00     0.049 A 
ATOM     31  C   UNL A   1      41.390  32.118  37.416  1.00  0.00     0.074 A 
ATOM     32  C   UNL A   1      42.638  28.643  32.208  1.00  0.00     0.029 A 
ATOM     33  N   UNL A   1      41.665  29.951  33.724  1.00  0.00    -0.354 N 
ATOM     34  N   UNL A   1      41.552  31.433  36.309  1.00  0.00    -0.248 NA
ATOM     35  C   UNL A   1      42.483  31.972  38.383  1.00  0.00     0.031 C 
ATOM     36  C   UNL A   1      43.468  28.719  33.332  1.00  0.00     0.029 A 
ATOM     37  C   UNL A   1      42.871  29.546  34.272  1.00  0.00     0.049 A 
ATOM     38  H   UNL A   1      41.020  30.554  34.160  1.00  0.00     0.167 HD
ATOM     39  C   UNL A   1      42.764  30.778  36.438  1.00  0.00     0.074 A 
ATOM     40  C   UNL A   1      43.308  31.167  37.726  1.00  0.00     0.031 C 
ATOM     41  C   UNL A   1      43.370  29.930  35.571  1.00  0.00     0.037 A 
BRANCH  28  42
ATOM     42  C   UNL A   1      40.232  28.766  30.363  1.00  0.00     0.064 A 
ATOM     43  C   UNL A   1      40.889  29.191  29.197  1.00  0.00     0.173 A 
ATOM     44  C   UNL A   1      39.549  27.541  30.315  1.00  0.00     0.173 A 
ATOM     45  F   UNL A   1      41.558  30.353  29.184  1.00  0.00    -0.203 F 
ATOM     46  C   UNL A   1      40.851  28.429  28.031  1.00  0.00     0.198 A 
ATOM     47  C   UNL A   1      39.536  26.769  29.155  1.00  0.00     0.198 A 
ATOM     48  F   UNL A   1      38.912  27.078  31.401  1.00  0.00    -0.203 F 
ATOM     49  F   UNL A   1      41.463  28.872  26.923  1.00  0.00    -0.200 F 
ATOM     50  C   UNL A   1      40.182  27.215  28.013  1.00  0.00     0.200 A 
ATOM     51  F   UNL A   1      38.904  25.587  29.144  1.00  0.00    -0.200 F 
ATOM     52  F   UNL A   1      40.162  26.476  26.896  1.00  0.00    -0.200 F 
ENDBRANCH  28  42
BRANCH  29  53
ATOM     53  C   UNL A   1      40.220  33.772  39.077  1.00  0.00     0.064 A 
ATOM     54  C   UNL A   1      40.827  35.031  39.180  1.00  0.00     0.173 A 
ATOM     55  C   UNL A   1      39.459  33.321  40.167  1.00  0.00     0.173 A 
ATOM     56  F   UNL A   1      41.564  35.502  38.163  1.00  0.00    -0.203 F 
ATOM     57  C   UNL A   1      40.666  35.816  40.319  1.00  0.00     0.198 A 
ATOM     58  C   UNL A   1      39.281  34.118  41.297  1.00  0.00     0.198 A 
ATOM     59  F   UNL A   1      38.838  32.135  40.108  1.00  0.00    -0.203 F 
ATOM     60  F   UNL A   1      41.254  37.018  40.389  1.00  0.00    -0.200 F 
ATOM     61  C   UNL A   1      39.882  35.365  41.371  1.00  0.00     0.200 A 
ATOM     62  F   UNL A   1      38.503  33.690  42.300  1.00  0.00    -0.200 F 
ATOM     63  F   UNL A   1      39.697  36.137  42.450  1.00  0.00    -0.200 F 
ENDBRANCH  29  53
BRANCH  41  64
ATOM     64  C   UNL A   1      44.675  29.335  36.004  1.00  0.00     0.064 A 
ATOM     65  C   UNL A   1      45.887  29.989  35.746  1.00  0.00     0.173 A 
ATOM     66  C   UNL A   1      44.708  28.148  36.751  1.00  0.00     0.173 A 
ATOM     67  F   UNL A   1      45.905  31.118  35.022  1.00  0.00    -0.203 F 
ATOM     68  C   UNL A   1      47.090  29.473  36.217  1.00  0.00     0.198 A 
ATOM     69  C   UNL A   1      45.910  27.649  37.243  1.00  0.00     0.198 A 
ATOM     70  F   UNL A   1      43.572  27.490  37.026  1.00  0.00    -0.203 F 
ATOM     71  F   UNL A   1      48.241  30.099  35.937  1.00  0.00    -0.200 F 
ATOM     72  C   UNL A   1      47.099  28.310  36.974  1.00  0.00     0.200 A 
ATOM     73  F   UNL A   1      45.917  26.534  37.985  1.00  0.00    -0.200 F 
ATOM     74  F   UNL A   1      48.257  27.826  37.443  1.00  0.00    -0.200 F 
ENDBRANCH  41  64
ENDBRANCH  15  16
ENDBRANCH   8  10
ENDBRANCH   7   8
ENDBRANCH   6   7
ENDBRANCH   5   6
ENDBRANCH   4   5
ENDBRANCH   3   4
ENDBRANCH   2   3
ENDBRANCH   1   2
BRANCH   1  75
ATOM     75  C   UNL A   1      33.697  29.211  26.223  1.00  0.00     0.188 C 
BRANCH  75  76
ATOM     76  C   UNL A   1      32.983  27.883  26.550  1.00  0.00     0.188 C 
BRANCH  76  77
ATOM     77  O   UNL A   1      31.574  27.909  26.365  1.00  0.00    -0.376 OA
BRANCH  77  78
ATOM     78  C   UNL A   1      31.123  27.638  25.043  1.00  0.00     0.202 C 
BRANCH  78  79
ATOM     79  C   UNL A   1      30.304  26.354  24.854  1.00  0.00     0.261 C 
BRANCH  79  80
ATOM     80  O   UNL A   1      31.052  25.128  24.890  1.00  0.00    -0.460 OA
BRANCH  80  81
ATOM     81  C   UNL A   1      31.227  24.506  26.081  1.00  0.00     0.341 C 
ATOM     82  O   UNL A   1      30.370  24.238  26.893  1.00  0.00    -0.246 OA
BRANCH  81  83
ATOM     83  C   UNL A   1      32.612  23.965  26.097  1.00  0.00     0.101 A 
ATOM     84  C   UNL A   1      33.530  24.460  25.155  1.00  0.00     0.022 A 
ATOM     85  C   UNL A   1      33.045  23.065  27.073  1.00  0.00     0.132 A 
ATOM     86  C   UNL A   1      34.873  24.058  25.192  1.00  0.00     0.028 A 
ATOM     87  C   UNL A   1      34.372  22.626  27.083  1.00  0.00     0.073 A 
ATOM     88  C   UNL A   1      35.285  23.103  26.127  1.00  0.00     0.054 A 
BRANCH  85  89
ATOM     89  O   UNL A   1      32.165  22.581  27.999  1.00  0.00    -0.507 OA
ATOM     90  H   UNL A   1      31.649  21.824  27.803  1.00  0.00     0.293 HD
ENDBRANCH  85  89
BRANCH  88  91
ATOM     91  N   UNL A   1      36.557  22.482  25.998  1.00  0.00    -0.261 N 
ATOM     92  C   UNL A   1      37.729  23.142  26.358  1.00  0.00     0.270 C 
ATOM     93  C   UNL A   1      36.697  21.218  25.439  1.00  0.00     0.152 C 
ATOM     94  O   UNL A   1      37.834  24.274  26.814  1.00  0.00    -0.268 OA
ATOM     95  C   UNL A   1      38.908  22.248  26.117  1.00  0.00     0.081 C 
ATOM     96  S   UNL A   1      38.383  20.745  25.461  1.00  0.00    -0.054 SA
ATOM     97  S   UNL A   1      35.535  20.232  24.749  1.00  0.00    -0.051 S 
ATOM     98  C   UNL A   1      40.178  22.579  26.398  1.00  0.00     0.027 C 
BRANCH  98  99
ATOM     99  C   UNL A   1      41.335  21.747  26.139  1.00  0.00    -0.016 C 
ATOM    100  C   UNL A   1      42.492  22.112  25.587  1.00  0.00     0.005 A 
ATOM    101  C   UNL A   1      41.376  20.292  26.524  1.00  0.00     0.179 C 
ATOM    102  C   UNL A   1      43.030  23.315  25.038  1.00  0.00     0.011 A 
ATOM    103  C   UNL A   1      43.293  20.875  25.661  1.00  0.00     0.065 A 
ATOM    104  N   UNL A   1      42.734  19.816  26.161  1.00  0.00    -0.280 NA
ATOM    105  C   UNL A   1      44.297  23.312  24.589  1.00  0.00     0.001 A 
ATOM    106  C   UNL A   1      44.682  20.955  25.162  1.00  0.00     0.028 A 
ATOM    107  C   UNL A   1      45.128  22.120  24.664  1.00  0.00     0.002 A 
ENDBRANCH  98  99
ENDBRANCH  88  91
ENDBRANCH  81  83
ENDBRANCH  80  81
ENDBRANCH  79  80
ENDBRANCH  78  79
ENDBRANCH  77  78
ENDBRANCH  76  77
ENDBRANCH  75  76
ENDBRANCH   1  75
TORSDOF 23
ENDMDL
MODEL 3
REMARK VINA RESULT:     -10.2      2.859      5.220
REMARK SMILES O=C(OCCOCCOCCOCCOC(=O)c1ccc(N2C(=O)/C(=C/C3=c4ccccc4=NC3)SC2=S)cc1O)c1ccc(-c2c3nc(c(-c4c(F)c(F)c(F)c(F)c4F)c4ccc([nH]4)c(-c4c(F)c(F)c(F)c(F)c4F)c4nc(c(-c5c(F)c(F)c(F)c(F)c5F)c5ccc2[nH]5)C=C4)C=C3)cc1
REMARK SMILES IDX 9 1 8 2 7 3 6 4 5 5 4 6 3 7 2 8 1 9 42 10 43 11 104 12 44 13
REMARK SMILES IDX 103 14 45 15 46 16 47 17 97 18 48 19 102 20 96 21 98 22
REMARK SMILES IDX 49 23 101 24 95 25 94 26 50 28 82 29 62 30 81 31 63 32 66 33
REMARK SMILES IDX 80 34 99 35 64 36 65 37 79 39 100 40 67 41 51 42 52 43 60 44
REMARK SMILES IDX 53 45 54 46 58 47 61 48 55 49 56 50 59 51 57 52 83 53 84 54
REMARK SMILES IDX 92 55 85 56 86 57 90 58 93 59 87 60 88 61 91 62 89 63 68 64
REMARK SMILES IDX 69 65 77 66 70 67 71 68 75 69 78 70 72 71 73 72 76 73 74 74
REMARK SMILES IDX 10 75 11 76 12 77 13 78 14 79 15 80 16 81 17 82 18 83 19 84
REMARK SMILES IDX 40 85 20 86 39 87 21 88 41 89 22 91 23 92 37 93 24 94 25 95
REMARK SMILES IDX 36 96 38 97 26 98 27 99 28 100 35 101 29 102 33 103 34 104
REMARK SMILES IDX 30 105 32 106 31 107
REMARK H PARENT 98 27 66 38 41 90
REMARK Flexibility Score: inf
ROOT
ATOM      1  O   UNL A   1      31.266  26.607  26.614  1.00  0.00    -0.377 OA
ENDROOT
BRANCH   1   2
ATOM      2  C   UNL A   1      31.032  27.621  27.586  1.00  0.00     0.188 C 
BRANCH   2   3
ATOM      3  C   UNL A   1      31.785  28.930  27.350  1.00  0.00     0.188 C 
BRANCH   3   4
ATOM      4  O   UNL A   1      31.797  29.282  25.960  1.00  0.00    -0.376 OA
BRANCH   4   5
ATOM      5  C   UNL A   1      31.406  30.627  25.690  1.00  0.00     0.202 C 
BRANCH   5   6
ATOM      6  C   UNL A   1      31.534  31.583  26.873  1.00  0.00     0.261 C 
BRANCH   6   7
ATOM      7  O   UNL A   1      32.568  32.561  26.718  1.00  0.00    -0.460 OA
BRANCH   7   8
ATOM      8  C   UNL A   1      33.441  33.037  27.637  1.00  0.00     0.338 C 
ATOM      9  O   UNL A   1      33.256  34.186  28.042  1.00  0.00    -0.246 OA
BRANCH   8  10
ATOM     10  C   UNL A   1      34.647  32.306  28.166  1.00  0.00     0.060 A 
ATOM     11  C   UNL A   1      35.825  33.071  28.286  1.00  0.00     0.016 A 
ATOM     12  C   UNL A   1      34.717  30.963  28.551  1.00  0.00     0.016 A 
ATOM     13  C   UNL A   1      37.008  32.525  28.794  1.00  0.00     0.010 A 
ATOM     14  C   UNL A   1      35.895  30.402  29.047  1.00  0.00     0.010 A 
ATOM     15  C   UNL A   1      37.036  31.188  29.197  1.00  0.00    -0.014 A 
BRANCH  15  16
ATOM     16  C   UNL A   1      38.160  30.659  29.989  1.00  0.00     0.031 A 
ATOM     17  C   UNL A   1      38.404  31.089  31.396  1.00  0.00     0.074 A 
ATOM     18  C   UNL A   1      39.019  29.851  29.342  1.00  0.00     0.049 A 
ATOM     19  N   UNL A   1      39.301  30.648  32.239  1.00  0.00    -0.248 NA
ATOM     20  C   UNL A   1      37.554  32.168  31.921  1.00  0.00     0.031 C 
ATOM     21  C   UNL A   1      38.908  29.486  27.926  1.00  0.00     0.029 A 
ATOM     22  N   UNL A   1      40.152  29.213  29.764  1.00  0.00    -0.354 N 
ATOM     23  C   UNL A   1      39.111  31.374  33.405  1.00  0.00     0.074 A 
ATOM     24  C   UNL A   1      38.051  32.326  33.144  1.00  0.00     0.031 C 
ATOM     25  C   UNL A   1      39.925  28.677  27.601  1.00  0.00     0.029 A 
ATOM     26  C   UNL A   1      40.751  28.464  28.783  1.00  0.00     0.049 A 
ATOM     27  H   UNL A   1      40.503  29.284  30.682  1.00  0.00     0.167 HD
ATOM     28  C   UNL A   1      39.761  31.228  34.585  1.00  0.00     0.037 A 
ATOM     29  C   UNL A   1      41.834  27.669  28.841  1.00  0.00     0.037 A 
ATOM     30  C   UNL A   1      40.827  30.279  34.791  1.00  0.00     0.049 A 
ATOM     31  C   UNL A   1      42.512  27.492  30.165  1.00  0.00     0.074 A 
ATOM     32  C   UNL A   1      41.492  29.964  35.962  1.00  0.00     0.029 A 
ATOM     33  N   UNL A   1      41.399  29.507  33.785  1.00  0.00    -0.354 N 
ATOM     34  N   UNL A   1      42.226  28.059  31.313  1.00  0.00    -0.248 NA
ATOM     35  C   UNL A   1      43.639  26.555  30.217  1.00  0.00     0.031 C 
ATOM     36  C   UNL A   1      42.502  29.045  35.655  1.00  0.00     0.029 A 
ATOM     37  C   UNL A   1      42.436  28.747  34.301  1.00  0.00     0.049 A 
ATOM     38  H   UNL A   1      41.109  29.502  32.845  1.00  0.00     0.167 HD
ATOM     39  C   UNL A   1      43.132  27.549  32.227  1.00  0.00     0.074 A 
ATOM     40  C   UNL A   1      43.963  26.606  31.503  1.00  0.00     0.031 C 
ATOM     41  C   UNL A   1      43.264  27.837  33.545  1.00  0.00     0.037 A 
BRANCH  28  42
ATOM     42  C   UNL A   1      39.334  32.086  35.743  1.00  0.00     0.064 A 
ATOM     43  C   UNL A   1      38.408  31.624  36.693  1.00  0.00     0.173 A 
ATOM     44  C   UNL A   1      39.910  33.348  35.957  1.00  0.00     0.173 A 
ATOM     45  F   UNL A   1      37.827  30.425  36.542  1.00  0.00    -0.203 F 
ATOM     46  C   UNL A   1      38.063  32.398  37.798  1.00  0.00     0.198 A 
ATOM     47  C   UNL A   1      39.582  34.109  37.078  1.00  0.00     0.198 A 
ATOM     48  F   UNL A   1      40.808  33.837  35.089  1.00  0.00    -0.203 F 
ATOM     49  F   UNL A   1      37.154  31.946  38.674  1.00  0.00    -0.200 F 
ATOM     50  C   UNL A   1      38.656  33.636  37.995  1.00  0.00     0.200 A 
ATOM     51  F   UNL A   1      40.170  35.297  37.276  1.00  0.00    -0.200 F 
ATOM     52  F   UNL A   1      38.336  34.371  39.068  1.00  0.00    -0.200 F 
ENDBRANCH  28  42
BRANCH  29  53
ATOM     53  C   UNL A   1      42.236  26.928  27.621  1.00  0.00     0.064 A 
ATOM     54  C   UNL A   1      43.167  27.476  26.729  1.00  0.00     0.173 A 
ATOM     55  C   UNL A   1      41.813  25.608  27.398  1.00  0.00     0.173 A 
ATOM     56  F   UNL A   1      43.598  28.734  26.903  1.00  0.00    -0.203 F 
ATOM     57  C   UNL A   1      43.670  26.730  25.667  1.00  0.00     0.198 A 
ATOM     58  C   UNL A   1      42.334  24.856  26.346  1.00  0.00     0.198 A 
ATOM     59  F   UNL A   1      40.942  25.031  28.237  1.00  0.00    -0.203 F 
ATOM     60  F   UNL A   1      44.565  27.277  24.832  1.00  0.00    -0.200 F 
ATOM     61  C   UNL A   1      43.265  25.416  25.484  1.00  0.00     0.200 A 
ATOM     62  F   UNL A   1      41.960  23.579  26.189  1.00  0.00    -0.200 F 
ATOM     63  F   UNL A   1      43.778  24.686  24.484  1.00  0.00    -0.200 F 
ENDBRANCH  29  53
BRANCH  41  64
ATOM     64  C   UNL A   1      44.373  27.151  34.282  1.00  0.00     0.064 A 
ATOM     65  C   UNL A   1      45.618  27.773  34.453  1.00  0.00     0.173 A 
ATOM     66  C   UNL A   1      44.167  25.904  34.889  1.00  0.00     0.173 A 
ATOM     67  F   UNL A   1      45.865  28.959  33.877  1.00  0.00    -0.203 F 
ATOM     68  C   UNL A   1      46.620  27.167  35.203  1.00  0.00     0.198 A 
ATOM     69  C   UNL A   1      45.162  25.314  35.661  1.00  0.00     0.198 A 
ATOM     70  F   UNL A   1      42.990  25.274  34.757  1.00  0.00    -0.203 F 
ATOM     71  F   UNL A   1      47.812  27.766  35.333  1.00  0.00    -0.200 F 
ATOM     72  C   UNL A   1      46.388  25.944  35.816  1.00  0.00     0.200 A 
ATOM     73  F   UNL A   1      44.932  24.139  36.264  1.00  0.00    -0.200 F 
ATOM     74  F   UNL A   1      47.348  25.372  36.555  1.00  0.00    -0.200 F 
ENDBRANCH  41  64
ENDBRANCH  15  16
ENDBRANCH   8  10
ENDBRANCH   7   8
ENDBRANCH   6   7
ENDBRANCH   5   6
ENDBRANCH   4   5
ENDBRANCH   3   4
ENDBRANCH   2   3
ENDBRANCH   1   2
BRANCH   1  75
ATOM     75  C   UNL A   1      30.136  26.123  25.898  1.00  0.00     0.188 C 
BRANCH  75  76
ATOM     76  C   UNL A   1      30.077  26.342  24.372  1.00  0.00     0.188 C 
BRANCH  76  77
ATOM     77  O   UNL A   1      29.129  27.313  23.952  1.00  0.00    -0.376 OA
BRANCH  77  78
ATOM     78  C   UNL A   1      29.596  28.251  22.989  1.00  0.00     0.202 C 
BRANCH  78  79
ATOM     79  C   UNL A   1      31.010  28.016  22.441  1.00  0.00     0.261 C 
BRANCH  79  80
ATOM     80  O   UNL A   1      32.056  28.769  23.076  1.00  0.00    -0.460 OA
BRANCH  80  81
ATOM     81  C   UNL A   1      33.344  28.458  22.795  1.00  0.00     0.341 C 
ATOM     82  O   UNL A   1      34.244  29.233  22.557  1.00  0.00    -0.246 OA
BRANCH  81  83
ATOM     83  C   UNL A   1      33.526  27.013  23.096  1.00  0.00     0.101 A 
ATOM     84  C   UNL A   1      33.666  26.627  24.440  1.00  0.00     0.022 A 
ATOM     85  C   UNL A   1      33.462  26.035  22.103  1.00  0.00     0.132 A 
ATOM     86  C   UNL A   1      33.739  25.271  24.787  1.00  0.00     0.028 A 
ATOM     87  C   UNL A   1      33.582  24.684  22.440  1.00  0.00     0.073 A 
ATOM     88  C   UNL A   1      33.745  24.299  23.782  1.00  0.00     0.054 A 
BRANCH  85  89
ATOM     89  O   UNL A   1      33.319  26.395  20.793  1.00  0.00    -0.507 OA
ATOM     90  H   UNL A   1      33.777  27.142  20.461  1.00  0.00     0.293 HD
ENDBRANCH  85  89
BRANCH  88  91
ATOM     91  N   UNL A   1      34.099  22.957  24.091  1.00  0.00    -0.261 N 
ATOM     92  C   UNL A   1      33.228  21.899  23.843  1.00  0.00     0.270 C 
ATOM     93  C   UNL A   1      35.298  22.647  24.720  1.00  0.00     0.152 C 
ATOM     94  O   UNL A   1      32.109  21.958  23.351  1.00  0.00    -0.268 OA
ATOM     95  C   UNL A   1      33.867  20.609  24.264  1.00  0.00     0.081 C 
ATOM     96  S   UNL A   1      35.428  20.912  24.922  1.00  0.00    -0.054 SA
ATOM     97  S   UNL A   1      36.479  23.673  25.312  1.00  0.00    -0.051 S 
ATOM     98  C   UNL A   1      33.297  19.402  24.122  1.00  0.00     0.027 C 
BRANCH  98  99
ATOM     99  C   UNL A   1      33.877  18.148  24.556  1.00  0.00    -0.016 C 
ATOM    100  C   UNL A   1      33.238  17.059  24.980  1.00  0.00     0.005 A 
ATOM    101  C   UNL A   1      35.364  17.907  24.539  1.00  0.00     0.179 C 
ATOM    102  C   UNL A   1      31.876  16.695  25.208  1.00  0.00     0.011 A 
ATOM    103  C   UNL A   1      34.336  16.098  25.197  1.00  0.00     0.065 A 
ATOM    104  N   UNL A   1      35.551  16.503  24.982  1.00  0.00    -0.280 NA
ATOM    105  C   UNL A   1      31.600  15.446  25.620  1.00  0.00     0.001 A 
ATOM    106  C   UNL A   1      33.952  14.740  25.635  1.00  0.00     0.028 A 
ATOM    107  C   UNL A   1      32.651  14.462  25.824  1.00  0.00     0.002 A 
ENDBRANCH  98  99
ENDBRANCH  88  91
ENDBRANCH  81  83
ENDBRANCH  80  81
ENDBRANCH  79  80
ENDBRANCH  78  79
ENDBRANCH  77  78
ENDBRANCH  76  77
ENDBRANCH  75  76
ENDBRANCH   1  75
TORSDOF 23
ENDMDL
