MODEL 1
REMARK VINA RESULT:      -9.1      0.000      0.000
REMARK SMILES Cc1cccc([C@@H](CCC[C@@H]2CCCO2)C(=O)OCCOCCOCCOCCOC(=O)c2ccc(-c3c4nc(c(-c5c(F)c(F)c(F)c(F)c5F)c5ccc([nH]5)c(-c5c(F)c(F)c(F)c(F)c5F)c5nc(c(-c6c(F)c(F)c(F)c(F)c6F)c6ccc3[nH]6)C=C5)C=C4)cc2)c1
REMARK SMILES IDX 23 1 22 2 21 3 20 4 19 5 18 6 16 7 17 8 7 9 6 10 1 11 2 12
REMARK SMILES IDX 3 13 96 14 4 15 5 16 8 17 9 18 10 19 11 20 12 21 15 22 13 23
REMARK SMILES IDX 14 24 24 25 25 26 26 27 27 28 28 29 29 30 30 31 31 32 32 33
REMARK SMILES IDX 33 34 34 35 95 36 35 37 94 38 36 39 37 40 38 41 88 42 39 43
REMARK SMILES IDX 93 44 87 45 89 46 40 47 92 48 86 49 85 50 41 52 73 53 53 54
REMARK SMILES IDX 72 55 54 56 57 57 71 58 90 59 55 60 56 61 70 63 91 64 58 65
REMARK SMILES IDX 42 66 43 67 51 68 44 69 45 70 49 71 52 72 46 73 47 74 50 75
REMARK SMILES IDX 48 76 74 77 75 78 83 79 76 80 77 81 81 82 84 83 78 84 79 85
REMARK SMILES IDX 82 86 80 87 59 88 60 89 68 90 61 91 62 92 66 93 69 94 63 95
REMARK SMILES IDX 64 96 67 97 65 98
REMARK H PARENT 89 51 57 62
REMARK Flexibility Score: inf
ROOT
ATOM      1  C   UNL A   1      39.258  21.601  26.108  1.00  0.00     0.188 C 
ENDROOT
BRANCH   1   2
ATOM      2  C   UNL A   1      37.787  21.846  25.753  1.00  0.00     0.188 C 
BRANCH   2   3
ATOM      3  O   UNL A   1      37.428  22.544  24.582  1.00  0.00    -0.376 OA
BRANCH   3   4
ATOM      4  C   UNL A   1      36.432  23.518  24.586  1.00  0.00     0.202 C 
BRANCH   4   5
ATOM      5  C   UNL A   1      35.371  23.472  23.510  1.00  0.00     0.261 C 
BRANCH   5   6
ATOM      6  O   UNL A   1      34.034  22.986  23.725  1.00  0.00    -0.463 OA
BRANCH   6   7
ATOM      7  C   UNL A   1      33.248  22.986  24.830  1.00  0.00     0.313 C 
ATOM      8  O   UNL A   1      33.414  22.377  25.865  1.00  0.00    -0.252 OA
BRANCH   7   9
ATOM      9  C   UNL A   1      32.066  23.948  24.629  1.00  0.00     0.129 C 
BRANCH   9  10
ATOM     10  C   UNL A   1      32.168  25.170  25.574  1.00  0.00    -0.034 A 
ATOM     11  C   UNL A   1      34.416  28.262  25.426  1.00  0.00     0.044 C 
ATOM     12  C   UNL A   1      33.261  27.361  25.765  1.00  0.00    -0.051 A 
ATOM     13  C   UNL A   1      32.074  27.909  26.260  1.00  0.00     0.003 A 
ATOM     14  C   UNL A   1      33.308  25.992  25.450  1.00  0.00     0.008 A 
ATOM     15  C   UNL A   1      30.976  27.086  26.502  1.00  0.00     0.001 A 
ATOM     16  C   UNL A   1      31.038  25.715  26.215  1.00  0.00     0.004 A 
ENDBRANCH   9  10
BRANCH   9  17
ATOM     17  C   UNL A   1      31.510  24.026  23.181  1.00  0.00     0.020 C 
BRANCH  17  18
ATOM     18  C   UNL A   1      32.163  24.903  22.085  1.00  0.00     0.004 C 
BRANCH  18  19
ATOM     19  C   UNL A   1      32.319  26.379  22.448  1.00  0.00     0.032 C 
BRANCH  19  20
ATOM     20  C   UNL A   1      31.170  27.393  22.444  1.00  0.00     0.118 C 
ATOM     21  C   UNL A   1      31.325  28.851  22.787  1.00  0.00     0.034 C 
ATOM     22  O   UNL A   1      30.019  26.976  23.182  1.00  0.00    -0.378 OA
ATOM     23  C   UNL A   1      29.867  29.296  22.679  1.00  0.00     0.031 C 
ATOM     24  C   UNL A   1      29.073  28.064  23.099  1.00  0.00     0.160 C 
ENDBRANCH  19  20
ENDBRANCH  18  19
ENDBRANCH  17  18
ENDBRANCH   9  17
ENDBRANCH   7   9
ENDBRANCH   6   7
ENDBRANCH   5   6
ENDBRANCH   4   5
ENDBRANCH   3   4
ENDBRANCH   2   3
ENDBRANCH   1   2
BRANCH   1  25
ATOM     25  O   UNL A   1      40.027  22.555  26.847  1.00  0.00    -0.377 OA
BRANCH  25  26
ATOM     26  C   UNL A   1      41.405  22.269  27.066  1.00  0.00     0.188 C 
BRANCH  26  27
ATOM     27  C   UNL A   1      42.090  21.795  25.790  1.00  0.00     0.188 C 
BRANCH  27  28
ATOM     28  O   UNL A   1      43.490  21.691  26.008  1.00  0.00    -0.376 OA
BRANCH  28  29
ATOM     29  C   UNL A   1      44.269  21.777  24.816  1.00  0.00     0.202 C 
BRANCH  29  30
ATOM     30  C   UNL A   1      45.264  22.915  24.988  1.00  0.00     0.261 C 
BRANCH  30  31
ATOM     31  O   UNL A   1      44.881  23.658  26.174  1.00  0.00    -0.460 OA
BRANCH  31  32
ATOM     32  C   UNL A   1      44.347  24.897  25.948  1.00  0.00     0.338 C 
ATOM     33  O   UNL A   1      44.153  25.387  24.841  1.00  0.00    -0.246 OA
BRANCH  32  34
ATOM     34  C   UNL A   1      44.232  25.686  27.217  1.00  0.00     0.060 A 
ATOM     35  C   UNL A   1      43.939  25.068  28.450  1.00  0.00     0.016 A 
ATOM     36  C   UNL A   1      44.124  27.060  27.133  1.00  0.00     0.016 A 
ATOM     37  C   UNL A   1      43.454  25.811  29.556  1.00  0.00     0.010 A 
ATOM     38  C   UNL A   1      43.567  27.754  28.194  1.00  0.00     0.010 A 
ATOM     39  C   UNL A   1      43.199  27.173  29.421  1.00  0.00    -0.014 A 
BRANCH  39  40
ATOM     40  C   UNL A   1      42.388  28.010  30.352  1.00  0.00     0.031 A 
ATOM     41  C   UNL A   1      41.196  28.754  29.799  1.00  0.00     0.074 A 
ATOM     42  C   UNL A   1      42.556  27.974  31.702  1.00  0.00     0.049 A 
ATOM     43  N   UNL A   1      41.083  30.057  29.822  1.00  0.00    -0.248 NA
ATOM     44  C   UNL A   1      40.128  28.112  29.013  1.00  0.00     0.031 C 
ATOM     45  C   UNL A   1      41.395  27.955  32.580  1.00  0.00     0.029 A 
ATOM     46  N   UNL A   1      43.631  27.659  32.564  1.00  0.00    -0.354 N 
ATOM     47  C   UNL A   1      39.875  30.340  29.187  1.00  0.00     0.074 A 
ATOM     48  C   UNL A   1      39.550  29.156  28.421  1.00  0.00     0.031 C 
ATOM     49  C   UNL A   1      41.784  27.708  33.831  1.00  0.00     0.029 A 
ATOM     50  C   UNL A   1      43.217  27.663  33.890  1.00  0.00     0.049 A 
ATOM     51  H   UNL A   1      44.547  27.464  32.264  1.00  0.00     0.167 HD
ATOM     52  C   UNL A   1      38.867  31.054  29.789  1.00  0.00     0.037 A 
ATOM     53  C   UNL A   1      43.836  27.990  35.048  1.00  0.00     0.037 A 
ATOM     54  C   UNL A   1      39.039  30.964  31.224  1.00  0.00     0.049 A 
ATOM     55  C   UNL A   1      43.216  29.296  35.442  1.00  0.00     0.074 A 
ATOM     56  C   UNL A   1      38.492  30.003  32.043  1.00  0.00     0.029 A 
ATOM     57  N   UNL A   1      40.091  31.557  31.921  1.00  0.00    -0.354 N 
ATOM     58  N   UNL A   1      42.724  30.058  34.486  1.00  0.00    -0.248 NA
ATOM     59  C   UNL A   1      42.847  29.757  36.776  1.00  0.00     0.031 C 
ATOM     60  C   UNL A   1      39.272  29.984  33.200  1.00  0.00     0.029 A 
ATOM     61  C   UNL A   1      40.193  31.015  33.200  1.00  0.00     0.049 A 
ATOM     62  H   UNL A   1      40.679  32.260  31.561  1.00  0.00     0.167 HD
ATOM     63  C   UNL A   1      41.824  30.913  35.028  1.00  0.00     0.074 A 
ATOM     64  C   UNL A   1      42.009  30.768  36.469  1.00  0.00     0.031 C 
ATOM     65  C   UNL A   1      40.933  31.644  34.297  1.00  0.00     0.037 A 
BRANCH  52  66
ATOM     66  C   UNL A   1      37.485  31.216  29.142  1.00  0.00     0.064 A 
ATOM     67  C   UNL A   1      36.553  30.156  29.039  1.00  0.00     0.173 A 
ATOM     68  C   UNL A   1      37.031  32.452  28.631  1.00  0.00     0.173 A 
ATOM     69  F   UNL A   1      36.811  28.942  29.542  1.00  0.00    -0.203 F 
ATOM     70  C   UNL A   1      35.305  30.306  28.419  1.00  0.00     0.198 A 
ATOM     71  C   UNL A   1      35.790  32.595  27.996  1.00  0.00     0.198 A 
ATOM     72  F   UNL A   1      37.794  33.552  28.727  1.00  0.00    -0.203 F 
ATOM     73  F   UNL A   1      34.468  29.260  28.343  1.00  0.00    -0.200 F 
ATOM     74  C   UNL A   1      34.927  31.523  27.890  1.00  0.00     0.200 A 
ATOM     75  F   UNL A   1      35.434  33.783  27.484  1.00  0.00    -0.200 F 
ATOM     76  F   UNL A   1      33.731  31.664  27.300  1.00  0.00    -0.200 F 
ENDBRANCH  52  66
BRANCH  53  77
ATOM     77  C   UNL A   1      44.990  27.141  35.413  1.00  0.00     0.064 A 
ATOM     78  C   UNL A   1      46.194  27.802  35.766  1.00  0.00     0.173 A 
ATOM     79  C   UNL A   1      44.677  25.984  36.133  1.00  0.00     0.173 A 
ATOM     80  F   UNL A   1      46.583  28.901  35.098  1.00  0.00    -0.203 F 
ATOM     81  C   UNL A   1      46.893  27.464  36.934  1.00  0.00     0.198 A 
ATOM     82  C   UNL A   1      45.340  25.684  37.325  1.00  0.00     0.198 A 
ATOM     83  F   UNL A   1      43.562  25.305  35.829  1.00  0.00    -0.203 F 
ATOM     84  F   UNL A   1      47.925  28.216  37.348  1.00  0.00    -0.200 F 
ATOM     85  C   UNL A   1      46.416  26.451  37.749  1.00  0.00     0.200 A 
ATOM     86  F   UNL A   1      44.836  24.744  38.135  1.00  0.00    -0.200 F 
ATOM     87  F   UNL A   1      46.934  26.269  38.972  1.00  0.00    -0.200 F 
ENDBRANCH  53  77
BRANCH  65  88
ATOM     88  C   UNL A   1      40.541  33.014  34.747  1.00  0.00     0.064 A 
ATOM     89  C   UNL A   1      39.559  33.210  35.733  1.00  0.00     0.173 A 
ATOM     90  C   UNL A   1      41.269  34.155  34.353  1.00  0.00     0.173 A 
ATOM     91  F   UNL A   1      38.877  32.183  36.261  1.00  0.00    -0.203 F 
ATOM     92  C   UNL A   1      39.276  34.471  36.235  1.00  0.00     0.198 A 
ATOM     93  C   UNL A   1      41.051  35.395  34.933  1.00  0.00     0.198 A 
ATOM     94  F   UNL A   1      42.223  34.105  33.415  1.00  0.00    -0.203 F 
ATOM     95  F   UNL A   1      38.274  34.620  37.111  1.00  0.00    -0.200 F 
ATOM     96  C   UNL A   1      40.037  35.559  35.854  1.00  0.00     0.200 A 
ATOM     97  F   UNL A   1      41.839  36.427  34.602  1.00  0.00    -0.200 F 
ATOM     98  F   UNL A   1      39.797  36.765  36.381  1.00  0.00    -0.200 F 
ENDBRANCH  65  88
ENDBRANCH  39  40
ENDBRANCH  32  34
ENDBRANCH  31  32
ENDBRANCH  30  31
ENDBRANCH  29  30
ENDBRANCH  28  29
ENDBRANCH  27  28
ENDBRANCH  26  27
ENDBRANCH  25  26
ENDBRANCH   1  25
TORSDOF 25
ENDMDL
MODEL 2
REMARK VINA RESULT:      -8.4      6.753     11.708
REMARK SMILES Cc1cccc([C@@H](CCC[C@@H]2CCCO2)C(=O)OCCOCCOCCOCCOC(=O)c2ccc(-c3c4nc(c(-c5c(F)c(F)c(F)c(F)c5F)c5ccc([nH]5)c(-c5c(F)c(F)c(F)c(F)c5F)c5nc(c(-c6c(F)c(F)c(F)c(F)c6F)c6ccc3[nH]6)C=C5)C=C4)cc2)c1
REMARK SMILES IDX 23 1 22 2 21 3 20 4 19 5 18 6 16 7 17 8 7 9 6 10 1 11 2 12
REMARK SMILES IDX 3 13 96 14 4 15 5 16 8 17 9 18 10 19 11 20 12 21 15 22 13 23
REMARK SMILES IDX 14 24 24 25 25 26 26 27 27 28 28 29 29 30 30 31 31 32 32 33
REMARK SMILES IDX 33 34 34 35 95 36 35 37 94 38 36 39 37 40 38 41 88 42 39 43
REMARK SMILES IDX 93 44 87 45 89 46 40 47 92 48 86 49 85 50 41 52 73 53 53 54
REMARK SMILES IDX 72 55 54 56 57 57 71 58 90 59 55 60 56 61 70 63 91 64 58 65
REMARK SMILES IDX 42 66 43 67 51 68 44 69 45 70 49 71 52 72 46 73 47 74 50 75
REMARK SMILES IDX 48 76 74 77 75 78 83 79 76 80 77 81 81 82 84 83 78 84 79 85
REMARK SMILES IDX 82 86 80 87 59 88 60 89 68 90 61 91 62 92 66 93 69 94 63 95
REMARK SMILES IDX 64 96 67 97 65 98
REMARK H PARENT 89 51 57 62
REMARK Flexibility Score: inf
ROOT
ATOM      1  C   UNL A   1      43.686  28.396  36.448  1.00  0.00     0.188 C 
ENDROOT
BRANCH   1   2
ATOM      2  C   UNL A   1      42.792  27.460  35.627  1.00  0.00     0.188 C 
BRANCH   2   3
ATOM      3  O   UNL A   1      42.365  27.815  34.331  1.00  0.00    -0.376 OA
BRANCH   3   4
ATOM      4  C   UNL A   1      41.014  27.922  34.007  1.00  0.00     0.202 C 
BRANCH   4   5
ATOM      5  C   UNL A   1      40.563  29.090  33.160  1.00  0.00     0.261 C 
BRANCH   5   6
ATOM      6  O   UNL A   1      39.459  29.031  32.239  1.00  0.00    -0.463 OA
BRANCH   6   7
ATOM      7  C   UNL A   1      38.124  28.920  32.447  1.00  0.00     0.313 C 
ATOM      8  O   UNL A   1      37.549  28.218  33.252  1.00  0.00    -0.252 OA
BRANCH   7   9
ATOM      9  C   UNL A   1      37.370  29.888  31.521  1.00  0.00     0.129 C 
BRANCH   9  10
ATOM     10  C   UNL A   1      37.481  29.450  30.040  1.00  0.00    -0.034 A 
ATOM     11  C   UNL A   1      34.935  29.616  27.189  1.00  0.00     0.044 C 
ATOM     12  C   UNL A   1      36.247  29.536  27.917  1.00  0.00    -0.051 A 
ATOM     13  C   UNL A   1      37.437  29.813  27.238  1.00  0.00     0.003 A 
ATOM     14  C   UNL A   1      36.281  29.331  29.308  1.00  0.00     0.008 A 
ATOM     15  C   UNL A   1      38.648  29.814  27.928  1.00  0.00     0.001 A 
ATOM     16  C   UNL A   1      38.679  29.579  29.310  1.00  0.00     0.004 A 
ENDBRANCH   9  10
BRANCH   9  17
ATOM     17  C   UNL A   1      36.100  30.540  32.131  1.00  0.00     0.020 C 
BRANCH  17  18
ATOM     18  C   UNL A   1      36.101  31.975  32.713  1.00  0.00     0.004 C 
BRANCH  18  19
ATOM     19  C   UNL A   1      35.393  33.021  31.853  1.00  0.00     0.032 C 
BRANCH  19  20
ATOM     20  C   UNL A   1      35.273  32.945  30.328  1.00  0.00     0.118 C 
ATOM     21  C   UNL A   1      36.400  33.235  29.372  1.00  0.00     0.034 C 
ATOM     22  O   UNL A   1      34.159  33.665  29.792  1.00  0.00    -0.378 OA
ATOM     23  C   UNL A   1      35.660  33.067  28.045  1.00  0.00     0.031 C 
ATOM     24  C   UNL A   1      34.235  33.512  28.358  1.00  0.00     0.160 C 
ENDBRANCH  19  20
ENDBRANCH  18  19
ENDBRANCH  17  18
ENDBRANCH   9  17
ENDBRANCH   7   9
ENDBRANCH   6   7
ENDBRANCH   5   6
ENDBRANCH   4   5
ENDBRANCH   3   4
ENDBRANCH   2   3
ENDBRANCH   1   2
BRANCH   1  25
ATOM     25  O   UNL A   1      43.152  29.506  37.177  1.00  0.00    -0.377 OA
BRANCH  25  26
ATOM     26  C   UNL A   1      43.278  30.801  36.599  1.00  0.00     0.188 C 
BRANCH  26  27
ATOM     27  C   UNL A   1      41.996  31.231  35.897  1.00  0.00     0.188 C 
BRANCH  27  28
ATOM     28  O   UNL A   1      40.871  30.741  36.614  1.00  0.00    -0.376 OA
BRANCH  28  29
ATOM     29  C   UNL A   1      39.636  30.869  35.911  1.00  0.00     0.202 C 
BRANCH  29  30
ATOM     30  C   UNL A   1      39.293  32.350  35.833  1.00  0.00     0.261 C 
BRANCH  30  31
ATOM     31  O   UNL A   1      38.776  32.613  34.503  1.00  0.00    -0.460 OA
BRANCH  31  32
ATOM     32  C   UNL A   1      38.545  33.928  34.208  1.00  0.00     0.338 C 
ATOM     33  O   UNL A   1      37.634  34.603  34.676  1.00  0.00    -0.246 OA
BRANCH  32  34
ATOM     34  C   UNL A   1      39.401  34.395  33.070  1.00  0.00     0.060 A 
ATOM     35  C   UNL A   1      39.017  34.204  31.727  1.00  0.00     0.016 A 
ATOM     36  C   UNL A   1      40.709  34.753  33.332  1.00  0.00     0.016 A 
ATOM     37  C   UNL A   1      39.957  34.281  30.669  1.00  0.00     0.010 A 
ATOM     38  C   UNL A   1      41.627  34.736  32.295  1.00  0.00     0.010 A 
ATOM     39  C   UNL A   1      41.305  34.489  30.949  1.00  0.00    -0.014 A 
BRANCH  39  40
ATOM     40  C   UNL A   1      42.441  34.261  30.010  1.00  0.00     0.031 A 
ATOM     41  C   UNL A   1      42.910  32.843  29.778  1.00  0.00     0.074 A 
ATOM     42  C   UNL A   1      42.937  35.243  29.210  1.00  0.00     0.049 A 
ATOM     43  N   UNL A   1      44.118  32.427  30.059  1.00  0.00    -0.248 NA
ATOM     44  C   UNL A   1      42.013  31.742  29.389  1.00  0.00     0.031 C 
ATOM     45  C   UNL A   1      43.267  34.955  27.821  1.00  0.00     0.029 A 
ATOM     46  N   UNL A   1      42.985  36.653  29.277  1.00  0.00    -0.354 N 
ATOM     47  C   UNL A   1      44.131  31.070  29.739  1.00  0.00     0.074 A 
ATOM     48  C   UNL A   1      42.742  30.668  29.690  1.00  0.00     0.031 C 
ATOM     49  C   UNL A   1      43.529  36.092  27.178  1.00  0.00     0.029 A 
ATOM     50  C   UNL A   1      43.509  37.186  28.106  1.00  0.00     0.049 A 
ATOM     51  H   UNL A   1      42.686  37.185  30.049  1.00  0.00     0.167 HD
ATOM     52  C   UNL A   1      45.025  30.524  28.850  1.00  0.00     0.037 A 
ATOM     53  C   UNL A   1      44.263  38.279  27.848  1.00  0.00     0.037 A 
ATOM     54  C   UNL A   1      45.505  31.577  27.981  1.00  0.00     0.049 A 
ATOM     55  C   UNL A   1      45.619  37.726  27.534  1.00  0.00     0.074 A 
ATOM     56  C   UNL A   1      44.943  31.952  26.781  1.00  0.00     0.029 A 
ATOM     57  N   UNL A   1      46.323  32.625  28.403  1.00  0.00    -0.354 N 
ATOM     58  N   UNL A   1      45.946  36.562  28.056  1.00  0.00    -0.248 NA
ATOM     59  C   UNL A   1      46.568  38.175  26.520  1.00  0.00     0.031 C 
ATOM     60  C   UNL A   1      45.378  33.255  26.534  1.00  0.00     0.029 A 
ATOM     61  C   UNL A   1      46.326  33.651  27.460  1.00  0.00     0.049 A 
ATOM     62  H   UNL A   1      46.828  32.638  29.249  1.00  0.00     0.167 HD
ATOM     63  C   UNL A   1      46.947  36.018  27.322  1.00  0.00     0.074 A 
ATOM     64  C   UNL A   1      47.378  37.100  26.442  1.00  0.00     0.031 C 
ATOM     65  C   UNL A   1      47.334  34.712  27.412  1.00  0.00     0.037 A 
BRANCH  52  66
ATOM     66  C   UNL A   1      44.923  29.065  28.384  1.00  0.00     0.064 A 
ATOM     67  C   UNL A   1      44.001  28.634  27.401  1.00  0.00     0.173 A 
ATOM     68  C   UNL A   1      45.770  28.052  28.883  1.00  0.00     0.173 A 
ATOM     69  F   UNL A   1      43.178  29.492  26.783  1.00  0.00    -0.203 F 
ATOM     70  C   UNL A   1      43.893  27.294  27.004  1.00  0.00     0.198 A 
ATOM     71  C   UNL A   1      45.649  26.710  28.497  1.00  0.00     0.198 A 
ATOM     72  F   UNL A   1      46.733  28.343  29.772  1.00  0.00    -0.203 F 
ATOM     73  F   UNL A   1      42.991  26.944  26.074  1.00  0.00    -0.200 F 
ATOM     74  C   UNL A   1      44.711  26.331  27.558  1.00  0.00     0.200 A 
ATOM     75  F   UNL A   1      46.450  25.782  29.044  1.00  0.00    -0.200 F 
ATOM     76  F   UNL A   1      44.608  25.050  27.174  1.00  0.00    -0.200 F 
ENDBRANCH  52  66
BRANCH  53  77
ATOM     77  C   UNL A   1      43.623  39.578  28.150  1.00  0.00     0.064 A 
ATOM     78  C   UNL A   1      44.001  40.220  29.357  1.00  0.00     0.173 A 
ATOM     79  C   UNL A   1      43.398  40.404  27.045  1.00  0.00     0.173 A 
ATOM     80  F   UNL A   1      44.201  39.500  30.472  1.00  0.00    -0.203 F 
ATOM     81  C   UNL A   1      44.375  41.572  29.374  1.00  0.00     0.198 A 
ATOM     82  C   UNL A   1      43.826  41.735  27.050  1.00  0.00     0.198 A 
ATOM     83  F   UNL A   1      43.018  39.855  25.883  1.00  0.00    -0.203 F 
ATOM     84  F   UNL A   1      44.902  42.115  30.483  1.00  0.00    -0.200 F 
ATOM     85  C   UNL A   1      44.357  42.303  28.198  1.00  0.00     0.200 A 
ATOM     86  F   UNL A   1      43.860  42.414  25.896  1.00  0.00    -0.200 F 
ATOM     87  F   UNL A   1      44.924  43.517  28.150  1.00  0.00    -0.200 F 
ENDBRANCH  53  77
BRANCH  65  88
ATOM     88  C   UNL A   1      48.770  34.344  27.235  1.00  0.00     0.064 A 
ATOM     89  C   UNL A   1      49.562  33.929  28.320  1.00  0.00     0.173 A 
ATOM     90  C   UNL A   1      49.342  34.207  25.954  1.00  0.00     0.173 A 
ATOM     91  F   UNL A   1      49.086  33.914  29.573  1.00  0.00    -0.203 F 
ATOM     92  C   UNL A   1      50.861  33.477  28.139  1.00  0.00     0.198 A 
ATOM     93  C   UNL A   1      50.604  33.659  25.773  1.00  0.00     0.198 A 
ATOM     94  F   UNL A   1      48.698  34.577  24.840  1.00  0.00    -0.203 F 
ATOM     95  F   UNL A   1      51.605  33.172  29.210  1.00  0.00    -0.200 F 
ATOM     96  C   UNL A   1      51.372  33.319  26.866  1.00  0.00     0.200 A 
ATOM     97  F   UNL A   1      51.061  33.450  24.531  1.00  0.00    -0.200 F 
ATOM     98  F   UNL A   1      52.606  32.832  26.693  1.00  0.00    -0.200 F 
ENDBRANCH  65  88
ENDBRANCH  39  40
ENDBRANCH  32  34
ENDBRANCH  31  32
ENDBRANCH  30  31
ENDBRANCH  29  30
ENDBRANCH  28  29
ENDBRANCH  27  28
ENDBRANCH  26  27
ENDBRANCH  25  26
ENDBRANCH   1  25
TORSDOF 25
ENDMDL
MODEL 3
REMARK VINA RESULT:      -8.3      9.927     16.404
REMARK SMILES Cc1cccc([C@@H](CCC[C@@H]2CCCO2)C(=O)OCCOCCOCCOCCOC(=O)c2ccc(-c3c4nc(c(-c5c(F)c(F)c(F)c(F)c5F)c5ccc([nH]5)c(-c5c(F)c(F)c(F)c(F)c5F)c5nc(c(-c6c(F)c(F)c(F)c(F)c6F)c6ccc3[nH]6)C=C5)C=C4)cc2)c1
REMARK SMILES IDX 23 1 22 2 21 3 20 4 19 5 18 6 16 7 17 8 7 9 6 10 1 11 2 12
REMARK SMILES IDX 3 13 96 14 4 15 5 16 8 17 9 18 10 19 11 20 12 21 15 22 13 23
REMARK SMILES IDX 14 24 24 25 25 26 26 27 27 28 28 29 29 30 30 31 31 32 32 33
REMARK SMILES IDX 33 34 34 35 95 36 35 37 94 38 36 39 37 40 38 41 88 42 39 43
REMARK SMILES IDX 93 44 87 45 89 46 40 47 92 48 86 49 85 50 41 52 73 53 53 54
REMARK SMILES IDX 72 55 54 56 57 57 71 58 90 59 55 60 56 61 70 63 91 64 58 65
REMARK SMILES IDX 42 66 43 67 51 68 44 69 45 70 49 71 52 72 46 73 47 74 50 75
REMARK SMILES IDX 48 76 74 77 75 78 83 79 76 80 77 81 81 82 84 83 78 84 79 85
REMARK SMILES IDX 82 86 80 87 59 88 60 89 68 90 61 91 62 92 66 93 69 94 63 95
REMARK SMILES IDX 64 96 67 97 65 98
REMARK H PARENT 89 51 57 62
REMARK Flexibility Score: inf
ROOT
ATOM      1  C   UNL A   1      46.478  19.830  45.254  1.00  0.00     0.188 C 
ENDROOT
BRANCH   1   2
ATOM      2  C   UNL A   1      45.159  20.064  45.998  1.00  0.00     0.188 C 
BRANCH   2   3
ATOM      3  O   UNL A   1      44.688  19.139  46.952  1.00  0.00    -0.376 OA
BRANCH   3   4
ATOM      4  C   UNL A   1      45.518  18.162  47.498  1.00  0.00     0.202 C 
BRANCH   4   5
ATOM      5  C   UNL A   1      44.887  16.914  48.072  1.00  0.00     0.261 C 
BRANCH   5   6
ATOM      6  O   UNL A   1      45.035  15.604  47.494  1.00  0.00    -0.463 OA
BRANCH   6   7
ATOM      7  C   UNL A   1      45.047  15.192  46.202  1.00  0.00     0.313 C 
ATOM      8  O   UNL A   1      45.969  15.229  45.415  1.00  0.00    -0.252 OA
BRANCH   7   9
ATOM      9  C   UNL A   1      43.683  14.585  45.836  1.00  0.00     0.129 C 
BRANCH   9  10
ATOM     10  C   UNL A   1      43.468  14.566  44.303  1.00  0.00    -0.034 A 
ATOM     11  C   UNL A   1      41.719  12.011  42.058  1.00  0.00     0.044 C 
ATOM     12  C   UNL A   1      42.304  13.306  42.545  1.00  0.00    -0.051 A 
ATOM     13  C   UNL A   1      41.959  14.505  41.916  1.00  0.00     0.003 A 
ATOM     14  C   UNL A   1      43.077  13.343  43.719  1.00  0.00     0.008 A 
ATOM     15  C   UNL A   1      42.439  15.716  42.413  1.00  0.00     0.001 A 
ATOM     16  C   UNL A   1      43.235  15.744  43.566  1.00  0.00     0.004 A 
ENDBRANCH   9  10
BRANCH   9  17
ATOM     17  C   UNL A   1      43.174  13.470  46.789  1.00  0.00     0.020 C 
BRANCH  17  18
ATOM     18  C   UNL A   1      44.066  12.843  47.887  1.00  0.00     0.004 C 
BRANCH  18  19
ATOM     19  C   UNL A   1      44.907  11.651  47.433  1.00  0.00     0.032 C 
BRANCH  19  20
ATOM     20  C   UNL A   1      45.041  11.196  45.976  1.00  0.00     0.118 C 
ATOM     21  C   UNL A   1      44.038  10.329  45.262  1.00  0.00     0.034 C 
ATOM     22  O   UNL A   1      46.306  10.607  45.662  1.00  0.00    -0.378 OA
ATOM     23  C   UNL A   1      44.747  10.170  43.918  1.00  0.00     0.031 C 
ATOM     24  C   UNL A   1      46.229  10.208  44.276  1.00  0.00     0.160 C 
ENDBRANCH  19  20
ENDBRANCH  18  19
ENDBRANCH  17  18
ENDBRANCH   9  17
ENDBRANCH   7   9
ENDBRANCH   6   7
ENDBRANCH   5   6
ENDBRANCH   4   5
ENDBRANCH   3   4
ENDBRANCH   2   3
ENDBRANCH   1   2
BRANCH   1  25
ATOM     25  O   UNL A   1      46.517  19.557  43.849  1.00  0.00    -0.377 OA
BRANCH  25  26
ATOM     26  C   UNL A   1      45.553  18.649  43.324  1.00  0.00     0.188 C 
BRANCH  26  27
ATOM     27  C   UNL A   1      44.605  19.338  42.350  1.00  0.00     0.188 C 
BRANCH  27  28
ATOM     28  O   UNL A   1      44.550  18.603  41.135  1.00  0.00    -0.376 OA
BRANCH  28  29
ATOM     29  C   UNL A   1      45.446  17.494  41.088  1.00  0.00     0.202 C 
BRANCH  29  30
ATOM     30  C   UNL A   1      45.791  17.233  39.629  1.00  0.00     0.261 C 
BRANCH  30  31
ATOM     31  O   UNL A   1      45.516  18.449  38.887  1.00  0.00    -0.460 OA
BRANCH  31  32
ATOM     32  C   UNL A   1      46.613  19.100  38.393  1.00  0.00     0.338 C 
ATOM     33  O   UNL A   1      47.762  18.941  38.789  1.00  0.00    -0.246 OA
BRANCH  32  34
ATOM     34  C   UNL A   1      46.222  20.204  37.457  1.00  0.00     0.060 A 
ATOM     35  C   UNL A   1      45.888  19.952  36.111  1.00  0.00     0.016 A 
ATOM     36  C   UNL A   1      46.469  21.509  37.836  1.00  0.00     0.016 A 
ATOM     37  C   UNL A   1      45.895  20.983  35.139  1.00  0.00     0.010 A 
ATOM     38  C   UNL A   1      46.556  22.484  36.857  1.00  0.00     0.010 A 
ATOM     39  C   UNL A   1      46.296  22.269  35.492  1.00  0.00    -0.014 A 
BRANCH  39  40
ATOM     40  C   UNL A   1      46.679  23.358  34.547  1.00  0.00     0.031 A 
ATOM     41  C   UNL A   1      45.596  24.277  34.032  1.00  0.00     0.074 A 
ATOM     42  C   UNL A   1      47.975  23.681  34.290  1.00  0.00     0.049 A 
ATOM     43  N   UNL A   1      45.289  24.393  32.765  1.00  0.00    -0.248 NA
ATOM     44  C   UNL A   1      44.654  24.996  34.905  1.00  0.00     0.031 C 
ATOM     45  C   UNL A   1      48.378  25.078  34.218  1.00  0.00     0.029 A 
ATOM     46  N   UNL A   1      49.202  22.981  34.332  1.00  0.00    -0.354 N 
ATOM     47  C   UNL A   1      44.230  25.298  32.717  1.00  0.00     0.074 A 
ATOM     48  C   UNL A   1      43.682  25.328  34.056  1.00  0.00     0.031 C 
ATOM     49  C   UNL A   1      49.708  25.158  34.170  1.00  0.00     0.029 A 
ATOM     50  C   UNL A   1      50.268  23.839  34.087  1.00  0.00     0.049 A 
ATOM     51  H   UNL A   1      49.290  22.018  34.512  1.00  0.00     0.167 HD
ATOM     52  C   UNL A   1      44.271  26.454  31.977  1.00  0.00     0.037 A 
ATOM     53  C   UNL A   1      51.465  23.672  33.479  1.00  0.00     0.037 A 
ATOM     54  C   UNL A   1      45.659  26.802  31.753  1.00  0.00     0.049 A 
ATOM     55  C   UNL A   1      51.319  24.392  32.174  1.00  0.00     0.074 A 
ATOM     56  C   UNL A   1      46.430  27.604  32.565  1.00  0.00     0.029 A 
ATOM     57  N   UNL A   1      46.528  26.067  30.947  1.00  0.00    -0.354 N 
ATOM     58  N   UNL A   1      50.109  24.514  31.668  1.00  0.00    -0.248 NA
ATOM     59  C   UNL A   1      52.306  25.211  31.477  1.00  0.00     0.031 C 
ATOM     60  C   UNL A   1      47.759  27.285  32.282  1.00  0.00     0.029 A 
ATOM     61  C   UNL A   1      47.849  26.425  31.203  1.00  0.00     0.049 A 
ATOM     62  H   UNL A   1      46.246  25.391  30.289  1.00  0.00     0.167 HD
ATOM     63  C   UNL A   1      50.102  25.549  30.793  1.00  0.00     0.074 A 
ATOM     64  C   UNL A   1      51.511  25.887  30.622  1.00  0.00     0.031 C 
ATOM     65  C   UNL A   1      48.965  26.123  30.303  1.00  0.00     0.037 A 
BRANCH  52  66
ATOM     66  C   UNL A   1      43.168  27.517  32.063  1.00  0.00     0.064 A 
ATOM     67  C   UNL A   1      43.005  28.370  33.180  1.00  0.00     0.173 A 
ATOM     68  C   UNL A   1      42.253  27.741  31.012  1.00  0.00     0.173 A 
ATOM     69  F   UNL A   1      43.840  28.325  34.227  1.00  0.00    -0.203 F 
ATOM     70  C   UNL A   1      41.975  29.317  33.263  1.00  0.00     0.198 A 
ATOM     71  C   UNL A   1      41.213  28.676  31.104  1.00  0.00     0.198 A 
ATOM     72  F   UNL A   1      42.341  27.043  29.868  1.00  0.00    -0.203 F 
ATOM     73  F   UNL A   1      41.866  30.090  34.354  1.00  0.00    -0.200 F 
ATOM     74  C   UNL A   1      41.074  29.464  32.229  1.00  0.00     0.200 A 
ATOM     75  F   UNL A   1      40.341  28.810  30.092  1.00  0.00    -0.200 F 
ATOM     76  F   UNL A   1      40.091  30.373  32.309  1.00  0.00    -0.200 F 
ENDBRANCH  52  66
BRANCH  53  77
ATOM     77  C   UNL A   1      52.385  22.721  34.139  1.00  0.00     0.064 A 
ATOM     78  C   UNL A   1      52.639  22.919  35.521  1.00  0.00     0.173 A 
ATOM     79  C   UNL A   1      52.288  21.396  33.704  1.00  0.00     0.173 A 
ATOM     80  F   UNL A   1      52.781  24.162  36.011  1.00  0.00    -0.203 F 
ATOM     81  C   UNL A   1      52.542  21.862  36.436  1.00  0.00     0.198 A 
ATOM     82  C   UNL A   1      52.134  20.354  34.622  1.00  0.00     0.198 A 
ATOM     83  F   UNL A   1      52.069  21.147  32.406  1.00  0.00    -0.203 F 
ATOM     84  F   UNL A   1      52.606  22.099  37.756  1.00  0.00    -0.200 F 
ATOM     85  C   UNL A   1      52.213  20.594  35.986  1.00  0.00     0.200 A 
ATOM     86  F   UNL A   1      51.758  19.146  34.182  1.00  0.00    -0.200 F 
ATOM     87  F   UNL A   1      51.893  19.629  36.861  1.00  0.00    -0.200 F 
ENDBRANCH  53  77
BRANCH  65  88
ATOM     88  C   UNL A   1      48.936  26.651  28.906  1.00  0.00     0.064 A 
ATOM     89  C   UNL A   1      48.597  25.830  27.817  1.00  0.00     0.173 A 
ATOM     90  C   UNL A   1      49.054  28.030  28.637  1.00  0.00     0.173 A 
ATOM     91  F   UNL A   1      48.355  24.520  27.972  1.00  0.00    -0.203 F 
ATOM     92  C   UNL A   1      48.458  26.344  26.536  1.00  0.00     0.198 A 
ATOM     93  C   UNL A   1      48.813  28.550  27.375  1.00  0.00     0.198 A 
ATOM     94  F   UNL A   1      49.384  28.917  29.585  1.00  0.00    -0.203 F 
ATOM     95  F   UNL A   1      48.216  25.509  25.516  1.00  0.00    -0.200 F 
ATOM     96  C   UNL A   1      48.541  27.705  26.319  1.00  0.00     0.200 A 
ATOM     97  F   UNL A   1      48.832  29.877  27.193  1.00  0.00    -0.200 F 
ATOM     98  F   UNL A   1      48.352  28.203  25.092  1.00  0.00    -0.200 F 
ENDBRANCH  65  88
ENDBRANCH  39  40
ENDBRANCH  32  34
ENDBRANCH  31  32
ENDBRANCH  30  31
ENDBRANCH  29  30
ENDBRANCH  28  29
ENDBRANCH  27  28
ENDBRANCH  26  27
ENDBRANCH  25  26
ENDBRANCH   1  25
TORSDOF 25
ENDMDL
