MODEL 1
REMARK VINA RESULT:     -10.8      0.000      0.000
REMARK SMILES CC1(C)CCSC[C@@]1(Nc1ccccc1Br)C(=O)OCCOCCOCCOCCOC(=O)c1ccc(-c2c3nc(c(-c4c(F)c(F)c(F)c(F)c4F)c4ccc([nH]4)c(-c4c(F)c(F)c(F)c(F)c4F)c4nc(c(-c5c(F)c(F)c(F)c(F)c5F)c5ccc2[nH]5)C=C4)C=C3)cc1
REMARK SMILES IDX 25 1 24 2 23 3 22 4 21 5 20 6 19 7 17 8 18 9 8 10 1 11 2 12
REMARK SMILES IDX 3 13 4 14 5 15 7 16 6 17 9 18 10 20 11 21 15 22 12 23 14 24
REMARK SMILES IDX 16 25 13 26 26 27 27 28 28 29 29 30 30 31 31 32 32 33 33 34
REMARK SMILES IDX 34 35 35 36 96 37 36 38 95 39 37 40 38 41 39 42 89 43 40 44
REMARK SMILES IDX 94 45 88 46 90 47 41 48 93 49 87 50 86 51 42 53 74 54 54 55
REMARK SMILES IDX 73 56 55 57 58 58 72 59 91 60 56 61 57 62 71 64 92 65 59 66
REMARK SMILES IDX 43 67 44 68 52 69 45 70 46 71 50 72 53 73 47 74 48 75 51 76
REMARK SMILES IDX 49 77 75 78 76 79 84 80 77 81 78 82 82 83 85 84 79 85 80 86
REMARK SMILES IDX 83 87 81 88 60 89 61 90 69 91 62 92 63 93 67 94 70 95 64 96
REMARK SMILES IDX 65 97 68 98 66 99
REMARK H PARENT 9 19 90 52 58 63
REMARK Flexibility Score: inf
ROOT
ATOM      1  O   UNL A   1      40.628  20.799  26.506  1.00  0.00    -0.377 OA
ENDROOT
BRANCH   1   2
ATOM      2  C   UNL A   1      39.775  21.874  26.874  1.00  0.00     0.188 C 
BRANCH   2   3
ATOM      3  C   UNL A   1      38.789  22.373  25.831  1.00  0.00     0.188 C 
BRANCH   3   4
ATOM      4  O   UNL A   1      37.594  21.639  25.859  1.00  0.00    -0.376 OA
BRANCH   4   5
ATOM      5  C   UNL A   1      36.384  22.275  25.487  1.00  0.00     0.202 C 
BRANCH   5   6
ATOM      6  C   UNL A   1      36.179  23.648  24.773  1.00  0.00     0.261 C 
BRANCH   6   7
ATOM      7  O   UNL A   1      35.038  24.522  24.975  1.00  0.00    -0.461 OA
BRANCH   7   8
ATOM      8  C   UNL A   1      34.324  24.772  23.840  1.00  0.00     0.333 C 
ATOM      9  O   UNL A   1      34.817  24.464  22.760  1.00  0.00    -0.249 OA
BRANCH   8  10
ATOM     10  C   UNL A   1      32.937  25.582  23.967  1.00  0.00     0.150 C 
ATOM     11  C   UNL A   1      34.003  27.900  24.656  1.00  0.00     0.014 C 
ATOM     12  C   UNL A   1      32.872  26.874  24.933  1.00  0.00     0.000 C 
ATOM     13  C   UNL A   1      32.862  26.518  26.455  1.00  0.00     0.014 C 
ATOM     14  C   UNL A   1      31.506  27.632  24.770  1.00  0.00     0.020 C 
ATOM     15  C   UNL A   1      31.177  28.197  23.400  1.00  0.00     0.070 C 
ATOM     16  C   UNL A   1      32.644  26.018  22.499  1.00  0.00     0.110 C 
ATOM     17  S   UNL A   1      31.097  26.923  22.135  1.00  0.00    -0.159 SA
BRANCH  10  18
ATOM     18  N   UNL A   1      31.893  24.594  24.540  1.00  0.00    -0.368 N 
ATOM     19  H   UNL A   1      31.120  24.952  25.033  1.00  0.00     0.161 HD
BRANCH  18  20
ATOM     20  C   UNL A   1      32.012  23.202  24.382  1.00  0.00     0.049 A 
ATOM     21  C   UNL A   1      31.788  22.619  23.135  1.00  0.00     0.027 A 
ATOM     22  C   UNL A   1      32.446  22.345  25.417  1.00  0.00     0.041 A 
ATOM     23  C   UNL A   1      32.152  21.297  22.871  1.00  0.00     0.002 A 
ATOM     24  C   UNL A   1      32.905  21.053  25.139  1.00  0.00     0.018 A 
ATOM     25  Br  UNL A   1      32.322  22.848  27.257  1.00  0.00    -0.049 Br
ATOM     26  C   UNL A   1      32.777  20.538  23.853  1.00  0.00     0.001 A 
ENDBRANCH  18  20
ENDBRANCH  10  18
ENDBRANCH   8  10
ENDBRANCH   7   8
ENDBRANCH   6   7
ENDBRANCH   5   6
ENDBRANCH   4   5
ENDBRANCH   3   4
ENDBRANCH   2   3
ENDBRANCH   1   2
BRANCH   1  27
ATOM     27  C   UNL A   1      41.984  21.092  26.192  1.00  0.00     0.188 C 
BRANCH  27  28
ATOM     28  C   UNL A   1      42.800  19.952  25.580  1.00  0.00     0.188 C 
BRANCH  28  29
ATOM     29  O   UNL A   1      43.886  20.288  24.717  1.00  0.00    -0.376 OA
BRANCH  29  30
ATOM     30  C   UNL A   1      44.681  21.433  25.009  1.00  0.00     0.202 C 
BRANCH  30  31
ATOM     31  C   UNL A   1      44.472  22.621  24.074  1.00  0.00     0.261 C 
BRANCH  31  32
ATOM     32  O   UNL A   1      43.626  23.616  24.670  1.00  0.00    -0.460 OA
BRANCH  32  33
ATOM     33  C   UNL A   1      44.256  24.760  25.022  1.00  0.00     0.338 C 
ATOM     34  O   UNL A   1      45.323  25.178  24.619  1.00  0.00    -0.246 OA
BRANCH  33  35
ATOM     35  C   UNL A   1      43.369  25.551  25.894  1.00  0.00     0.060 A 
ATOM     36  C   UNL A   1      43.616  26.924  26.002  1.00  0.00     0.016 A 
ATOM     37  C   UNL A   1      42.370  24.940  26.655  1.00  0.00     0.016 A 
ATOM     38  C   UNL A   1      42.910  27.684  26.926  1.00  0.00     0.010 A 
ATOM     39  C   UNL A   1      41.669  25.700  27.593  1.00  0.00     0.010 A 
ATOM     40  C   UNL A   1      41.977  27.061  27.764  1.00  0.00    -0.014 A 
BRANCH  40  41
ATOM     41  C   UNL A   1      41.489  27.798  28.948  1.00  0.00     0.031 A 
ATOM     42  C   UNL A   1      42.244  27.659  30.239  1.00  0.00     0.074 A 
ATOM     43  C   UNL A   1      40.433  28.620  28.848  1.00  0.00     0.049 A 
ATOM     44  N   UNL A   1      42.015  28.211  31.401  1.00  0.00    -0.248 NA
ATOM     45  C   UNL A   1      43.421  26.773  30.215  1.00  0.00     0.031 C 
ATOM     46  C   UNL A   1      39.662  28.856  27.630  1.00  0.00     0.029 A 
ATOM     47  N   UNL A   1      39.832  29.410  29.792  1.00  0.00    -0.354 N 
ATOM     48  C   UNL A   1      43.010  27.735  32.246  1.00  0.00     0.074 A 
ATOM     49  C   UNL A   1      43.825  26.824  31.475  1.00  0.00     0.031 C 
ATOM     50  C   UNL A   1      38.678  29.730  27.904  1.00  0.00     0.029 A 
ATOM     51  C   UNL A   1      38.734  30.085  29.320  1.00  0.00     0.049 A 
ATOM     52  H   UNL A   1      40.155  29.486  30.718  1.00  0.00     0.167 HD
ATOM     53  C   UNL A   1      43.225  28.042  33.547  1.00  0.00     0.037 A 
ATOM     54  C   UNL A   1      37.866  30.880  29.970  1.00  0.00     0.037 A 
ATOM     55  C   UNL A   1      42.401  28.952  34.301  1.00  0.00     0.049 A 
ATOM     56  C   UNL A   1      38.094  31.159  31.434  1.00  0.00     0.074 A 
ATOM     57  C   UNL A   1      42.537  29.352  35.617  1.00  0.00     0.029 A 
ATOM     58  N   UNL A   1      41.275  29.592  33.801  1.00  0.00    -0.354 N 
ATOM     59  N   UNL A   1      39.051  30.731  32.222  1.00  0.00    -0.248 NA
ATOM     60  C   UNL A   1      37.124  32.042  32.094  1.00  0.00     0.031 C 
ATOM     61  C   UNL A   1      41.454  30.182  35.934  1.00  0.00     0.029 A 
ATOM     62  C   UNL A   1      40.685  30.358  34.794  1.00  0.00     0.049 A 
ATOM     63  H   UNL A   1      40.944  29.514  32.878  1.00  0.00     0.167 HD
ATOM     64  C   UNL A   1      38.815  31.310  33.462  1.00  0.00     0.074 A 
ATOM     65  C   UNL A   1      37.637  32.141  33.310  1.00  0.00     0.031 C 
ATOM     66  C   UNL A   1      39.505  31.169  34.623  1.00  0.00     0.037 A 
BRANCH  53  67
ATOM     67  C   UNL A   1      44.364  27.354  34.245  1.00  0.00     0.064 A 
ATOM     68  C   UNL A   1      44.200  26.131  34.915  1.00  0.00     0.173 A 
ATOM     69  C   UNL A   1      45.648  27.920  34.228  1.00  0.00     0.173 A 
ATOM     70  F   UNL A   1      42.992  25.552  34.978  1.00  0.00    -0.203 F 
ATOM     71  C   UNL A   1      45.269  25.520  35.567  1.00  0.00     0.198 A 
ATOM     72  C   UNL A   1      46.722  27.290  34.850  1.00  0.00     0.198 A 
ATOM     73  F   UNL A   1      45.864  29.089  33.602  1.00  0.00    -0.203 F 
ATOM     74  F   UNL A   1      45.075  24.383  36.248  1.00  0.00    -0.200 F 
ATOM     75  C   UNL A   1      46.531  26.096  35.528  1.00  0.00     0.200 A 
ATOM     76  F   UNL A   1      47.942  27.842  34.800  1.00  0.00    -0.200 F 
ATOM     77  F   UNL A   1      47.559  25.504  36.149  1.00  0.00    -0.200 F 
ENDBRANCH  53  67
BRANCH  54  78
ATOM     78  C   UNL A   1      36.701  31.454  29.247  1.00  0.00     0.064 A 
ATOM     79  C   UNL A   1      36.649  32.813  28.911  1.00  0.00     0.173 A 
ATOM     80  C   UNL A   1      35.610  30.650  28.883  1.00  0.00     0.173 A 
ATOM     81  F   UNL A   1      37.657  33.627  29.255  1.00  0.00    -0.203 F 
ATOM     82  C   UNL A   1      35.541  33.351  28.258  1.00  0.00     0.198 A 
ATOM     83  C   UNL A   1      34.519  31.181  28.201  1.00  0.00     0.198 A 
ATOM     84  F   UNL A   1      35.610  29.342  29.177  1.00  0.00    -0.203 F 
ATOM     85  F   UNL A   1      35.496  34.664  27.993  1.00  0.00    -0.200 F 
ATOM     86  C   UNL A   1      34.481  32.534  27.896  1.00  0.00     0.200 A 
ATOM     87  F   UNL A   1      33.505  30.384  27.837  1.00  0.00    -0.200 F 
ATOM     88  F   UNL A   1      33.420  33.050  27.261  1.00  0.00    -0.200 F 
ENDBRANCH  54  78
BRANCH  66  89
ATOM     89  C   UNL A   1      39.015  31.956  35.806  1.00  0.00     0.064 A 
ATOM     90  C   UNL A   1      39.374  33.299  36.003  1.00  0.00     0.173 A 
ATOM     91  C   UNL A   1      38.169  31.360  36.755  1.00  0.00     0.173 A 
ATOM     92  F   UNL A   1      40.189  33.914  35.132  1.00  0.00    -0.203 F 
ATOM     93  C   UNL A   1      38.946  33.998  37.129  1.00  0.00     0.198 A 
ATOM     94  C   UNL A   1      37.709  32.075  37.857  1.00  0.00     0.198 A 
ATOM     95  F   UNL A   1      37.784  30.083  36.611  1.00  0.00    -0.203 F 
ATOM     96  F   UNL A   1      39.364  35.255  37.333  1.00  0.00    -0.200 F 
ATOM     97  C   UNL A   1      38.110  33.388  38.052  1.00  0.00     0.200 A 
ATOM     98  F   UNL A   1      36.885  31.489  38.737  1.00  0.00    -0.200 F 
ATOM     99  F   UNL A   1      37.701  34.061  39.135  1.00  0.00    -0.200 F 
ENDBRANCH  66  89
ENDBRANCH  40  41
ENDBRANCH  33  35
ENDBRANCH  32  33
ENDBRANCH  31  32
ENDBRANCH  30  31
ENDBRANCH  29  30
ENDBRANCH  28  29
ENDBRANCH  27  28
ENDBRANCH   1  27
TORSDOF 22
ENDMDL
MODEL 2
REMARK VINA RESULT:     -10.4      5.181     10.576
REMARK SMILES CC1(C)CCSC[C@@]1(Nc1ccccc1Br)C(=O)OCCOCCOCCOCCOC(=O)c1ccc(-c2c3nc(c(-c4c(F)c(F)c(F)c(F)c4F)c4ccc([nH]4)c(-c4c(F)c(F)c(F)c(F)c4F)c4nc(c(-c5c(F)c(F)c(F)c(F)c5F)c5ccc2[nH]5)C=C4)C=C3)cc1
REMARK SMILES IDX 25 1 24 2 23 3 22 4 21 5 20 6 19 7 17 8 18 9 8 10 1 11 2 12
REMARK SMILES IDX 3 13 4 14 5 15 7 16 6 17 9 18 10 20 11 21 15 22 12 23 14 24
REMARK SMILES IDX 16 25 13 26 26 27 27 28 28 29 29 30 30 31 31 32 32 33 33 34
REMARK SMILES IDX 34 35 35 36 96 37 36 38 95 39 37 40 38 41 39 42 89 43 40 44
REMARK SMILES IDX 94 45 88 46 90 47 41 48 93 49 87 50 86 51 42 53 74 54 54 55
REMARK SMILES IDX 73 56 55 57 58 58 72 59 91 60 56 61 57 62 71 64 92 65 59 66
REMARK SMILES IDX 43 67 44 68 52 69 45 70 46 71 50 72 53 73 47 74 48 75 51 76
REMARK SMILES IDX 49 77 75 78 76 79 84 80 77 81 78 82 82 83 85 84 79 85 80 86
REMARK SMILES IDX 83 87 81 88 60 89 61 90 69 91 62 92 63 93 67 94 70 95 64 96
REMARK SMILES IDX 65 97 68 98 66 99
REMARK H PARENT 9 19 90 52 58 63
REMARK Flexibility Score: inf
ROOT
ATOM      1  O   UNL A   1      34.920  34.008  28.188  1.00  0.00    -0.377 OA
ENDROOT
BRANCH   1   2
ATOM      2  C   UNL A   1      34.328  32.783  28.595  1.00  0.00     0.188 C 
BRANCH   2   3
ATOM      3  C   UNL A   1      34.740  31.525  27.849  1.00  0.00     0.188 C 
BRANCH   3   4
ATOM      4  O   UNL A   1      33.715  30.567  27.851  1.00  0.00    -0.376 OA
BRANCH   4   5
ATOM      5  C   UNL A   1      33.247  30.054  26.616  1.00  0.00     0.202 C 
BRANCH   5   6
ATOM      6  C   UNL A   1      33.813  28.870  25.769  1.00  0.00     0.261 C 
BRANCH   6   7
ATOM      7  O   UNL A   1      33.855  27.488  26.208  1.00  0.00    -0.461 OA
BRANCH   7   8
ATOM      8  C   UNL A   1      32.646  26.857  26.168  1.00  0.00     0.333 C 
ATOM      9  O   UNL A   1      31.959  26.843  27.184  1.00  0.00    -0.249 OA
BRANCH   8  10
ATOM     10  C   UNL A   1      32.245  26.048  24.833  1.00  0.00     0.150 C 
ATOM     11  C   UNL A   1      30.758  27.953  23.760  1.00  0.00     0.014 C 
ATOM     12  C   UNL A   1      30.878  26.435  24.066  1.00  0.00     0.000 C 
ATOM     13  C   UNL A   1      29.588  25.955  24.804  1.00  0.00     0.014 C 
ATOM     14  C   UNL A   1      30.767  25.675  22.694  1.00  0.00     0.020 C 
ATOM     15  C   UNL A   1      31.843  25.940  21.658  1.00  0.00     0.070 C 
ATOM     16  C   UNL A   1      33.459  26.298  23.887  1.00  0.00     0.110 C 
ATOM     17  S   UNL A   1      33.484  25.496  22.244  1.00  0.00    -0.159 SA
BRANCH  10  18
ATOM     18  N   UNL A   1      32.074  24.566  25.242  1.00  0.00    -0.368 N 
ATOM     19  H   UNL A   1      31.173  24.231  25.452  1.00  0.00     0.161 HD
BRANCH  18  20
ATOM     20  C   UNL A   1      33.164  23.681  25.326  1.00  0.00     0.049 A 
ATOM     21  C   UNL A   1      34.211  23.943  26.209  1.00  0.00     0.027 A 
ATOM     22  C   UNL A   1      33.221  22.463  24.615  1.00  0.00     0.041 A 
ATOM     23  C   UNL A   1      35.166  22.974  26.518  1.00  0.00     0.002 A 
ATOM     24  C   UNL A   1      34.112  21.450  24.988  1.00  0.00     0.018 A 
ATOM     25  Br  UNL A   1      32.179  22.168  23.039  1.00  0.00    -0.049 Br
ATOM     26  C   UNL A   1      35.073  21.703  25.961  1.00  0.00     0.001 A 
ENDBRANCH  18  20
ENDBRANCH  10  18
ENDBRANCH   8  10
ENDBRANCH   7   8
ENDBRANCH   6   7
ENDBRANCH   5   6
ENDBRANCH   4   5
ENDBRANCH   3   4
ENDBRANCH   2   3
ENDBRANCH   1   2
BRANCH   1  27
ATOM     27  C   UNL A   1      34.519  35.203  28.850  1.00  0.00     0.188 C 
BRANCH  27  28
ATOM     28  C   UNL A   1      33.090  35.228  29.396  1.00  0.00     0.188 C 
BRANCH  28  29
ATOM     29  O   UNL A   1      32.899  34.992  30.791  1.00  0.00    -0.376 OA
BRANCH  29  30
ATOM     30  C   UNL A   1      34.018  35.056  31.670  1.00  0.00     0.202 C 
BRANCH  30  31
ATOM     31  C   UNL A   1      34.429  33.724  32.290  1.00  0.00     0.261 C 
BRANCH  31  32
ATOM     32  O   UNL A   1      35.818  33.444  32.058  1.00  0.00    -0.460 OA
BRANCH  32  33
ATOM     33  C   UNL A   1      36.354  32.509  32.878  1.00  0.00     0.338 C 
ATOM     34  O   UNL A   1      36.085  32.298  34.044  1.00  0.00    -0.246 OA
BRANCH  33  35
ATOM     35  C   UNL A   1      37.247  31.637  32.096  1.00  0.00     0.060 A 
ATOM     36  C   UNL A   1      38.292  30.998  32.773  1.00  0.00     0.016 A 
ATOM     37  C   UNL A   1      37.112  31.518  30.711  1.00  0.00     0.016 A 
ATOM     38  C   UNL A   1      39.251  30.293  32.058  1.00  0.00     0.010 A 
ATOM     39  C   UNL A   1      38.082  30.820  29.990  1.00  0.00     0.010 A 
ATOM     40  C   UNL A   1      39.179  30.252  30.660  1.00  0.00    -0.014 A 
BRANCH  40  41
ATOM     41  C   UNL A   1      40.365  29.796  29.906  1.00  0.00     0.031 A 
ATOM     42  C   UNL A   1      41.496  30.763  29.697  1.00  0.00     0.074 A 
ATOM     43  C   UNL A   1      40.451  28.527  29.477  1.00  0.00     0.049 A 
ATOM     44  N   UNL A   1      42.635  30.590  29.080  1.00  0.00    -0.248 NA
ATOM     45  C   UNL A   1      41.316  32.111  30.262  1.00  0.00     0.031 C 
ATOM     46  C   UNL A   1      39.426  27.503  29.668  1.00  0.00     0.029 A 
ATOM     47  N   UNL A   1      41.449  27.888  28.791  1.00  0.00    -0.354 N 
ATOM     48  C   UNL A   1      43.301  31.806  29.175  1.00  0.00     0.074 A 
ATOM     49  C   UNL A   1      42.428  32.718  29.878  1.00  0.00     0.031 C 
ATOM     50  C   UNL A   1      39.848  26.359  29.103  1.00  0.00     0.029 A 
ATOM     51  C   UNL A   1      41.152  26.584  28.485  1.00  0.00     0.049 A 
ATOM     52  H   UNL A   1      42.297  28.321  28.542  1.00  0.00     0.167 HD
ATOM     53  C   UNL A   1      44.537  32.124  28.721  1.00  0.00     0.037 A 
ATOM     54  C   UNL A   1      41.852  25.687  27.766  1.00  0.00     0.037 A 
ATOM     55  C   UNL A   1      45.393  31.203  28.020  1.00  0.00     0.049 A 
ATOM     56  C   UNL A   1      43.199  26.085  27.221  1.00  0.00     0.074 A 
ATOM     57  C   UNL A   1      46.671  31.411  27.533  1.00  0.00     0.029 A 
ATOM     58  N   UNL A   1      45.048  29.898  27.695  1.00  0.00    -0.354 N 
ATOM     59  N   UNL A   1      43.838  27.225  27.337  1.00  0.00    -0.248 NA
ATOM     60  C   UNL A   1      43.926  25.066  26.454  1.00  0.00     0.031 C 
ATOM     61  C   UNL A   1      47.071  30.254  26.854  1.00  0.00     0.029 A 
ATOM     62  C   UNL A   1      46.074  29.299  26.982  1.00  0.00     0.049 A 
ATOM     63  H   UNL A   1      44.198  29.463  27.935  1.00  0.00     0.167 HD
ATOM     64  C   UNL A   1      45.051  27.054  26.682  1.00  0.00     0.074 A 
ATOM     65  C   UNL A   1      45.065  25.689  26.194  1.00  0.00     0.031 C 
ATOM     66  C   UNL A   1      46.061  27.942  26.496  1.00  0.00     0.037 A 
BRANCH  53  67
ATOM     67  C   UNL A   1      45.011  33.535  28.928  1.00  0.00     0.064 A 
ATOM     68  C   UNL A   1      44.607  34.589  28.092  1.00  0.00     0.173 A 
ATOM     69  C   UNL A   1      45.872  33.842  29.993  1.00  0.00     0.173 A 
ATOM     70  F   UNL A   1      43.798  34.352  27.049  1.00  0.00    -0.203 F 
ATOM     71  C   UNL A   1      45.072  35.886  28.297  1.00  0.00     0.198 A 
ATOM     72  C   UNL A   1      46.307  35.145  30.215  1.00  0.00     0.198 A 
ATOM     73  F   UNL A   1      46.291  32.874  30.824  1.00  0.00    -0.203 F 
ATOM     74  F   UNL A   1      44.719  36.864  27.451  1.00  0.00    -0.200 F 
ATOM     75  C   UNL A   1      45.916  36.165  29.361  1.00  0.00     0.200 A 
ATOM     76  F   UNL A   1      47.112  35.413  31.253  1.00  0.00    -0.200 F 
ATOM     77  F   UNL A   1      46.357  37.414  29.560  1.00  0.00    -0.200 F 
ENDBRANCH  53  67
BRANCH  54  78
ATOM     78  C   UNL A   1      41.285  24.336  27.512  1.00  0.00     0.064 A 
ATOM     79  C   UNL A   1      41.842  23.190  28.096  1.00  0.00     0.173 A 
ATOM     80  C   UNL A   1      40.174  24.166  26.672  1.00  0.00     0.173 A 
ATOM     81  F   UNL A   1      42.916  23.299  28.890  1.00  0.00    -0.203 F 
ATOM     82  C   UNL A   1      41.323  21.924  27.832  1.00  0.00     0.198 A 
ATOM     83  C   UNL A   1      39.636  22.903  26.435  1.00  0.00     0.198 A 
ATOM     84  F   UNL A   1      39.601  25.229  26.090  1.00  0.00    -0.203 F 
ATOM     85  F   UNL A   1      41.905  20.841  28.364  1.00  0.00    -0.200 F 
ATOM     86  C   UNL A   1      40.216  21.782  27.008  1.00  0.00     0.200 A 
ATOM     87  F   UNL A   1      38.555  22.774  25.654  1.00  0.00    -0.200 F 
ATOM     88  F   UNL A   1      39.714  20.565  26.761  1.00  0.00    -0.200 F 
ENDBRANCH  54  78
BRANCH  66  89
ATOM     89  C   UNL A   1      47.274  27.447  25.759  1.00  0.00     0.064 A 
ATOM     90  C   UNL A   1      48.304  26.751  26.411  1.00  0.00     0.173 A 
ATOM     91  C   UNL A   1      47.407  27.669  24.379  1.00  0.00     0.173 A 
ATOM     92  F   UNL A   1      48.234  26.521  27.731  1.00  0.00    -0.203 F 
ATOM     93  C   UNL A   1      49.441  26.340  25.719  1.00  0.00     0.198 A 
ATOM     94  C   UNL A   1      48.525  27.220  23.683  1.00  0.00     0.198 A 
ATOM     95  F   UNL A   1      46.447  28.319  23.702  1.00  0.00    -0.203 F 
ATOM     96  F   UNL A   1      50.445  25.744  26.378  1.00  0.00    -0.200 F 
ATOM     97  C   UNL A   1      49.548  26.570  24.355  1.00  0.00     0.200 A 
ATOM     98  F   UNL A   1      48.617  27.426  22.362  1.00  0.00    -0.200 F 
ATOM     99  F   UNL A   1      50.643  26.176  23.692  1.00  0.00    -0.200 F 
ENDBRANCH  66  89
ENDBRANCH  40  41
ENDBRANCH  33  35
ENDBRANCH  32  33
ENDBRANCH  31  32
ENDBRANCH  30  31
ENDBRANCH  29  30
ENDBRANCH  28  29
ENDBRANCH  27  28
ENDBRANCH   1  27
TORSDOF 22
ENDMDL
MODEL 3
REMARK VINA RESULT:     -10.0      5.075      7.878
REMARK SMILES CC1(C)CCSC[C@@]1(Nc1ccccc1Br)C(=O)OCCOCCOCCOCCOC(=O)c1ccc(-c2c3nc(c(-c4c(F)c(F)c(F)c(F)c4F)c4ccc([nH]4)c(-c4c(F)c(F)c(F)c(F)c4F)c4nc(c(-c5c(F)c(F)c(F)c(F)c5F)c5ccc2[nH]5)C=C4)C=C3)cc1
REMARK SMILES IDX 25 1 24 2 23 3 22 4 21 5 20 6 19 7 17 8 18 9 8 10 1 11 2 12
REMARK SMILES IDX 3 13 4 14 5 15 7 16 6 17 9 18 10 20 11 21 15 22 12 23 14 24
REMARK SMILES IDX 16 25 13 26 26 27 27 28 28 29 29 30 30 31 31 32 32 33 33 34
REMARK SMILES IDX 34 35 35 36 96 37 36 38 95 39 37 40 38 41 39 42 89 43 40 44
REMARK SMILES IDX 94 45 88 46 90 47 41 48 93 49 87 50 86 51 42 53 74 54 54 55
REMARK SMILES IDX 73 56 55 57 58 58 72 59 91 60 56 61 57 62 71 64 92 65 59 66
REMARK SMILES IDX 43 67 44 68 52 69 45 70 46 71 50 72 53 73 47 74 48 75 51 76
REMARK SMILES IDX 49 77 75 78 76 79 84 80 77 81 78 82 82 83 85 84 79 85 80 86
REMARK SMILES IDX 83 87 81 88 60 89 61 90 69 91 62 92 63 93 67 94 70 95 64 96
REMARK SMILES IDX 65 97 68 98 66 99
REMARK H PARENT 9 19 90 52 58 63
REMARK Flexibility Score: inf
ROOT
ATOM      1  O   UNL A   1      38.910  21.803  26.125  1.00  0.00    -0.377 OA
ENDROOT
BRANCH   1   2
ATOM      2  C   UNL A   1      37.780  22.298  25.420  1.00  0.00     0.188 C 
BRANCH   2   3
ATOM      3  C   UNL A   1      37.401  23.752  25.641  1.00  0.00     0.188 C 
BRANCH   3   4
ATOM      4  O   UNL A   1      36.100  23.872  26.153  1.00  0.00    -0.376 OA
BRANCH   4   5
ATOM      5  C   UNL A   1      35.384  22.699  26.500  1.00  0.00     0.202 C 
BRANCH   5   6
ATOM      6  C   UNL A   1      33.911  22.562  27.000  1.00  0.00     0.261 C 
BRANCH   6   7
ATOM      7  O   UNL A   1      32.738  22.672  26.152  1.00  0.00    -0.461 OA
BRANCH   7   8
ATOM      8  C   UNL A   1      32.087  23.866  26.259  1.00  0.00     0.333 C 
ATOM      9  O   UNL A   1      31.396  24.068  27.251  1.00  0.00    -0.249 OA
BRANCH   8  10
ATOM     10  C   UNL A   1      32.150  24.888  25.016  1.00  0.00     0.150 C 
ATOM     11  C   UNL A   1      31.867  23.072  23.116  1.00  0.00     0.014 C 
ATOM     12  C   UNL A   1      32.636  24.340  23.576  1.00  0.00     0.000 C 
ATOM     13  C   UNL A   1      34.172  24.068  23.495  1.00  0.00     0.014 C 
ATOM     14  C   UNL A   1      32.442  25.432  22.463  1.00  0.00     0.020 C 
ATOM     15  C   UNL A   1      31.029  25.920  22.199  1.00  0.00     0.070 C 
ATOM     16  C   UNL A   1      30.684  25.406  24.905  1.00  0.00     0.110 C 
ATOM     17  S   UNL A   1      30.282  26.673  23.649  1.00  0.00    -0.159 SA
BRANCH  10  18
ATOM     18  N   UNL A   1      33.169  25.990  25.393  1.00  0.00    -0.368 N 
ATOM     19  H   UNL A   1      34.130  25.796  25.319  1.00  0.00     0.161 HD
BRANCH  18  20
ATOM     20  C   UNL A   1      32.766  27.262  25.840  1.00  0.00     0.049 A 
ATOM     21  C   UNL A   1      31.975  27.383  26.982  1.00  0.00     0.027 A 
ATOM     22  C   UNL A   1      33.201  28.462  25.236  1.00  0.00     0.041 A 
ATOM     23  C   UNL A   1      31.778  28.615  27.607  1.00  0.00     0.002 A 
ATOM     24  C   UNL A   1      33.095  29.686  25.906  1.00  0.00     0.018 A 
ATOM     25  Br  UNL A   1      33.846  28.507  23.438  1.00  0.00    -0.049 Br
ATOM     26  C   UNL A   1      32.399  29.755  27.109  1.00  0.00     0.001 A 
ENDBRANCH  18  20
ENDBRANCH  10  18
ENDBRANCH   8  10
ENDBRANCH   7   8
ENDBRANCH   6   7
ENDBRANCH   5   6
ENDBRANCH   4   5
ENDBRANCH   3   4
ENDBRANCH   2   3
ENDBRANCH   1   2
BRANCH   1  27
ATOM     27  C   UNL A   1      39.790  22.742  26.733  1.00  0.00     0.188 C 
BRANCH  27  28
ATOM     28  C   UNL A   1      40.791  22.177  27.743  1.00  0.00     0.188 C 
BRANCH  28  29
ATOM     29  O   UNL A   1      41.891  21.414  27.246  1.00  0.00    -0.376 OA
BRANCH  29  30
ATOM     30  C   UNL A   1      41.772  19.998  27.154  1.00  0.00     0.202 C 
BRANCH  30  31
ATOM     31  C   UNL A   1      42.188  19.401  25.813  1.00  0.00     0.261 C 
BRANCH  31  32
ATOM     32  O   UNL A   1      43.612  19.230  25.734  1.00  0.00    -0.460 OA
BRANCH  32  33
ATOM     33  C   UNL A   1      44.179  19.701  24.599  1.00  0.00     0.338 C 
ATOM     34  O   UNL A   1      44.154  19.202  23.491  1.00  0.00    -0.246 OA
BRANCH  33  35
ATOM     35  C   UNL A   1      44.737  21.040  24.858  1.00  0.00     0.060 A 
ATOM     36  C   UNL A   1      45.274  21.288  26.126  1.00  0.00     0.016 A 
ATOM     37  C   UNL A   1      44.654  22.055  23.902  1.00  0.00     0.016 A 
ATOM     38  C   UNL A   1      45.669  22.575  26.469  1.00  0.00     0.010 A 
ATOM     39  C   UNL A   1      45.038  23.351  24.252  1.00  0.00     0.010 A 
ATOM     40  C   UNL A   1      45.497  23.619  25.553  1.00  0.00    -0.014 A 
BRANCH  40  41
ATOM     41  C   UNL A   1      45.601  25.010  26.040  1.00  0.00     0.031 A 
ATOM     42  C   UNL A   1      46.932  25.701  25.952  1.00  0.00     0.074 A 
ATOM     43  C   UNL A   1      44.513  25.656  26.488  1.00  0.00     0.049 A 
ATOM     44  N   UNL A   1      47.264  26.915  26.305  1.00  0.00    -0.248 NA
ATOM     45  C   UNL A   1      48.041  24.913  25.389  1.00  0.00     0.031 C 
ATOM     46  C   UNL A   1      43.171  25.087  26.572  1.00  0.00     0.029 A 
ATOM     47  N   UNL A   1      44.372  26.935  26.958  1.00  0.00    -0.354 N 
ATOM     48  C   UNL A   1      48.618  27.033  26.015  1.00  0.00     0.074 A 
ATOM     49  C   UNL A   1      49.055  25.759  25.490  1.00  0.00     0.031 C 
ATOM     50  C   UNL A   1      42.338  26.014  27.073  1.00  0.00     0.029 A 
ATOM     51  C   UNL A   1      43.097  27.226  27.374  1.00  0.00     0.049 A 
ATOM     52  H   UNL A   1      45.112  27.583  26.993  1.00  0.00     0.167 HD
ATOM     53  C   UNL A   1      49.419  28.114  26.168  1.00  0.00     0.037 A 
ATOM     54  C   UNL A   1      42.613  28.339  27.953  1.00  0.00     0.037 A 
ATOM     55  C   UNL A   1      48.968  29.376  26.696  1.00  0.00     0.049 A 
ATOM     56  C   UNL A   1      43.539  29.509  28.166  1.00  0.00     0.074 A 
ATOM     57  C   UNL A   1      49.685  30.544  26.875  1.00  0.00     0.029 A 
ATOM     58  N   UNL A   1      47.676  29.626  27.141  1.00  0.00    -0.354 N 
ATOM     59  N   UNL A   1      44.810  29.627  27.865  1.00  0.00    -0.248 NA
ATOM     60  C   UNL A   1      42.958  30.703  28.791  1.00  0.00     0.031 C 
ATOM     61  C   UNL A   1      48.846  31.479  27.493  1.00  0.00     0.029 A 
ATOM     62  C   UNL A   1      47.585  30.919  27.629  1.00  0.00     0.049 A 
ATOM     63  H   UNL A   1      46.935  28.979  27.114  1.00  0.00     0.167 HD
ATOM     64  C   UNL A   1      45.176  30.913  28.239  1.00  0.00     0.074 A 
ATOM     65  C   UNL A   1      43.981  31.543  28.765  1.00  0.00     0.031 C 
ATOM     66  C   UNL A   1      46.387  31.522  28.159  1.00  0.00     0.037 A 
BRANCH  53  67
ATOM     67  C   UNL A   1      50.869  27.961  25.805  1.00  0.00     0.064 A 
ATOM     68  C   UNL A   1      51.326  28.091  24.484  1.00  0.00     0.173 A 
ATOM     69  C   UNL A   1      51.822  27.697  26.801  1.00  0.00     0.173 A 
ATOM     70  F   UNL A   1      50.458  28.327  23.489  1.00  0.00    -0.203 F 
ATOM     71  C   UNL A   1      52.674  27.930  24.171  1.00  0.00     0.198 A 
ATOM     72  C   UNL A   1      53.174  27.572  26.490  1.00  0.00     0.198 A 
ATOM     73  F   UNL A   1      51.443  27.563  28.082  1.00  0.00    -0.203 F 
ATOM     74  F   UNL A   1      53.077  28.001  22.895  1.00  0.00    -0.200 F 
ATOM     75  C   UNL A   1      53.598  27.678  25.175  1.00  0.00     0.200 A 
ATOM     76  F   UNL A   1      54.065  27.341  27.464  1.00  0.00    -0.200 F 
ATOM     77  F   UNL A   1      54.894  27.531  24.873  1.00  0.00    -0.200 F 
ENDBRANCH  53  67
BRANCH  54  78
ATOM     78  C   UNL A   1      41.190  28.394  28.380  1.00  0.00     0.064 A 
ATOM     79  C   UNL A   1      40.191  28.884  27.528  1.00  0.00     0.173 A 
ATOM     80  C   UNL A   1      40.803  27.960  29.657  1.00  0.00     0.173 A 
ATOM     81  F   UNL A   1      40.513  29.329  26.305  1.00  0.00    -0.203 F 
ATOM     82  C   UNL A   1      38.863  28.958  27.945  1.00  0.00     0.198 A 
ATOM     83  C   UNL A   1      39.471  28.004  30.061  1.00  0.00     0.198 A 
ATOM     84  F   UNL A   1      41.718  27.479  30.511  1.00  0.00    -0.203 F 
ATOM     85  F   UNL A   1      37.936  29.477  27.128  1.00  0.00    -0.200 F 
ATOM     86  C   UNL A   1      38.503  28.512  29.207  1.00  0.00     0.200 A 
ATOM     87  F   UNL A   1      39.125  27.553  31.274  1.00  0.00    -0.200 F 
ATOM     88  F   UNL A   1      37.224  28.577  29.604  1.00  0.00    -0.200 F 
ENDBRANCH  54  78
BRANCH  66  89
ATOM     89  C   UNL A   1      46.464  32.949  28.624  1.00  0.00     0.064 A 
ATOM     90  C   UNL A   1      46.789  33.279  29.950  1.00  0.00     0.173 A 
ATOM     91  C   UNL A   1      46.215  34.003  27.731  1.00  0.00     0.173 A 
ATOM     92  F   UNL A   1      47.025  32.311  30.848  1.00  0.00    -0.203 F 
ATOM     93  C   UNL A   1      46.811  34.606  30.373  1.00  0.00     0.198 A 
ATOM     94  C   UNL A   1      46.280  35.329  28.147  1.00  0.00     0.198 A 
ATOM     95  F   UNL A   1      45.912  33.746  26.449  1.00  0.00    -0.203 F 
ATOM     96  F   UNL A   1      47.048  34.892  31.661  1.00  0.00    -0.200 F 
ATOM     97  C   UNL A   1      46.562  35.629  29.471  1.00  0.00     0.200 A 
ATOM     98  F   UNL A   1      46.058  36.317  27.269  1.00  0.00    -0.200 F 
ATOM     99  F   UNL A   1      46.582  36.905  29.880  1.00  0.00    -0.200 F 
ENDBRANCH  66  89
ENDBRANCH  40  41
ENDBRANCH  33  35
ENDBRANCH  32  33
ENDBRANCH  31  32
ENDBRANCH  30  31
ENDBRANCH  29  30
ENDBRANCH  28  29
ENDBRANCH  27  28
ENDBRANCH   1  27
TORSDOF 22
ENDMDL
