MODEL 1
REMARK VINA RESULT:     -11.0      0.000      0.000
REMARK SMILES Cc1cc(Cl)c2c(c1)C=C(C(=O)OCCOCCOCCOCCOC(=O)c1ccc(-c3c4nc(c(-c5c(F)c(F)c(F)c(F)c5F)c5ccc([nH]5)c(-c5c(F)c(F)c(F)c(F)c5F)c5nc(c(-c6c(F)c(F)c(F)c(F)c6F)c6ccc3[nH]6)C=C5)C=C4)cc1)[C@@H](C(F)(F)F)O2
REMARK SMILES IDX 20 1 19 2 18 3 17 4 16 5 15 6 14 7 13 8 11 9 12 10 10 11
REMARK SMILES IDX 1 12 2 13 3 14 8 15 4 16 7 17 5 18 6 19 9 20 96 21 91 22
REMARK SMILES IDX 92 23 93 24 94 25 95 26 21 27 22 28 23 29 24 30 25 31 26 32
REMARK SMILES IDX 27 33 28 34 29 35 90 36 30 37 89 38 31 39 32 40 33 41 83 42
REMARK SMILES IDX 34 43 88 44 82 45 84 46 35 47 87 48 81 49 80 50 36 52 68 53
REMARK SMILES IDX 48 54 67 55 49 56 52 57 66 58 85 59 50 60 51 61 65 63 86 64
REMARK SMILES IDX 53 65 37 66 38 67 46 68 39 69 40 70 44 71 47 72 41 73 42 74
REMARK SMILES IDX 45 75 43 76 69 77 70 78 78 79 71 80 72 81 76 82 79 83 73 84
REMARK SMILES IDX 74 85 77 86 75 87 54 88 55 89 63 90 56 91 57 92 61 93 64 94
REMARK SMILES IDX 58 95 59 96 62 97 60 98
REMARK H PARENT 84 51 52 62
REMARK Flexibility Score: inf
ROOT
ATOM      1  C   UNL A   1      33.192  22.656  26.688  1.00  0.00     0.188 C 
ENDROOT
BRANCH   1   2
ATOM      2  O   UNL A   1      32.131  22.336  25.788  1.00  0.00    -0.377 OA
BRANCH   2   3
ATOM      3  C   UNL A   1      32.067  21.006  25.296  1.00  0.00     0.188 C 
BRANCH   3   4
ATOM      4  C   UNL A   1      32.423  20.895  23.800  1.00  0.00     0.188 C 
BRANCH   4   5
ATOM      5  O   UNL A   1      32.226  22.074  23.045  1.00  0.00    -0.376 OA
BRANCH   5   6
ATOM      6  C   UNL A   1      33.289  22.788  22.437  1.00  0.00     0.202 C 
BRANCH   6   7
ATOM      7  C   UNL A   1      33.994  24.043  22.990  1.00  0.00     0.261 C 
BRANCH   7   8
ATOM      8  O   UNL A   1      33.187  25.154  23.365  1.00  0.00    -0.460 OA
BRANCH   8   9
ATOM      9  C   UNL A   1      33.319  26.275  22.635  1.00  0.00     0.338 C 
ATOM     10  O   UNL A   1      33.411  26.353  21.422  1.00  0.00    -0.246 OA
BRANCH   9  11
ATOM     11  C   UNL A   1      33.152  27.426  23.547  1.00  0.00     0.087 C 
ATOM     12  C   UNL A   1      35.492  29.746  28.724  1.00  0.00     0.044 C 
ATOM     13  C   UNL A   1      34.579  29.708  27.535  1.00  0.00    -0.049 A 
ATOM     14  C   UNL A   1      33.482  30.568  27.430  1.00  0.00     0.028 A 
ATOM     15  C   UNL A   1      34.802  28.767  26.525  1.00  0.00     0.015 A 
ATOM     16  C   UNL A   1      32.626  30.492  26.326  1.00  0.00     0.084 A 
ATOM     17  C   UNL A   1      33.914  28.653  25.448  1.00  0.00     0.019 A 
ATOM     18  Cl  UNL A   1      31.281  31.575  26.259  1.00  0.00    -0.080 Cl
ATOM     19  C   UNL A   1      32.836  29.532  25.327  1.00  0.00     0.146 A 
ATOM     20  C   UNL A   1      34.072  27.559  24.508  1.00  0.00     0.027 C 
ATOM     21  O   UNL A   1      31.962  29.495  24.276  1.00  0.00    -0.474 OA
ATOM     22  C   UNL A   1      32.028  28.402  23.321  1.00  0.00     0.316 C 
BRANCH  22  23
ATOM     23  C   UNL A   1      30.662  27.704  23.283  1.00  0.00     0.430 C 
ATOM     24  F   UNL A   1      29.661  28.555  23.607  1.00  0.00    -0.167 F 
ATOM     25  F   UNL A   1      30.377  27.222  22.050  1.00  0.00    -0.167 F 
ATOM     26  F   UNL A   1      30.608  26.663  24.145  1.00  0.00    -0.167 F 
ENDBRANCH  22  23
ENDBRANCH   9  11
ENDBRANCH   8   9
ENDBRANCH   7   8
ENDBRANCH   6   7
ENDBRANCH   5   6
ENDBRANCH   4   5
ENDBRANCH   3   4
ENDBRANCH   2   3
ENDBRANCH   1   2
BRANCH   1  27
ATOM     27  C   UNL A   1      34.457  21.770  26.786  1.00  0.00     0.188 C 
BRANCH  27  28
ATOM     28  O   UNL A   1      35.362  21.924  25.703  1.00  0.00    -0.376 OA
BRANCH  28  29
ATOM     29  C   UNL A   1      35.857  20.771  25.045  1.00  0.00     0.202 C 
BRANCH  29  30
ATOM     30  C   UNL A   1      37.383  20.633  24.957  1.00  0.00     0.261 C 
BRANCH  30  31
ATOM     31  O   UNL A   1      38.139  21.725  25.496  1.00  0.00    -0.460 OA
BRANCH  31  32
ATOM     32  C   UNL A   1      39.280  21.421  26.146  1.00  0.00     0.338 C 
ATOM     33  O   UNL A   1      39.870  20.352  26.147  1.00  0.00    -0.246 OA
BRANCH  32  34
ATOM     34  C   UNL A   1      39.811  22.667  26.727  1.00  0.00     0.060 A 
ATOM     35  C   UNL A   1      39.285  23.897  26.306  1.00  0.00     0.016 A 
ATOM     36  C   UNL A   1      40.829  22.618  27.680  1.00  0.00     0.016 A 
ATOM     37  C   UNL A   1      39.811  25.086  26.806  1.00  0.00     0.010 A 
ATOM     38  C   UNL A   1      41.373  23.809  28.160  1.00  0.00     0.010 A 
ATOM     39  C   UNL A   1      40.891  25.046  27.696  1.00  0.00    -0.014 A 
BRANCH  39  40
ATOM     40  C   UNL A   1      41.663  26.275  27.987  1.00  0.00     0.031 A 
ATOM     41  C   UNL A   1      40.987  27.365  28.769  1.00  0.00     0.074 A 
ATOM     42  C   UNL A   1      42.929  26.423  27.561  1.00  0.00     0.049 A 
ATOM     43  N   UNL A   1      41.396  28.580  29.029  1.00  0.00    -0.248 NA
ATOM     44  C   UNL A   1      39.666  27.041  29.333  1.00  0.00     0.031 C 
ATOM     45  C   UNL A   1      43.708  25.407  26.858  1.00  0.00     0.029 A 
ATOM     46  N   UNL A   1      43.773  27.500  27.649  1.00  0.00    -0.354 N 
ATOM     47  C   UNL A   1      40.381  29.164  29.776  1.00  0.00     0.074 A 
ATOM     48  C   UNL A   1      39.328  28.183  29.910  1.00  0.00     0.031 C 
ATOM     49  C   UNL A   1      44.914  25.919  26.556  1.00  0.00     0.029 A 
ATOM     50  C   UNL A   1      44.970  27.310  27.004  1.00  0.00     0.049 A 
ATOM     51  H   UNL A   1      43.543  28.330  28.127  1.00  0.00     0.167 HD
ATOM     52  C   UNL A   1      40.339  30.410  30.303  1.00  0.00     0.037 A 
ATOM     53  C   UNL A   1      45.978  28.176  26.774  1.00  0.00     0.037 A 
ATOM     54  C   UNL A   1      41.392  31.381  30.157  1.00  0.00     0.049 A 
ATOM     55  C   UNL A   1      45.865  29.589  27.291  1.00  0.00     0.074 A 
ATOM     56  C   UNL A   1      41.443  32.674  30.644  1.00  0.00     0.029 A 
ATOM     57  N   UNL A   1      42.577  31.163  29.469  1.00  0.00    -0.354 N 
ATOM     58  N   UNL A   1      44.900  30.146  27.983  1.00  0.00    -0.248 NA
ATOM     59  C   UNL A   1      46.987  30.492  26.997  1.00  0.00     0.031 C 
ATOM     60  C   UNL A   1      42.633  33.259  30.202  1.00  0.00     0.029 A 
ATOM     61  C   UNL A   1      43.358  32.307  29.504  1.00  0.00     0.049 A 
ATOM     62  H   UNL A   1      42.826  30.321  29.024  1.00  0.00     0.167 HD
ATOM     63  C   UNL A   1      45.311  31.448  28.238  1.00  0.00     0.074 A 
ATOM     64  C   UNL A   1      46.620  31.594  27.636  1.00  0.00     0.031 C 
ATOM     65  C   UNL A   1      44.666  32.433  28.912  1.00  0.00     0.037 A 
BRANCH  52  66
ATOM     66  C   UNL A   1      39.113  30.809  31.069  1.00  0.00     0.064 A 
ATOM     67  C   UNL A   1      38.973  30.529  32.436  1.00  0.00     0.173 A 
ATOM     68  C   UNL A   1      38.100  31.553  30.444  1.00  0.00     0.173 A 
ATOM     69  F   UNL A   1      39.903  29.803  33.075  1.00  0.00    -0.203 F 
ATOM     70  C   UNL A   1      37.863  30.976  33.149  1.00  0.00     0.198 A 
ATOM     71  C   UNL A   1      37.007  32.024  31.167  1.00  0.00     0.198 A 
ATOM     72  F   UNL A   1      38.183  31.846  29.138  1.00  0.00    -0.203 F 
ATOM     73  F   UNL A   1      37.737  30.672  34.447  1.00  0.00    -0.200 F 
ATOM     74  C   UNL A   1      36.888  31.734  32.517  1.00  0.00     0.200 A 
ATOM     75  F   UNL A   1      36.074  32.768  30.557  1.00  0.00    -0.200 F 
ATOM     76  F   UNL A   1      35.835  32.186  33.210  1.00  0.00    -0.200 F 
ENDBRANCH  52  66
BRANCH  53  77
ATOM     77  C   UNL A   1      47.175  27.735  26.011  1.00  0.00     0.064 A 
ATOM     78  C   UNL A   1      47.187  27.761  24.609  1.00  0.00     0.173 A 
ATOM     79  C   UNL A   1      48.330  27.277  26.663  1.00  0.00     0.173 A 
ATOM     80  F   UNL A   1      46.098  28.164  23.939  1.00  0.00    -0.203 F 
ATOM     81  C   UNL A   1      48.303  27.337  23.890  1.00  0.00     0.198 A 
ATOM     82  C   UNL A   1      49.456  26.884  25.944  1.00  0.00     0.198 A 
ATOM     83  F   UNL A   1      48.371  27.225  28.003  1.00  0.00    -0.203 F 
ATOM     84  F   UNL A   1      48.270  27.331  22.551  1.00  0.00    -0.200 F 
ATOM     85  C   UNL A   1      49.439  26.907  24.557  1.00  0.00     0.200 A 
ATOM     86  F   UNL A   1      50.558  26.481  26.593  1.00  0.00    -0.200 F 
ATOM     87  F   UNL A   1      50.515  26.510  23.865  1.00  0.00    -0.200 F 
ENDBRANCH  53  77
BRANCH  65  88
ATOM     88  C   UNL A   1      45.382  33.743  29.086  1.00  0.00     0.064 A 
ATOM     89  C   UNL A   1      45.218  34.806  28.185  1.00  0.00     0.173 A 
ATOM     90  C   UNL A   1      46.207  33.954  30.203  1.00  0.00     0.173 A 
ATOM     91  F   UNL A   1      44.447  34.655  27.098  1.00  0.00    -0.203 F 
ATOM     92  C   UNL A   1      45.878  36.017  28.379  1.00  0.00     0.198 A 
ATOM     93  C   UNL A   1      46.834  35.178  30.413  1.00  0.00     0.198 A 
ATOM     94  F   UNL A   1      46.389  32.977  31.105  1.00  0.00    -0.203 F 
ATOM     95  F   UNL A   1      45.749  36.998  27.475  1.00  0.00    -0.200 F 
ATOM     96  C   UNL A   1      46.677  36.205  29.496  1.00  0.00     0.200 A 
ATOM     97  F   UNL A   1      47.588  35.364  31.506  1.00  0.00    -0.200 F 
ATOM     98  F   UNL A   1      47.303  37.375  29.685  1.00  0.00    -0.200 F 
ENDBRANCH  65  88
ENDBRANCH  39  40
ENDBRANCH  32  34
ENDBRANCH  31  32
ENDBRANCH  30  31
ENDBRANCH  29  30
ENDBRANCH  28  29
ENDBRANCH  27  28
ENDBRANCH   1  27
TORSDOF 21
ENDMDL
MODEL 2
REMARK VINA RESULT:     -10.7      0.462      7.141
REMARK SMILES Cc1cc(Cl)c2c(c1)C=C(C(=O)OCCOCCOCCOCCOC(=O)c1ccc(-c3c4nc(c(-c5c(F)c(F)c(F)c(F)c5F)c5ccc([nH]5)c(-c5c(F)c(F)c(F)c(F)c5F)c5nc(c(-c6c(F)c(F)c(F)c(F)c6F)c6ccc3[nH]6)C=C5)C=C4)cc1)[C@@H](C(F)(F)F)O2
REMARK SMILES IDX 20 1 19 2 18 3 17 4 16 5 15 6 14 7 13 8 11 9 12 10 10 11
REMARK SMILES IDX 1 12 2 13 3 14 8 15 4 16 7 17 5 18 6 19 9 20 96 21 91 22
REMARK SMILES IDX 92 23 93 24 94 25 95 26 21 27 22 28 23 29 24 30 25 31 26 32
REMARK SMILES IDX 27 33 28 34 29 35 90 36 30 37 89 38 31 39 32 40 33 41 83 42
REMARK SMILES IDX 34 43 88 44 82 45 84 46 35 47 87 48 81 49 80 50 36 52 68 53
REMARK SMILES IDX 48 54 67 55 49 56 52 57 66 58 85 59 50 60 51 61 65 63 86 64
REMARK SMILES IDX 53 65 37 66 38 67 46 68 39 69 40 70 44 71 47 72 41 73 42 74
REMARK SMILES IDX 45 75 43 76 69 77 70 78 78 79 71 80 72 81 76 82 79 83 73 84
REMARK SMILES IDX 74 85 77 86 75 87 54 88 55 89 63 90 56 91 57 92 61 93 64 94
REMARK SMILES IDX 58 95 59 96 62 97 60 98
REMARK H PARENT 84 51 52 62
REMARK Flexibility Score: inf
ROOT
ATOM      1  C   UNL A   1      33.023  22.189  26.442  1.00  0.00     0.188 C 
ENDROOT
BRANCH   1   2
ATOM      2  O   UNL A   1      32.024  21.651  25.576  1.00  0.00    -0.377 OA
BRANCH   2   3
ATOM      3  C   UNL A   1      32.308  20.417  24.934  1.00  0.00     0.188 C 
BRANCH   3   4
ATOM      4  C   UNL A   1      32.290  20.516  23.395  1.00  0.00     0.188 C 
BRANCH   4   5
ATOM      5  O   UNL A   1      31.973  21.792  22.877  1.00  0.00    -0.376 OA
BRANCH   5   6
ATOM      6  C   UNL A   1      32.952  22.688  22.379  1.00  0.00     0.202 C 
BRANCH   6   7
ATOM      7  C   UNL A   1      33.659  23.813  23.163  1.00  0.00     0.261 C 
BRANCH   7   8
ATOM      8  O   UNL A   1      32.930  25.007  23.426  1.00  0.00    -0.460 OA
BRANCH   8   9
ATOM      9  C   UNL A   1      33.259  26.092  22.704  1.00  0.00     0.338 C 
ATOM     10  O   UNL A   1      33.510  26.130  21.512  1.00  0.00    -0.246 OA
BRANCH   9  11
ATOM     11  C   UNL A   1      33.088  27.276  23.572  1.00  0.00     0.087 C 
ATOM     12  C   UNL A   1      35.492  29.851  28.598  1.00  0.00     0.044 C 
ATOM     13  C   UNL A   1      34.555  29.746  27.431  1.00  0.00    -0.049 A 
ATOM     14  C   UNL A   1      33.439  30.581  27.316  1.00  0.00     0.028 A 
ATOM     15  C   UNL A   1      34.775  28.769  26.456  1.00  0.00     0.015 A 
ATOM     16  C   UNL A   1      32.562  30.443  26.234  1.00  0.00     0.084 A 
ATOM     17  C   UNL A   1      33.866  28.594  25.404  1.00  0.00     0.019 A 
ATOM     18  Cl  UNL A   1      31.195  31.497  26.154  1.00  0.00    -0.080 Cl
ATOM     19  C   UNL A   1      32.769  29.447  25.271  1.00  0.00     0.146 A 
ATOM     20  C   UNL A   1      34.026  27.466  24.506  1.00  0.00     0.027 C 
ATOM     21  O   UNL A   1      31.874  29.350  24.242  1.00  0.00    -0.474 OA
ATOM     22  C   UNL A   1      31.941  28.220  23.331  1.00  0.00     0.316 C 
BRANCH  22  23
ATOM     23  C   UNL A   1      30.589  27.496  23.352  1.00  0.00     0.430 C 
ATOM     24  F   UNL A   1      29.558  28.370  23.435  1.00  0.00    -0.167 F 
ATOM     25  F   UNL A   1      30.389  26.769  22.227  1.00  0.00    -0.167 F 
ATOM     26  F   UNL A   1      30.491  26.648  24.401  1.00  0.00    -0.167 F 
ENDBRANCH  22  23
ENDBRANCH   9  11
ENDBRANCH   8   9
ENDBRANCH   7   8
ENDBRANCH   6   7
ENDBRANCH   5   6
ENDBRANCH   4   5
ENDBRANCH   3   4
ENDBRANCH   2   3
ENDBRANCH   1   2
BRANCH   1  27
ATOM     27  C   UNL A   1      34.396  21.494  26.613  1.00  0.00     0.188 C 
BRANCH  27  28
ATOM     28  O   UNL A   1      35.399  21.956  25.721  1.00  0.00    -0.376 OA
BRANCH  28  29
ATOM     29  C   UNL A   1      36.019  21.036  24.840  1.00  0.00     0.202 C 
BRANCH  29  30
ATOM     30  C   UNL A   1      37.536  20.860  24.986  1.00  0.00     0.261 C 
BRANCH  30  31
ATOM     31  O   UNL A   1      38.105  21.354  26.206  1.00  0.00    -0.460 OA
BRANCH  31  32
ATOM     32  C   UNL A   1      39.450  21.388  26.287  1.00  0.00     0.338 C 
ATOM     33  O   UNL A   1      40.239  20.549  25.882  1.00  0.00    -0.246 OA
BRANCH  32  34
ATOM     34  C   UNL A   1      39.834  22.716  26.798  1.00  0.00     0.060 A 
ATOM     35  C   UNL A   1      39.107  23.843  26.391  1.00  0.00     0.016 A 
ATOM     36  C   UNL A   1      40.915  22.845  27.673  1.00  0.00     0.016 A 
ATOM     37  C   UNL A   1      39.489  25.112  26.823  1.00  0.00     0.010 A 
ATOM     38  C   UNL A   1      41.313  24.116  28.083  1.00  0.00     0.010 A 
ATOM     39  C   UNL A   1      40.625  25.256  27.630  1.00  0.00    -0.014 A 
BRANCH  39  40
ATOM     40  C   UNL A   1      41.230  26.591  27.833  1.00  0.00     0.031 A 
ATOM     41  C   UNL A   1      42.638  26.809  27.357  1.00  0.00     0.074 A 
ATOM     42  C   UNL A   1      40.549  27.583  28.433  1.00  0.00     0.049 A 
ATOM     43  N   UNL A   1      43.430  27.834  27.542  1.00  0.00    -0.248 NA
ATOM     44  C   UNL A   1      43.236  25.721  26.567  1.00  0.00     0.031 C 
ATOM     45  C   UNL A   1      39.158  27.508  28.870  1.00  0.00     0.029 A 
ATOM     46  N   UNL A   1      40.952  28.845  28.789  1.00  0.00    -0.354 N 
ATOM     47  C   UNL A   1      44.618  27.508  26.901  1.00  0.00     0.074 A 
ATOM     48  C   UNL A   1      44.454  26.185  26.340  1.00  0.00     0.031 C 
ATOM     49  C   UNL A   1      38.827  28.671  29.459  1.00  0.00     0.029 A 
ATOM     50  C   UNL A   1      39.996  29.548  29.480  1.00  0.00     0.049 A 
ATOM     51  H   UNL A   1      41.840  29.211  28.571  1.00  0.00     0.167 HD
ATOM     52  C   UNL A   1      45.742  28.252  26.790  1.00  0.00     0.037 A 
ATOM     53  C   UNL A   1      40.075  30.749  30.089  1.00  0.00     0.037 A 
ATOM     54  C   UNL A   1      45.896  29.566  27.357  1.00  0.00     0.049 A 
ATOM     55  C   UNL A   1      41.371  31.518  30.031  1.00  0.00     0.074 A 
ATOM     56  C   UNL A   1      46.998  30.400  27.310  1.00  0.00     0.029 A 
ATOM     57  N   UNL A   1      44.917  30.234  28.080  1.00  0.00    -0.354 N 
ATOM     58  N   UNL A   1      42.498  31.204  29.439  1.00  0.00    -0.248 NA
ATOM     59  C   UNL A   1      41.403  32.814  30.725  1.00  0.00     0.031 C 
ATOM     60  C   UNL A   1      46.707  31.548  28.052  1.00  0.00     0.029 A 
ATOM     61  C   UNL A   1      45.399  31.464  28.499  1.00  0.00     0.049 A 
ATOM     62  H   UNL A   1      44.015  29.887  28.265  1.00  0.00     0.167 HD
ATOM     63  C   UNL A   1      43.359  32.273  29.655  1.00  0.00     0.074 A 
ATOM     64  C   UNL A   1      42.618  33.251  30.425  1.00  0.00     0.031 C 
ATOM     65  C   UNL A   1      44.644  32.433  29.252  1.00  0.00     0.037 A 
BRANCH  52  66
ATOM     66  C   UNL A   1      46.905  27.665  26.046  1.00  0.00     0.064 A 
ATOM     67  C   UNL A   1      47.024  27.777  24.653  1.00  0.00     0.173 A 
ATOM     68  C   UNL A   1      47.956  27.052  26.747  1.00  0.00     0.173 A 
ATOM     69  F   UNL A   1      46.037  28.336  23.935  1.00  0.00    -0.203 F 
ATOM     70  C   UNL A   1      48.148  27.294  23.989  1.00  0.00     0.198 A 
ATOM     71  C   UNL A   1      49.092  26.598  26.083  1.00  0.00     0.198 A 
ATOM     72  F   UNL A   1      47.892  26.916  28.080  1.00  0.00    -0.203 F 
ATOM     73  F   UNL A   1      48.227  27.387  22.654  1.00  0.00    -0.200 F 
ATOM     74  C   UNL A   1      49.187  26.718  24.705  1.00  0.00     0.200 A 
ATOM     75  F   UNL A   1      50.100  26.055  26.779  1.00  0.00    -0.200 F 
ATOM     76  F   UNL A   1      50.280  26.279  24.067  1.00  0.00    -0.200 F 
ENDBRANCH  52  66
BRANCH  53  77
ATOM     77  C   UNL A   1      38.896  31.291  30.813  1.00  0.00     0.064 A 
ATOM     78  C   UNL A   1      37.941  32.075  30.151  1.00  0.00     0.173 A 
ATOM     79  C   UNL A   1      38.698  31.041  32.180  1.00  0.00     0.173 A 
ATOM     80  F   UNL A   1      38.099  32.367  28.852  1.00  0.00    -0.203 F 
ATOM     81  C   UNL A   1      36.840  32.596  30.829  1.00  0.00     0.198 A 
ATOM     82  C   UNL A   1      37.580  31.535  32.848  1.00  0.00     0.198 A 
ATOM     83  F   UNL A   1      39.584  30.302  32.863  1.00  0.00    -0.203 F 
ATOM     84  F   UNL A   1      35.967  33.379  30.181  1.00  0.00    -0.200 F 
ATOM     85  C   UNL A   1      36.656  32.319  32.174  1.00  0.00     0.200 A 
ATOM     86  F   UNL A   1      37.399  31.253  34.146  1.00  0.00    -0.200 F 
ATOM     87  F   UNL A   1      35.592  32.811  32.823  1.00  0.00    -0.200 F 
ENDBRANCH  53  77
BRANCH  65  88
ATOM     88  C   UNL A   1      45.323  33.732  29.584  1.00  0.00     0.064 A 
ATOM     89  C   UNL A   1      46.078  33.899  30.754  1.00  0.00     0.173 A 
ATOM     90  C   UNL A   1      45.255  34.813  28.690  1.00  0.00     0.173 A 
ATOM     91  F   UNL A   1      46.169  32.901  31.646  1.00  0.00    -0.203 F 
ATOM     92  C   UNL A   1      46.714  35.107  31.031  1.00  0.00     0.198 A 
ATOM     93  C   UNL A   1      45.923  36.006  28.951  1.00  0.00     0.198 A 
ATOM     94  F   UNL A   1      44.558  34.705  27.548  1.00  0.00    -0.203 F 
ATOM     95  F   UNL A   1      47.384  35.260  32.181  1.00  0.00    -0.200 F 
ATOM     96  C   UNL A   1      46.642  36.155  30.126  1.00  0.00     0.200 A 
ATOM     97  F   UNL A   1      45.870  37.009  28.064  1.00  0.00    -0.200 F 
ATOM     98  F   UNL A   1      47.263  37.314  30.390  1.00  0.00    -0.200 F 
ENDBRANCH  65  88
ENDBRANCH  39  40
ENDBRANCH  32  34
ENDBRANCH  31  32
ENDBRANCH  30  31
ENDBRANCH  29  30
ENDBRANCH  28  29
ENDBRANCH  27  28
ENDBRANCH   1  27
TORSDOF 21
ENDMDL
MODEL 3
REMARK VINA RESULT:     -10.5      3.202      8.367
REMARK SMILES Cc1cc(Cl)c2c(c1)C=C(C(=O)OCCOCCOCCOCCOC(=O)c1ccc(-c3c4nc(c(-c5c(F)c(F)c(F)c(F)c5F)c5ccc([nH]5)c(-c5c(F)c(F)c(F)c(F)c5F)c5nc(c(-c6c(F)c(F)c(F)c(F)c6F)c6ccc3[nH]6)C=C5)C=C4)cc1)[C@@H](C(F)(F)F)O2
REMARK SMILES IDX 20 1 19 2 18 3 17 4 16 5 15 6 14 7 13 8 11 9 12 10 10 11
REMARK SMILES IDX 1 12 2 13 3 14 8 15 4 16 7 17 5 18 6 19 9 20 96 21 91 22
REMARK SMILES IDX 92 23 93 24 94 25 95 26 21 27 22 28 23 29 24 30 25 31 26 32
REMARK SMILES IDX 27 33 28 34 29 35 90 36 30 37 89 38 31 39 32 40 33 41 83 42
REMARK SMILES IDX 34 43 88 44 82 45 84 46 35 47 87 48 81 49 80 50 36 52 68 53
REMARK SMILES IDX 48 54 67 55 49 56 52 57 66 58 85 59 50 60 51 61 65 63 86 64
REMARK SMILES IDX 53 65 37 66 38 67 46 68 39 69 40 70 44 71 47 72 41 73 42 74
REMARK SMILES IDX 45 75 43 76 69 77 70 78 78 79 71 80 72 81 76 82 79 83 73 84
REMARK SMILES IDX 74 85 77 86 75 87 54 88 55 89 63 90 56 91 57 92 61 93 64 94
REMARK SMILES IDX 58 95 59 96 62 97 60 98
REMARK H PARENT 84 51 52 62
REMARK Flexibility Score: inf
ROOT
ATOM      1  C   UNL A   1      34.356  32.597  27.997  1.00  0.00     0.188 C 
ENDROOT
BRANCH   1   2
ATOM      2  O   UNL A   1      33.904  31.248  28.111  1.00  0.00    -0.377 OA
BRANCH   2   3
ATOM      3  C   UNL A   1      34.000  30.425  26.959  1.00  0.00     0.188 C 
BRANCH   3   4
ATOM      4  C   UNL A   1      33.715  28.938  27.251  1.00  0.00     0.188 C 
BRANCH   4   5
ATOM      5  O   UNL A   1      32.457  28.669  27.835  1.00  0.00    -0.376 OA
BRANCH   5   6
ATOM      6  C   UNL A   1      31.447  27.918  27.183  1.00  0.00     0.202 C 
BRANCH   6   7
ATOM      7  C   UNL A   1      31.562  27.200  25.823  1.00  0.00     0.261 C 
BRANCH   7   8
ATOM      8  O   UNL A   1      31.987  25.842  25.815  1.00  0.00    -0.460 OA
BRANCH   8   9
ATOM      9  C   UNL A   1      33.049  25.541  25.047  1.00  0.00     0.338 C 
ATOM     10  O   UNL A   1      33.885  26.316  24.618  1.00  0.00    -0.246 OA
BRANCH   9  11
ATOM     11  C   UNL A   1      33.133  24.068  24.958  1.00  0.00     0.087 C 
ATOM     12  C   UNL A   1      37.286  19.550  25.002  1.00  0.00     0.044 C 
ATOM     13  C   UNL A   1      35.908  20.137  24.936  1.00  0.00    -0.049 A 
ATOM     14  C   UNL A   1      34.803  19.365  24.565  1.00  0.00     0.028 A 
ATOM     15  C   UNL A   1      35.724  21.496  25.209  1.00  0.00     0.015 A 
ATOM     16  C   UNL A   1      33.532  19.944  24.479  1.00  0.00     0.084 A 
ATOM     17  C   UNL A   1      34.462  22.089  25.068  1.00  0.00     0.019 A 
ATOM     18  Cl  UNL A   1      32.208  18.939  24.006  1.00  0.00    -0.080 Cl
ATOM     19  C   UNL A   1      33.353  21.310  24.729  1.00  0.00     0.146 A 
ATOM     20  C   UNL A   1      34.335  23.528  25.191  1.00  0.00     0.027 C 
ATOM     21  O   UNL A   1      32.092  21.826  24.619  1.00  0.00    -0.474 OA
ATOM     22  C   UNL A   1      31.891  23.264  24.683  1.00  0.00     0.316 C 
BRANCH  22  23
ATOM     23  C   UNL A   1      31.190  23.715  23.395  1.00  0.00     0.430 C 
ATOM     24  F   UNL A   1      32.082  23.982  22.411  1.00  0.00    -0.167 F 
ATOM     25  F   UNL A   1      30.357  22.762  22.913  1.00  0.00    -0.167 F 
ATOM     26  F   UNL A   1      30.453  24.832  23.591  1.00  0.00    -0.167 F 
ENDBRANCH  22  23
ENDBRANCH   9  11
ENDBRANCH   8   9
ENDBRANCH   7   8
ENDBRANCH   6   7
ENDBRANCH   5   6
ENDBRANCH   4   5
ENDBRANCH   3   4
ENDBRANCH   2   3
ENDBRANCH   1   2
BRANCH   1  27
ATOM     27  C   UNL A   1      33.364  33.784  28.056  1.00  0.00     0.188 C 
BRANCH  27  28
ATOM     28  O   UNL A   1      33.182  34.328  29.356  1.00  0.00    -0.376 OA
BRANCH  28  29
ATOM     29  C   UNL A   1      34.310  34.526  30.188  1.00  0.00     0.202 C 
BRANCH  29  30
ATOM     30  C   UNL A   1      34.317  33.778  31.527  1.00  0.00     0.261 C 
BRANCH  30  31
ATOM     31  O   UNL A   1      34.841  32.444  31.492  1.00  0.00    -0.460 OA
BRANCH  31  32
ATOM     32  C   UNL A   1      35.779  32.128  32.406  1.00  0.00     0.338 C 
ATOM     33  O   UNL A   1      35.726  32.302  33.614  1.00  0.00    -0.246 OA
BRANCH  32  34
ATOM     34  C   UNL A   1      36.832  31.357  31.721  1.00  0.00     0.060 A 
ATOM     35  C   UNL A   1      37.662  30.513  32.472  1.00  0.00     0.016 A 
ATOM     36  C   UNL A   1      37.000  31.474  30.340  1.00  0.00     0.016 A 
ATOM     37  C   UNL A   1      38.696  29.817  31.848  1.00  0.00     0.010 A 
ATOM     38  C   UNL A   1      38.051  30.799  29.721  1.00  0.00     0.010 A 
ATOM     39  C   UNL A   1      38.925  29.999  30.478  1.00  0.00    -0.014 A 
BRANCH  39  40
ATOM     40  C   UNL A   1      40.189  29.532  29.867  1.00  0.00     0.031 A 
ATOM     41  C   UNL A   1      41.304  30.526  29.704  1.00  0.00     0.074 A 
ATOM     42  C   UNL A   1      40.341  28.261  29.459  1.00  0.00     0.049 A 
ATOM     43  N   UNL A   1      42.445  30.402  29.077  1.00  0.00    -0.248 NA
ATOM     44  C   UNL A   1      41.102  31.842  30.332  1.00  0.00     0.031 C 
ATOM     45  C   UNL A   1      39.357  27.195  29.629  1.00  0.00     0.029 A 
ATOM     46  N   UNL A   1      41.383  27.660  28.799  1.00  0.00    -0.354 N 
ATOM     47  C   UNL A   1      43.089  31.623  29.228  1.00  0.00     0.074 A 
ATOM     48  C   UNL A   1      42.207  32.483  29.985  1.00  0.00     0.031 C 
ATOM     49  C   UNL A   1      39.835  26.071  29.067  1.00  0.00     0.029 A 
ATOM     50  C   UNL A   1      41.134  26.354  28.458  1.00  0.00     0.049 A 
ATOM     51  H   UNL A   1      42.228  28.121  28.590  1.00  0.00     0.167 HD
ATOM     52  C   UNL A   1      44.310  31.988  28.775  1.00  0.00     0.037 A 
ATOM     53  C   UNL A   1      41.860  25.501  27.709  1.00  0.00     0.037 A 
ATOM     54  C   UNL A   1      45.178  31.125  28.018  1.00  0.00     0.049 A 
ATOM     55  C   UNL A   1      43.176  25.963  27.135  1.00  0.00     0.074 A 
ATOM     56  C   UNL A   1      46.432  31.402  27.503  1.00  0.00     0.029 A 
ATOM     57  N   UNL A   1      44.878  29.817  27.662  1.00  0.00    -0.354 N 
ATOM     58  N   UNL A   1      43.778  27.121  27.264  1.00  0.00    -0.248 NA
ATOM     59  C   UNL A   1      43.917  24.995  26.313  1.00  0.00     0.031 C 
ATOM     60  C   UNL A   1      46.866  30.282  26.788  1.00  0.00     0.029 A 
ATOM     61  C   UNL A   1      45.917  29.282  26.919  1.00  0.00     0.049 A 
ATOM     62  H   UNL A   1      44.051  29.342  27.904  1.00  0.00     0.167 HD
ATOM     63  C   UNL A   1      44.979  27.011  26.575  1.00  0.00     0.074 A 
ATOM     64  C   UNL A   1      45.026  25.666  26.039  1.00  0.00     0.031 C 
ATOM     65  C   UNL A   1      45.956  27.936  26.404  1.00  0.00     0.037 A 
BRANCH  52  66
ATOM     66  C   UNL A   1      44.781  33.383  29.065  1.00  0.00     0.064 A 
ATOM     67  C   UNL A   1      45.450  33.704  30.255  1.00  0.00     0.173 A 
ATOM     68  C   UNL A   1      44.631  34.393  28.103  1.00  0.00     0.173 A 
ATOM     69  F   UNL A   1      45.601  32.779  31.216  1.00  0.00    -0.203 F 
ATOM     70  C   UNL A   1      45.949  34.986  30.473  1.00  0.00     0.198 A 
ATOM     71  C   UNL A   1      45.158  35.665  28.311  1.00  0.00     0.198 A 
ATOM     72  F   UNL A   1      43.997  34.141  26.948  1.00  0.00    -0.203 F 
ATOM     73  F   UNL A   1      46.559  35.277  31.629  1.00  0.00    -0.200 F 
ATOM     74  C   UNL A   1      45.815  35.961  29.496  1.00  0.00     0.200 A 
ATOM     75  F   UNL A   1      45.039  36.601  27.359  1.00  0.00    -0.200 F 
ATOM     76  F   UNL A   1      46.319  37.186  29.695  1.00  0.00    -0.200 F 
ENDBRANCH  52  66
BRANCH  53  77
ATOM     77  C   UNL A   1      41.354  24.127  27.449  1.00  0.00     0.064 A 
ATOM     78  C   UNL A   1      40.249  23.911  26.614  1.00  0.00     0.173 A 
ATOM     79  C   UNL A   1      41.960  23.002  28.030  1.00  0.00     0.173 A 
ATOM     80  F   UNL A   1      39.618  24.954  26.057  1.00  0.00    -0.203 F 
ATOM     81  C   UNL A   1      39.764  22.625  26.378  1.00  0.00     0.198 A 
ATOM     82  C   UNL A   1      41.494  21.716  27.768  1.00  0.00     0.198 A 
ATOM     83  F   UNL A   1      43.017  23.152  28.843  1.00  0.00    -0.203 F 
ATOM     84  F   UNL A   1      38.680  22.452  25.611  1.00  0.00    -0.200 F 
ATOM     85  C   UNL A   1      40.392  21.529  26.947  1.00  0.00     0.200 A 
ATOM     86  F   UNL A   1      42.113  20.658  28.310  1.00  0.00    -0.200 F 
ATOM     87  F   UNL A   1      39.932  20.293  26.712  1.00  0.00    -0.200 F 
ENDBRANCH  53  77
BRANCH  65  88
ATOM     88  C   UNL A   1      47.188  27.519  25.651  1.00  0.00     0.064 A 
ATOM     89  C   UNL A   1      47.320  27.723  24.269  1.00  0.00     0.173 A 
ATOM     90  C   UNL A   1      48.274  26.950  26.335  1.00  0.00     0.173 A 
ATOM     91  F   UNL A   1      46.309  28.255  23.567  1.00  0.00    -0.203 F 
ATOM     92  C   UNL A   1      48.480  27.344  23.597  1.00  0.00     0.198 A 
ATOM     93  C   UNL A   1      49.446  26.608  25.666  1.00  0.00     0.198 A 
ATOM     94  F   UNL A   1      48.209  26.744  27.660  1.00  0.00    -0.203 F 
ATOM     95  F   UNL A   1      48.561  27.498  22.268  1.00  0.00    -0.200 F 
ATOM     96  C   UNL A   1      49.543  26.795  24.297  1.00  0.00     0.200 A 
ATOM     97  F   UNL A   1      50.481  26.098  26.349  1.00  0.00    -0.200 F 
ATOM     98  F   UNL A   1      50.662  26.441  23.649  1.00  0.00    -0.200 F 
ENDBRANCH  65  88
ENDBRANCH  39  40
ENDBRANCH  32  34
ENDBRANCH  31  32
ENDBRANCH  30  31
ENDBRANCH  29  30
ENDBRANCH  28  29
ENDBRANCH  27  28
ENDBRANCH   1  27
TORSDOF 21
ENDMDL
