MODEL 1
REMARK VINA RESULT:      -8.5      0.000      0.000
REMARK SMILES CCCc1c(O)nc(SCCC(=O)OCCOCCOCCOCCOC(=O)c2ccc(-c3c4nc(c(-c5c(F)c(F)c(F)c(F)c5F)c5ccc([nH]5)c(-c5c(F)c(F)c(F)c(F)c5F)c5nc(c(-c6c(F)c(F)c(F)c(F)c6F)c6ccc3[nH]6)C=C5)C=C4)cc2)[nH]c1=O
REMARK SMILES IDX 18 1 17 2 16 3 15 4 14 5 12 6 13 7 11 8 10 9 9 10 8 11 4 12
REMARK SMILES IDX 5 13 93 14 7 15 92 16 94 17 3 19 2 20 1 21 6 22 19 24 20 25
REMARK SMILES IDX 21 26 22 27 23 28 24 29 25 30 26 31 27 32 28 33 29 34 30 35
REMARK SMILES IDX 91 36 31 37 90 38 32 39 33 40 34 41 84 42 35 43 89 44 83 45
REMARK SMILES IDX 85 46 36 47 88 48 82 49 81 50 37 52 69 53 49 54 68 55 50 56
REMARK SMILES IDX 53 57 67 58 86 59 51 60 52 61 66 63 87 64 54 65 38 66 39 67
REMARK SMILES IDX 47 68 40 69 41 70 45 71 48 72 42 73 43 74 46 75 44 76 70 77
REMARK SMILES IDX 71 78 79 79 72 80 73 81 77 82 80 83 74 84 75 85 78 86 76 87
REMARK SMILES IDX 55 88 56 89 64 90 57 91 58 92 62 93 65 94 59 95 60 96 63 97
REMARK SMILES IDX 61 98
REMARK H PARENT 92 18 6 23 85 51 53 62
REMARK Flexibility Score: inf
ROOT
ATOM      1  C   UNL A   1      35.153  24.253  24.704  1.00  0.00     0.188 C 
ENDROOT
BRANCH   1   2
ATOM      2  O   UNL A   1      34.080  24.756  25.504  1.00  0.00    -0.376 OA
BRANCH   2   3
ATOM      3  C   UNL A   1      34.116  26.160  25.769  1.00  0.00     0.202 C 
BRANCH   3   4
ATOM      4  C   UNL A   1      32.757  26.860  25.793  1.00  0.00     0.261 C 
BRANCH   4   5
ATOM      5  O   UNL A   1      32.838  28.003  24.920  1.00  0.00    -0.463 OA
BRANCH   5   6
ATOM      6  C   UNL A   1      31.740  28.283  24.186  1.00  0.00     0.306 C 
ATOM      7  O   UNL A   1      30.745  28.864  24.603  1.00  0.00    -0.252 OA
BRANCH   6   8
ATOM      8  C   UNL A   1      31.898  27.846  22.751  1.00  0.00     0.134 C 
BRANCH   8   9
ATOM      9  C   UNL A   1      30.938  26.735  22.305  1.00  0.00     0.090 C 
BRANCH   9  10
ATOM     10  S   UNL A   1      30.082  25.956  23.704  1.00  0.00    -0.087 SA
BRANCH  10  11
ATOM     11  C   UNL A   1      30.860  24.418  23.923  1.00  0.00     0.171 A 
ATOM     12  C   UNL A   1      32.214  22.039  23.882  1.00  0.00     0.079 A 
ATOM     13  C   UNL A   1      31.408  22.442  24.872  1.00  0.00     0.222 A 
ATOM     14  C   UNL A   1      32.422  23.020  22.792  1.00  0.00     0.258 A 
ATOM     15  N   UNL A   1      30.687  23.608  24.911  1.00  0.00    -0.189 NA
ATOM     16  N   UNL A   1      31.708  24.172  22.892  1.00  0.00    -0.301 N 
ATOM     17  O   UNL A   1      33.190  22.816  21.858  1.00  0.00    -0.269 OA
ATOM     18  H   UNL A   1      31.809  24.855  22.191  1.00  0.00     0.172 HD
BRANCH  12  19
ATOM     19  C   UNL A   1      32.887  20.692  23.747  1.00  0.00     0.047 C 
BRANCH  19  20
ATOM     20  C   UNL A   1      32.152  19.549  23.016  1.00  0.00     0.002 C 
ATOM     21  C   UNL A   1      32.538  18.146  23.479  1.00  0.00     0.004 C 
ENDBRANCH  19  20
ENDBRANCH  12  19
BRANCH  13  22
ATOM     22  O   UNL A   1      31.214  21.597  25.932  1.00  0.00    -0.493 OA
ATOM     23  H   UNL A   1      31.272  20.670  25.809  1.00  0.00     0.295 HD
ENDBRANCH  13  22
ENDBRANCH  10  11
ENDBRANCH   9  10
ENDBRANCH   8   9
ENDBRANCH   6   8
ENDBRANCH   5   6
ENDBRANCH   4   5
ENDBRANCH   3   4
ENDBRANCH   2   3
ENDBRANCH   1   2
BRANCH   1  24
ATOM     24  C   UNL A   1      36.502  24.151  25.438  1.00  0.00     0.188 C 
BRANCH  24  25
ATOM     25  O   UNL A   1      37.316  23.048  25.024  1.00  0.00    -0.377 OA
BRANCH  25  26
ATOM     26  C   UNL A   1      36.592  21.979  24.438  1.00  0.00     0.188 C 
BRANCH  26  27
ATOM     27  C   UNL A   1      36.205  20.750  25.266  1.00  0.00     0.188 C 
BRANCH  27  28
ATOM     28  O   UNL A   1      36.726  19.489  24.901  1.00  0.00    -0.376 OA
BRANCH  28  29
ATOM     29  C   UNL A   1      38.142  19.380  24.823  1.00  0.00     0.202 C 
BRANCH  29  30
ATOM     30  C   UNL A   1      39.003  20.150  25.834  1.00  0.00     0.261 C 
BRANCH  30  31
ATOM     31  O   UNL A   1      40.418  19.871  25.801  1.00  0.00    -0.460 OA
BRANCH  31  32
ATOM     32  C   UNL A   1      41.048  20.019  26.988  1.00  0.00     0.338 C 
ATOM     33  O   UNL A   1      40.937  19.295  27.979  1.00  0.00    -0.246 OA
BRANCH  32  34
ATOM     34  C   UNL A   1      41.970  21.164  27.009  1.00  0.00     0.060 A 
ATOM     35  C   UNL A   1      42.540  21.539  28.231  1.00  0.00     0.016 A 
ATOM     36  C   UNL A   1      42.029  22.025  25.910  1.00  0.00     0.016 A 
ATOM     37  C   UNL A   1      43.094  22.814  28.383  1.00  0.00     0.010 A 
ATOM     38  C   UNL A   1      42.587  23.302  26.063  1.00  0.00     0.010 A 
ATOM     39  C   UNL A   1      43.063  23.726  27.318  1.00  0.00    -0.014 A 
BRANCH  39  40
ATOM     40  C   UNL A   1      43.335  25.169  27.567  1.00  0.00     0.031 A 
ATOM     41  C   UNL A   1      44.694  25.729  27.235  1.00  0.00     0.074 A 
ATOM     42  C   UNL A   1      42.386  25.988  28.051  1.00  0.00     0.049 A 
ATOM     43  N   UNL A   1      45.159  26.944  27.400  1.00  0.00    -0.248 NA
ATOM     44  C   UNL A   1      45.662  24.794  26.640  1.00  0.00     0.031 C 
ATOM     45  C   UNL A   1      41.021  25.594  28.378  1.00  0.00     0.029 A 
ATOM     46  N   UNL A   1      42.435  27.327  28.357  1.00  0.00    -0.354 N 
ATOM     47  C   UNL A   1      46.468  26.916  26.936  1.00  0.00     0.074 A 
ATOM     48  C   UNL A   1      46.736  25.558  26.513  1.00  0.00     0.031 C 
ATOM     49  C   UNL A   1      40.358  26.665  28.846  1.00  0.00     0.029 A 
ATOM     50  C   UNL A   1      41.262  27.814  28.879  1.00  0.00     0.049 A 
ATOM     51  H   UNL A   1      43.234  27.883  28.216  1.00  0.00     0.167 HD
ATOM     52  C   UNL A   1      47.365  27.930  26.857  1.00  0.00     0.037 A 
ATOM     53  C   UNL A   1      40.958  29.041  29.345  1.00  0.00     0.037 A 
ATOM     54  C   UNL A   1      47.108  29.286  27.266  1.00  0.00     0.049 A 
ATOM     55  C   UNL A   1      41.991  30.137  29.304  1.00  0.00     0.074 A 
ATOM     56  C   UNL A   1      47.954  30.380  27.207  1.00  0.00     0.029 A 
ATOM     57  N   UNL A   1      45.915  29.733  27.814  1.00  0.00    -0.354 N 
ATOM     58  N   UNL A   1      43.218  30.106  28.846  1.00  0.00    -0.248 NA
ATOM     59  C   UNL A   1      41.590  31.447  29.842  1.00  0.00     0.031 C 
ATOM     60  C   UNL A   1      47.287  31.481  27.758  1.00  0.00     0.029 A 
ATOM     61  C   UNL A   1      46.010  31.083  28.115  1.00  0.00     0.049 A 
ATOM     62  H   UNL A   1      45.118  29.175  27.964  1.00  0.00     0.167 HD
ATOM     63  C   UNL A   1      43.722  31.390  29.009  1.00  0.00     0.074 A 
ATOM     64  C   UNL A   1      42.666  32.183  29.601  1.00  0.00     0.031 C 
ATOM     65  C   UNL A   1      44.951  31.869  28.693  1.00  0.00     0.037 A 
BRANCH  52  66
ATOM     66  C   UNL A   1      48.728  27.603  26.321  1.00  0.00     0.064 A 
ATOM     67  C   UNL A   1      48.991  27.585  24.943  1.00  0.00     0.173 A 
ATOM     68  C   UNL A   1      49.790  27.338  27.197  1.00  0.00     0.173 A 
ATOM     69  F   UNL A   1      48.006  27.821  24.065  1.00  0.00    -0.203 F 
ATOM     70  C   UNL A   1      50.264  27.286  24.463  1.00  0.00     0.198 A 
ATOM     71  C   UNL A   1      51.067  27.066  26.714  1.00  0.00     0.198 A 
ATOM     72  F   UNL A   1      49.592  27.350  28.524  1.00  0.00    -0.203 F 
ATOM     73  F   UNL A   1      50.484  27.232  23.141  1.00  0.00    -0.200 F 
ATOM     74  C   UNL A   1      51.301  27.034  25.347  1.00  0.00     0.200 A 
ATOM     75  F   UNL A   1      52.072  26.835  27.571  1.00  0.00    -0.200 F 
ATOM     76  F   UNL A   1      52.527  26.753  24.883  1.00  0.00    -0.200 F 
ENDBRANCH  52  66
BRANCH  53  77
ATOM     77  C   UNL A   1      39.606  29.303  29.903  1.00  0.00     0.064 A 
ATOM     78  C   UNL A   1      38.559  29.743  29.082  1.00  0.00     0.173 A 
ATOM     79  C   UNL A   1      39.344  29.151  31.273  1.00  0.00     0.173 A 
ATOM     80  F   UNL A   1      38.771  29.939  27.773  1.00  0.00    -0.203 F 
ATOM     81  C   UNL A   1      37.305  30.039  29.614  1.00  0.00     0.198 A 
ATOM     82  C   UNL A   1      38.083  29.419  31.798  1.00  0.00     0.198 A 
ATOM     83  F   UNL A   1      40.317  28.744  32.102  1.00  0.00    -0.203 F 
ATOM     84  F   UNL A   1      36.337  30.511  28.817  1.00  0.00    -0.200 F 
ATOM     85  C   UNL A   1      37.066  29.871  30.970  1.00  0.00     0.200 A 
ATOM     86  F   UNL A   1      37.855  29.256  33.109  1.00  0.00    -0.200 F 
ATOM     87  F   UNL A   1      35.863  30.163  31.481  1.00  0.00    -0.200 F 
ENDBRANCH  53  77
BRANCH  65  88
ATOM     88  C   UNL A   1      45.212  33.328  28.939  1.00  0.00     0.064 A 
ATOM     89  C   UNL A   1      44.866  34.309  27.997  1.00  0.00     0.173 A 
ATOM     90  C   UNL A   1      45.782  33.754  30.149  1.00  0.00     0.173 A 
ATOM     91  F   UNL A   1      44.329  33.954  26.820  1.00  0.00    -0.203 F 
ATOM     92  C   UNL A   1      45.105  35.658  28.247  1.00  0.00     0.198 A 
ATOM     93  C   UNL A   1      45.995  35.106  30.406  1.00  0.00     0.198 A 
ATOM     94  F   UNL A   1      46.124  32.858  31.086  1.00  0.00    -0.203 F 
ATOM     95  F   UNL A   1      44.808  36.573  27.313  1.00  0.00    -0.200 F 
ATOM     96  C   UNL A   1      45.663  36.056  29.452  1.00  0.00     0.200 A 
ATOM     97  F   UNL A   1      46.522  35.489  31.577  1.00  0.00    -0.200 F 
ATOM     98  F   UNL A   1      45.889  37.355  29.693  1.00  0.00    -0.200 F 
ENDBRANCH  65  88
ENDBRANCH  39  40
ENDBRANCH  32  34
ENDBRANCH  31  32
ENDBRANCH  30  31
ENDBRANCH  29  30
ENDBRANCH  28  29
ENDBRANCH  27  28
ENDBRANCH  26  27
ENDBRANCH  25  26
ENDBRANCH  24  25
ENDBRANCH   1  24
TORSDOF 26
ENDMDL
MODEL 2
REMARK VINA RESULT:      -8.4      5.395     10.553
REMARK SMILES CCCc1c(O)nc(SCCC(=O)OCCOCCOCCOCCOC(=O)c2ccc(-c3c4nc(c(-c5c(F)c(F)c(F)c(F)c5F)c5ccc([nH]5)c(-c5c(F)c(F)c(F)c(F)c5F)c5nc(c(-c6c(F)c(F)c(F)c(F)c6F)c6ccc3[nH]6)C=C5)C=C4)cc2)[nH]c1=O
REMARK SMILES IDX 18 1 17 2 16 3 15 4 14 5 12 6 13 7 11 8 10 9 9 10 8 11 4 12
REMARK SMILES IDX 5 13 93 14 7 15 92 16 94 17 3 19 2 20 1 21 6 22 19 24 20 25
REMARK SMILES IDX 21 26 22 27 23 28 24 29 25 30 26 31 27 32 28 33 29 34 30 35
REMARK SMILES IDX 91 36 31 37 90 38 32 39 33 40 34 41 84 42 35 43 89 44 83 45
REMARK SMILES IDX 85 46 36 47 88 48 82 49 81 50 37 52 69 53 49 54 68 55 50 56
REMARK SMILES IDX 53 57 67 58 86 59 51 60 52 61 66 63 87 64 54 65 38 66 39 67
REMARK SMILES IDX 47 68 40 69 41 70 45 71 48 72 42 73 43 74 46 75 44 76 70 77
REMARK SMILES IDX 71 78 79 79 72 80 73 81 77 82 80 83 74 84 75 85 78 86 76 87
REMARK SMILES IDX 55 88 56 89 64 90 57 91 58 92 62 93 65 94 59 95 60 96 63 97
REMARK SMILES IDX 61 98
REMARK H PARENT 92 18 6 23 85 51 53 62
REMARK Flexibility Score: inf
ROOT
ATOM      1  C   UNL A   1      47.545  27.492  26.281  1.00  0.00     0.188 C 
ENDROOT
BRANCH   1   2
ATOM      2  O   UNL A   1      46.854  26.242  26.343  1.00  0.00    -0.376 OA
BRANCH   2   3
ATOM      3  C   UNL A   1      45.435  26.331  26.485  1.00  0.00     0.202 C 
BRANCH   3   4
ATOM      4  C   UNL A   1      44.630  26.099  25.206  1.00  0.00     0.261 C 
BRANCH   4   5
ATOM      5  O   UNL A   1      43.253  25.909  25.585  1.00  0.00    -0.463 OA
BRANCH   5   6
ATOM      6  C   UNL A   1      42.416  26.947  25.368  1.00  0.00     0.306 C 
ATOM      7  O   UNL A   1      42.594  27.833  24.542  1.00  0.00    -0.252 OA
BRANCH   6   8
ATOM      8  C   UNL A   1      41.184  26.862  26.234  1.00  0.00     0.134 C 
BRANCH   8   9
ATOM      9  C   UNL A   1      40.406  25.544  26.124  1.00  0.00     0.090 C 
BRANCH   9  10
ATOM     10  S   UNL A   1      40.384  24.620  27.687  1.00  0.00    -0.087 SA
BRANCH  10  11
ATOM     11  C   UNL A   1      41.000  23.043  27.299  1.00  0.00     0.171 A 
ATOM     12  C   UNL A   1      42.104  20.728  26.342  1.00  0.00     0.079 A 
ATOM     13  C   UNL A   1      41.341  20.814  27.438  1.00  0.00     0.222 A 
ATOM     14  C   UNL A   1      42.415  22.017  25.682  1.00  0.00     0.258 A 
ATOM     15  N   UNL A   1      40.743  21.946  27.926  1.00  0.00    -0.189 NA
ATOM     16  N   UNL A   1      41.822  23.114  26.222  1.00  0.00    -0.301 N 
ATOM     17  O   UNL A   1      43.162  22.098  24.712  1.00  0.00    -0.269 OA
ATOM     18  H   UNL A   1      41.995  23.994  25.816  1.00  0.00     0.172 HD
BRANCH  12  19
ATOM     19  C   UNL A   1      42.637  19.467  25.699  1.00  0.00     0.047 C 
BRANCH  19  20
ATOM     20  C   UNL A   1      43.956  19.526  24.899  1.00  0.00     0.002 C 
ATOM     21  C   UNL A   1      45.076  18.650  25.455  1.00  0.00     0.004 C 
ENDBRANCH  19  20
ENDBRANCH  12  19
BRANCH  13  22
ATOM     22  O   UNL A   1      41.058  19.660  28.120  1.00  0.00    -0.493 OA
ATOM     23  H   UNL A   1      40.560  18.982  27.707  1.00  0.00     0.295 HD
ENDBRANCH  13  22
ENDBRANCH  10  11
ENDBRANCH   9  10
ENDBRANCH   8   9
ENDBRANCH   6   8
ENDBRANCH   5   6
ENDBRANCH   4   5
ENDBRANCH   3   4
ENDBRANCH   2   3
ENDBRANCH   1   2
BRANCH   1  24
ATOM     24  C   UNL A   1      48.481  27.643  25.069  1.00  0.00     0.188 C 
BRANCH  24  25
ATOM     25  O   UNL A   1      49.745  28.245  25.371  1.00  0.00    -0.377 OA
BRANCH  25  26
ATOM     26  C   UNL A   1      49.935  28.536  26.746  1.00  0.00     0.188 C 
BRANCH  26  27
ATOM     27  C   UNL A   1      51.305  28.979  27.270  1.00  0.00     0.188 C 
BRANCH  27  28
ATOM     28  O   UNL A   1      52.422  28.903  26.410  1.00  0.00    -0.376 OA
BRANCH  28  29
ATOM     29  C   UNL A   1      52.823  30.109  25.772  1.00  0.00     0.202 C 
BRANCH  29  30
ATOM     30  C   UNL A   1      53.211  31.315  26.640  1.00  0.00     0.261 C 
BRANCH  30  31
ATOM     31  O   UNL A   1      52.687  32.592  26.218  1.00  0.00    -0.460 OA
BRANCH  31  32
ATOM     32  C   UNL A   1      52.021  33.270  27.179  1.00  0.00     0.338 C 
ATOM     33  O   UNL A   1      52.325  34.364  27.659  1.00  0.00    -0.246 OA
BRANCH  32  34
ATOM     34  C   UNL A   1      50.797  32.584  27.622  1.00  0.00     0.060 A 
ATOM     35  C   UNL A   1      49.822  32.277  26.666  1.00  0.00     0.016 A 
ATOM     36  C   UNL A   1      50.493  32.522  28.984  1.00  0.00     0.016 A 
ATOM     37  C   UNL A   1      48.514  31.991  27.068  1.00  0.00     0.010 A 
ATOM     38  C   UNL A   1      49.181  32.234  29.385  1.00  0.00     0.010 A 
ATOM     39  C   UNL A   1      48.170  32.031  28.426  1.00  0.00    -0.014 A 
BRANCH  39  40
ATOM     40  C   UNL A   1      46.738  32.065  28.831  1.00  0.00     0.031 A 
ATOM     41  C   UNL A   1      46.084  30.802  29.330  1.00  0.00     0.074 A 
ATOM     42  C   UNL A   1      46.024  33.203  28.791  1.00  0.00     0.049 A 
ATOM     43  N   UNL A   1      44.844  30.595  29.702  1.00  0.00    -0.248 NA
ATOM     44  C   UNL A   1      46.942  29.610  29.418  1.00  0.00     0.031 C 
ATOM     45  C   UNL A   1      46.536  34.503  28.371  1.00  0.00     0.029 A 
ATOM     46  N   UNL A   1      44.708  33.443  29.106  1.00  0.00    -0.354 N 
ATOM     47  C   UNL A   1      44.774  29.254  30.061  1.00  0.00     0.074 A 
ATOM     48  C   UNL A   1      46.086  28.688  29.832  1.00  0.00     0.031 C 
ATOM     49  C   UNL A   1      45.544  35.406  28.447  1.00  0.00     0.029 A 
ATOM     50  C   UNL A   1      44.320  34.742  28.893  1.00  0.00     0.049 A 
ATOM     51  H   UNL A   1      44.102  32.748  29.451  1.00  0.00     0.167 HD
ATOM     52  C   UNL A   1      43.718  28.558  30.549  1.00  0.00     0.037 A 
ATOM     53  C   UNL A   1      43.113  35.325  29.027  1.00  0.00     0.037 A 
ATOM     54  C   UNL A   1      42.411  29.112  30.790  1.00  0.00     0.049 A 
ATOM     55  C   UNL A   1      41.938  34.517  29.512  1.00  0.00     0.074 A 
ATOM     56  C   UNL A   1      41.287  28.483  31.296  1.00  0.00     0.029 A 
ATOM     57  N   UNL A   1      42.052  30.427  30.536  1.00  0.00    -0.354 N 
ATOM     58  N   UNL A   1      41.886  33.256  29.867  1.00  0.00    -0.248 NA
ATOM     59  C   UNL A   1      40.649  35.218  29.622  1.00  0.00     0.031 C 
ATOM     60  C   UNL A   1      40.236  29.406  31.311  1.00  0.00     0.029 A 
ATOM     61  C   UNL A   1      40.717  30.623  30.859  1.00  0.00     0.049 A 
ATOM     62  H   UNL A   1      42.655  31.120  30.183  1.00  0.00     0.167 HD
ATOM     63  C   UNL A   1      40.578  33.023  30.271  1.00  0.00     0.074 A 
ATOM     64  C   UNL A   1      39.866  34.276  30.126  1.00  0.00     0.031 C 
ATOM     65  C   UNL A   1      40.018  31.874  30.723  1.00  0.00     0.037 A 
BRANCH  52  66
ATOM     66  C   UNL A   1      43.928  27.101  30.839  1.00  0.00     0.064 A 
ATOM     67  C   UNL A   1      44.379  26.658  32.091  1.00  0.00     0.173 A 
ATOM     68  C   UNL A   1      43.644  26.135  29.863  1.00  0.00     0.173 A 
ATOM     69  F   UNL A   1      44.676  27.544  33.054  1.00  0.00    -0.203 F 
ATOM     70  C   UNL A   1      44.563  25.301  32.346  1.00  0.00     0.198 A 
ATOM     71  C   UNL A   1      43.804  24.778  30.130  1.00  0.00     0.198 A 
ATOM     72  F   UNL A   1      43.204  26.506  28.651  1.00  0.00    -0.203 F 
ATOM     73  F   UNL A   1      45.036  24.903  33.535  1.00  0.00    -0.200 F 
ATOM     74  C   UNL A   1      44.269  24.363  31.368  1.00  0.00     0.200 A 
ATOM     75  F   UNL A   1      43.506  23.871  29.188  1.00  0.00    -0.200 F 
ATOM     76  F   UNL A   1      44.441  23.057  31.618  1.00  0.00    -0.200 F 
ENDBRANCH  52  66
BRANCH  53  77
ATOM     77  C   UNL A   1      42.947  36.763  28.689  1.00  0.00     0.064 A 
ATOM     78  C   UNL A   1      43.314  37.765  29.597  1.00  0.00     0.173 A 
ATOM     79  C   UNL A   1      42.389  37.160  27.465  1.00  0.00     0.173 A 
ATOM     80  F   UNL A   1      43.818  37.433  30.794  1.00  0.00    -0.203 F 
ATOM     81  C   UNL A   1      43.110  39.112  29.301  1.00  0.00     0.198 A 
ATOM     82  C   UNL A   1      42.213  38.507  27.159  1.00  0.00     0.198 A 
ATOM     83  F   UNL A   1      42.010  36.238  26.568  1.00  0.00    -0.203 F 
ATOM     84  F   UNL A   1      43.417  40.048  30.208  1.00  0.00    -0.200 F 
ATOM     85  C   UNL A   1      42.565  39.482  28.080  1.00  0.00     0.200 A 
ATOM     86  F   UNL A   1      41.686  38.861  25.978  1.00  0.00    -0.200 F 
ATOM     87  F   UNL A   1      42.363  40.776  27.799  1.00  0.00    -0.200 F 
ENDBRANCH  53  77
BRANCH  65  88
ATOM     88  C   UNL A   1      38.575  31.922  31.139  1.00  0.00     0.064 A 
ATOM     89  C   UNL A   1      37.534  31.743  30.215  1.00  0.00     0.173 A 
ATOM     90  C   UNL A   1      38.230  32.112  32.486  1.00  0.00     0.173 A 
ATOM     91  F   UNL A   1      37.809  31.571  28.914  1.00  0.00    -0.203 F 
ATOM     92  C   UNL A   1      36.202  31.780  30.621  1.00  0.00     0.198 A 
ATOM     93  C   UNL A   1      36.898  32.121  32.892  1.00  0.00     0.198 A 
ATOM     94  F   UNL A   1      39.186  32.279  33.411  1.00  0.00    -0.203 F 
ATOM     95  F   UNL A   1      35.223  31.653  29.714  1.00  0.00    -0.200 F 
ATOM     96  C   UNL A   1      35.885  31.962  31.959  1.00  0.00     0.200 A 
ATOM     97  F   UNL A   1      36.595  32.283  34.188  1.00  0.00    -0.200 F 
ATOM     98  F   UNL A   1      34.603  31.992  32.348  1.00  0.00    -0.200 F 
ENDBRANCH  65  88
ENDBRANCH  39  40
ENDBRANCH  32  34
ENDBRANCH  31  32
ENDBRANCH  30  31
ENDBRANCH  29  30
ENDBRANCH  28  29
ENDBRANCH  27  28
ENDBRANCH  26  27
ENDBRANCH  25  26
ENDBRANCH  24  25
ENDBRANCH   1  24
TORSDOF 26
ENDMDL
MODEL 3
REMARK VINA RESULT:      -8.4      5.257      9.241
REMARK SMILES CCCc1c(O)nc(SCCC(=O)OCCOCCOCCOCCOC(=O)c2ccc(-c3c4nc(c(-c5c(F)c(F)c(F)c(F)c5F)c5ccc([nH]5)c(-c5c(F)c(F)c(F)c(F)c5F)c5nc(c(-c6c(F)c(F)c(F)c(F)c6F)c6ccc3[nH]6)C=C5)C=C4)cc2)[nH]c1=O
REMARK SMILES IDX 18 1 17 2 16 3 15 4 14 5 12 6 13 7 11 8 10 9 9 10 8 11 4 12
REMARK SMILES IDX 5 13 93 14 7 15 92 16 94 17 3 19 2 20 1 21 6 22 19 24 20 25
REMARK SMILES IDX 21 26 22 27 23 28 24 29 25 30 26 31 27 32 28 33 29 34 30 35
REMARK SMILES IDX 91 36 31 37 90 38 32 39 33 40 34 41 84 42 35 43 89 44 83 45
REMARK SMILES IDX 85 46 36 47 88 48 82 49 81 50 37 52 69 53 49 54 68 55 50 56
REMARK SMILES IDX 53 57 67 58 86 59 51 60 52 61 66 63 87 64 54 65 38 66 39 67
REMARK SMILES IDX 47 68 40 69 41 70 45 71 48 72 42 73 43 74 46 75 44 76 70 77
REMARK SMILES IDX 71 78 79 79 72 80 73 81 77 82 80 83 74 84 75 85 78 86 76 87
REMARK SMILES IDX 55 88 56 89 64 90 57 91 58 92 62 93 65 94 59 95 60 96 63 97
REMARK SMILES IDX 61 98
REMARK H PARENT 92 18 6 23 85 51 53 62
REMARK Flexibility Score: inf
ROOT
ATOM      1  C   UNL A   1      39.679  26.165  27.780  1.00  0.00     0.188 C 
ENDROOT
BRANCH   1   2
ATOM      2  O   UNL A   1      39.181  26.518  29.073  1.00  0.00    -0.376 OA
BRANCH   2   3
ATOM      3  C   UNL A   1      40.036  27.355  29.854  1.00  0.00     0.202 C 
BRANCH   3   4
ATOM      4  C   UNL A   1      39.341  28.500  30.591  1.00  0.00     0.261 C 
BRANCH   4   5
ATOM      5  O   UNL A   1      38.317  29.021  29.722  1.00  0.00    -0.463 OA
BRANCH   5   6
ATOM      6  C   UNL A   1      38.510  30.267  29.236  1.00  0.00     0.306 C 
ATOM      7  O   UNL A   1      39.442  31.002  29.539  1.00  0.00    -0.252 OA
BRANCH   6   8
ATOM      8  C   UNL A   1      37.464  30.638  28.214  1.00  0.00     0.134 C 
BRANCH   8   9
ATOM      9  C   UNL A   1      36.219  29.741  28.210  1.00  0.00     0.090 C 
BRANCH   9  10
ATOM     10  S   UNL A   1      34.711  30.653  27.773  1.00  0.00    -0.087 SA
BRANCH  10  11
ATOM     11  C   UNL A   1      34.741  32.089  28.748  1.00  0.00     0.171 A 
ATOM     12  C   UNL A   1      34.725  34.104  30.602  1.00  0.00     0.079 A 
ATOM     13  C   UNL A   1      34.744  34.286  29.276  1.00  0.00     0.222 A 
ATOM     14  C   UNL A   1      34.805  32.695  31.051  1.00  0.00     0.258 A 
ATOM     15  N   UNL A   1      34.716  33.305  28.320  1.00  0.00    -0.189 NA
ATOM     16  N   UNL A   1      34.805  31.761  30.063  1.00  0.00    -0.301 N 
ATOM     17  O   UNL A   1      34.870  32.382  32.235  1.00  0.00    -0.269 OA
ATOM     18  H   UNL A   1      34.853  30.810  30.311  1.00  0.00     0.172 HD
BRANCH  12  19
ATOM     19  C   UNL A   1      34.593  35.170  31.666  1.00  0.00     0.047 C 
BRANCH  19  20
ATOM     20  C   UNL A   1      33.200  35.761  31.975  1.00  0.00     0.002 C 
ATOM     21  C   UNL A   1      33.117  37.282  31.862  1.00  0.00     0.004 C 
ENDBRANCH  19  20
ENDBRANCH  12  19
BRANCH  13  22
ATOM     22  O   UNL A   1      34.720  35.571  28.800  1.00  0.00    -0.493 OA
ATOM     23  H   UNL A   1      35.067  35.762  27.952  1.00  0.00     0.295 HD
ENDBRANCH  13  22
ENDBRANCH  10  11
ENDBRANCH   9  10
ENDBRANCH   8   9
ENDBRANCH   6   8
ENDBRANCH   5   6
ENDBRANCH   4   5
ENDBRANCH   3   4
ENDBRANCH   2   3
ENDBRANCH   1   2
BRANCH   1  24
ATOM     24  C   UNL A   1      39.604  24.662  27.457  1.00  0.00     0.188 C 
BRANCH  24  25
ATOM     25  O   UNL A   1      40.878  24.023  27.326  1.00  0.00    -0.377 OA
BRANCH  25  26
ATOM     26  C   UNL A   1      40.825  22.607  27.382  1.00  0.00     0.188 C 
BRANCH  26  27
ATOM     27  C   UNL A   1      41.069  21.764  26.127  1.00  0.00     0.188 C 
BRANCH  27  28
ATOM     28  O   UNL A   1      42.257  21.964  25.390  1.00  0.00    -0.376 OA
BRANCH  28  29
ATOM     29  C   UNL A   1      43.480  21.886  26.113  1.00  0.00     0.202 C 
BRANCH  29  30
ATOM     30  C   UNL A   1      44.518  23.004  25.941  1.00  0.00     0.261 C 
BRANCH  30  31
ATOM     31  O   UNL A   1      44.033  24.234  25.366  1.00  0.00    -0.460 OA
BRANCH  31  32
ATOM     32  C   UNL A   1      44.998  25.128  25.057  1.00  0.00     0.338 C 
ATOM     33  O   UNL A   1      46.009  24.922  24.381  1.00  0.00    -0.246 OA
BRANCH  32  34
ATOM     34  C   UNL A   1      44.726  26.472  25.588  1.00  0.00     0.060 A 
ATOM     35  C   UNL A   1      45.801  27.227  26.074  1.00  0.00     0.016 A 
ATOM     36  C   UNL A   1      43.412  26.849  25.877  1.00  0.00     0.016 A 
ATOM     37  C   UNL A   1      45.565  28.312  26.923  1.00  0.00     0.010 A 
ATOM     38  C   UNL A   1      43.179  27.939  26.727  1.00  0.00     0.010 A 
ATOM     39  C   UNL A   1      44.256  28.636  27.306  1.00  0.00    -0.014 A 
BRANCH  39  40
ATOM     40  C   UNL A   1      44.022  29.554  28.455  1.00  0.00     0.031 A 
ATOM     41  C   UNL A   1      43.811  28.973  29.830  1.00  0.00     0.074 A 
ATOM     42  C   UNL A   1      44.025  30.889  28.298  1.00  0.00     0.049 A 
ATOM     43  N   UNL A   1      43.558  29.582  30.963  1.00  0.00    -0.248 NA
ATOM     44  C   UNL A   1      43.892  27.509  29.943  1.00  0.00     0.031 C 
ATOM     45  C   UNL A   1      44.256  31.588  27.039  1.00  0.00     0.029 A 
ATOM     46  N   UNL A   1      43.822  31.895  29.213  1.00  0.00    -0.354 N 
ATOM     47  C   UNL A   1      43.446  28.578  31.917  1.00  0.00     0.074 A 
ATOM     48  C   UNL A   1      43.625  27.319  31.226  1.00  0.00     0.031 C 
ATOM     49  C   UNL A   1      44.175  32.912  27.256  1.00  0.00     0.029 A 
ATOM     50  C   UNL A   1      43.859  33.152  28.663  1.00  0.00     0.049 A 
ATOM     51  H   UNL A   1      43.665  31.729  30.170  1.00  0.00     0.167 HD
ATOM     52  C   UNL A   1      43.225  28.691  33.249  1.00  0.00     0.037 A 
ATOM     53  C   UNL A   1      43.645  34.358  29.226  1.00  0.00     0.037 A 
ATOM     54  C   UNL A   1      43.054  29.937  33.950  1.00  0.00     0.049 A 
ATOM     55  C   UNL A   1      43.341  34.455  30.698  1.00  0.00     0.074 A 
ATOM     56  C   UNL A   1      42.841  30.145  35.302  1.00  0.00     0.029 A 
ATOM     57  N   UNL A   1      43.072  31.188  33.352  1.00  0.00    -0.354 N 
ATOM     58  N   UNL A   1      43.256  33.502  31.594  1.00  0.00    -0.248 NA
ATOM     59  C   UNL A   1      43.107  35.802  31.240  1.00  0.00     0.031 C 
ATOM     60  C   UNL A   1      42.689  31.520  35.516  1.00  0.00     0.029 A 
ATOM     61  C   UNL A   1      42.855  32.171  34.305  1.00  0.00     0.049 A 
ATOM     62  H   UNL A   1      43.220  31.353  32.393  1.00  0.00     0.167 HD
ATOM     63  C   UNL A   1      42.994  34.133  32.804  1.00  0.00     0.074 A 
ATOM     64  C   UNL A   1      42.941  35.554  32.531  1.00  0.00     0.031 C 
ATOM     65  C   UNL A   1      42.815  33.584  34.030  1.00  0.00     0.037 A 
BRANCH  52  66
ATOM     66  C   UNL A   1      43.135  27.420  34.043  1.00  0.00     0.064 A 
ATOM     67  C   UNL A   1      44.283  26.751  34.492  1.00  0.00     0.173 A 
ATOM     68  C   UNL A   1      41.885  26.885  34.385  1.00  0.00     0.173 A 
ATOM     69  F   UNL A   1      45.501  27.217  34.180  1.00  0.00    -0.203 F 
ATOM     70  C   UNL A   1      44.182  25.576  35.233  1.00  0.00     0.198 A 
ATOM     71  C   UNL A   1      41.788  25.724  35.149  1.00  0.00     0.198 A 
ATOM     72  F   UNL A   1      40.757  27.491  33.986  1.00  0.00    -0.203 F 
ATOM     73  F   UNL A   1      45.292  24.929  35.615  1.00  0.00    -0.200 F 
ATOM     74  C   UNL A   1      42.935  25.068  35.566  1.00  0.00     0.200 A 
ATOM     75  F   UNL A   1      40.582  25.242  35.482  1.00  0.00    -0.200 F 
ATOM     76  F   UNL A   1      42.840  23.940  36.285  1.00  0.00    -0.200 F 
ENDBRANCH  52  66
BRANCH  53  77
ATOM     77  C   UNL A   1      43.707  35.584  28.389  1.00  0.00     0.064 A 
ATOM     78  C   UNL A   1      44.930  36.210  28.113  1.00  0.00     0.173 A 
ATOM     79  C   UNL A   1      42.540  36.171  27.876  1.00  0.00     0.173 A 
ATOM     80  F   UNL A   1      46.068  35.706  28.612  1.00  0.00    -0.203 F 
ATOM     81  C   UNL A   1      44.982  37.388  27.371  1.00  0.00     0.198 A 
ATOM     82  C   UNL A   1      42.597  37.333  27.111  1.00  0.00     0.198 A 
ATOM     83  F   UNL A   1      41.344  35.616  28.123  1.00  0.00    -0.203 F 
ATOM     84  F   UNL A   1      46.158  37.997  27.169  1.00  0.00    -0.200 F 
ATOM     85  C   UNL A   1      43.816  37.945  26.866  1.00  0.00     0.200 A 
ATOM     86  F   UNL A   1      41.469  37.869  26.625  1.00  0.00    -0.200 F 
ATOM     87  F   UNL A   1      43.867  39.083  26.160  1.00  0.00    -0.200 F 
ENDBRANCH  53  77
BRANCH  65  88
ATOM     88  C   UNL A   1      42.590  34.519  35.184  1.00  0.00     0.064 A 
ATOM     89  C   UNL A   1      43.655  35.021  35.947  1.00  0.00     0.173 A 
ATOM     90  C   UNL A   1      41.293  34.948  35.507  1.00  0.00     0.173 A 
ATOM     91  F   UNL A   1      44.912  34.632  35.687  1.00  0.00    -0.203 F 
ATOM     92  C   UNL A   1      43.427  35.896  37.007  1.00  0.00     0.198 A 
ATOM     93  C   UNL A   1      41.072  35.844  36.550  1.00  0.00     0.198 A 
ATOM     94  F   UNL A   1      40.240  34.505  34.805  1.00  0.00    -0.203 F 
ATOM     95  F   UNL A   1      44.456  36.326  37.750  1.00  0.00    -0.200 F 
ATOM     96  C   UNL A   1      42.138  36.312  37.303  1.00  0.00     0.200 A 
ATOM     97  F   UNL A   1      39.826  36.255  36.826  1.00  0.00    -0.200 F 
ATOM     98  F   UNL A   1      41.921  37.157  38.320  1.00  0.00    -0.200 F 
ENDBRANCH  65  88
ENDBRANCH  39  40
ENDBRANCH  32  34
ENDBRANCH  31  32
ENDBRANCH  30  31
ENDBRANCH  29  30
ENDBRANCH  28  29
ENDBRANCH  27  28
ENDBRANCH  26  27
ENDBRANCH  25  26
ENDBRANCH  24  25
ENDBRANCH   1  24
TORSDOF 26
ENDMDL
