MODEL 1
REMARK VINA RESULT:      -9.2      0.000      0.000
REMARK SMILES Cc1ccc(CNC(=O)NC[C@@H](CC(C)C)C(=O)OCCOCCOCCOCCOC(=O)c2ccc(-c3c4nc(c(-c5c(F)c(F)c(F)c(F)c5F)c5ccc([nH]5)c(-c5c(F)c(F)c(F)c(F)c5F)c5nc(c(-c6c(F)c(F)c(F)c(F)c6F)c6ccc3[nH]6)C=C5)C=C4)cc2)s1
REMARK SMILES IDX 24 1 23 2 22 3 21 4 20 5 19 6 17 7 18 8 12 9 11 10 10 11
REMARK SMILES IDX 7 12 8 13 9 15 6 17 5 18 1 19 2 20 3 21 97 22 4 23 13 24
REMARK SMILES IDX 14 25 15 26 16 27 25 28 26 29 27 30 28 31 29 32 30 33 31 34
REMARK SMILES IDX 32 35 33 36 34 37 35 38 96 39 36 40 95 41 37 42 38 43 39 44
REMARK SMILES IDX 89 45 40 46 94 47 88 48 90 49 41 50 93 51 87 52 86 53 42 55
REMARK SMILES IDX 74 56 54 57 73 58 55 59 58 60 72 61 91 62 56 63 57 64 71 66
REMARK SMILES IDX 92 67 59 68 43 69 44 70 52 71 45 72 46 73 50 74 53 75 47 76
REMARK SMILES IDX 48 77 51 78 49 79 75 80 76 81 84 82 77 83 78 84 82 85 85 86
REMARK SMILES IDX 79 87 80 88 83 89 81 90 60 91 61 92 69 93 62 94 63 95 67 96
REMARK SMILES IDX 70 97 64 98 65 99 68 100 66 101
REMARK H PARENT 7 14 10 16 90 54 58 65
REMARK Flexibility Score: inf
ROOT
ATOM      1  C   UNL A   1      32.945  32.612  27.261  1.00  0.00     0.188 C 
ENDROOT
BRANCH   1   2
ATOM      2  C   UNL A   1      32.037  31.447  26.843  1.00  0.00     0.188 C 
BRANCH   2   3
ATOM      3  O   UNL A   1      32.540  30.169  27.137  1.00  0.00    -0.376 OA
BRANCH   3   4
ATOM      4  C   UNL A   1      31.679  29.051  27.170  1.00  0.00     0.202 C 
BRANCH   4   5
ATOM      5  C   UNL A   1      32.117  27.625  27.548  1.00  0.00     0.261 C 
BRANCH   5   6
ATOM      6  O   UNL A   1      32.261  26.630  26.520  1.00  0.00    -0.463 OA
BRANCH   6   7
ATOM      7  C   UNL A   1      33.506  26.536  25.992  1.00  0.00     0.310 C 
ATOM      8  O   UNL A   1      34.350  27.424  26.093  1.00  0.00    -0.252 OA
BRANCH   7   9
ATOM      9  C   UNL A   1      33.777  25.303  25.142  1.00  0.00     0.119 C 
BRANCH   9  10
ATOM     10  C   UNL A   1      33.447  25.305  23.643  1.00  0.00     0.133 C 
BRANCH  10  11
ATOM     11  N   UNL A   1      32.223  24.522  23.395  1.00  0.00    -0.337 N 
ATOM     12  N   UNL A   1      30.260  25.869  23.337  1.00  0.00    -0.333 N 
ATOM     13  C   UNL A   1      30.910  24.711  23.263  1.00  0.00     0.315 C 
ATOM     14  H   UNL A   1      29.302  25.773  23.132  1.00  0.00     0.165 HD
ATOM     15  O   UNL A   1      30.227  23.701  23.054  1.00  0.00    -0.249 OA
ATOM     16  H   UNL A   1      32.443  23.568  23.298  1.00  0.00     0.165 HD
BRANCH  12  17
ATOM     17  C   UNL A   1      30.620  27.224  23.645  1.00  0.00     0.164 C 
BRANCH  17  18
ATOM     18  C   UNL A   1      29.510  28.174  23.316  1.00  0.00     0.024 A 
ATOM     19  C   UNL A   1      27.705  31.651  23.170  1.00  0.00     0.056 C 
ATOM     20  C   UNL A   1      28.151  30.230  23.159  1.00  0.00     0.002 A 
ATOM     21  C   UNL A   1      27.376  29.091  23.120  1.00  0.00     0.015 A 
ATOM     22  S   UNL A   1      29.817  29.857  23.218  1.00  0.00    -0.144 S 
ATOM     23  C   UNL A   1      28.161  27.902  23.183  1.00  0.00     0.017 A 
ENDBRANCH  17  18
ENDBRANCH  12  17
ENDBRANCH  10  11
ENDBRANCH   9  10
BRANCH   9  24
ATOM     24  C   UNL A   1      35.190  24.782  25.481  1.00  0.00     0.020 C 
BRANCH  24  25
ATOM     25  C   UNL A   1      35.343  23.330  25.988  1.00  0.00    -0.017 C 
ATOM     26  C   UNL A   1      34.252  22.865  26.949  1.00  0.00     0.007 C 
ATOM     27  C   UNL A   1      35.371  22.389  24.780  1.00  0.00     0.007 C 
ENDBRANCH  24  25
ENDBRANCH   9  24
ENDBRANCH   7   9
ENDBRANCH   6   7
ENDBRANCH   5   6
ENDBRANCH   4   5
ENDBRANCH   3   4
ENDBRANCH   2   3
ENDBRANCH   1   2
BRANCH   1  28
ATOM     28  O   UNL A   1      32.403  33.841  27.731  1.00  0.00    -0.377 OA
BRANCH  28  29
ATOM     29  C   UNL A   1      33.052  34.597  28.749  1.00  0.00     0.188 C 
BRANCH  29  30
ATOM     30  C   UNL A   1      34.564  34.887  28.672  1.00  0.00     0.188 C 
BRANCH  30  31
ATOM     31  O   UNL A   1      35.377  33.947  29.346  1.00  0.00    -0.376 OA
BRANCH  31  32
ATOM     32  C   UNL A   1      36.560  34.426  29.968  1.00  0.00     0.202 C 
BRANCH  32  33
ATOM     33  C   UNL A   1      36.864  33.952  31.392  1.00  0.00     0.261 C 
BRANCH  33  34
ATOM     34  O   UNL A   1      36.096  32.847  31.887  1.00  0.00    -0.460 OA
BRANCH  34  35
ATOM     35  C   UNL A   1      36.682  31.991  32.741  1.00  0.00     0.338 C 
ATOM     36  O   UNL A   1      36.333  31.706  33.876  1.00  0.00    -0.246 OA
BRANCH  35  37
ATOM     37  C   UNL A   1      37.758  31.320  31.992  1.00  0.00     0.060 A 
ATOM     38  C   UNL A   1      38.958  31.001  32.636  1.00  0.00     0.016 A 
ATOM     39  C   UNL A   1      37.568  31.003  30.645  1.00  0.00     0.016 A 
ATOM     40  C   UNL A   1      39.992  30.403  31.918  1.00  0.00     0.010 A 
ATOM     41  C   UNL A   1      38.605  30.411  29.924  1.00  0.00     0.010 A 
ATOM     42  C   UNL A   1      39.836  30.151  30.548  1.00  0.00    -0.014 A 
BRANCH  42  43
ATOM     43  C   UNL A   1      41.023  29.840  29.719  1.00  0.00     0.031 A 
ATOM     44  C   UNL A   1      41.132  28.456  29.138  1.00  0.00     0.074 A 
ATOM     45  C   UNL A   1      41.966  30.764  29.468  1.00  0.00     0.049 A 
ATOM     46  N   UNL A   1      42.089  27.920  28.427  1.00  0.00    -0.248 NA
ATOM     47  C   UNL A   1      40.001  27.550  29.404  1.00  0.00     0.031 C 
ATOM     48  C   UNL A   1      41.941  32.145  29.942  1.00  0.00     0.029 A 
ATOM     49  N   UNL A   1      43.134  30.671  28.754  1.00  0.00    -0.354 N 
ATOM     50  C   UNL A   1      41.680  26.618  28.169  1.00  0.00     0.074 A 
ATOM     51  C   UNL A   1      40.412  26.429  28.835  1.00  0.00     0.031 C 
ATOM     52  C   UNL A   1      43.048  32.774  29.507  1.00  0.00     0.029 A 
ATOM     53  C   UNL A   1      43.874  31.827  28.758  1.00  0.00     0.049 A 
ATOM     54  H   UNL A   1      43.414  29.854  28.283  1.00  0.00     0.167 HD
ATOM     55  C   UNL A   1      42.302  25.669  27.430  1.00  0.00     0.037 A 
ATOM     56  C   UNL A   1      45.089  32.078  28.231  1.00  0.00     0.037 A 
ATOM     57  C   UNL A   1      43.567  25.868  26.777  1.00  0.00     0.049 A 
ATOM     58  C   UNL A   1      45.804  30.978  27.487  1.00  0.00     0.074 A 
ATOM     59  C   UNL A   1      44.288  24.980  26.000  1.00  0.00     0.029 A 
ATOM     60  N   UNL A   1      44.305  27.042  26.834  1.00  0.00    -0.354 N 
ATOM     61  N   UNL A   1      45.405  29.755  27.229  1.00  0.00    -0.248 NA
ATOM     62  C   UNL A   1      47.138  31.294  26.959  1.00  0.00     0.031 C 
ATOM     63  C   UNL A   1      45.489  25.596  25.636  1.00  0.00     0.029 A 
ATOM     64  C   UNL A   1      45.486  26.893  26.128  1.00  0.00     0.049 A 
ATOM     65  H   UNL A   1      44.029  27.861  27.307  1.00  0.00     0.167 HD
ATOM     66  C   UNL A   1      46.418  29.170  26.477  1.00  0.00     0.074 A 
ATOM     67  C   UNL A   1      47.446  30.176  26.315  1.00  0.00     0.031 C 
ATOM     68  C   UNL A   1      46.489  27.917  25.965  1.00  0.00     0.037 A 
BRANCH  55  69
ATOM     69  C   UNL A   1      41.634  24.327  27.322  1.00  0.00     0.064 A 
ATOM     70  C   UNL A   1      42.154  23.188  27.956  1.00  0.00     0.173 A 
ATOM     71  C   UNL A   1      40.454  24.179  26.578  1.00  0.00     0.173 A 
ATOM     72  F   UNL A   1      43.290  23.269  28.666  1.00  0.00    -0.203 F 
ATOM     73  C   UNL A   1      41.539  21.946  27.819  1.00  0.00     0.198 A 
ATOM     74  C   UNL A   1      39.821  22.943  26.472  1.00  0.00     0.198 A 
ATOM     75  F   UNL A   1      39.912  25.234  25.951  1.00  0.00    -0.203 F 
ATOM     76  F   UNL A   1      42.090  20.861  28.382  1.00  0.00    -0.200 F 
ATOM     77  C   UNL A   1      40.370  21.826  27.084  1.00  0.00     0.200 A 
ATOM     78  F   UNL A   1      38.684  22.832  25.772  1.00  0.00    -0.200 F 
ATOM     79  F   UNL A   1      39.776  20.631  26.956  1.00  0.00    -0.200 F 
ENDBRANCH  55  69
BRANCH  56  80
ATOM     80  C   UNL A   1      45.709  33.422  28.388  1.00  0.00     0.064 A 
ATOM     81  C   UNL A   1      46.506  33.724  29.500  1.00  0.00     0.173 A 
ATOM     82  C   UNL A   1      45.507  34.435  27.438  1.00  0.00     0.173 A 
ATOM     83  F   UNL A   1      46.711  32.799  30.449  1.00  0.00    -0.203 F 
ATOM     84  C   UNL A   1      47.060  34.993  29.668  1.00  0.00     0.198 A 
ATOM     85  C   UNL A   1      46.087  35.693  27.590  1.00  0.00     0.198 A 
ATOM     86  F   UNL A   1      44.753  34.200  26.355  1.00  0.00    -0.203 F 
ATOM     87  F   UNL A   1      47.776  35.269  30.766  1.00  0.00    -0.200 F 
ATOM     88  C   UNL A   1      46.855  35.974  28.710  1.00  0.00     0.200 A 
ATOM     89  F   UNL A   1      45.899  36.633  26.654  1.00  0.00    -0.200 F 
ATOM     90  F   UNL A   1      47.393  37.191  28.868  1.00  0.00    -0.200 F 
ENDBRANCH  56  80
BRANCH  68  91
ATOM     91  C   UNL A   1      47.691  27.575  25.132  1.00  0.00     0.064 A 
ATOM     92  C   UNL A   1      48.841  26.998  25.689  1.00  0.00     0.173 A 
ATOM     93  C   UNL A   1      47.666  27.777  23.742  1.00  0.00     0.173 A 
ATOM     94  F   UNL A   1      48.922  26.796  27.013  1.00  0.00    -0.203 F 
ATOM     95  C   UNL A   1      49.930  26.658  24.890  1.00  0.00     0.198 A 
ATOM     96  C   UNL A   1      48.741  27.402  22.943  1.00  0.00     0.198 A 
ATOM     97  F   UNL A   1      46.586  28.317  23.156  1.00  0.00    -0.203 F 
ATOM     98  F   UNL A   1      51.037  26.150  25.450  1.00  0.00    -0.200 F 
ATOM     99  C   UNL A   1      49.875  26.850  23.518  1.00  0.00     0.200 A 
ATOM    100  F   UNL A   1      48.677  27.572  21.615  1.00  0.00    -0.200 F 
ATOM    101  F   UNL A   1      50.918  26.509  22.749  1.00  0.00    -0.200 F 
ENDBRANCH  68  91
ENDBRANCH  42  43
ENDBRANCH  35  37
ENDBRANCH  34  35
ENDBRANCH  33  34
ENDBRANCH  32  33
ENDBRANCH  31  32
ENDBRANCH  30  31
ENDBRANCH  29  30
ENDBRANCH  28  29
ENDBRANCH   1  28
TORSDOF 26
ENDMDL
MODEL 2
REMARK VINA RESULT:      -9.1      3.131      7.650
REMARK SMILES Cc1ccc(CNC(=O)NC[C@@H](CC(C)C)C(=O)OCCOCCOCCOCCOC(=O)c2ccc(-c3c4nc(c(-c5c(F)c(F)c(F)c(F)c5F)c5ccc([nH]5)c(-c5c(F)c(F)c(F)c(F)c5F)c5nc(c(-c6c(F)c(F)c(F)c(F)c6F)c6ccc3[nH]6)C=C5)C=C4)cc2)s1
REMARK SMILES IDX 24 1 23 2 22 3 21 4 20 5 19 6 17 7 18 8 12 9 11 10 10 11
REMARK SMILES IDX 7 12 8 13 9 15 6 17 5 18 1 19 2 20 3 21 97 22 4 23 13 24
REMARK SMILES IDX 14 25 15 26 16 27 25 28 26 29 27 30 28 31 29 32 30 33 31 34
REMARK SMILES IDX 32 35 33 36 34 37 35 38 96 39 36 40 95 41 37 42 38 43 39 44
REMARK SMILES IDX 89 45 40 46 94 47 88 48 90 49 41 50 93 51 87 52 86 53 42 55
REMARK SMILES IDX 74 56 54 57 73 58 55 59 58 60 72 61 91 62 56 63 57 64 71 66
REMARK SMILES IDX 92 67 59 68 43 69 44 70 52 71 45 72 46 73 50 74 53 75 47 76
REMARK SMILES IDX 48 77 51 78 49 79 75 80 76 81 84 82 77 83 78 84 82 85 85 86
REMARK SMILES IDX 79 87 80 88 83 89 81 90 60 91 61 92 69 93 62 94 63 95 67 96
REMARK SMILES IDX 70 97 64 98 65 99 68 100 66 101
REMARK H PARENT 7 14 10 16 90 54 58 65
REMARK Flexibility Score: inf
ROOT
ATOM      1  C   UNL A   1      32.618  32.523  27.237  1.00  0.00     0.188 C 
ENDROOT
BRANCH   1   2
ATOM      2  C   UNL A   1      31.634  31.506  26.643  1.00  0.00     0.188 C 
BRANCH   2   3
ATOM      3  O   UNL A   1      32.183  30.242  26.367  1.00  0.00    -0.376 OA
BRANCH   3   4
ATOM      4  C   UNL A   1      31.453  29.067  26.648  1.00  0.00     0.202 C 
BRANCH   4   5
ATOM      5  C   UNL A   1      32.044  27.812  27.313  1.00  0.00     0.261 C 
BRANCH   5   6
ATOM      6  O   UNL A   1      32.246  26.622  26.530  1.00  0.00    -0.463 OA
BRANCH   6   7
ATOM      7  C   UNL A   1      33.470  26.522  25.956  1.00  0.00     0.310 C 
ATOM      8  O   UNL A   1      34.307  27.422  25.992  1.00  0.00    -0.252 OA
BRANCH   7   9
ATOM      9  C   UNL A   1      33.721  25.264  25.137  1.00  0.00     0.119 C 
BRANCH   9  10
ATOM     10  C   UNL A   1      33.406  25.239  23.635  1.00  0.00     0.133 C 
BRANCH  10  11
ATOM     11  N   UNL A   1      32.176  24.464  23.391  1.00  0.00    -0.337 N 
ATOM     12  N   UNL A   1      30.222  25.825  23.331  1.00  0.00    -0.333 N 
ATOM     13  C   UNL A   1      30.863  24.662  23.260  1.00  0.00     0.315 C 
ATOM     14  H   UNL A   1      29.263  25.736  23.128  1.00  0.00     0.165 HD
ATOM     15  O   UNL A   1      30.173  23.657  23.055  1.00  0.00    -0.249 OA
ATOM     16  H   UNL A   1      32.388  23.508  23.296  1.00  0.00     0.165 HD
BRANCH  12  17
ATOM     17  C   UNL A   1      30.593  27.179  23.635  1.00  0.00     0.164 C 
BRANCH  17  18
ATOM     18  C   UNL A   1      29.482  28.133  23.322  1.00  0.00     0.024 A 
ATOM     19  C   UNL A   1      27.676  31.612  23.236  1.00  0.00     0.056 C 
ATOM     20  C   UNL A   1      28.123  30.192  23.201  1.00  0.00     0.002 A 
ATOM     21  C   UNL A   1      27.347  29.053  23.143  1.00  0.00     0.015 A 
ATOM     22  S   UNL A   1      29.789  29.819  23.253  1.00  0.00    -0.144 S 
ATOM     23  C   UNL A   1      28.133  27.863  23.186  1.00  0.00     0.017 A 
ENDBRANCH  17  18
ENDBRANCH  12  17
ENDBRANCH  10  11
ENDBRANCH   9  10
BRANCH   9  24
ATOM     24  C   UNL A   1      35.118  24.718  25.503  1.00  0.00     0.020 C 
BRANCH  24  25
ATOM     25  C   UNL A   1      35.212  23.412  26.324  1.00  0.00    -0.017 C 
ATOM     26  C   UNL A   1      33.873  22.843  26.784  1.00  0.00     0.007 C 
ATOM     27  C   UNL A   1      35.934  22.356  25.482  1.00  0.00     0.007 C 
ENDBRANCH  24  25
ENDBRANCH   9  24
ENDBRANCH   7   9
ENDBRANCH   6   7
ENDBRANCH   5   6
ENDBRANCH   4   5
ENDBRANCH   3   4
ENDBRANCH   2   3
ENDBRANCH   1   2
BRANCH   1  28
ATOM     28  O   UNL A   1      32.190  33.821  27.633  1.00  0.00    -0.377 OA
BRANCH  28  29
ATOM     29  C   UNL A   1      32.961  34.615  28.531  1.00  0.00     0.188 C 
BRANCH  29  30
ATOM     30  C   UNL A   1      34.439  34.930  28.232  1.00  0.00     0.188 C 
BRANCH  30  31
ATOM     31  O   UNL A   1      35.351  34.437  29.194  1.00  0.00    -0.376 OA
BRANCH  31  32
ATOM     32  C   UNL A   1      34.827  33.661  30.261  1.00  0.00     0.202 C 
BRANCH  32  33
ATOM     33  C   UNL A   1      34.958  32.138  30.173  1.00  0.00     0.261 C 
BRANCH  33  34
ATOM     34  O   UNL A   1      35.317  31.589  28.897  1.00  0.00    -0.460 OA
BRANCH  34  35
ATOM     35  C   UNL A   1      35.530  30.266  28.806  1.00  0.00     0.338 C 
ATOM     36  O   UNL A   1      34.774  29.412  28.370  1.00  0.00    -0.246 OA
BRANCH  35  37
ATOM     37  C   UNL A   1      36.934  30.038  29.191  1.00  0.00     0.060 A 
ATOM     38  C   UNL A   1      37.959  30.665  28.476  1.00  0.00     0.016 A 
ATOM     39  C   UNL A   1      37.227  29.202  30.270  1.00  0.00     0.016 A 
ATOM     40  C   UNL A   1      39.289  30.418  28.812  1.00  0.00     0.010 A 
ATOM     41  C   UNL A   1      38.558  28.949  30.603  1.00  0.00     0.010 A 
ATOM     42  C   UNL A   1      39.593  29.522  29.846  1.00  0.00    -0.014 A 
BRANCH  42  43
ATOM     43  C   UNL A   1      40.973  29.000  29.983  1.00  0.00     0.031 A 
ATOM     44  C   UNL A   1      41.951  29.806  30.794  1.00  0.00     0.074 A 
ATOM     45  C   UNL A   1      41.341  27.834  29.426  1.00  0.00     0.049 A 
ATOM     46  N   UNL A   1      43.222  29.597  31.021  1.00  0.00    -0.248 NA
ATOM     47  C   UNL A   1      41.419  31.022  31.432  1.00  0.00     0.031 C 
ATOM     48  C   UNL A   1      40.466  26.952  28.659  1.00  0.00     0.029 A 
ATOM     49  N   UNL A   1      42.556  27.198  29.418  1.00  0.00    -0.354 N 
ATOM     50  C   UNL A   1      43.639  30.654  31.819  1.00  0.00     0.074 A 
ATOM     51  C   UNL A   1      42.502  31.527  32.000  1.00  0.00     0.031 C 
ATOM     52  C   UNL A   1      41.175  25.885  28.250  1.00  0.00     0.029 A 
ATOM     53  C   UNL A   1      42.560  26.031  28.695  1.00  0.00     0.049 A 
ATOM     54  H   UNL A   1      43.349  27.544  29.887  1.00  0.00     0.167 HD
ATOM     55  C   UNL A   1      44.860  30.870  32.363  1.00  0.00     0.037 A 
ATOM     56  C   UNL A   1      43.577  25.193  28.412  1.00  0.00     0.037 A 
ATOM     57  C   UNL A   1      45.986  29.996  32.171  1.00  0.00     0.049 A 
ATOM     58  C   UNL A   1      44.951  25.501  28.956  1.00  0.00     0.074 A 
ATOM     59  C   UNL A   1      47.267  30.113  32.676  1.00  0.00     0.029 A 
ATOM     60  N   UNL A   1      45.961  28.842  31.401  1.00  0.00    -0.354 N 
ATOM     61  N   UNL A   1      45.336  26.491  29.725  1.00  0.00    -0.248 NA
ATOM     62  C   UNL A   1      46.030  24.571  28.593  1.00  0.00     0.031 C 
ATOM     63  C   UNL A   1      48.033  29.062  32.164  1.00  0.00     0.029 A 
ATOM     64  C   UNL A   1      47.213  28.251  31.396  1.00  0.00     0.049 A 
ATOM     65  H   UNL A   1      45.170  28.493  30.927  1.00  0.00     0.167 HD
ATOM     66  C   UNL A   1      46.689  26.283  29.970  1.00  0.00     0.074 A 
ATOM     67  C   UNL A   1      47.054  25.069  29.273  1.00  0.00     0.031 C 
ATOM     68  C   UNL A   1      47.549  27.028  30.708  1.00  0.00     0.037 A 
BRANCH  55  69
ATOM     69  C   UNL A   1      45.042  32.114  33.186  1.00  0.00     0.064 A 
ATOM     70  C   UNL A   1      44.821  32.124  34.572  1.00  0.00     0.173 A 
ATOM     71  C   UNL A   1      45.448  33.313  32.582  1.00  0.00     0.173 A 
ATOM     72  F   UNL A   1      44.415  31.009  35.200  1.00  0.00    -0.203 F 
ATOM     73  C   UNL A   1      44.965  33.293  35.315  1.00  0.00     0.198 A 
ATOM     74  C   UNL A   1      45.626  34.472  33.332  1.00  0.00     0.198 A 
ATOM     75  F   UNL A   1      45.673  33.362  31.259  1.00  0.00    -0.203 F 
ATOM     76  F   UNL A   1      44.688  33.291  36.626  1.00  0.00    -0.200 F 
ATOM     77  C   UNL A   1      45.374  34.464  34.695  1.00  0.00     0.200 A 
ATOM     78  F   UNL A   1      46.034  35.600  32.733  1.00  0.00    -0.200 F 
ATOM     79  F   UNL A   1      45.516  35.588  35.411  1.00  0.00    -0.200 F 
ENDBRANCH  55  69
BRANCH  56  80
ATOM     80  C   UNL A   1      43.341  23.986  27.574  1.00  0.00     0.064 A 
ATOM     81  C   UNL A   1      43.581  24.007  26.194  1.00  0.00     0.173 A 
ATOM     82  C   UNL A   1      42.857  22.793  28.132  1.00  0.00     0.173 A 
ATOM     83  F   UNL A   1      44.021  25.129  25.607  1.00  0.00    -0.203 F 
ATOM     84  C   UNL A   1      43.327  22.889  25.400  1.00  0.00     0.198 A 
ATOM     85  C   UNL A   1      42.634  21.665  27.343  1.00  0.00     0.198 A 
ATOM     86  F   UNL A   1      42.610  22.717  29.448  1.00  0.00    -0.203 F 
ATOM     87  F   UNL A   1      43.518  22.952  24.075  1.00  0.00    -0.200 F 
ATOM     88  C   UNL A   1      42.860  21.717  25.976  1.00  0.00     0.200 A 
ATOM     89  F   UNL A   1      42.197  20.531  27.907  1.00  0.00    -0.200 F 
ATOM     90  F   UNL A   1      42.622  20.641  25.214  1.00  0.00    -0.200 F 
ENDBRANCH  56  80
BRANCH  68  91
ATOM     91  C   UNL A   1      48.957  26.525  30.849  1.00  0.00     0.064 A 
ATOM     92  C   UNL A   1      49.992  26.969  30.014  1.00  0.00     0.173 A 
ATOM     93  C   UNL A   1      49.284  25.626  31.878  1.00  0.00     0.173 A 
ATOM     94  F   UNL A   1      49.731  27.817  29.007  1.00  0.00    -0.203 F 
ATOM     95  C   UNL A   1      51.297  26.513  30.187  1.00  0.00     0.198 A 
ATOM     96  C   UNL A   1      50.595  25.202  32.071  1.00  0.00     0.198 A 
ATOM     97  F   UNL A   1      48.334  25.178  32.713  1.00  0.00    -0.203 F 
ATOM     98  F   UNL A   1      52.261  26.914  29.347  1.00  0.00    -0.200 F 
ATOM     99  C   UNL A   1      51.598  25.640  31.221  1.00  0.00     0.200 A 
ATOM    100  F   UNL A   1      50.887  24.373  33.083  1.00  0.00    -0.200 F 
ATOM    101  F   UNL A   1      52.858  25.214  31.395  1.00  0.00    -0.200 F 
ENDBRANCH  68  91
ENDBRANCH  42  43
ENDBRANCH  35  37
ENDBRANCH  34  35
ENDBRANCH  33  34
ENDBRANCH  32  33
ENDBRANCH  31  32
ENDBRANCH  30  31
ENDBRANCH  29  30
ENDBRANCH  28  29
ENDBRANCH   1  28
TORSDOF 26
ENDMDL
MODEL 3
REMARK VINA RESULT:      -8.9      7.504     12.367
REMARK SMILES Cc1ccc(CNC(=O)NC[C@@H](CC(C)C)C(=O)OCCOCCOCCOCCOC(=O)c2ccc(-c3c4nc(c(-c5c(F)c(F)c(F)c(F)c5F)c5ccc([nH]5)c(-c5c(F)c(F)c(F)c(F)c5F)c5nc(c(-c6c(F)c(F)c(F)c(F)c6F)c6ccc3[nH]6)C=C5)C=C4)cc2)s1
REMARK SMILES IDX 24 1 23 2 22 3 21 4 20 5 19 6 17 7 18 8 12 9 11 10 10 11
REMARK SMILES IDX 7 12 8 13 9 15 6 17 5 18 1 19 2 20 3 21 97 22 4 23 13 24
REMARK SMILES IDX 14 25 15 26 16 27 25 28 26 29 27 30 28 31 29 32 30 33 31 34
REMARK SMILES IDX 32 35 33 36 34 37 35 38 96 39 36 40 95 41 37 42 38 43 39 44
REMARK SMILES IDX 89 45 40 46 94 47 88 48 90 49 41 50 93 51 87 52 86 53 42 55
REMARK SMILES IDX 74 56 54 57 73 58 55 59 58 60 72 61 91 62 56 63 57 64 71 66
REMARK SMILES IDX 92 67 59 68 43 69 44 70 52 71 45 72 46 73 50 74 53 75 47 76
REMARK SMILES IDX 48 77 51 78 49 79 75 80 76 81 84 82 77 83 78 84 82 85 85 86
REMARK SMILES IDX 79 87 80 88 83 89 81 90 60 91 61 92 69 93 62 94 63 95 67 96
REMARK SMILES IDX 70 97 64 98 65 99 68 100 66 101
REMARK H PARENT 7 14 10 16 90 54 58 65
REMARK Flexibility Score: inf
ROOT
ATOM      1  C   UNL A   1      33.603  33.878  28.146  1.00  0.00     0.188 C 
ENDROOT
BRANCH   1   2
ATOM      2  C   UNL A   1      34.692  32.801  28.050  1.00  0.00     0.188 C 
BRANCH   2   3
ATOM      3  O   UNL A   1      34.313  31.530  28.513  1.00  0.00    -0.376 OA
BRANCH   3   4
ATOM      4  C   UNL A   1      34.022  30.492  27.602  1.00  0.00     0.202 C 
BRANCH   4   5
ATOM      5  C   UNL A   1      32.736  30.407  26.761  1.00  0.00     0.261 C 
BRANCH   5   6
ATOM      6  O   UNL A   1      32.824  30.092  25.360  1.00  0.00    -0.463 OA
BRANCH   6   7
ATOM      7  C   UNL A   1      31.790  29.359  24.878  1.00  0.00     0.310 C 
ATOM      8  O   UNL A   1      30.706  29.847  24.566  1.00  0.00    -0.252 OA
BRANCH   7   9
ATOM      9  C   UNL A   1      31.995  27.852  24.858  1.00  0.00     0.119 C 
BRANCH   9  10
ATOM     10  C   UNL A   1      33.390  27.259  24.617  1.00  0.00     0.133 C 
BRANCH  10  11
ATOM     11  N   UNL A   1      33.402  26.493  23.358  1.00  0.00    -0.337 N 
ATOM     12  N   UNL A   1      34.455  24.369  23.577  1.00  0.00    -0.333 N 
ATOM     13  C   UNL A   1      33.823  25.317  22.892  1.00  0.00     0.315 C 
ATOM     14  H   UNL A   1      34.600  23.555  23.042  1.00  0.00     0.165 HD
ATOM     15  O   UNL A   1      33.605  25.089  21.696  1.00  0.00    -0.249 OA
ATOM     16  H   UNL A   1      32.965  27.008  22.642  1.00  0.00     0.165 HD
BRANCH  12  17
ATOM     17  C   UNL A   1      34.977  24.247  24.909  1.00  0.00     0.164 C 
BRANCH  17  18
ATOM     18  C   UNL A   1      34.575  22.949  25.538  1.00  0.00     0.024 A 
ATOM     19  C   UNL A   1      32.913  19.400  25.664  1.00  0.00     0.056 C 
ATOM     20  C   UNL A   1      33.559  20.724  25.882  1.00  0.00     0.002 A 
ATOM     21  C   UNL A   1      33.734  21.405  27.069  1.00  0.00     0.015 A 
ATOM     22  S   UNL A   1      34.180  21.601  24.554  1.00  0.00    -0.144 S 
ATOM     23  C   UNL A   1      34.345  22.678  26.874  1.00  0.00     0.017 A 
ENDBRANCH  17  18
ENDBRANCH  12  17
ENDBRANCH  10  11
ENDBRANCH   9  10
BRANCH   9  24
ATOM     24  C   UNL A   1      31.247  27.246  26.066  1.00  0.00     0.020 C 
BRANCH  24  25
ATOM     25  C   UNL A   1      30.296  26.051  25.826  1.00  0.00    -0.017 C 
ATOM     26  C   UNL A   1      29.591  26.051  24.472  1.00  0.00     0.007 C 
ATOM     27  C   UNL A   1      31.096  24.752  25.966  1.00  0.00     0.007 C 
ENDBRANCH  24  25
ENDBRANCH   9  24
ENDBRANCH   7   9
ENDBRANCH   6   7
ENDBRANCH   5   6
ENDBRANCH   4   5
ENDBRANCH   3   4
ENDBRANCH   2   3
ENDBRANCH   1   2
BRANCH   1  28
ATOM     28  O   UNL A   1      33.917  35.260  28.027  1.00  0.00    -0.377 OA
BRANCH  28  29
ATOM     29  C   UNL A   1      33.646  36.177  29.083  1.00  0.00     0.188 C 
BRANCH  29  30
ATOM     30  C   UNL A   1      32.502  35.913  30.081  1.00  0.00     0.188 C 
BRANCH  30  31
ATOM     31  O   UNL A   1      32.525  36.735  31.232  1.00  0.00    -0.376 OA
BRANCH  31  32
ATOM     32  C   UNL A   1      33.789  37.017  31.814  1.00  0.00     0.202 C 
BRANCH  32  33
ATOM     33  C   UNL A   1      34.137  36.334  33.139  1.00  0.00     0.261 C 
BRANCH  33  34
ATOM     34  O   UNL A   1      34.155  34.900  33.147  1.00  0.00    -0.460 OA
BRANCH  34  35
ATOM     35  C   UNL A   1      35.155  34.268  32.511  1.00  0.00     0.338 C 
ATOM     36  O   UNL A   1      35.203  33.927  31.339  1.00  0.00    -0.246 OA
BRANCH  35  37
ATOM     37  C   UNL A   1      36.278  34.197  33.461  1.00  0.00     0.060 A 
ATOM     38  C   UNL A   1      37.553  34.611  33.061  1.00  0.00     0.016 A 
ATOM     39  C   UNL A   1      36.059  33.721  34.756  1.00  0.00     0.016 A 
ATOM     40  C   UNL A   1      38.625  34.505  33.946  1.00  0.00     0.010 A 
ATOM     41  C   UNL A   1      37.132  33.609  35.640  1.00  0.00     0.010 A 
ATOM     42  C   UNL A   1      38.427  33.959  35.221  1.00  0.00    -0.014 A 
BRANCH  42  43
ATOM     43  C   UNL A   1      39.594  33.533  36.027  1.00  0.00     0.031 A 
ATOM     44  C   UNL A   1      40.082  34.465  37.103  1.00  0.00     0.074 A 
ATOM     45  C   UNL A   1      40.190  32.346  35.828  1.00  0.00     0.049 A 
ATOM     46  N   UNL A   1      41.109  34.352  37.905  1.00  0.00    -0.248 NA
ATOM     47  C   UNL A   1      39.304  35.701  37.294  1.00  0.00     0.031 C 
ATOM     48  C   UNL A   1      39.775  31.348  34.846  1.00  0.00     0.029 A 
ATOM     49  N   UNL A   1      41.280  31.783  36.443  1.00  0.00    -0.354 N 
ATOM     50  C   UNL A   1      41.102  35.500  38.686  1.00  0.00     0.074 A 
ATOM     51  C   UNL A   1      40.000  36.318  38.235  1.00  0.00     0.031 C 
ATOM     52  C   UNL A   1      40.603  30.291  34.922  1.00  0.00     0.029 A 
ATOM     53  C   UNL A   1      41.628  30.558  35.931  1.00  0.00     0.049 A 
ATOM     54  H   UNL A   1      41.765  32.216  37.182  1.00  0.00     0.167 HD
ATOM     55  C   UNL A   1      41.934  35.836  39.700  1.00  0.00     0.037 A 
ATOM     56  C   UNL A   1      42.670  29.759  36.235  1.00  0.00     0.037 A 
ATOM     57  C   UNL A   1      43.031  35.016  40.138  1.00  0.00     0.049 A 
ATOM     58  C   UNL A   1      43.636  30.194  37.308  1.00  0.00     0.074 A 
ATOM     59  C   UNL A   1      43.936  35.252  41.156  1.00  0.00     0.029 A 
ATOM     60  N   UNL A   1      43.375  33.796  39.570  1.00  0.00    -0.354 N 
ATOM     61  N   UNL A   1      43.615  31.271  38.057  1.00  0.00    -0.248 NA
ATOM     62  C   UNL A   1      44.771  29.301  37.580  1.00  0.00     0.031 C 
ATOM     63  C   UNL A   1      44.863  34.206  41.166  1.00  0.00     0.029 A 
ATOM     64  C   UNL A   1      44.496  33.282  40.200  1.00  0.00     0.049 A 
ATOM     65  H   UNL A   1      42.894  33.361  38.829  1.00  0.00     0.167 HD
ATOM     66  C   UNL A   1      44.706  31.166  38.913  1.00  0.00     0.074 A 
ATOM     67  C   UNL A   1      45.363  29.917  38.594  1.00  0.00     0.031 C 
ATOM     68  C   UNL A   1      45.123  32.024  39.876  1.00  0.00     0.037 A 
BRANCH  55  69
ATOM     69  C   UNL A   1      41.704  37.158  40.377  1.00  0.00     0.064 A 
ATOM     70  C   UNL A   1      42.247  38.351  39.876  1.00  0.00     0.173 A 
ATOM     71  C   UNL A   1      40.925  37.234  41.542  1.00  0.00     0.173 A 
ATOM     72  F   UNL A   1      43.014  38.334  38.774  1.00  0.00    -0.203 F 
ATOM     73  C   UNL A   1      42.049  39.563  40.533  1.00  0.00     0.198 A 
ATOM     74  C   UNL A   1      40.699  38.451  42.177  1.00  0.00     0.198 A 
ATOM     75  F   UNL A   1      40.381  36.124  42.066  1.00  0.00    -0.203 F 
ATOM     76  F   UNL A   1      42.630  40.678  40.069  1.00  0.00    -0.200 F 
ATOM     77  C   UNL A   1      41.269  39.613  41.679  1.00  0.00     0.200 A 
ATOM     78  F   UNL A   1      39.935  38.500  43.277  1.00  0.00    -0.200 F 
ATOM     79  F   UNL A   1      41.077  40.780  42.309  1.00  0.00    -0.200 F 
ENDBRANCH  55  69
BRANCH  56  80
ATOM     80  C   UNL A   1      42.857  28.469  35.517  1.00  0.00     0.064 A 
ATOM     81  C   UNL A   1      42.151  27.320  35.898  1.00  0.00     0.173 A 
ATOM     82  C   UNL A   1      43.756  28.353  34.445  1.00  0.00     0.173 A 
ATOM     83  F   UNL A   1      41.297  27.371  36.931  1.00  0.00    -0.203 F 
ATOM     84  C   UNL A   1      42.350  26.101  35.250  1.00  0.00     0.198 A 
ATOM     85  C   UNL A   1      43.931  27.142  33.778  1.00  0.00     0.198 A 
ATOM     86  F   UNL A   1      44.459  29.421  34.039  1.00  0.00    -0.203 F 
ATOM     87  F   UNL A   1      41.697  25.008  35.668  1.00  0.00    -0.200 F 
ATOM     88  C   UNL A   1      43.235  26.015  34.187  1.00  0.00     0.200 A 
ATOM     89  F   UNL A   1      44.777  27.067  32.740  1.00  0.00    -0.200 F 
ATOM     90  F   UNL A   1      43.422  24.846  33.560  1.00  0.00    -0.200 F 
ENDBRANCH  56  80
BRANCH  68  91
ATOM     91  C   UNL A   1      46.314  31.619  40.698  1.00  0.00     0.064 A 
ATOM     92  C   UNL A   1      47.619  31.991  40.346  1.00  0.00     0.173 A 
ATOM     93  C   UNL A   1      46.136  30.895  41.887  1.00  0.00     0.173 A 
ATOM     94  F   UNL A   1      47.846  32.672  39.212  1.00  0.00    -0.203 F 
ATOM     95  C   UNL A   1      48.705  31.632  41.143  1.00  0.00     0.198 A 
ATOM     96  C   UNL A   1      47.218  30.570  42.699  1.00  0.00     0.198 A 
ATOM     97  F   UNL A   1      44.906  30.523  42.276  1.00  0.00    -0.203 F 
ATOM     98  F   UNL A   1      49.948  31.958  40.763  1.00  0.00    -0.200 F 
ATOM     99  C   UNL A   1      48.502  30.932  42.322  1.00  0.00     0.200 A 
ATOM    100  F   UNL A   1      47.017  29.910  43.848  1.00  0.00    -0.200 F 
ATOM    101  F   UNL A   1      49.546  30.601  43.095  1.00  0.00    -0.200 F 
ENDBRANCH  68  91
ENDBRANCH  42  43
ENDBRANCH  35  37
ENDBRANCH  34  35
ENDBRANCH  33  34
ENDBRANCH  32  33
ENDBRANCH  31  32
ENDBRANCH  30  31
ENDBRANCH  29  30
ENDBRANCH  28  29
ENDBRANCH   1  28
TORSDOF 26
ENDMDL
