MODEL 1
REMARK VINA RESULT:     -10.9      0.000      0.000
REMARK SMILES O=C(OCCOCCOCCOCCOC(=O)[C@H]1C[C@@H]2CCCC[C@@H]2N1C(=O)[C@@H]1CCS(=O)(=O)C1)c1ccc(-c2c3nc(c(-c4c(F)c(F)c(F)c(F)c4F)c4ccc([nH]4)c(-c4c(F)c(F)c(F)c(F)c4F)c4nc(c(-c5c(F)c(F)c(F)c(F)c5F)c5ccc2[nH]5)C=C4)C=C3)cc1
REMARK SMILES IDX 9 1 8 2 7 3 6 4 5 5 4 6 3 7 2 8 1 9 36 10 37 11 98 12 38 13
REMARK SMILES IDX 97 14 39 15 40 16 41 17 91 18 42 19 96 20 90 21 92 22 43 23
REMARK SMILES IDX 95 24 89 25 88 26 44 28 76 29 56 30 75 31 57 32 60 33 74 34
REMARK SMILES IDX 93 35 58 36 59 37 73 39 94 40 61 41 45 42 46 43 54 44 47 45
REMARK SMILES IDX 48 46 52 47 55 48 49 49 50 50 53 51 51 52 77 53 78 54 86 55
REMARK SMILES IDX 79 56 80 57 84 58 87 59 81 60 82 61 85 62 83 63 62 64 63 65
REMARK SMILES IDX 71 66 64 67 65 68 69 69 72 70 66 71 67 72 70 73 68 74 10 75
REMARK SMILES IDX 11 76 12 77 13 78 14 79 15 80 16 81 17 82 18 83 19 84 26 85
REMARK SMILES IDX 20 86 25 87 21 88 24 89 22 90 23 91 27 92 28 93 29 94 30 95
REMARK SMILES IDX 35 96 31 97 32 98 33 99 34 100
REMARK H PARENT 92 27 60 38
REMARK Flexibility Score: inf
ROOT
ATOM      1  O   UNL A   1      33.044  19.968  24.166  1.00  0.00    -0.377 OA
ENDROOT
BRANCH   1   2
ATOM      2  C   UNL A   1      32.760  20.398  25.498  1.00  0.00     0.188 C 
BRANCH   2   3
ATOM      3  C   UNL A   1      33.868  21.210  26.178  1.00  0.00     0.188 C 
BRANCH   3   4
ATOM      4  O   UNL A   1      35.144  20.991  25.579  1.00  0.00    -0.376 OA
BRANCH   4   5
ATOM      5  C   UNL A   1      35.845  22.114  25.038  1.00  0.00     0.202 C 
BRANCH   5   6
ATOM      6  C   UNL A   1      37.332  21.909  24.791  1.00  0.00     0.261 C 
BRANCH   6   7
ATOM      7  O   UNL A   1      38.034  21.259  25.862  1.00  0.00    -0.460 OA
BRANCH   7   8
ATOM      8  C   UNL A   1      39.285  21.457  26.335  1.00  0.00     0.338 C 
ATOM      9  O   UNL A   1      40.019  20.478  26.467  1.00  0.00    -0.246 OA
BRANCH   8  10
ATOM     10  C   UNL A   1      39.849  22.788  26.699  1.00  0.00     0.060 A 
ATOM     11  C   UNL A   1      39.408  24.011  26.210  1.00  0.00     0.016 A 
ATOM     12  C   UNL A   1      40.842  22.813  27.690  1.00  0.00     0.016 A 
ATOM     13  C   UNL A   1      39.954  25.211  26.600  1.00  0.00     0.010 A 
ATOM     14  C   UNL A   1      41.389  24.024  28.129  1.00  0.00     0.010 A 
ATOM     15  C   UNL A   1      40.955  25.222  27.556  1.00  0.00    -0.014 A 
BRANCH  15  16
ATOM     16  C   UNL A   1      41.637  26.505  27.732  1.00  0.00     0.031 A 
ATOM     17  C   UNL A   1      40.946  27.526  28.578  1.00  0.00     0.074 A 
ATOM     18  C   UNL A   1      42.923  26.625  27.356  1.00  0.00     0.049 A 
ATOM     19  N   UNL A   1      41.309  28.742  28.870  1.00  0.00    -0.248 NA
ATOM     20  C   UNL A   1      39.678  27.108  29.208  1.00  0.00     0.031 C 
ATOM     21  C   UNL A   1      43.720  25.569  26.719  1.00  0.00     0.029 A 
ATOM     22  N   UNL A   1      43.800  27.661  27.501  1.00  0.00    -0.354 N 
ATOM     23  C   UNL A   1      40.299  29.244  29.677  1.00  0.00     0.074 A 
ATOM     24  C   UNL A   1      39.307  28.209  29.836  1.00  0.00     0.031 C 
ATOM     25  C   UNL A   1      44.973  26.015  26.538  1.00  0.00     0.029 A 
ATOM     26  C   UNL A   1      45.037  27.407  26.962  1.00  0.00     0.049 A 
ATOM     27  H   UNL A   1      43.570  28.507  27.948  1.00  0.00     0.167 HD
ATOM     28  C   UNL A   1      40.221  30.477  30.219  1.00  0.00     0.037 A 
ATOM     29  C   UNL A   1      46.073  28.244  26.783  1.00  0.00     0.037 A 
ATOM     30  C   UNL A   1      41.243  31.467  30.032  1.00  0.00     0.049 A 
ATOM     31  C   UNL A   1      45.894  29.659  27.268  1.00  0.00     0.074 A 
ATOM     32  C   UNL A   1      41.261  32.786  30.435  1.00  0.00     0.029 A 
ATOM     33  N   UNL A   1      42.445  31.226  29.374  1.00  0.00    -0.354 N 
ATOM     34  N   UNL A   1      44.890  30.186  27.933  1.00  0.00    -0.248 NA
ATOM     35  C   UNL A   1      46.976  30.600  26.966  1.00  0.00     0.031 C 
ATOM     36  C   UNL A   1      42.450  33.358  29.973  1.00  0.00     0.029 A 
ATOM     37  C   UNL A   1      43.206  32.378  29.341  1.00  0.00     0.049 A 
ATOM     38  H   UNL A   1      42.714  30.360  28.990  1.00  0.00     0.167 HD
ATOM     39  C   UNL A   1      45.227  31.513  28.148  1.00  0.00     0.074 A 
ATOM     40  C   UNL A   1      46.543  31.700  27.567  1.00  0.00     0.031 C 
ATOM     41  C   UNL A   1      44.518  32.497  28.757  1.00  0.00     0.037 A 
BRANCH  28  42
ATOM     42  C   UNL A   1      38.966  30.822  30.961  1.00  0.00     0.064 A 
ATOM     43  C   UNL A   1      37.838  31.358  30.320  1.00  0.00     0.173 A 
ATOM     44  C   UNL A   1      38.908  30.650  32.352  1.00  0.00     0.173 A 
ATOM     45  F   UNL A   1      37.857  31.584  28.998  1.00  0.00    -0.203 F 
ATOM     46  C   UNL A   1      36.709  31.726  31.049  1.00  0.00     0.198 A 
ATOM     47  C   UNL A   1      37.769  30.992  33.073  1.00  0.00     0.198 A 
ATOM     48  F   UNL A   1      39.968  30.162  33.016  1.00  0.00    -0.203 F 
ATOM     49  F   UNL A   1      35.666  32.293  30.425  1.00  0.00    -0.200 F 
ATOM     50  C   UNL A   1      36.672  31.535  32.422  1.00  0.00     0.200 A 
ATOM     51  F   UNL A   1      37.737  30.808  34.401  1.00  0.00    -0.200 F 
ATOM     52  F   UNL A   1      35.585  31.892  33.121  1.00  0.00    -0.200 F 
ENDBRANCH  28  42
BRANCH  29  53
ATOM     53  C   UNL A   1      47.295  27.813  26.051  1.00  0.00     0.064 A 
ATOM     54  C   UNL A   1      47.338  27.782  24.651  1.00  0.00     0.173 A 
ATOM     55  C   UNL A   1      48.435  27.365  26.741  1.00  0.00     0.173 A 
ATOM     56  F   UNL A   1      46.274  28.183  23.939  1.00  0.00    -0.203 F 
ATOM     57  C   UNL A   1      48.452  27.287  23.972  1.00  0.00     0.198 A 
ATOM     58  C   UNL A   1      49.562  26.906  26.062  1.00  0.00     0.198 A 
ATOM     59  F   UNL A   1      48.457  27.367  28.082  1.00  0.00    -0.203 F 
ATOM     60  F   UNL A   1      48.435  27.203  22.635  1.00  0.00    -0.200 F 
ATOM     61  C   UNL A   1      49.563  26.851  24.678  1.00  0.00     0.200 A 
ATOM     62  F   UNL A   1      50.639  26.503  26.750  1.00  0.00    -0.200 F 
ATOM     63  F   UNL A   1      50.628  26.365  24.025  1.00  0.00    -0.200 F 
ENDBRANCH  29  53
BRANCH  41  64
ATOM     64  C   UNL A   1      45.184  33.836  28.856  1.00  0.00     0.064 A 
ATOM     65  C   UNL A   1      46.046  34.153  29.915  1.00  0.00     0.173 A 
ATOM     66  C   UNL A   1      44.983  34.795  27.853  1.00  0.00     0.173 A 
ATOM     67  F   UNL A   1      46.256  33.271  30.904  1.00  0.00    -0.203 F 
ATOM     68  C   UNL A   1      46.656  35.400  29.984  1.00  0.00     0.198 A 
ATOM     69  C   UNL A   1      45.628  36.025  27.905  1.00  0.00     0.198 A 
ATOM     70  F   UNL A   1      44.176  34.531  26.814  1.00  0.00    -0.203 F 
ATOM     71  F   UNL A   1      47.426  35.708  31.038  1.00  0.00    -0.200 F 
ATOM     72  C   UNL A   1      46.455  36.331  28.975  1.00  0.00     0.200 A 
ATOM     73  F   UNL A   1      45.448  36.914  26.918  1.00  0.00    -0.200 F 
ATOM     74  F   UNL A   1      47.052  37.528  29.040  1.00  0.00    -0.200 F 
ENDBRANCH  41  64
ENDBRANCH  15  16
ENDBRANCH   8  10
ENDBRANCH   7   8
ENDBRANCH   6   7
ENDBRANCH   5   6
ENDBRANCH   4   5
ENDBRANCH   3   4
ENDBRANCH   2   3
ENDBRANCH   1   2
BRANCH   1  75
ATOM     75  C   UNL A   1      32.209  20.528  23.162  1.00  0.00     0.188 C 
BRANCH  75  76
ATOM     76  C   UNL A   1      32.012  22.068  23.122  1.00  0.00     0.188 C 
BRANCH  76  77
ATOM     77  O   UNL A   1      33.193  22.825  22.853  1.00  0.00    -0.376 OA
BRANCH  77  78
ATOM     78  C   UNL A   1      33.340  23.282  21.507  1.00  0.00     0.202 C 
BRANCH  78  79
ATOM     79  C   UNL A   1      32.952  24.750  21.262  1.00  0.00     0.261 C 
BRANCH  79  80
ATOM     80  O   UNL A   1      32.670  25.471  22.467  1.00  0.00    -0.462 OA
BRANCH  80  81
ATOM     81  C   UNL A   1      33.114  26.749  22.560  1.00  0.00     0.328 C 
ATOM     82  O   UNL A   1      33.744  27.324  21.683  1.00  0.00    -0.250 OA
BRANCH  81  83
ATOM     83  C   UNL A   1      32.483  27.425  23.791  1.00  0.00     0.195 C 
ATOM     84  C   UNL A   1      33.244  27.221  25.106  1.00  0.00     0.043 C 
ATOM     85  N   UNL A   1      32.282  28.859  23.647  1.00  0.00    -0.325 N 
ATOM     86  C   UNL A   1      33.965  28.553  25.247  1.00  0.00     0.014 C 
ATOM     87  C   UNL A   1      32.869  29.536  24.807  1.00  0.00     0.089 C 
ATOM     88  C   UNL A   1      34.591  28.804  26.612  1.00  0.00     0.006 C 
ATOM     89  C   UNL A   1      31.887  29.831  25.952  1.00  0.00     0.025 C 
ATOM     90  C   UNL A   1      33.665  29.389  27.675  1.00  0.00     0.000 C 
ATOM     91  C   UNL A   1      32.673  30.409  27.126  1.00  0.00     0.002 C 
BRANCH  85  92
ATOM     92  C   UNL A   1      31.146  29.241  22.965  1.00  0.00     0.227 C 
ATOM     93  O   UNL A   1      31.199  29.650  21.801  1.00  0.00    -0.275 OA
BRANCH  92  94
ATOM     94  C   UNL A   1      29.824  29.324  23.709  1.00  0.00     0.094 C 
ATOM     95  C   UNL A   1      28.605  28.618  23.118  1.00  0.00     0.030 C 
ATOM     96  C   UNL A   1      29.439  30.763  23.999  1.00  0.00     0.150 C 
ATOM     97  C   UNL A   1      27.923  29.562  22.143  1.00  0.00     0.138 C 
ATOM     98  S   UNL A   1      28.296  31.216  22.714  1.00  0.00     0.151 S 
ATOM     99  O   UNL A   1      29.027  31.926  21.681  1.00  0.00    -0.229 OA
ATOM    100  O   UNL A   1      27.113  31.772  23.324  1.00  0.00    -0.229 OA
ENDBRANCH  92  94
ENDBRANCH  85  92
ENDBRANCH  81  83
ENDBRANCH  80  81
ENDBRANCH  79  80
ENDBRANCH  78  79
ENDBRANCH  77  78
ENDBRANCH  76  77
ENDBRANCH  75  76
ENDBRANCH   1  75
TORSDOF 22
ENDMDL
MODEL 2
REMARK VINA RESULT:     -10.7      4.749      8.775
REMARK SMILES O=C(OCCOCCOCCOCCOC(=O)[C@H]1C[C@@H]2CCCC[C@@H]2N1C(=O)[C@@H]1CCS(=O)(=O)C1)c1ccc(-c2c3nc(c(-c4c(F)c(F)c(F)c(F)c4F)c4ccc([nH]4)c(-c4c(F)c(F)c(F)c(F)c4F)c4nc(c(-c5c(F)c(F)c(F)c(F)c5F)c5ccc2[nH]5)C=C4)C=C3)cc1
REMARK SMILES IDX 9 1 8 2 7 3 6 4 5 5 4 6 3 7 2 8 1 9 36 10 37 11 98 12 38 13
REMARK SMILES IDX 97 14 39 15 40 16 41 17 91 18 42 19 96 20 90 21 92 22 43 23
REMARK SMILES IDX 95 24 89 25 88 26 44 28 76 29 56 30 75 31 57 32 60 33 74 34
REMARK SMILES IDX 93 35 58 36 59 37 73 39 94 40 61 41 45 42 46 43 54 44 47 45
REMARK SMILES IDX 48 46 52 47 55 48 49 49 50 50 53 51 51 52 77 53 78 54 86 55
REMARK SMILES IDX 79 56 80 57 84 58 87 59 81 60 82 61 85 62 83 63 62 64 63 65
REMARK SMILES IDX 71 66 64 67 65 68 69 69 72 70 66 71 67 72 70 73 68 74 10 75
REMARK SMILES IDX 11 76 12 77 13 78 14 79 15 80 16 81 17 82 18 83 19 84 26 85
REMARK SMILES IDX 20 86 25 87 21 88 24 89 22 90 23 91 27 92 28 93 29 94 30 95
REMARK SMILES IDX 35 96 31 97 32 98 33 99 34 100
REMARK H PARENT 92 27 60 38
REMARK Flexibility Score: inf
ROOT
ATOM      1  O   UNL A   1      32.486  28.152  24.347  1.00  0.00    -0.377 OA
ENDROOT
BRANCH   1   2
ATOM      2  C   UNL A   1      32.362  28.601  25.697  1.00  0.00     0.188 C 
BRANCH   2   3
ATOM      3  C   UNL A   1      33.305  29.739  26.101  1.00  0.00     0.188 C 
BRANCH   3   4
ATOM      4  O   UNL A   1      32.954  30.311  27.360  1.00  0.00    -0.376 OA
BRANCH   4   5
ATOM      5  C   UNL A   1      33.328  31.666  27.621  1.00  0.00     0.202 C 
BRANCH   5   6
ATOM      6  C   UNL A   1      32.434  32.731  27.001  1.00  0.00     0.261 C 
BRANCH   6   7
ATOM      7  O   UNL A   1      32.157  33.852  27.854  1.00  0.00    -0.460 OA
BRANCH   7   8
ATOM      8  C   UNL A   1      32.992  34.607  28.604  1.00  0.00     0.338 C 
ATOM      9  O   UNL A   1      32.737  35.804  28.732  1.00  0.00    -0.246 OA
BRANCH   8  10
ATOM     10  C   UNL A   1      34.202  34.087  29.303  1.00  0.00     0.060 A 
ATOM     11  C   UNL A   1      35.516  34.297  28.903  1.00  0.00     0.016 A 
ATOM     12  C   UNL A   1      34.000  33.414  30.518  1.00  0.00     0.016 A 
ATOM     13  C   UNL A   1      36.595  33.810  29.602  1.00  0.00     0.010 A 
ATOM     14  C   UNL A   1      35.084  32.939  31.264  1.00  0.00     0.010 A 
ATOM     15  C   UNL A   1      36.383  33.120  30.782  1.00  0.00    -0.014 A 
BRANCH  15  16
ATOM     16  C   UNL A   1      37.558  32.437  31.327  1.00  0.00     0.031 A 
ATOM     17  C   UNL A   1      37.952  32.784  32.726  1.00  0.00     0.074 A 
ATOM     18  C   UNL A   1      38.067  31.378  30.672  1.00  0.00     0.049 A 
ATOM     19  N   UNL A   1      38.958  32.356  33.433  1.00  0.00    -0.248 NA
ATOM     20  C   UNL A   1      37.072  33.730  33.441  1.00  0.00     0.031 C 
ATOM     21  C   UNL A   1      37.569  30.855  29.394  1.00  0.00     0.029 A 
ATOM     22  N   UNL A   1      39.075  30.522  31.011  1.00  0.00    -0.354 N 
ATOM     23  C   UNL A   1      38.856  33.009  34.653  1.00  0.00     0.074 A 
ATOM     24  C   UNL A   1      37.693  33.861  34.600  1.00  0.00     0.031 C 
ATOM     25  C   UNL A   1      38.272  29.760  29.064  1.00  0.00     0.029 A 
ATOM     26  C   UNL A   1      39.319  29.564  30.057  1.00  0.00     0.049 A 
ATOM     27  H   UNL A   1      39.578  30.584  31.855  1.00  0.00     0.167 HD
ATOM     28  C   UNL A   1      39.684  32.899  35.713  1.00  0.00     0.037 A 
ATOM     29  C   UNL A   1      40.325  28.675  29.986  1.00  0.00     0.037 A 
ATOM     30  C   UNL A   1      40.825  32.028  35.712  1.00  0.00     0.049 A 
ATOM     31  C   UNL A   1      41.320  28.683  31.117  1.00  0.00     0.074 A 
ATOM     32  C   UNL A   1      41.808  31.882  36.668  1.00  0.00     0.029 A 
ATOM     33  N   UNL A   1      41.126  31.146  34.678  1.00  0.00    -0.354 N 
ATOM     34  N   UNL A   1      41.303  29.382  32.230  1.00  0.00    -0.248 NA
ATOM     35  C   UNL A   1      42.480  27.798  30.980  1.00  0.00     0.031 C 
ATOM     36  C   UNL A   1      42.734  30.950  36.189  1.00  0.00     0.029 A 
ATOM     37  C   UNL A   1      42.293  30.465  34.964  1.00  0.00     0.049 A 
ATOM     38  H   UNL A   1      40.586  31.025  33.865  1.00  0.00     0.167 HD
ATOM     39  C   UNL A   1      42.435  29.007  32.936  1.00  0.00     0.074 A 
ATOM     40  C   UNL A   1      43.099  27.996  32.135  1.00  0.00     0.031 C 
ATOM     41  C   UNL A   1      42.899  29.457  34.129  1.00  0.00     0.037 A 
BRANCH  28  42
ATOM     42  C   UNL A   1      39.427  33.801  36.880  1.00  0.00     0.064 A 
ATOM     43  C   UNL A   1      39.930  35.109  36.944  1.00  0.00     0.173 A 
ATOM     44  C   UNL A   1      38.693  33.328  37.979  1.00  0.00     0.173 A 
ATOM     45  F   UNL A   1      40.676  35.595  35.940  1.00  0.00    -0.203 F 
ATOM     46  C   UNL A   1      39.725  35.901  38.073  1.00  0.00     0.198 A 
ATOM     47  C   UNL A   1      38.465  34.131  39.091  1.00  0.00     0.198 A 
ATOM     48  F   UNL A   1      38.208  32.077  37.978  1.00  0.00    -0.203 F 
ATOM     49  F   UNL A   1      40.268  37.125  38.138  1.00  0.00    -0.200 F 
ATOM     50  C   UNL A   1      38.987  35.415  39.141  1.00  0.00     0.200 A 
ATOM     51  F   UNL A   1      37.753  33.657  40.124  1.00  0.00    -0.200 F 
ATOM     52  F   UNL A   1      38.792  36.177  40.226  1.00  0.00    -0.200 F 
ENDBRANCH  28  42
BRANCH  29  53
ATOM     53  C   UNL A   1      40.496  27.800  28.795  1.00  0.00     0.064 A 
ATOM     54  C   UNL A   1      41.188  28.236  27.657  1.00  0.00     0.173 A 
ATOM     55  C   UNL A   1      39.919  26.519  28.747  1.00  0.00     0.173 A 
ATOM     56  F   UNL A   1      41.746  29.456  27.640  1.00  0.00    -0.203 F 
ATOM     57  C   UNL A   1      41.262  27.447  26.509  1.00  0.00     0.198 A 
ATOM     58  C   UNL A   1      40.027  25.715  27.613  1.00  0.00     0.198 A 
ATOM     59  F   UNL A   1      39.243  26.042  29.802  1.00  0.00    -0.203 F 
ATOM     60  F   UNL A   1      41.869  27.921  25.412  1.00  0.00    -0.200 F 
ATOM     61  C   UNL A   1      40.684  26.187  26.489  1.00  0.00     0.200 A 
ATOM     62  F   UNL A   1      39.481  24.491  27.608  1.00  0.00    -0.200 F 
ATOM     63  F   UNL A   1      40.747  25.434  25.382  1.00  0.00    -0.200 F 
ENDBRANCH  29  53
BRANCH  41  64
ATOM     64  C   UNL A   1      44.154  28.819  34.641  1.00  0.00     0.064 A 
ATOM     65  C   UNL A   1      45.419  29.346  34.352  1.00  0.00     0.173 A 
ATOM     66  C   UNL A   1      44.079  27.686  35.465  1.00  0.00     0.173 A 
ATOM     67  F   UNL A   1      45.539  30.420  33.556  1.00  0.00    -0.203 F 
ATOM     68  C   UNL A   1      46.571  28.739  34.841  1.00  0.00     0.198 A 
ATOM     69  C   UNL A   1      45.230  27.108  35.986  1.00  0.00     0.198 A 
ATOM     70  F   UNL A   1      42.888  27.153  35.778  1.00  0.00    -0.203 F 
ATOM     71  F   UNL A   1      47.774  29.221  34.500  1.00  0.00    -0.200 F 
ATOM     72  C   UNL A   1      46.475  27.627  35.665  1.00  0.00     0.200 A 
ATOM     73  F   UNL A   1      45.133  26.046  36.799  1.00  0.00    -0.200 F 
ATOM     74  F   UNL A   1      47.585  27.050  36.143  1.00  0.00    -0.200 F 
ENDBRANCH  41  64
ENDBRANCH  15  16
ENDBRANCH   8  10
ENDBRANCH   7   8
ENDBRANCH   6   7
ENDBRANCH   5   6
ENDBRANCH   4   5
ENDBRANCH   3   4
ENDBRANCH   2   3
ENDBRANCH   1   2
BRANCH   1  75
ATOM     75  C   UNL A   1      31.867  28.985  23.377  1.00  0.00     0.188 C 
BRANCH  75  76
ATOM     76  C   UNL A   1      30.510  28.544  22.763  1.00  0.00     0.188 C 
BRANCH  76  77
ATOM     77  O   UNL A   1      30.254  27.140  22.801  1.00  0.00    -0.376 OA
BRANCH  77  78
ATOM     78  C   UNL A   1      29.371  26.701  23.836  1.00  0.00     0.202 C 
BRANCH  78  79
ATOM     79  C   UNL A   1      30.015  25.827  24.925  1.00  0.00     0.261 C 
BRANCH  79  80
ATOM     80  O   UNL A   1      31.069  24.993  24.434  1.00  0.00    -0.462 OA
BRANCH  80  81
ATOM     81  C   UNL A   1      32.064  24.655  25.292  1.00  0.00     0.328 C 
ATOM     82  O   UNL A   1      31.904  24.471  26.492  1.00  0.00    -0.250 OA
BRANCH  81  83
ATOM     83  C   UNL A   1      33.329  24.286  24.497  1.00  0.00     0.195 C 
ATOM     84  C   UNL A   1      34.620  24.959  24.978  1.00  0.00     0.043 C 
ATOM     85  N   UNL A   1      33.603  22.858  24.439  1.00  0.00    -0.325 N 
ATOM     86  C   UNL A   1      35.273  23.831  25.762  1.00  0.00     0.014 C 
ATOM     87  C   UNL A   1      34.991  22.628  24.848  1.00  0.00     0.089 C 
ATOM     88  C   UNL A   1      36.729  24.069  26.137  1.00  0.00     0.006 C 
ATOM     89  C   UNL A   1      36.004  22.549  23.695  1.00  0.00     0.025 C 
ATOM     90  C   UNL A   1      37.762  23.700  25.077  1.00  0.00     0.000 C 
ATOM     91  C   UNL A   1      37.407  22.443  24.289  1.00  0.00     0.002 C 
BRANCH  85  92
ATOM     92  C   UNL A   1      32.903  22.150  23.485  1.00  0.00     0.227 C 
ATOM     93  O   UNL A   1      32.860  22.522  22.308  1.00  0.00    -0.275 OA
BRANCH  92  94
ATOM     94  C   UNL A   1      32.029  20.984  23.916  1.00  0.00     0.094 C 
ATOM     95  C   UNL A   1      31.777  20.771  25.408  1.00  0.00     0.030 C 
ATOM     96  C   UNL A   1      32.521  19.674  23.331  1.00  0.00     0.150 C 
ATOM     97  C   UNL A   1      32.900  19.919  25.973  1.00  0.00     0.138 C 
ATOM     98  S   UNL A   1      33.489  18.915  24.614  1.00  0.00     0.151 S 
ATOM     99  O   UNL A   1      34.889  19.213  24.371  1.00  0.00    -0.229 OA
ATOM    100  O   UNL A   1      33.025  17.562  24.804  1.00  0.00    -0.229 OA
ENDBRANCH  92  94
ENDBRANCH  85  92
ENDBRANCH  81  83
ENDBRANCH  80  81
ENDBRANCH  79  80
ENDBRANCH  78  79
ENDBRANCH  77  78
ENDBRANCH  76  77
ENDBRANCH  75  76
ENDBRANCH   1  75
TORSDOF 22
ENDMDL
MODEL 3
REMARK VINA RESULT:     -10.7      4.846     10.573
REMARK SMILES O=C(OCCOCCOCCOCCOC(=O)[C@H]1C[C@@H]2CCCC[C@@H]2N1C(=O)[C@@H]1CCS(=O)(=O)C1)c1ccc(-c2c3nc(c(-c4c(F)c(F)c(F)c(F)c4F)c4ccc([nH]4)c(-c4c(F)c(F)c(F)c(F)c4F)c4nc(c(-c5c(F)c(F)c(F)c(F)c5F)c5ccc2[nH]5)C=C4)C=C3)cc1
REMARK SMILES IDX 9 1 8 2 7 3 6 4 5 5 4 6 3 7 2 8 1 9 36 10 37 11 98 12 38 13
REMARK SMILES IDX 97 14 39 15 40 16 41 17 91 18 42 19 96 20 90 21 92 22 43 23
REMARK SMILES IDX 95 24 89 25 88 26 44 28 76 29 56 30 75 31 57 32 60 33 74 34
REMARK SMILES IDX 93 35 58 36 59 37 73 39 94 40 61 41 45 42 46 43 54 44 47 45
REMARK SMILES IDX 48 46 52 47 55 48 49 49 50 50 53 51 51 52 77 53 78 54 86 55
REMARK SMILES IDX 79 56 80 57 84 58 87 59 81 60 82 61 85 62 83 63 62 64 63 65
REMARK SMILES IDX 71 66 64 67 65 68 69 69 72 70 66 71 67 72 70 73 68 74 10 75
REMARK SMILES IDX 11 76 12 77 13 78 14 79 15 80 16 81 17 82 18 83 19 84 26 85
REMARK SMILES IDX 20 86 25 87 21 88 24 89 22 90 23 91 27 92 28 93 29 94 30 95
REMARK SMILES IDX 35 96 31 97 32 98 33 99 34 100
REMARK H PARENT 92 27 60 38
REMARK Flexibility Score: inf
ROOT
ATOM      1  O   UNL A   1      31.399  29.236  24.327  1.00  0.00    -0.377 OA
ENDROOT
BRANCH   1   2
ATOM      2  C   UNL A   1      31.613  29.580  25.696  1.00  0.00     0.188 C 
BRANCH   2   3
ATOM      3  C   UNL A   1      33.055  29.941  26.067  1.00  0.00     0.188 C 
BRANCH   3   4
ATOM      4  O   UNL A   1      33.179  30.339  27.431  1.00  0.00    -0.376 OA
BRANCH   4   5
ATOM      5  C   UNL A   1      33.657  31.656  27.717  1.00  0.00     0.202 C 
BRANCH   5   6
ATOM      6  C   UNL A   1      32.814  32.799  27.172  1.00  0.00     0.261 C 
BRANCH   6   7
ATOM      7  O   UNL A   1      32.554  33.853  28.111  1.00  0.00    -0.460 OA
BRANCH   7   8
ATOM      8  C   UNL A   1      33.409  34.657  28.783  1.00  0.00     0.338 C 
ATOM      9  O   UNL A   1      33.231  35.873  28.725  1.00  0.00    -0.246 OA
BRANCH   8  10
ATOM     10  C   UNL A   1      34.555  34.172  29.604  1.00  0.00     0.060 A 
ATOM     11  C   UNL A   1      35.898  34.336  29.289  1.00  0.00     0.016 A 
ATOM     12  C   UNL A   1      34.252  33.590  30.845  1.00  0.00     0.016 A 
ATOM     13  C   UNL A   1      36.914  33.885  30.099  1.00  0.00     0.010 A 
ATOM     14  C   UNL A   1      35.269  33.156  31.701  1.00  0.00     0.010 A 
ATOM     15  C   UNL A   1      36.603  33.284  31.306  1.00  0.00    -0.014 A 
BRANCH  15  16
ATOM     16  C   UNL A   1      37.722  32.626  31.983  1.00  0.00     0.031 A 
ATOM     17  C   UNL A   1      38.420  31.538  31.232  1.00  0.00     0.074 A 
ATOM     18  C   UNL A   1      38.227  33.173  33.104  1.00  0.00     0.049 A 
ATOM     19  N   UNL A   1      39.411  30.779  31.604  1.00  0.00    -0.248 NA
ATOM     20  C   UNL A   1      37.952  31.286  29.855  1.00  0.00     0.031 C 
ATOM     21  C   UNL A   1      37.713  34.380  33.761  1.00  0.00     0.029 A 
ATOM     22  N   UNL A   1      39.311  32.821  33.855  1.00  0.00    -0.354 N 
ATOM     23  C   UNL A   1      39.654  29.937  30.529  1.00  0.00     0.074 A 
ATOM     24  C   UNL A   1      38.715  30.272  29.486  1.00  0.00     0.031 C 
ATOM     25  C   UNL A   1      38.491  34.670  34.816  1.00  0.00     0.029 A 
ATOM     26  C   UNL A   1      39.494  33.623  34.954  1.00  0.00     0.049 A 
ATOM     27  H   UNL A   1      39.903  32.067  33.633  1.00  0.00     0.167 HD
ATOM     28  C   UNL A   1      40.583  28.963  30.446  1.00  0.00     0.037 A 
ATOM     29  C   UNL A   1      40.348  33.473  35.982  1.00  0.00     0.037 A 
ATOM     30  C   UNL A   1      41.498  28.677  31.515  1.00  0.00     0.049 A 
ATOM     31  C   UNL A   1      41.272  32.285  35.929  1.00  0.00     0.074 A 
ATOM     32  C   UNL A   1      42.426  27.663  31.618  1.00  0.00     0.029 A 
ATOM     33  N   UNL A   1      41.588  29.432  32.681  1.00  0.00    -0.354 N 
ATOM     34  N   UNL A   1      41.434  31.403  34.967  1.00  0.00    -0.248 NA
ATOM     35  C   UNL A   1      42.117  32.054  37.104  1.00  0.00     0.031 C 
ATOM     36  C   UNL A   1      43.041  27.771  32.869  1.00  0.00     0.029 A 
ATOM     37  C   UNL A   1      42.544  28.894  33.519  1.00  0.00     0.049 A 
ATOM     38  H   UNL A   1      41.051  30.233  32.877  1.00  0.00     0.167 HD
ATOM     39  C   UNL A   1      42.412  30.527  35.409  1.00  0.00     0.074 A 
ATOM     40  C   UNL A   1      42.826  31.004  36.715  1.00  0.00     0.031 C 
ATOM     41  C   UNL A   1      42.921  29.423  34.806  1.00  0.00     0.037 A 
BRANCH  28  42
ATOM     42  C   UNL A   1      40.572  28.107  29.217  1.00  0.00     0.064 A 
ATOM     43  C   UNL A   1      41.294  28.442  28.062  1.00  0.00     0.173 A 
ATOM     44  C   UNL A   1      39.785  26.946  29.183  1.00  0.00     0.173 A 
ATOM     45  F   UNL A   1      42.027  29.565  28.026  1.00  0.00    -0.203 F 
ATOM     46  C   UNL A   1      41.212  27.656  26.913  1.00  0.00     0.198 A 
ATOM     47  C   UNL A   1      39.727  26.148  28.045  1.00  0.00     0.198 A 
ATOM     48  F   UNL A   1      39.056  26.593  30.254  1.00  0.00    -0.203 F 
ATOM     49  F   UNL A   1      41.862  28.028  25.801  1.00  0.00    -0.200 F 
ATOM     50  C   UNL A   1      40.436  26.507  26.908  1.00  0.00     0.200 A 
ATOM     51  F   UNL A   1      38.974  25.039  28.042  1.00  0.00    -0.200 F 
ATOM     52  F   UNL A   1      40.357  25.754  25.802  1.00  0.00    -0.200 F 
ENDBRANCH  28  42
BRANCH  29  53
ATOM     53  C   UNL A   1      40.305  34.384  37.159  1.00  0.00     0.064 A 
ATOM     54  C   UNL A   1      39.410  34.174  38.215  1.00  0.00     0.173 A 
ATOM     55  C   UNL A   1      41.127  35.522  37.225  1.00  0.00     0.173 A 
ATOM     56  F   UNL A   1      38.590  33.112  38.199  1.00  0.00    -0.203 F 
ATOM     57  C   UNL A   1      39.309  35.084  39.268  1.00  0.00     0.198 A 
ATOM     58  C   UNL A   1      41.053  36.410  38.297  1.00  0.00     0.198 A 
ATOM     59  F   UNL A   1      42.004  35.781  36.245  1.00  0.00    -0.203 F 
ATOM     60  F   UNL A   1      38.392  34.895  40.228  1.00  0.00    -0.200 F 
ATOM     61  C   UNL A   1      40.131  36.200  39.309  1.00  0.00     0.200 A 
ATOM     62  F   UNL A   1      41.863  37.477  38.338  1.00  0.00    -0.200 F 
ATOM     63  F   UNL A   1      40.026  37.078  40.315  1.00  0.00    -0.200 F 
ENDBRANCH  29  53
BRANCH  41  64
ATOM     64  C   UNL A   1      44.006  28.700  35.544  1.00  0.00     0.064 A 
ATOM     65  C   UNL A   1      45.359  29.008  35.351  1.00  0.00     0.173 A 
ATOM     66  C   UNL A   1      43.677  27.714  36.485  1.00  0.00     0.173 A 
ATOM     67  F   UNL A   1      45.721  29.935  34.450  1.00  0.00    -0.203 F 
ATOM     68  C   UNL A   1      46.350  28.327  36.050  1.00  0.00     0.198 A 
ATOM     69  C   UNL A   1      44.668  27.065  37.211  1.00  0.00     0.198 A 
ATOM     70  F   UNL A   1      42.394  27.394  36.712  1.00  0.00    -0.203 F 
ATOM     71  F   UNL A   1      47.640  28.590  35.804  1.00  0.00    -0.200 F 
ATOM     72  C   UNL A   1      46.003  27.363  36.986  1.00  0.00     0.200 A 
ATOM     73  F   UNL A   1      44.330  26.149  38.130  1.00  0.00    -0.200 F 
ATOM     74  F   UNL A   1      46.958  26.715  37.665  1.00  0.00    -0.200 F 
ENDBRANCH  41  64
ENDBRANCH  15  16
ENDBRANCH   8  10
ENDBRANCH   7   8
ENDBRANCH   6   7
ENDBRANCH   5   6
ENDBRANCH   4   5
ENDBRANCH   3   4
ENDBRANCH   2   3
ENDBRANCH   1   2
BRANCH   1  75
ATOM     75  C   UNL A   1      30.205  29.752  23.756  1.00  0.00     0.188 C 
BRANCH  75  76
ATOM     76  C   UNL A   1      29.275  28.794  22.963  1.00  0.00     0.188 C 
BRANCH  76  77
ATOM     77  O   UNL A   1      29.755  27.457  22.827  1.00  0.00    -0.376 OA
BRANCH  77  78
ATOM     78  C   UNL A   1      29.280  26.528  23.805  1.00  0.00     0.202 C 
BRANCH  78  79
ATOM     79  C   UNL A   1      30.310  26.105  24.866  1.00  0.00     0.261 C 
BRANCH  79  80
ATOM     80  O   UNL A   1      31.336  25.249  24.354  1.00  0.00    -0.462 OA
BRANCH  80  81
ATOM     81  C   UNL A   1      32.200  24.693  25.239  1.00  0.00     0.328 C 
ATOM     82  O   UNL A   1      31.907  24.390  26.388  1.00  0.00    -0.250 OA
BRANCH  81  83
ATOM     83  C   UNL A   1      33.485  24.267  24.507  1.00  0.00     0.195 C 
ATOM     84  C   UNL A   1      34.777  24.895  25.042  1.00  0.00     0.043 C 
ATOM     85  N   UNL A   1      33.706  22.828  24.477  1.00  0.00    -0.325 N 
ATOM     86  C   UNL A   1      35.349  23.752  25.866  1.00  0.00     0.014 C 
ATOM     87  C   UNL A   1      35.064  22.550  24.952  1.00  0.00     0.089 C 
ATOM     88  C   UNL A   1      36.795  23.939  26.307  1.00  0.00     0.006 C 
ATOM     89  C   UNL A   1      36.125  22.419  23.849  1.00  0.00     0.025 C 
ATOM     90  C   UNL A   1      37.861  23.518  25.300  1.00  0.00     0.000 C 
ATOM     91  C   UNL A   1      37.494  22.266  24.509  1.00  0.00     0.002 C 
BRANCH  85  92
ATOM     92  C   UNL A   1      33.024  22.136  23.498  1.00  0.00     0.227 C 
ATOM     93  O   UNL A   1      33.066  22.483  22.314  1.00  0.00    -0.275 OA
BRANCH  92  94
ATOM     94  C   UNL A   1      32.067  21.027  23.901  1.00  0.00     0.094 C 
ATOM     95  C   UNL A   1      31.748  20.838  25.383  1.00  0.00     0.030 C 
ATOM     96  C   UNL A   1      32.501  19.686  23.339  1.00  0.00     0.150 C 
ATOM     97  C   UNL A   1      32.797  19.924  25.993  1.00  0.00     0.138 C 
ATOM     98  S   UNL A   1      33.375  18.879  24.661  1.00  0.00     0.151 S 
ATOM     99  O   UNL A   1      34.797  19.092  24.468  1.00  0.00    -0.229 OA
ATOM    100  O   UNL A   1      32.824  17.557  24.839  1.00  0.00    -0.229 OA
ENDBRANCH  92  94
ENDBRANCH  85  92
ENDBRANCH  81  83
ENDBRANCH  80  81
ENDBRANCH  79  80
ENDBRANCH  78  79
ENDBRANCH  77  78
ENDBRANCH  76  77
ENDBRANCH  75  76
ENDBRANCH   1  75
TORSDOF 22
ENDMDL
