MODEL 1
REMARK VINA RESULT:     -10.5      0.000      0.000
REMARK SMILES NS(=O)(=O)c1ccc(-n2nc(C(F)(F)F)cc2-c2ccc(C(=O)OCCOCCOCCOCCOC(=O)c3ccc(-c4c5nc(c(-c6c(F)c(F)c(F)c(F)c6F)c6ccc([nH]6)c(-c6c(F)c(F)c(F)c(F)c6F)c6nc(c(-c7c(F)c(F)c(F)c(F)c7F)c7ccc4[nH]7)C=C6)C=C5)cc3)cc2)cc1
REMARK SMILES IDX 29 1 28 2 27 3 26 4 25 5 24 6 22 7 23 8 21 9 18 10 19 11
REMARK SMILES IDX 103 12 20 13 102 14 17 15 9 16 10 17 11 18 16 19 8 20 5 21
REMARK SMILES IDX 6 22 105 23 7 24 104 25 2 26 3 27 4 28 1 29 12 32 13 33
REMARK SMILES IDX 14 34 15 35 30 36 31 37 32 38 33 39 34 40 35 41 36 42 37 43
REMARK SMILES IDX 38 44 39 45 40 46 101 47 41 48 100 49 42 50 43 51 44 52
REMARK SMILES IDX 94 53 45 54 99 55 93 56 95 57 46 58 98 59 92 60 91 61 47 63
REMARK SMILES IDX 79 64 59 65 78 66 60 67 63 68 77 69 96 70 61 71 62 72 76 74
REMARK SMILES IDX 97 75 64 76 48 77 49 78 57 79 50 80 51 81 55 82 58 83 52 84
REMARK SMILES IDX 53 85 56 86 54 87 80 88 81 89 89 90 82 91 83 92 87 93 90 94
REMARK SMILES IDX 84 95 85 96 88 97 86 98 65 99 66 100 74 101 67 102 68 103
REMARK SMILES IDX 72 104 75 105 69 106 70 107 73 108 71 109
REMARK H PARENT 1 30 1 31 95 62 63 73
REMARK Flexibility Score: inf
ROOT
ATOM      1  C   UNL A   1      32.180  30.062  25.714  1.00  0.00     0.188 C 
ENDROOT
BRANCH   1   2
ATOM      2  C   UNL A   1      32.973  28.933  25.018  1.00  0.00     0.188 C 
BRANCH   2   3
ATOM      3  O   UNL A   1      32.310  27.684  25.031  1.00  0.00    -0.376 OA
BRANCH   3   4
ATOM      4  C   UNL A   1      30.926  27.606  24.784  1.00  0.00     0.202 C 
BRANCH   4   5
ATOM      5  C   UNL A   1      30.431  27.024  23.454  1.00  0.00     0.261 C 
BRANCH   5   6
ATOM      6  O   UNL A   1      31.297  26.084  22.812  1.00  0.00    -0.460 OA
BRANCH   6   7
ATOM      7  C   UNL A   1      31.260  24.817  23.279  1.00  0.00     0.338 C 
ATOM      8  O   UNL A   1      30.326  24.039  23.205  1.00  0.00    -0.246 OA
BRANCH   7   9
ATOM      9  C   UNL A   1      32.626  24.446  23.716  1.00  0.00     0.060 A 
ATOM     10  C   UNL A   1      35.199  23.648  24.477  1.00  0.00     0.000 A 
ATOM     11  C   UNL A   1      34.802  23.569  23.134  1.00  0.00     0.011 A 
ATOM     12  C   UNL A   1      34.321  24.188  25.424  1.00  0.00     0.011 A 
ATOM     13  C   UNL A   1      33.518  23.959  22.755  1.00  0.00     0.016 A 
ATOM     14  C   UNL A   1      33.040  24.599  25.045  1.00  0.00     0.016 A 
BRANCH  10  15
ATOM     15  C   UNL A   1      36.451  23.022  24.901  1.00  0.00     0.075 A 
ATOM     16  N   UNL A   1      36.623  21.706  25.307  1.00  0.00    -0.233 N 
ATOM     17  N   UNL A   1      37.764  21.545  26.028  1.00  0.00    -0.163 NA
ATOM     18  C   UNL A   1      38.423  22.714  25.904  1.00  0.00     0.167 A 
ATOM     19  C   UNL A   1      37.634  23.662  25.212  1.00  0.00     0.064 A 
BRANCH  16  20
ATOM     20  C   UNL A   1      35.761  20.605  25.066  1.00  0.00     0.065 A 
ATOM     21  C   UNL A   1      34.072  18.472  24.473  1.00  0.00     0.082 A 
ATOM     22  C   UNL A   1      35.453  18.262  24.538  1.00  0.00     0.024 A 
ATOM     23  C   UNL A   1      33.528  19.736  24.728  1.00  0.00     0.024 A 
ATOM     24  C   UNL A   1      36.300  19.333  24.821  1.00  0.00     0.030 A 
ATOM     25  C   UNL A   1      34.373  20.800  25.055  1.00  0.00     0.030 A 
BRANCH  21  26
ATOM     26  S   UNL A   1      33.019  17.119  24.044  1.00  0.00     0.238 S 
ATOM     27  O   UNL A   1      31.803  17.218  24.830  1.00  0.00    -0.207 OA
ATOM     28  O   UNL A   1      33.804  15.916  23.971  1.00  0.00    -0.207 OA
BRANCH  26  29
ATOM     29  N   UNL A   1      32.579  17.457  22.458  1.00  0.00    -0.225 NA
ATOM     30  H   UNL A   1      32.104  16.649  22.057  1.00  0.00     0.137 HD
ATOM     31  H   UNL A   1      33.414  17.667  21.911  1.00  0.00     0.137 HD
ENDBRANCH  26  29
ENDBRANCH  21  26
ENDBRANCH  16  20
BRANCH  18  32
ATOM     32  C   UNL A   1      39.792  22.967  26.478  1.00  0.00     0.435 C 
ATOM     33  F   UNL A   1      40.354  24.120  26.033  1.00  0.00    -0.164 F 
ATOM     34  F   UNL A   1      39.773  23.023  27.836  1.00  0.00    -0.164 F 
ATOM     35  F   UNL A   1      40.659  21.967  26.152  1.00  0.00    -0.164 F 
ENDBRANCH  18  32
ENDBRANCH  10  15
ENDBRANCH   7   9
ENDBRANCH   6   7
ENDBRANCH   5   6
ENDBRANCH   4   5
ENDBRANCH   3   4
ENDBRANCH   2   3
ENDBRANCH   1   2
BRANCH   1  36
ATOM     36  O   UNL A   1      32.463  30.400  27.065  1.00  0.00    -0.377 OA
BRANCH  36  37
ATOM     37  C   UNL A   1      33.241  31.553  27.378  1.00  0.00     0.188 C 
BRANCH  37  38
ATOM     38  C   UNL A   1      34.747  31.489  27.759  1.00  0.00     0.188 C 
BRANCH  38  39
ATOM     39  O   UNL A   1      35.299  32.672  28.309  1.00  0.00    -0.376 OA
BRANCH  39  40
ATOM     40  C   UNL A   1      34.823  33.279  29.491  1.00  0.00     0.202 C 
BRANCH  40  41
ATOM     41  C   UNL A   1      35.382  32.821  30.829  1.00  0.00     0.261 C 
BRANCH  41  42
ATOM     42  O   UNL A   1      35.430  31.418  30.965  1.00  0.00    -0.460 OA
BRANCH  42  43
ATOM     43  C   UNL A   1      36.185  30.989  31.991  1.00  0.00     0.338 C 
ATOM     44  O   UNL A   1      36.327  31.506  33.085  1.00  0.00    -0.246 OA
BRANCH  43  45
ATOM     45  C   UNL A   1      36.947  29.837  31.516  1.00  0.00     0.060 A 
ATOM     46  C   UNL A   1      37.560  29.070  32.505  1.00  0.00     0.016 A 
ATOM     47  C   UNL A   1      37.387  29.868  30.185  1.00  0.00     0.016 A 
ATOM     48  C   UNL A   1      38.811  28.583  32.232  1.00  0.00     0.010 A 
ATOM     49  C   UNL A   1      38.652  29.426  29.928  1.00  0.00     0.010 A 
ATOM     50  C   UNL A   1      39.372  28.881  30.987  1.00  0.00    -0.014 A 
BRANCH  50  51
ATOM     51  C   UNL A   1      40.743  28.503  30.759  1.00  0.00     0.031 A 
ATOM     52  C   UNL A   1      41.526  28.586  32.004  1.00  0.00     0.074 A 
ATOM     53  C   UNL A   1      41.150  28.034  29.566  1.00  0.00     0.049 A 
ATOM     54  N   UNL A   1      42.485  29.402  32.278  1.00  0.00    -0.248 NA
ATOM     55  C   UNL A   1      41.035  27.820  33.166  1.00  0.00     0.031 C 
ATOM     56  C   UNL A   1      40.319  27.689  28.406  1.00  0.00     0.029 A 
ATOM     57  N   UNL A   1      42.393  27.654  29.173  1.00  0.00    -0.354 N 
ATOM     58  C   UNL A   1      42.876  29.072  33.569  1.00  0.00     0.074 A 
ATOM     59  C   UNL A   1      41.811  28.296  34.139  1.00  0.00     0.031 C 
ATOM     60  C   UNL A   1      41.047  26.943  27.545  1.00  0.00     0.029 A 
ATOM     61  C   UNL A   1      42.411  26.859  28.034  1.00  0.00     0.049 A 
ATOM     62  H   UNL A   1      43.210  27.920  29.653  1.00  0.00     0.167 HD
ATOM     63  C   UNL A   1      44.190  29.135  33.905  1.00  0.00     0.037 A 
ATOM     64  C   UNL A   1      43.462  26.115  27.607  1.00  0.00     0.037 A 
ATOM     65  C   UNL A   1      44.896  30.039  33.029  1.00  0.00     0.049 A 
ATOM     66  C   UNL A   1      44.674  26.636  28.291  1.00  0.00     0.074 A 
ATOM     67  C   UNL A   1      44.775  31.377  32.704  1.00  0.00     0.029 A 
ATOM     68  N   UNL A   1      45.663  29.478  32.041  1.00  0.00    -0.354 N 
ATOM     69  N   UNL A   1      45.199  27.807  28.056  1.00  0.00    -0.248 NA
ATOM     70  C   UNL A   1      45.053  26.030  29.559  1.00  0.00     0.031 C 
ATOM     71  C   UNL A   1      45.125  31.464  31.323  1.00  0.00     0.029 A 
ATOM     72  C   UNL A   1      45.496  30.192  30.886  1.00  0.00     0.049 A 
ATOM     73  H   UNL A   1      46.243  28.689  32.145  1.00  0.00     0.167 HD
ATOM     74  C   UNL A   1      45.602  28.269  29.300  1.00  0.00     0.074 A 
ATOM     75  C   UNL A   1      45.593  27.092  30.163  1.00  0.00     0.031 C 
ATOM     76  C   UNL A   1      45.609  29.608  29.569  1.00  0.00     0.037 A 
BRANCH  63  77
ATOM     77  C   UNL A   1      44.890  28.017  34.655  1.00  0.00     0.064 A 
ATOM     78  C   UNL A   1      45.720  28.367  35.736  1.00  0.00     0.173 A 
ATOM     79  C   UNL A   1      45.049  26.693  34.177  1.00  0.00     0.173 A 
ATOM     80  F   UNL A   1      45.665  29.597  36.267  1.00  0.00    -0.203 F 
ATOM     81  C   UNL A   1      46.705  27.503  36.220  1.00  0.00     0.198 A 
ATOM     82  C   UNL A   1      45.996  25.817  34.697  1.00  0.00     0.198 A 
ATOM     83  F   UNL A   1      44.387  26.214  33.120  1.00  0.00    -0.203 F 
ATOM     84  F   UNL A   1      47.567  27.935  37.148  1.00  0.00    -0.200 F 
ATOM     85  C   UNL A   1      46.850  26.233  35.692  1.00  0.00     0.200 A 
ATOM     86  F   UNL A   1      46.128  24.597  34.157  1.00  0.00    -0.200 F 
ATOM     87  F   UNL A   1      47.839  25.431  36.102  1.00  0.00    -0.200 F 
ENDBRANCH  63  77
BRANCH  64  88
ATOM     88  C   UNL A   1      43.446  24.792  26.936  1.00  0.00     0.064 A 
ATOM     89  C   UNL A   1      44.058  24.614  25.682  1.00  0.00     0.173 A 
ATOM     90  C   UNL A   1      43.084  23.617  27.623  1.00  0.00     0.173 A 
ATOM     91  F   UNL A   1      44.480  25.676  24.982  1.00  0.00    -0.203 F 
ATOM     92  C   UNL A   1      44.314  23.340  25.163  1.00  0.00     0.198 A 
ATOM     93  C   UNL A   1      43.331  22.347  27.099  1.00  0.00     0.198 A 
ATOM     94  F   UNL A   1      42.574  23.671  28.861  1.00  0.00    -0.203 F 
ATOM     95  F   UNL A   1      44.961  23.211  23.996  1.00  0.00    -0.200 F 
ATOM     96  C   UNL A   1      43.959  22.208  25.877  1.00  0.00     0.200 A 
ATOM     97  F   UNL A   1      43.017  21.260  27.819  1.00  0.00    -0.200 F 
ATOM     98  F   UNL A   1      44.260  20.988  25.409  1.00  0.00    -0.200 F 
ENDBRANCH  64  88
BRANCH  76  99
ATOM     99  C   UNL A   1      45.524  30.548  28.400  1.00  0.00     0.064 A 
ATOM    100  C   UNL A   1      44.322  31.018  27.842  1.00  0.00     0.173 A 
ATOM    101  C   UNL A   1      46.719  31.084  27.903  1.00  0.00     0.173 A 
ATOM    102  F   UNL A   1      43.137  30.626  28.329  1.00  0.00    -0.203 F 
ATOM    103  C   UNL A   1      44.325  31.945  26.801  1.00  0.00     0.198 A 
ATOM    104  C   UNL A   1      46.718  32.039  26.892  1.00  0.00     0.198 A 
ATOM    105  F   UNL A   1      47.895  30.711  28.433  1.00  0.00    -0.203 F 
ATOM    106  F   UNL A   1      43.167  32.363  26.269  1.00  0.00    -0.200 F 
ATOM    107  C   UNL A   1      45.523  32.459  26.331  1.00  0.00     0.200 A 
ATOM    108  F   UNL A   1      47.877  32.570  26.476  1.00  0.00    -0.200 F 
ATOM    109  F   UNL A   1      45.525  33.380  25.357  1.00  0.00    -0.200 F 
ENDBRANCH  76  99
ENDBRANCH  50  51
ENDBRANCH  43  45
ENDBRANCH  42  43
ENDBRANCH  41  42
ENDBRANCH  40  41
ENDBRANCH  39  40
ENDBRANCH  38  39
ENDBRANCH  37  38
ENDBRANCH  36  37
ENDBRANCH   1  36
TORSDOF 25
ENDMDL
MODEL 2
REMARK VINA RESULT:     -10.4      1.622      6.315
REMARK SMILES NS(=O)(=O)c1ccc(-n2nc(C(F)(F)F)cc2-c2ccc(C(=O)OCCOCCOCCOCCOC(=O)c3ccc(-c4c5nc(c(-c6c(F)c(F)c(F)c(F)c6F)c6ccc([nH]6)c(-c6c(F)c(F)c(F)c(F)c6F)c6nc(c(-c7c(F)c(F)c(F)c(F)c7F)c7ccc4[nH]7)C=C6)C=C5)cc3)cc2)cc1
REMARK SMILES IDX 29 1 28 2 27 3 26 4 25 5 24 6 22 7 23 8 21 9 18 10 19 11
REMARK SMILES IDX 103 12 20 13 102 14 17 15 9 16 10 17 11 18 16 19 8 20 5 21
REMARK SMILES IDX 6 22 105 23 7 24 104 25 2 26 3 27 4 28 1 29 12 32 13 33
REMARK SMILES IDX 14 34 15 35 30 36 31 37 32 38 33 39 34 40 35 41 36 42 37 43
REMARK SMILES IDX 38 44 39 45 40 46 101 47 41 48 100 49 42 50 43 51 44 52
REMARK SMILES IDX 94 53 45 54 99 55 93 56 95 57 46 58 98 59 92 60 91 61 47 63
REMARK SMILES IDX 79 64 59 65 78 66 60 67 63 68 77 69 96 70 61 71 62 72 76 74
REMARK SMILES IDX 97 75 64 76 48 77 49 78 57 79 50 80 51 81 55 82 58 83 52 84
REMARK SMILES IDX 53 85 56 86 54 87 80 88 81 89 89 90 82 91 83 92 87 93 90 94
REMARK SMILES IDX 84 95 85 96 88 97 86 98 65 99 66 100 74 101 67 102 68 103
REMARK SMILES IDX 72 104 75 105 69 106 70 107 73 108 71 109
REMARK H PARENT 1 30 1 31 95 62 63 73
REMARK Flexibility Score: inf
ROOT
ATOM      1  C   UNL A   1      31.593  30.384  25.519  1.00  0.00     0.188 C 
ENDROOT
BRANCH   1   2
ATOM      2  C   UNL A   1      32.542  29.313  24.936  1.00  0.00     0.188 C 
BRANCH   2   3
ATOM      3  O   UNL A   1      32.130  27.986  25.203  1.00  0.00    -0.376 OA
BRANCH   3   4
ATOM      4  C   UNL A   1      30.909  27.500  24.699  1.00  0.00     0.202 C 
BRANCH   4   5
ATOM      5  C   UNL A   1      30.776  27.215  23.198  1.00  0.00     0.261 C 
BRANCH   5   6
ATOM      6  O   UNL A   1      31.524  26.104  22.695  1.00  0.00    -0.460 OA
BRANCH   6   7
ATOM      7  C   UNL A   1      31.428  24.951  23.390  1.00  0.00     0.338 C 
ATOM      8  O   UNL A   1      30.442  24.245  23.501  1.00  0.00    -0.246 OA
BRANCH   7   9
ATOM      9  C   UNL A   1      32.788  24.563  23.831  1.00  0.00     0.060 A 
ATOM     10  C   UNL A   1      35.349  23.733  24.600  1.00  0.00     0.000 A 
ATOM     11  C   UNL A   1      34.951  23.651  23.257  1.00  0.00     0.011 A 
ATOM     12  C   UNL A   1      34.477  24.293  25.543  1.00  0.00     0.011 A 
ATOM     13  C   UNL A   1      33.674  24.056  22.874  1.00  0.00     0.016 A 
ATOM     14  C   UNL A   1      33.203  24.719  25.159  1.00  0.00     0.016 A 
BRANCH  10  15
ATOM     15  C   UNL A   1      36.591  23.093  25.030  1.00  0.00     0.075 A 
ATOM     16  N   UNL A   1      36.747  21.771  25.425  1.00  0.00    -0.233 N 
ATOM     17  N   UNL A   1      37.880  21.593  26.155  1.00  0.00    -0.163 NA
ATOM     18  C   UNL A   1      38.550  22.757  26.049  1.00  0.00     0.167 A 
ATOM     19  C   UNL A   1      37.777  23.719  25.359  1.00  0.00     0.064 A 
BRANCH  16  20
ATOM     20  C   UNL A   1      35.878  20.680  25.165  1.00  0.00     0.065 A 
ATOM     21  C   UNL A   1      34.170  18.573  24.537  1.00  0.00     0.082 A 
ATOM     22  C   UNL A   1      35.553  18.370  24.514  1.00  0.00     0.024 A 
ATOM     23  C   UNL A   1      33.635  19.816  24.897  1.00  0.00     0.024 A 
ATOM     24  C   UNL A   1      36.409  19.429  24.816  1.00  0.00     0.030 A 
ATOM     25  C   UNL A   1      34.492  20.865  25.240  1.00  0.00     0.030 A 
BRANCH  21  26
ATOM     26  S   UNL A   1      33.100  17.240  24.084  1.00  0.00     0.238 S 
ATOM     27  O   UNL A   1      32.907  17.278  22.646  1.00  0.00    -0.207 OA
ATOM     28  O   UNL A   1      32.007  17.177  25.016  1.00  0.00    -0.207 OA
BRANCH  26  29
ATOM     29  N   UNL A   1      34.028  15.875  24.396  1.00  0.00    -0.225 NA
ATOM     30  H   UNL A   1      35.012  16.136  24.440  1.00  0.00     0.137 HD
ATOM     31  H   UNL A   1      33.890  15.192  23.650  1.00  0.00     0.137 HD
ENDBRANCH  26  29
ENDBRANCH  21  26
ENDBRANCH  16  20
BRANCH  18  32
ATOM     32  C   UNL A   1      39.916  22.993  26.639  1.00  0.00     0.435 C 
ATOM     33  F   UNL A   1      40.748  21.930  26.504  1.00  0.00    -0.164 F 
ATOM     34  F   UNL A   1      40.536  24.066  26.078  1.00  0.00    -0.164 F 
ATOM     35  F   UNL A   1      39.840  23.254  27.975  1.00  0.00    -0.164 F 
ENDBRANCH  18  32
ENDBRANCH  10  15
ENDBRANCH   7   9
ENDBRANCH   6   7
ENDBRANCH   5   6
ENDBRANCH   4   5
ENDBRANCH   3   4
ENDBRANCH   2   3
ENDBRANCH   1   2
BRANCH   1  36
ATOM     36  O   UNL A   1      31.754  30.820  26.863  1.00  0.00    -0.377 OA
BRANCH  36  37
ATOM     37  C   UNL A   1      32.783  31.744  27.208  1.00  0.00     0.188 C 
BRANCH  37  38
ATOM     38  C   UNL A   1      34.164  31.312  27.775  1.00  0.00     0.188 C 
BRANCH  38  39
ATOM     39  O   UNL A   1      34.869  32.296  28.511  1.00  0.00    -0.376 OA
BRANCH  39  40
ATOM     40  C   UNL A   1      34.826  32.397  29.919  1.00  0.00     0.202 C 
BRANCH  40  41
ATOM     41  C   UNL A   1      36.061  32.019  30.721  1.00  0.00     0.261 C 
BRANCH  41  42
ATOM     42  O   UNL A   1      36.900  31.100  30.057  1.00  0.00    -0.460 OA
BRANCH  42  43
ATOM     43  C   UNL A   1      37.325  30.085  30.829  1.00  0.00     0.338 C 
ATOM     44  O   UNL A   1      36.666  29.176  31.302  1.00  0.00    -0.246 OA
BRANCH  43  45
ATOM     45  C   UNL A   1      38.731  30.334  31.137  1.00  0.00     0.060 A 
ATOM     46  C   UNL A   1      39.417  31.130  30.222  1.00  0.00     0.016 A 
ATOM     47  C   UNL A   1      39.368  29.423  31.992  1.00  0.00     0.016 A 
ATOM     48  C   UNL A   1      40.710  30.782  29.937  1.00  0.00     0.010 A 
ATOM     49  C   UNL A   1      40.639  29.044  31.675  1.00  0.00     0.010 A 
ATOM     50  C   UNL A   1      41.246  29.666  30.589  1.00  0.00    -0.014 A 
BRANCH  50  51
ATOM     51  C   UNL A   1      42.547  29.208  30.177  1.00  0.00     0.031 A 
ATOM     52  C   UNL A   1      42.463  27.874  29.557  1.00  0.00     0.074 A 
ATOM     53  C   UNL A   1      43.630  29.999  30.271  1.00  0.00     0.049 A 
ATOM     54  N   UNL A   1      42.941  26.765  30.008  1.00  0.00    -0.248 NA
ATOM     55  C   UNL A   1      41.546  27.715  28.411  1.00  0.00     0.031 C 
ATOM     56  C   UNL A   1      43.673  31.422  30.629  1.00  0.00     0.029 A 
ATOM     57  N   UNL A   1      44.922  29.727  29.953  1.00  0.00    -0.354 N 
ATOM     58  C   UNL A   1      42.586  25.813  29.061  1.00  0.00     0.074 A 
ATOM     59  C   UNL A   1      41.542  26.391  28.263  1.00  0.00     0.031 C 
ATOM     60  C   UNL A   1      44.877  31.930  30.282  1.00  0.00     0.029 A 
ATOM     61  C   UNL A   1      45.718  30.854  29.791  1.00  0.00     0.049 A 
ATOM     62  H   UNL A   1      45.265  28.810  29.847  1.00  0.00     0.167 HD
ATOM     63  C   UNL A   1      43.447  24.802  28.776  1.00  0.00     0.037 A 
ATOM     64  C   UNL A   1      46.937  30.881  29.197  1.00  0.00     0.037 A 
ATOM     65  C   UNL A   1      44.352  24.579  29.878  1.00  0.00     0.049 A 
ATOM     66  C   UNL A   1      47.439  29.482  29.164  1.00  0.00     0.074 A 
ATOM     67  C   UNL A   1      44.202  24.260  31.214  1.00  0.00     0.029 A 
ATOM     68  N   UNL A   1      45.627  25.068  29.747  1.00  0.00    -0.354 N 
ATOM     69  N   UNL A   1      47.789  28.807  30.223  1.00  0.00    -0.248 NA
ATOM     70  C   UNL A   1      47.137  28.680  27.988  1.00  0.00     0.031 C 
ATOM     71  C   UNL A   1      45.248  24.958  31.890  1.00  0.00     0.029 A 
ATOM     72  C   UNL A   1      46.017  25.623  30.935  1.00  0.00     0.049 A 
ATOM     73  H   UNL A   1      46.174  25.024  28.930  1.00  0.00     0.167 HD
ATOM     74  C   UNL A   1      47.333  27.518  29.987  1.00  0.00     0.074 A 
ATOM     75  C   UNL A   1      47.046  27.475  28.557  1.00  0.00     0.031 C 
ATOM     76  C   UNL A   1      46.953  26.720  31.028  1.00  0.00     0.037 A 
BRANCH  63  77
ATOM     77  C   UNL A   1      43.786  24.401  27.353  1.00  0.00     0.064 A 
ATOM     78  C   UNL A   1      43.725  23.035  27.020  1.00  0.00     0.173 A 
ATOM     79  C   UNL A   1      44.467  25.219  26.419  1.00  0.00     0.173 A 
ATOM     80  F   UNL A   1      43.113  22.162  27.835  1.00  0.00    -0.203 F 
ATOM     81  C   UNL A   1      44.389  22.516  25.907  1.00  0.00     0.198 A 
ATOM     82  C   UNL A   1      45.083  24.705  25.282  1.00  0.00     0.198 A 
ATOM     83  F   UNL A   1      44.672  26.526  26.605  1.00  0.00    -0.203 F 
ATOM     84  F   UNL A   1      44.427  21.191  25.715  1.00  0.00    -0.200 F 
ATOM     85  C   UNL A   1      45.078  23.350  25.045  1.00  0.00     0.200 A 
ATOM     86  F   UNL A   1      45.759  25.532  24.471  1.00  0.00    -0.200 F 
ATOM     87  F   UNL A   1      45.777  22.848  24.020  1.00  0.00    -0.200 F 
ENDBRANCH  63  77
BRANCH  64  88
ATOM     88  C   UNL A   1      47.535  31.951  28.360  1.00  0.00     0.064 A 
ATOM     89  C   UNL A   1      46.839  32.472  27.255  1.00  0.00     0.173 A 
ATOM     90  C   UNL A   1      48.664  32.679  28.783  1.00  0.00     0.173 A 
ATOM     91  F   UNL A   1      45.723  31.871  26.816  1.00  0.00    -0.203 F 
ATOM     92  C   UNL A   1      47.235  33.660  26.630  1.00  0.00     0.198 A 
ATOM     93  C   UNL A   1      49.063  33.858  28.152  1.00  0.00     0.198 A 
ATOM     94  F   UNL A   1      49.348  32.317  29.878  1.00  0.00    -0.203 F 
ATOM     95  F   UNL A   1      46.505  34.161  25.623  1.00  0.00    -0.200 F 
ATOM     96  C   UNL A   1      48.340  34.357  27.086  1.00  0.00     0.200 A 
ATOM     97  F   UNL A   1      50.114  34.542  28.629  1.00  0.00    -0.200 F 
ATOM     98  F   UNL A   1      48.683  35.527  26.529  1.00  0.00    -0.200 F 
ENDBRANCH  64  88
BRANCH  76  99
ATOM     99  C   UNL A   1      47.378  27.135  32.408  1.00  0.00     0.064 A 
ATOM    100  C   UNL A   1      46.654  28.012  33.234  1.00  0.00     0.173 A 
ATOM    101  C   UNL A   1      48.512  26.520  32.956  1.00  0.00     0.173 A 
ATOM    102  F   UNL A   1      45.507  28.563  32.816  1.00  0.00    -0.203 F 
ATOM    103  C   UNL A   1      47.078  28.295  34.532  1.00  0.00     0.198 A 
ATOM    104  C   UNL A   1      48.910  26.773  34.264  1.00  0.00     0.198 A 
ATOM    105  F   UNL A   1      49.213  25.635  32.230  1.00  0.00    -0.203 F 
ATOM    106  F   UNL A   1      46.383  29.151  35.295  1.00  0.00    -0.200 F 
ATOM    107  C   UNL A   1      48.202  27.670  35.047  1.00  0.00     0.200 A 
ATOM    108  F   UNL A   1      49.969  26.128  34.774  1.00  0.00    -0.200 F 
ATOM    109  F   UNL A   1      48.588  27.911  36.309  1.00  0.00    -0.200 F 
ENDBRANCH  76  99
ENDBRANCH  50  51
ENDBRANCH  43  45
ENDBRANCH  42  43
ENDBRANCH  41  42
ENDBRANCH  40  41
ENDBRANCH  39  40
ENDBRANCH  38  39
ENDBRANCH  37  38
ENDBRANCH  36  37
ENDBRANCH   1  36
TORSDOF 25
ENDMDL
MODEL 3
REMARK VINA RESULT:     -10.4      3.216      5.133
REMARK SMILES NS(=O)(=O)c1ccc(-n2nc(C(F)(F)F)cc2-c2ccc(C(=O)OCCOCCOCCOCCOC(=O)c3ccc(-c4c5nc(c(-c6c(F)c(F)c(F)c(F)c6F)c6ccc([nH]6)c(-c6c(F)c(F)c(F)c(F)c6F)c6nc(c(-c7c(F)c(F)c(F)c(F)c7F)c7ccc4[nH]7)C=C6)C=C5)cc3)cc2)cc1
REMARK SMILES IDX 29 1 28 2 27 3 26 4 25 5 24 6 22 7 23 8 21 9 18 10 19 11
REMARK SMILES IDX 103 12 20 13 102 14 17 15 9 16 10 17 11 18 16 19 8 20 5 21
REMARK SMILES IDX 6 22 105 23 7 24 104 25 2 26 3 27 4 28 1 29 12 32 13 33
REMARK SMILES IDX 14 34 15 35 30 36 31 37 32 38 33 39 34 40 35 41 36 42 37 43
REMARK SMILES IDX 38 44 39 45 40 46 101 47 41 48 100 49 42 50 43 51 44 52
REMARK SMILES IDX 94 53 45 54 99 55 93 56 95 57 46 58 98 59 92 60 91 61 47 63
REMARK SMILES IDX 79 64 59 65 78 66 60 67 63 68 77 69 96 70 61 71 62 72 76 74
REMARK SMILES IDX 97 75 64 76 48 77 49 78 57 79 50 80 51 81 55 82 58 83 52 84
REMARK SMILES IDX 53 85 56 86 54 87 80 88 81 89 89 90 82 91 83 92 87 93 90 94
REMARK SMILES IDX 84 95 85 96 88 97 86 98 65 99 66 100 74 101 67 102 68 103
REMARK SMILES IDX 72 104 75 105 69 106 70 107 73 108 71 109
REMARK H PARENT 1 30 1 31 95 62 63 73
REMARK Flexibility Score: inf
ROOT
ATOM      1  C   UNL A   1      37.694  28.594  31.424  1.00  0.00     0.188 C 
ENDROOT
BRANCH   1   2
ATOM      2  C   UNL A   1      37.761  29.077  29.958  1.00  0.00     0.188 C 
BRANCH   2   3
ATOM      3  O   UNL A   1      38.273  28.105  29.065  1.00  0.00    -0.376 OA
BRANCH   3   4
ATOM      4  C   UNL A   1      39.111  27.075  29.532  1.00  0.00     0.202 C 
BRANCH   4   5
ATOM      5  C   UNL A   1      39.809  26.157  28.521  1.00  0.00     0.261 C 
BRANCH   5   6
ATOM      6  O   UNL A   1      39.036  25.062  28.021  1.00  0.00    -0.460 OA
BRANCH   6   7
ATOM      7  C   UNL A   1      39.164  24.788  26.705  1.00  0.00     0.338 C 
ATOM      8  O   UNL A   1      40.067  25.145  25.969  1.00  0.00    -0.246 OA
BRANCH   7   9
ATOM      9  C   UNL A   1      38.129  23.795  26.337  1.00  0.00     0.060 A 
ATOM     10  C   UNL A   1      36.230  21.896  25.543  1.00  0.00     0.000 A 
ATOM     11  C   UNL A   1      37.601  21.620  25.424  1.00  0.00     0.011 A 
ATOM     12  C   UNL A   1      35.819  23.104  26.121  1.00  0.00     0.011 A 
ATOM     13  C   UNL A   1      38.547  22.568  25.812  1.00  0.00     0.016 A 
ATOM     14  C   UNL A   1      36.765  24.048  26.529  1.00  0.00     0.016 A 
BRANCH  10  15
ATOM     15  C   UNL A   1      35.253  21.004  24.921  1.00  0.00     0.075 A 
ATOM     16  N   UNL A   1      34.031  21.367  24.374  1.00  0.00    -0.233 N 
ATOM     17  N   UNL A   1      33.187  20.306  24.271  1.00  0.00    -0.163 NA
ATOM     18  C   UNL A   1      33.946  19.229  24.560  1.00  0.00     0.167 A 
ATOM     19  C   UNL A   1      35.238  19.624  24.975  1.00  0.00     0.064 A 
BRANCH  16  20
ATOM     20  C   UNL A   1      33.615  22.660  23.961  1.00  0.00     0.065 A 
ATOM     21  C   UNL A   1      32.873  25.244  23.237  1.00  0.00     0.082 A 
ATOM     22  C   UNL A   1      33.923  24.613  22.563  1.00  0.00     0.024 A 
ATOM     23  C   UNL A   1      32.175  24.582  24.255  1.00  0.00     0.024 A 
ATOM     24  C   UNL A   1      34.303  23.323  22.935  1.00  0.00     0.030 A 
ATOM     25  C   UNL A   1      32.528  23.274  24.598  1.00  0.00     0.030 A 
BRANCH  21  26
ATOM     26  S   UNL A   1      32.449  26.904  22.801  1.00  0.00     0.238 S 
ATOM     27  O   UNL A   1      32.998  27.795  23.808  1.00  0.00    -0.207 OA
ATOM     28  O   UNL A   1      31.072  26.946  22.390  1.00  0.00    -0.207 OA
BRANCH  26  29
ATOM     29  N   UNL A   1      33.337  27.176  21.401  1.00  0.00    -0.225 NA
ATOM     30  H   UNL A   1      33.290  28.165  21.156  1.00  0.00     0.137 HD
ATOM     31  H   UNL A   1      32.952  26.617  20.640  1.00  0.00     0.137 HD
ENDBRANCH  26  29
ENDBRANCH  21  26
ENDBRANCH  16  20
BRANCH  18  32
ATOM     32  C   UNL A   1      33.444  17.810  24.492  1.00  0.00     0.435 C 
ATOM     33  F   UNL A   1      32.447  17.552  25.375  1.00  0.00    -0.164 F 
ATOM     34  F   UNL A   1      32.981  17.492  23.254  1.00  0.00    -0.164 F 
ATOM     35  F   UNL A   1      34.440  16.920  24.766  1.00  0.00    -0.164 F 
ENDBRANCH  18  32
ENDBRANCH  10  15
ENDBRANCH   7   9
ENDBRANCH   6   7
ENDBRANCH   5   6
ENDBRANCH   4   5
ENDBRANCH   3   4
ENDBRANCH   2   3
ENDBRANCH   1   2
BRANCH   1  36
ATOM     36  O   UNL A   1      36.886  29.289  32.364  1.00  0.00    -0.377 OA
BRANCH  36  37
ATOM     37  C   UNL A   1      36.970  30.706  32.488  1.00  0.00     0.188 C 
BRANCH  37  38
ATOM     38  C   UNL A   1      36.015  31.686  31.749  1.00  0.00     0.188 C 
BRANCH  38  39
ATOM     39  O   UNL A   1      36.638  32.723  31.013  1.00  0.00    -0.376 OA
BRANCH  39  40
ATOM     40  C   UNL A   1      37.251  33.845  31.611  1.00  0.00     0.202 C 
BRANCH  40  41
ATOM     41  C   UNL A   1      38.391  34.535  30.880  1.00  0.00     0.261 C 
BRANCH  41  42
ATOM     42  O   UNL A   1      39.160  33.659  30.086  1.00  0.00    -0.460 OA
BRANCH  42  43
ATOM     43  C   UNL A   1      40.488  33.815  30.219  1.00  0.00     0.338 C 
ATOM     44  O   UNL A   1      41.214  34.595  29.628  1.00  0.00    -0.246 OA
BRANCH  43  45
ATOM     45  C   UNL A   1      40.961  32.765  31.118  1.00  0.00     0.060 A 
ATOM     46  C   UNL A   1      42.294  32.863  31.512  1.00  0.00     0.016 A 
ATOM     47  C   UNL A   1      40.245  31.559  31.121  1.00  0.00     0.016 A 
ATOM     48  C   UNL A   1      43.005  31.697  31.604  1.00  0.00     0.010 A 
ATOM     49  C   UNL A   1      40.963  30.400  31.165  1.00  0.00     0.010 A 
ATOM     50  C   UNL A   1      42.344  30.501  31.307  1.00  0.00    -0.014 A 
BRANCH  50  51
ATOM     51  C   UNL A   1      43.127  29.294  31.252  1.00  0.00     0.031 A 
ATOM     52  C   UNL A   1      43.536  28.870  32.603  1.00  0.00     0.074 A 
ATOM     53  C   UNL A   1      43.316  28.635  30.095  1.00  0.00     0.049 A 
ATOM     54  N   UNL A   1      44.728  28.839  33.090  1.00  0.00    -0.248 NA
ATOM     55  C   UNL A   1      42.469  28.669  33.602  1.00  0.00     0.031 C 
ATOM     56  C   UNL A   1      42.684  28.901  28.798  1.00  0.00     0.029 A 
ATOM     57  N   UNL A   1      44.034  27.507  29.858  1.00  0.00    -0.354 N 
ATOM     58  C   UNL A   1      44.569  28.374  34.390  1.00  0.00     0.074 A 
ATOM     59  C   UNL A   1      43.181  28.532  34.719  1.00  0.00     0.031 C 
ATOM     60  C   UNL A   1      42.864  27.833  27.989  1.00  0.00     0.029 A 
ATOM     61  C   UNL A   1      43.714  26.870  28.666  1.00  0.00     0.049 A 
ATOM     62  H   UNL A   1      44.722  27.171  30.477  1.00  0.00     0.167 HD
ATOM     63  C   UNL A   1      45.507  27.549  34.922  1.00  0.00     0.037 A 
ATOM     64  C   UNL A   1      44.057  25.600  28.334  1.00  0.00     0.037 A 
ATOM     65  C   UNL A   1      46.773  27.717  34.249  1.00  0.00     0.049 A 
ATOM     66  C   UNL A   1      45.166  25.194  29.236  1.00  0.00     0.074 A 
ATOM     67  C   UNL A   1      47.631  28.779  34.035  1.00  0.00     0.029 A 
ATOM     68  N   UNL A   1      47.128  26.755  33.338  1.00  0.00    -0.354 N 
ATOM     69  N   UNL A   1      46.366  25.702  29.191  1.00  0.00    -0.248 NA
ATOM     70  C   UNL A   1      44.819  24.531  30.484  1.00  0.00     0.031 C 
ATOM     71  C   UNL A   1      48.183  28.564  32.736  1.00  0.00     0.029 A 
ATOM     72  C   UNL A   1      47.681  27.359  32.243  1.00  0.00     0.049 A 
ATOM     73  H   UNL A   1      47.005  25.785  33.454  1.00  0.00     0.167 HD
ATOM     74  C   UNL A   1      46.752  25.813  30.519  1.00  0.00     0.074 A 
ATOM     75  C   UNL A   1      45.813  24.975  31.257  1.00  0.00     0.031 C 
ATOM     76  C   UNL A   1      47.602  26.809  30.909  1.00  0.00     0.037 A 
BRANCH  63  77
ATOM     77  C   UNL A   1      45.142  26.275  35.661  1.00  0.00     0.064 A 
ATOM     78  C   UNL A   1      45.817  25.993  36.863  1.00  0.00     0.173 A 
ATOM     79  C   UNL A   1      44.430  25.187  35.101  1.00  0.00     0.173 A 
ATOM     80  F   UNL A   1      46.534  26.945  37.481  1.00  0.00    -0.203 F 
ATOM     81  C   UNL A   1      45.869  24.703  37.396  1.00  0.00     0.198 A 
ATOM     82  C   UNL A   1      44.440  23.915  35.664  1.00  0.00     0.198 A 
ATOM     83  F   UNL A   1      43.784  25.260  33.933  1.00  0.00    -0.203 F 
ATOM     84  F   UNL A   1      46.646  24.456  38.458  1.00  0.00    -0.200 F 
ATOM     85  C   UNL A   1      45.190  23.663  36.789  1.00  0.00     0.200 A 
ATOM     86  F   UNL A   1      43.788  22.919  35.047  1.00  0.00    -0.200 F 
ATOM     87  F   UNL A   1      45.298  22.413  37.254  1.00  0.00    -0.200 F 
ENDBRANCH  63  77
BRANCH  64  88
ATOM     88  C   UNL A   1      43.280  24.609  27.547  1.00  0.00     0.064 A 
ATOM     89  C   UNL A   1      43.610  24.336  26.208  1.00  0.00     0.173 A 
ATOM     90  C   UNL A   1      42.389  23.709  28.164  1.00  0.00     0.173 A 
ATOM     91  F   UNL A   1      44.490  25.112  25.559  1.00  0.00    -0.203 F 
ATOM     92  C   UNL A   1      43.098  23.220  25.538  1.00  0.00     0.198 A 
ATOM     93  C   UNL A   1      41.871  22.602  27.490  1.00  0.00     0.198 A 
ATOM     94  F   UNL A   1      42.076  23.828  29.462  1.00  0.00    -0.203 F 
ATOM     95  F   UNL A   1      43.490  22.956  24.283  1.00  0.00    -0.200 F 
ATOM     96  C   UNL A   1      42.238  22.348  26.183  1.00  0.00     0.200 A 
ATOM     97  F   UNL A   1      41.070  21.745  28.140  1.00  0.00    -0.200 F 
ATOM     98  F   UNL A   1      41.798  21.245  25.562  1.00  0.00    -0.200 F 
ENDBRANCH  64  88
BRANCH  76  99
ATOM     99  C   UNL A   1      48.367  27.525  29.832  1.00  0.00     0.064 A 
ATOM    100  C   UNL A   1      47.909  28.669  29.156  1.00  0.00     0.173 A 
ATOM    101  C   UNL A   1      49.673  27.095  29.562  1.00  0.00     0.173 A 
ATOM    102  F   UNL A   1      46.709  29.197  29.431  1.00  0.00    -0.203 F 
ATOM    103  C   UNL A   1      48.708  29.319  28.216  1.00  0.00     0.198 A 
ATOM    104  C   UNL A   1      50.483  27.770  28.654  1.00  0.00     0.198 A 
ATOM    105  F   UNL A   1      50.183  26.040  30.216  1.00  0.00    -0.203 F 
ATOM    106  F   UNL A   1      48.241  30.397  27.567  1.00  0.00    -0.200 F 
ATOM    107  C   UNL A   1      49.996  28.873  27.972  1.00  0.00     0.200 A 
ATOM    108  F   UNL A   1      51.745  27.363  28.458  1.00  0.00    -0.200 F 
ATOM    109  F   UNL A   1      50.779  29.521  27.098  1.00  0.00    -0.200 F 
ENDBRANCH  76  99
ENDBRANCH  50  51
ENDBRANCH  43  45
ENDBRANCH  42  43
ENDBRANCH  41  42
ENDBRANCH  40  41
ENDBRANCH  39  40
ENDBRANCH  38  39
ENDBRANCH  37  38
ENDBRANCH  36  37
ENDBRANCH   1  36
TORSDOF 25
ENDMDL
