MODEL 1
REMARK VINA RESULT:      -8.2      0.000      0.000
REMARK SMILES CCc1ccc(-c2nc(-c3cccc(C(=O)OCCOCCOCCOCCOC(=O)c4ccc(-c5c6nc(c(-c7c(F)c(F)c(F)c(F)c7F)c7ccc([nH]7)c(-c7c(F)c(F)c(F)c(F)c7F)c7nc(c(-c8c(F)c(F)c(F)c(F)c8F)c8ccc5[nH]8)C=C7)C=C6)cc4)c3)no2)o1
REMARK SMILES IDX 22 1 21 2 20 3 19 4 18 5 17 6 15 7 16 8 14 9 10 10 11 11
REMARK SMILES IDX 95 12 12 13 13 14 9 15 7 16 8 17 97 18 96 19 6 20 3 21 4 22
REMARK SMILES IDX 98 23 5 24 2 25 1 26 23 27 24 28 25 29 26 30 27 31 28 32
REMARK SMILES IDX 29 33 30 34 31 35 32 36 33 37 94 38 34 39 93 40 35 41 36 42
REMARK SMILES IDX 37 43 87 44 38 45 92 46 86 47 88 48 39 49 91 50 85 51 84 52
REMARK SMILES IDX 40 54 72 55 52 56 71 57 53 58 56 59 70 60 89 61 54 62 55 63
REMARK SMILES IDX 69 65 90 66 57 67 41 68 42 69 50 70 43 71 44 72 48 73 51 74
REMARK SMILES IDX 45 75 46 76 49 77 47 78 73 79 74 80 82 81 75 82 76 83 80 84
REMARK SMILES IDX 83 85 77 86 78 87 81 88 79 89 58 90 59 91 67 92 60 93 61 94
REMARK SMILES IDX 65 95 68 96 62 97 63 98 66 99 64 100
REMARK H PARENT 88 53 56 64
REMARK Flexibility Score: inf
ROOT
ATOM      1  C   UNL A   1      46.723  24.701  25.315  1.00  0.00     0.188 C 
ENDROOT
BRANCH   1   2
ATOM      2  C   UNL A   1      47.029  25.460  26.623  1.00  0.00     0.188 C 
BRANCH   2   3
ATOM      3  O   UNL A   1      47.803  26.629  26.425  1.00  0.00    -0.376 OA
BRANCH   3   4
ATOM      4  C   UNL A   1      47.263  27.884  26.791  1.00  0.00     0.202 C 
BRANCH   4   5
ATOM      5  C   UNL A   1      45.987  28.396  26.101  1.00  0.00     0.261 C 
BRANCH   5   6
ATOM      6  O   UNL A   1      45.883  29.812  25.916  1.00  0.00    -0.460 OA
BRANCH   6   7
ATOM      7  C   UNL A   1      44.906  30.463  26.587  1.00  0.00     0.338 C 
ATOM      8  O   UNL A   1      43.928  29.966  27.114  1.00  0.00    -0.246 OA
BRANCH   7   9
ATOM      9  C   UNL A   1      45.361  31.863  26.783  1.00  0.00     0.060 A 
ATOM     10  C   UNL A   1      44.920  34.249  26.846  1.00  0.00     0.024 A 
ATOM     11  C   UNL A   1      46.300  34.495  26.848  1.00  0.00     0.012 A 
ATOM     12  C   UNL A   1      44.452  32.927  26.805  1.00  0.00     0.027 A 
ATOM     13  C   UNL A   1      47.205  33.432  26.842  1.00  0.00     0.002 A 
ATOM     14  C   UNL A   1      46.738  32.117  26.822  1.00  0.00     0.016 A 
BRANCH  10  15
ATOM     15  C   UNL A   1      43.969  35.342  26.922  1.00  0.00     0.202 A 
ATOM     16  C   UNL A   1      43.092  37.126  27.612  1.00  0.00     0.293 A 
ATOM     17  N   UNL A   1      44.117  36.337  27.854  1.00  0.00    -0.184 NA
ATOM     18  O   UNL A   1      42.310  36.669  26.585  1.00  0.00    -0.330 OA
ATOM     19  N   UNL A   1      42.919  35.502  26.103  1.00  0.00    -0.057 NA
BRANCH  16  20
ATOM     20  C   UNL A   1      42.870  38.351  28.312  1.00  0.00     0.192 A 
ATOM     21  C   UNL A   1      43.222  40.059  29.666  1.00  0.00     0.104 A 
ATOM     22  C   UNL A   1      42.042  40.327  29.008  1.00  0.00     0.046 A 
ATOM     23  O   UNL A   1      43.705  38.842  29.283  1.00  0.00    -0.456 OA
ATOM     24  C   UNL A   1      41.832  39.247  28.123  1.00  0.00     0.056 A 
BRANCH  21  25
ATOM     25  C   UNL A   1      44.032  40.810  30.662  1.00  0.00     0.072 C 
ATOM     26  C   UNL A   1      43.191  41.301  31.833  1.00  0.00     0.012 C 
ENDBRANCH  21  25
ENDBRANCH  16  20
ENDBRANCH  10  15
ENDBRANCH   7   9
ENDBRANCH   6   7
ENDBRANCH   5   6
ENDBRANCH   4   5
ENDBRANCH   3   4
ENDBRANCH   2   3
ENDBRANCH   1   2
BRANCH   1  27
ATOM     27  O   UNL A   1      46.687  23.281  25.357  1.00  0.00    -0.377 OA
BRANCH  27  28
ATOM     28  C   UNL A   1      45.485  22.589  25.023  1.00  0.00     0.188 C 
BRANCH  28  29
ATOM     29  C   UNL A   1      44.526  22.023  26.099  1.00  0.00     0.188 C 
BRANCH  29  30
ATOM     30  O   UNL A   1      43.915  20.788  25.766  1.00  0.00    -0.376 OA
BRANCH  30  31
ATOM     31  C   UNL A   1      42.523  20.658  25.987  1.00  0.00     0.202 C 
BRANCH  31  32
ATOM     32  C   UNL A   1      41.826  21.828  26.692  1.00  0.00     0.261 C 
BRANCH  32  33
ATOM     33  O   UNL A   1      41.036  22.687  25.854  1.00  0.00    -0.460 OA
BRANCH  33  34
ATOM     34  C   UNL A   1      39.804  23.018  26.294  1.00  0.00     0.338 C 
ATOM     35  O   UNL A   1      38.806  22.315  26.296  1.00  0.00    -0.246 OA
BRANCH  34  36
ATOM     36  C   UNL A   1      39.902  24.333  26.956  1.00  0.00     0.060 A 
ATOM     37  C   UNL A   1      40.557  25.382  26.295  1.00  0.00     0.016 A 
ATOM     38  C   UNL A   1      39.340  24.535  28.218  1.00  0.00     0.016 A 
ATOM     39  C   UNL A   1      40.675  26.627  26.911  1.00  0.00     0.010 A 
ATOM     40  C   UNL A   1      39.478  25.778  28.842  1.00  0.00     0.010 A 
ATOM     41  C   UNL A   1      40.172  26.821  28.205  1.00  0.00    -0.014 A 
BRANCH  41  42
ATOM     42  C   UNL A   1      40.518  28.056  28.949  1.00  0.00     0.031 A 
ATOM     43  C   UNL A   1      41.911  28.203  29.497  1.00  0.00     0.074 A 
ATOM     44  C   UNL A   1      39.622  29.046  29.110  1.00  0.00     0.049 A 
ATOM     45  N   UNL A   1      42.436  29.181  30.191  1.00  0.00    -0.248 NA
ATOM     46  C   UNL A   1      42.838  27.093  29.224  1.00  0.00     0.031 C 
ATOM     47  C   UNL A   1      38.254  29.038  28.599  1.00  0.00     0.029 A 
ATOM     48  N   UNL A   1      39.734  30.252  29.757  1.00  0.00    -0.354 N 
ATOM     49  C   UNL A   1      43.750  28.803  30.438  1.00  0.00     0.074 A 
ATOM     50  C   UNL A   1      43.932  27.493  29.854  1.00  0.00     0.031 C 
ATOM     51  C   UNL A   1      37.648  30.183  28.958  1.00  0.00     0.029 A 
ATOM     52  C   UNL A   1      38.575  30.988  29.752  1.00  0.00     0.049 A 
ATOM     53  H   UNL A   1      40.565  30.559  30.185  1.00  0.00     0.167 HD
ATOM     54  C   UNL A   1      44.719  29.492  31.086  1.00  0.00     0.037 A 
ATOM     55  C   UNL A   1      38.292  32.167  30.340  1.00  0.00     0.037 A 
ATOM     56  C   UNL A   1      44.532  30.794  31.674  1.00  0.00     0.049 A 
ATOM     57  C   UNL A   1      39.368  32.879  31.121  1.00  0.00     0.074 A 
ATOM     58  C   UNL A   1      45.456  31.583  32.336  1.00  0.00     0.029 A 
ATOM     59  N   UNL A   1      43.333  31.493  31.682  1.00  0.00    -0.354 N 
ATOM     60  N   UNL A   1      40.617  32.534  31.323  1.00  0.00    -0.248 NA
ATOM     61  C   UNL A   1      38.993  34.153  31.751  1.00  0.00     0.031 C 
ATOM     62  C   UNL A   1      44.802  32.728  32.801  1.00  0.00     0.029 A 
ATOM     63  C   UNL A   1      43.487  32.689  32.367  1.00  0.00     0.049 A 
ATOM     64  H   UNL A   1      42.497  31.185  31.263  1.00  0.00     0.167 HD
ATOM     65  C   UNL A   1      41.183  33.557  32.075  1.00  0.00     0.074 A 
ATOM     66  C   UNL A   1      40.146  34.548  32.273  1.00  0.00     0.031 C 
ATOM     67  C   UNL A   1      42.446  33.667  32.559  1.00  0.00     0.037 A 
BRANCH  54  68
ATOM     68  C   UNL A   1      46.064  28.837  31.223  1.00  0.00     0.064 A 
ATOM     69  C   UNL A   1      47.111  29.100  30.326  1.00  0.00     0.173 A 
ATOM     70  C   UNL A   1      46.318  27.957  32.286  1.00  0.00     0.173 A 
ATOM     71  F   UNL A   1      46.918  29.922  29.284  1.00  0.00    -0.203 F 
ATOM     72  C   UNL A   1      48.352  28.486  30.474  1.00  0.00     0.198 A 
ATOM     73  C   UNL A   1      47.571  27.372  32.450  1.00  0.00     0.198 A 
ATOM     74  F   UNL A   1      45.354  27.672  33.174  1.00  0.00    -0.203 F 
ATOM     75  F   UNL A   1      49.322  28.712  29.576  1.00  0.00    -0.200 F 
ATOM     76  C   UNL A   1      48.584  27.629  31.540  1.00  0.00     0.200 A 
ATOM     77  F   UNL A   1      47.796  26.556  33.490  1.00  0.00    -0.200 F 
ATOM     78  F   UNL A   1      49.782  27.047  31.687  1.00  0.00    -0.200 F 
ENDBRANCH  54  68
BRANCH  55  79
ATOM     79  C   UNL A   1      36.928  32.750  30.228  1.00  0.00     0.064 A 
ATOM     80  C   UNL A   1      36.540  33.480  29.096  1.00  0.00     0.173 A 
ATOM     81  C   UNL A   1      35.993  32.615  31.267  1.00  0.00     0.173 A 
ATOM     82  F   UNL A   1      37.405  33.662  28.087  1.00  0.00    -0.203 F 
ATOM     83  C   UNL A   1      35.281  34.074  29.017  1.00  0.00     0.198 A 
ATOM     84  C   UNL A   1      34.723  33.181  31.173  1.00  0.00     0.198 A 
ATOM     85  F   UNL A   1      36.314  31.933  32.375  1.00  0.00    -0.203 F 
ATOM     86  F   UNL A   1      34.959  34.816  27.949  1.00  0.00    -0.200 F 
ATOM     87  C   UNL A   1      34.372  33.918  30.053  1.00  0.00     0.200 A 
ATOM     88  F   UNL A   1      33.844  33.018  32.171  1.00  0.00    -0.200 F 
ATOM     89  F   UNL A   1      33.161  34.488  29.976  1.00  0.00    -0.200 F 
ENDBRANCH  55  79
BRANCH  67  90
ATOM     90  C   UNL A   1      42.785  34.921  33.320  1.00  0.00     0.064 A 
ATOM     91  C   UNL A   1      43.278  36.067  32.677  1.00  0.00     0.173 A 
ATOM     92  C   UNL A   1      42.597  34.981  34.710  1.00  0.00     0.173 A 
ATOM     93  F   UNL A   1      43.487  36.062  31.353  1.00  0.00    -0.203 F 
ATOM     94  C   UNL A   1      43.613  37.208  33.404  1.00  0.00     0.198 A 
ATOM     95  C   UNL A   1      42.895  36.137  35.426  1.00  0.00     0.198 A 
ATOM     96  F   UNL A   1      42.117  33.919  35.375  1.00  0.00    -0.203 F 
ATOM     97  F   UNL A   1      44.147  38.265  32.777  1.00  0.00    -0.200 F 
ATOM     98  C   UNL A   1      43.416  37.244  34.775  1.00  0.00     0.200 A 
ATOM     99  F   UNL A   1      42.686  36.176  36.750  1.00  0.00    -0.200 F 
ATOM    100  F   UNL A   1      43.737  38.343  35.472  1.00  0.00    -0.200 F 
ENDBRANCH  67  90
ENDBRANCH  41  42
ENDBRANCH  34  36
ENDBRANCH  33  34
ENDBRANCH  32  33
ENDBRANCH  31  32
ENDBRANCH  30  31
ENDBRANCH  29  30
ENDBRANCH  28  29
ENDBRANCH  27  28
ENDBRANCH   1  27
TORSDOF 23
ENDMDL
MODEL 2
REMARK VINA RESULT:      -7.9      4.811     10.831
REMARK SMILES CCc1ccc(-c2nc(-c3cccc(C(=O)OCCOCCOCCOCCOC(=O)c4ccc(-c5c6nc(c(-c7c(F)c(F)c(F)c(F)c7F)c7ccc([nH]7)c(-c7c(F)c(F)c(F)c(F)c7F)c7nc(c(-c8c(F)c(F)c(F)c(F)c8F)c8ccc5[nH]8)C=C7)C=C6)cc4)c3)no2)o1
REMARK SMILES IDX 22 1 21 2 20 3 19 4 18 5 17 6 15 7 16 8 14 9 10 10 11 11
REMARK SMILES IDX 95 12 12 13 13 14 9 15 7 16 8 17 97 18 96 19 6 20 3 21 4 22
REMARK SMILES IDX 98 23 5 24 2 25 1 26 23 27 24 28 25 29 26 30 27 31 28 32
REMARK SMILES IDX 29 33 30 34 31 35 32 36 33 37 94 38 34 39 93 40 35 41 36 42
REMARK SMILES IDX 37 43 87 44 38 45 92 46 86 47 88 48 39 49 91 50 85 51 84 52
REMARK SMILES IDX 40 54 72 55 52 56 71 57 53 58 56 59 70 60 89 61 54 62 55 63
REMARK SMILES IDX 69 65 90 66 57 67 41 68 42 69 50 70 43 71 44 72 48 73 51 74
REMARK SMILES IDX 45 75 46 76 49 77 47 78 73 79 74 80 82 81 75 82 76 83 80 84
REMARK SMILES IDX 83 85 77 86 78 87 81 88 79 89 58 90 59 91 67 92 60 93 61 94
REMARK SMILES IDX 65 95 68 96 62 97 63 98 66 99 64 100
REMARK H PARENT 88 53 56 64
REMARK Flexibility Score: inf
ROOT
ATOM      1  C   UNL A   1      45.610  21.327  34.392  1.00  0.00     0.188 C 
ENDROOT
BRANCH   1   2
ATOM      2  C   UNL A   1      44.987  22.660  34.852  1.00  0.00     0.188 C 
BRANCH   2   3
ATOM      3  O   UNL A   1      44.955  23.646  33.835  1.00  0.00    -0.376 OA
BRANCH   3   4
ATOM      4  C   UNL A   1      46.021  24.570  33.736  1.00  0.00     0.202 C 
BRANCH   4   5
ATOM      5  C   UNL A   1      46.067  25.559  32.560  1.00  0.00     0.261 C 
BRANCH   5   6
ATOM      6  O   UNL A   1      47.197  26.435  32.503  1.00  0.00    -0.460 OA
BRANCH   6   7
ATOM      7  C   UNL A   1      48.250  26.056  31.744  1.00  0.00     0.338 C 
ATOM      8  O   UNL A   1      49.168  25.330  32.080  1.00  0.00    -0.246 OA
BRANCH   7   9
ATOM      9  C   UNL A   1      47.964  26.478  30.349  1.00  0.00     0.060 A 
ATOM     10  C   UNL A   1      47.467  25.952  28.032  1.00  0.00     0.024 A 
ATOM     11  C   UNL A   1      47.738  27.281  27.681  1.00  0.00     0.012 A 
ATOM     12  C   UNL A   1      47.590  25.550  29.371  1.00  0.00     0.027 A 
ATOM     13  C   UNL A   1      48.097  28.209  28.661  1.00  0.00     0.002 A 
ATOM     14  C   UNL A   1      48.198  27.813  29.995  1.00  0.00     0.016 A 
BRANCH  10  15
ATOM     15  C   UNL A   1      47.027  24.994  27.035  1.00  0.00     0.202 A 
ATOM     16  C   UNL A   1      45.911  23.420  26.194  1.00  0.00     0.293 A 
ATOM     17  N   UNL A   1      46.028  24.098  27.317  1.00  0.00    -0.184 NA
ATOM     18  O   UNL A   1      46.792  23.841  25.234  1.00  0.00    -0.330 OA
ATOM     19  N   UNL A   1      47.507  24.914  25.785  1.00  0.00    -0.057 NA
BRANCH  16  20
ATOM     20  C   UNL A   1      44.928  22.403  25.998  1.00  0.00     0.192 A 
ATOM     21  C   UNL A   1      44.020  20.487  25.380  1.00  0.00     0.104 A 
ATOM     22  C   UNL A   1      43.047  21.166  26.080  1.00  0.00     0.046 A 
ATOM     23  O   UNL A   1      45.147  21.251  25.286  1.00  0.00    -0.456 OA
ATOM     24  C   UNL A   1      43.637  22.379  26.498  1.00  0.00     0.056 A 
BRANCH  21  25
ATOM     25  C   UNL A   1      44.074  19.146  24.741  1.00  0.00     0.072 C 
ATOM     26  C   UNL A   1      44.946  19.139  23.493  1.00  0.00     0.012 C 
ENDBRANCH  21  25
ENDBRANCH  16  20
ENDBRANCH  10  15
ENDBRANCH   7   9
ENDBRANCH   6   7
ENDBRANCH   5   6
ENDBRANCH   4   5
ENDBRANCH   3   4
ENDBRANCH   2   3
ENDBRANCH   1   2
BRANCH   1  27
ATOM     27  O   UNL A   1      46.412  20.606  35.318  1.00  0.00    -0.377 OA
BRANCH  27  28
ATOM     28  C   UNL A   1      45.943  20.391  36.648  1.00  0.00     0.188 C 
BRANCH  28  29
ATOM     29  C   UNL A   1      46.620  21.033  37.883  1.00  0.00     0.188 C 
BRANCH  29  30
ATOM     30  O   UNL A   1      46.416  22.429  38.019  1.00  0.00    -0.376 OA
BRANCH  30  31
ATOM     31  C   UNL A   1      47.355  23.297  37.412  1.00  0.00     0.202 C 
BRANCH  31  32
ATOM     32  C   UNL A   1      47.572  24.657  38.089  1.00  0.00     0.261 C 
BRANCH  32  33
ATOM     33  O   UNL A   1      46.535  25.632  37.889  1.00  0.00    -0.460 OA
BRANCH  33  34
ATOM     34  C   UNL A   1      46.895  26.817  37.357  1.00  0.00     0.338 C 
ATOM     35  O   UNL A   1      47.951  27.409  37.517  1.00  0.00    -0.246 OA
BRANCH  34  36
ATOM     36  C   UNL A   1      45.858  27.207  36.382  1.00  0.00     0.060 A 
ATOM     37  C   UNL A   1      46.128  28.245  35.479  1.00  0.00     0.016 A 
ATOM     38  C   UNL A   1      44.629  26.544  36.351  1.00  0.00     0.016 A 
ATOM     39  C   UNL A   1      45.154  28.640  34.562  1.00  0.00     0.010 A 
ATOM     40  C   UNL A   1      43.649  26.956  35.445  1.00  0.00     0.010 A 
ATOM     41  C   UNL A   1      43.894  28.025  34.567  1.00  0.00    -0.014 A 
BRANCH  41  42
ATOM     42  C   UNL A   1      42.790  28.612  33.770  1.00  0.00     0.031 A 
ATOM     43  C   UNL A   1      41.860  29.589  34.434  1.00  0.00     0.074 A 
ATOM     44  C   UNL A   1      42.632  28.306  32.470  1.00  0.00     0.049 A 
ATOM     45  N   UNL A   1      40.819  30.215  33.946  1.00  0.00    -0.248 NA
ATOM     46  C   UNL A   1      42.144  29.902  35.844  1.00  0.00     0.031 C 
ATOM     47  C   UNL A   1      43.485  27.402  31.704  1.00  0.00     0.029 A 
ATOM     48  N   UNL A   1      41.689  28.729  31.564  1.00  0.00    -0.354 N 
ATOM     49  C   UNL A   1      40.324  30.991  34.987  1.00  0.00     0.074 A 
ATOM     50  C   UNL A   1      41.155  30.731  36.142  1.00  0.00     0.031 C 
ATOM     51  C   UNL A   1      43.023  27.329  30.444  1.00  0.00     0.029 A 
ATOM     52  C   UNL A   1      41.823  28.156  30.324  1.00  0.00     0.049 A 
ATOM     53  H   UNL A   1      40.983  29.379  31.784  1.00  0.00     0.167 HD
ATOM     54  C   UNL A   1      39.278  31.850  34.975  1.00  0.00     0.037 A 
ATOM     55  C   UNL A   1      41.051  28.272  29.225  1.00  0.00     0.037 A 
ATOM     56  C   UNL A   1      38.448  32.101  33.825  1.00  0.00     0.049 A 
ATOM     57  C   UNL A   1      39.846  29.178  29.263  1.00  0.00     0.074 A 
ATOM     58  C   UNL A   1      37.375  32.967  33.707  1.00  0.00     0.029 A 
ATOM     59  N   UNL A   1      38.590  31.474  32.596  1.00  0.00    -0.354 N 
ATOM     60  N   UNL A   1      39.403  29.935  30.238  1.00  0.00    -0.248 NA
ATOM     61  C   UNL A   1      39.036  29.250  28.038  1.00  0.00     0.031 C 
ATOM     62  C   UNL A   1      36.828  32.817  32.429  1.00  0.00     0.029 A 
ATOM     63  C   UNL A   1      37.604  31.910  31.724  1.00  0.00     0.049 A 
ATOM     64  H   UNL A   1      39.290  30.816  32.375  1.00  0.00     0.167 HD
ATOM     65  C   UNL A   1      38.285  30.593  29.738  1.00  0.00     0.074 A 
ATOM     66  C   UNL A   1      38.132  30.162  28.364  1.00  0.00     0.031 C 
ATOM     67  C   UNL A   1      37.460  31.473  30.359  1.00  0.00     0.037 A 
BRANCH  54  68
ATOM     68  C   UNL A   1      38.950  32.561  36.258  1.00  0.00     0.064 A 
ATOM     69  C   UNL A   1      39.390  33.869  36.514  1.00  0.00     0.173 A 
ATOM     70  C   UNL A   1      38.156  31.936  37.231  1.00  0.00     0.173 A 
ATOM     71  F   UNL A   1      40.164  34.508  35.624  1.00  0.00    -0.203 F 
ATOM     72  C   UNL A   1      39.070  34.512  37.707  1.00  0.00     0.198 A 
ATOM     73  C   UNL A   1      37.809  32.595  38.407  1.00  0.00     0.198 A 
ATOM     74  F   UNL A   1      37.705  30.687  37.036  1.00  0.00    -0.203 F 
ATOM     75  F   UNL A   1      39.544  35.742  37.953  1.00  0.00    -0.200 F 
ATOM     76  C   UNL A   1      38.273  33.879  38.649  1.00  0.00     0.200 A 
ATOM     77  F   UNL A   1      37.026  31.985  39.309  1.00  0.00    -0.200 F 
ATOM     78  F   UNL A   1      37.958  34.502  39.792  1.00  0.00    -0.200 F 
ENDBRANCH  54  68
BRANCH  55  79
ATOM     79  C   UNL A   1      41.380  27.502  27.996  1.00  0.00     0.064 A 
ATOM     80  C   UNL A   1      40.898  26.199  27.804  1.00  0.00     0.173 A 
ATOM     81  C   UNL A   1      42.212  28.041  27.001  1.00  0.00     0.173 A 
ATOM     82  F   UNL A   1      40.123  25.627  28.737  1.00  0.00    -0.203 F 
ATOM     83  C   UNL A   1      41.254  25.457  26.678  1.00  0.00     0.198 A 
ATOM     84  C   UNL A   1      42.539  27.310  25.861  1.00  0.00     0.198 A 
ATOM     85  F   UNL A   1      42.706  29.279  27.137  1.00  0.00    -0.203 F 
ATOM     86  F   UNL A   1      40.827  24.194  26.550  1.00  0.00    -0.200 F 
ATOM     87  C   UNL A   1      42.069  26.016  25.705  1.00  0.00     0.200 A 
ATOM     88  F   UNL A   1      43.317  27.859  24.917  1.00  0.00    -0.200 F 
ATOM     89  F   UNL A   1      42.409  25.303  24.623  1.00  0.00    -0.200 F 
ENDBRANCH  55  79
BRANCH  67  90
ATOM     90  C   UNL A   1      36.337  32.056  29.544  1.00  0.00     0.064 A 
ATOM     91  C   UNL A   1      35.268  31.271  29.085  1.00  0.00     0.173 A 
ATOM     92  C   UNL A   1      36.323  33.425  29.232  1.00  0.00     0.173 A 
ATOM     93  F   UNL A   1      35.235  29.956  29.344  1.00  0.00    -0.203 F 
ATOM     94  C   UNL A   1      34.253  31.826  28.308  1.00  0.00     0.198 A 
ATOM     95  C   UNL A   1      35.286  33.983  28.489  1.00  0.00     0.198 A 
ATOM     96  F   UNL A   1      37.313  34.226  29.654  1.00  0.00    -0.203 F 
ATOM     97  F   UNL A   1      33.280  31.042  27.823  1.00  0.00    -0.200 F 
ATOM     98  C   UNL A   1      34.260  33.181  28.016  1.00  0.00     0.200 A 
ATOM     99  F   UNL A   1      35.285  35.297  28.224  1.00  0.00    -0.200 F 
ATOM    100  F   UNL A   1      33.282  33.712  27.269  1.00  0.00    -0.200 F 
ENDBRANCH  67  90
ENDBRANCH  41  42
ENDBRANCH  34  36
ENDBRANCH  33  34
ENDBRANCH  32  33
ENDBRANCH  31  32
ENDBRANCH  30  31
ENDBRANCH  29  30
ENDBRANCH  28  29
ENDBRANCH  27  28
ENDBRANCH   1  27
TORSDOF 23
ENDMDL
MODEL 3
REMARK VINA RESULT:      -7.7      4.671     11.067
REMARK SMILES CCc1ccc(-c2nc(-c3cccc(C(=O)OCCOCCOCCOCCOC(=O)c4ccc(-c5c6nc(c(-c7c(F)c(F)c(F)c(F)c7F)c7ccc([nH]7)c(-c7c(F)c(F)c(F)c(F)c7F)c7nc(c(-c8c(F)c(F)c(F)c(F)c8F)c8ccc5[nH]8)C=C7)C=C6)cc4)c3)no2)o1
REMARK SMILES IDX 22 1 21 2 20 3 19 4 18 5 17 6 15 7 16 8 14 9 10 10 11 11
REMARK SMILES IDX 95 12 12 13 13 14 9 15 7 16 8 17 97 18 96 19 6 20 3 21 4 22
REMARK SMILES IDX 98 23 5 24 2 25 1 26 23 27 24 28 25 29 26 30 27 31 28 32
REMARK SMILES IDX 29 33 30 34 31 35 32 36 33 37 94 38 34 39 93 40 35 41 36 42
REMARK SMILES IDX 37 43 87 44 38 45 92 46 86 47 88 48 39 49 91 50 85 51 84 52
REMARK SMILES IDX 40 54 72 55 52 56 71 57 53 58 56 59 70 60 89 61 54 62 55 63
REMARK SMILES IDX 69 65 90 66 57 67 41 68 42 69 50 70 43 71 44 72 48 73 51 74
REMARK SMILES IDX 45 75 46 76 49 77 47 78 73 79 74 80 82 81 75 82 76 83 80 84
REMARK SMILES IDX 83 85 77 86 78 87 81 88 79 89 58 90 59 91 67 92 60 93 61 94
REMARK SMILES IDX 65 95 68 96 62 97 63 98 66 99 64 100
REMARK H PARENT 88 53 56 64
REMARK Flexibility Score: inf
ROOT
ATOM      1  C   UNL A   1      40.381  28.344  28.495  1.00  0.00     0.188 C 
ENDROOT
BRANCH   1   2
ATOM      2  C   UNL A   1      39.997  27.357  27.374  1.00  0.00     0.188 C 
BRANCH   2   3
ATOM      3  O   UNL A   1      40.169  25.999  27.738  1.00  0.00    -0.376 OA
BRANCH   3   4
ATOM      4  C   UNL A   1      41.231  25.261  27.165  1.00  0.00     0.202 C 
BRANCH   4   5
ATOM      5  C   UNL A   1      40.964  23.861  26.591  1.00  0.00     0.261 C 
BRANCH   5   6
ATOM      6  O   UNL A   1      42.048  23.237  25.893  1.00  0.00    -0.460 OA
BRANCH   6   7
ATOM      7  C   UNL A   1      43.051  22.711  26.630  1.00  0.00     0.338 C 
ATOM      8  O   UNL A   1      42.959  21.825  27.460  1.00  0.00    -0.246 OA
BRANCH   7   9
ATOM      9  C   UNL A   1      44.327  23.231  26.077  1.00  0.00     0.060 A 
ATOM     10  C   UNL A   1      45.733  25.074  25.355  1.00  0.00     0.024 A 
ATOM     11  C   UNL A   1      46.606  24.160  24.750  1.00  0.00     0.012 A 
ATOM     12  C   UNL A   1      44.586  24.605  26.013  1.00  0.00     0.027 A 
ATOM     13  C   UNL A   1      46.354  22.788  24.828  1.00  0.00     0.002 A 
ATOM     14  C   UNL A   1      45.224  22.322  25.501  1.00  0.00     0.016 A 
BRANCH  10  15
ATOM     15  C   UNL A   1      46.018  26.497  25.340  1.00  0.00     0.202 A 
ATOM     16  C   UNL A   1      45.730  28.552  25.687  1.00  0.00     0.293 A 
ATOM     17  N   UNL A   1      45.134  27.394  25.881  1.00  0.00    -0.184 NA
ATOM     18  O   UNL A   1      46.932  28.421  25.044  1.00  0.00    -0.330 OA
ATOM     19  N   UNL A   1      47.138  27.048  24.849  1.00  0.00    -0.057 NA
BRANCH  16  20
ATOM     20  C   UNL A   1      45.195  29.790  26.155  1.00  0.00     0.192 A 
ATOM     21  C   UNL A   1      44.862  31.965  26.351  1.00  0.00     0.104 A 
ATOM     22  C   UNL A   1      43.934  31.358  27.170  1.00  0.00     0.046 A 
ATOM     23  O   UNL A   1      45.659  31.022  25.769  1.00  0.00    -0.456 OA
ATOM     24  C   UNL A   1      44.130  29.968  27.023  1.00  0.00     0.056 A 
BRANCH  21  25
ATOM     25  C   UNL A   1      45.143  33.381  25.995  1.00  0.00     0.072 C 
ATOM     26  C   UNL A   1      44.035  34.319  26.456  1.00  0.00     0.012 C 
ENDBRANCH  21  25
ENDBRANCH  16  20
ENDBRANCH  10  15
ENDBRANCH   7   9
ENDBRANCH   6   7
ENDBRANCH   5   6
ENDBRANCH   4   5
ENDBRANCH   3   4
ENDBRANCH   2   3
ENDBRANCH   1   2
BRANCH   1  27
ATOM     27  O   UNL A   1      39.418  28.621  29.503  1.00  0.00    -0.377 OA
BRANCH  27  28
ATOM     28  C   UNL A   1      39.726  29.542  30.548  1.00  0.00     0.188 C 
BRANCH  28  29
ATOM     29  C   UNL A   1      40.049  31.032  30.275  1.00  0.00     0.188 C 
BRANCH  29  30
ATOM     30  O   UNL A   1      39.233  31.958  30.972  1.00  0.00    -0.376 OA
BRANCH  30  31
ATOM     31  C   UNL A   1      39.429  32.093  32.367  1.00  0.00     0.202 C 
BRANCH  31  32
ATOM     32  C   UNL A   1      39.248  33.499  32.954  1.00  0.00     0.261 C 
BRANCH  32  33
ATOM     33  O   UNL A   1      40.112  34.518  32.424  1.00  0.00    -0.460 OA
BRANCH  33  34
ATOM     34  C   UNL A   1      41.231  34.803  33.120  1.00  0.00     0.338 C 
ATOM     35  O   UNL A   1      41.303  35.270  34.246  1.00  0.00    -0.246 OA
BRANCH  34  36
ATOM     36  C   UNL A   1      42.381  34.276  32.358  1.00  0.00     0.060 A 
ATOM     37  C   UNL A   1      42.249  34.082  30.976  1.00  0.00     0.016 A 
ATOM     38  C   UNL A   1      43.585  33.987  33.002  1.00  0.00     0.016 A 
ATOM     39  C   UNL A   1      43.318  33.568  30.241  1.00  0.00     0.010 A 
ATOM     40  C   UNL A   1      44.647  33.454  32.267  1.00  0.00     0.010 A 
ATOM     41  C   UNL A   1      44.510  33.213  30.889  1.00  0.00    -0.014 A 
BRANCH  41  42
ATOM     42  C   UNL A   1      45.541  32.441  30.155  1.00  0.00     0.031 A 
ATOM     43  C   UNL A   1      45.518  30.940  30.242  1.00  0.00     0.074 A 
ATOM     44  C   UNL A   1      46.466  33.059  29.399  1.00  0.00     0.049 A 
ATOM     45  N   UNL A   1      46.323  30.060  29.702  1.00  0.00    -0.248 NA
ATOM     46  C   UNL A   1      44.436  30.352  31.049  1.00  0.00     0.031 C 
ATOM     47  C   UNL A   1      46.572  34.503  29.207  1.00  0.00     0.029 A 
ATOM     48  N   UNL A   1      47.496  32.542  28.651  1.00  0.00    -0.354 N 
ATOM     49  C   UNL A   1      45.848  28.819  30.106  1.00  0.00     0.074 A 
ATOM     50  C   UNL A   1      44.709  29.059  30.964  1.00  0.00     0.031 C 
ATOM     51  C   UNL A   1      47.616  34.759  28.400  1.00  0.00     0.029 A 
ATOM     52  C   UNL A   1      48.270  33.500  28.045  1.00  0.00     0.049 A 
ATOM     53  H   UNL A   1      47.663  31.576  28.560  1.00  0.00     0.167 HD
ATOM     54  C   UNL A   1      46.315  27.590  29.781  1.00  0.00     0.037 A 
ATOM     55  C   UNL A   1      49.390  33.372  27.307  1.00  0.00     0.037 A 
ATOM     56  C   UNL A   1      47.454  27.355  28.933  1.00  0.00     0.049 A 
ATOM     57  C   UNL A   1      49.934  31.994  27.024  1.00  0.00     0.074 A 
ATOM     58  C   UNL A   1      47.996  26.146  28.528  1.00  0.00     0.029 A 
ATOM     59  N   UNL A   1      48.239  28.350  28.367  1.00  0.00    -0.354 N 
ATOM     60  N   UNL A   1      49.462  30.823  27.380  1.00  0.00    -0.248 NA
ATOM     61  C   UNL A   1      51.167  31.922  26.226  1.00  0.00     0.031 C 
ATOM     62  C   UNL A   1      49.143  26.410  27.774  1.00  0.00     0.029 A 
ATOM     63  C   UNL A   1      49.277  27.783  27.646  1.00  0.00     0.049 A 
ATOM     64  H   UNL A   1      48.079  29.317  28.464  1.00  0.00     0.167 HD
ATOM     65  C   UNL A   1      50.319  29.878  26.827  1.00  0.00     0.074 A 
ATOM     66  C   UNL A   1      51.327  30.614  26.092  1.00  0.00     0.031 C 
ATOM     67  C   UNL A   1      50.277  28.525  26.920  1.00  0.00     0.037 A 
BRANCH  54  68
ATOM     68  C   UNL A   1      45.612  26.401  30.373  1.00  0.00     0.064 A 
ATOM     69  C   UNL A   1      44.583  25.733  29.691  1.00  0.00     0.173 A 
ATOM     70  C   UNL A   1      45.995  25.904  31.628  1.00  0.00     0.173 A 
ATOM     71  F   UNL A   1      44.167  26.175  28.495  1.00  0.00    -0.203 F 
ATOM     72  C   UNL A   1      43.947  24.630  30.255  1.00  0.00     0.198 A 
ATOM     73  C   UNL A   1      45.382  24.779  32.174  1.00  0.00     0.198 A 
ATOM     74  F   UNL A   1      46.976  26.502  32.322  1.00  0.00    -0.203 F 
ATOM     75  F   UNL A   1      42.932  24.038  29.609  1.00  0.00    -0.200 F 
ATOM     76  C   UNL A   1      44.353  24.148  31.492  1.00  0.00     0.200 A 
ATOM     77  F   UNL A   1      45.785  24.308  33.362  1.00  0.00    -0.200 F 
ATOM     78  F   UNL A   1      43.747  23.080  32.029  1.00  0.00    -0.200 F 
ENDBRANCH  54  68
BRANCH  55  79
ATOM     79  C   UNL A   1      50.087  34.581  26.792  1.00  0.00     0.064 A 
ATOM     80  C   UNL A   1      49.672  35.211  25.611  1.00  0.00     0.173 A 
ATOM     81  C   UNL A   1      51.206  35.112  27.454  1.00  0.00     0.173 A 
ATOM     82  F   UNL A   1      48.626  34.727  24.926  1.00  0.00    -0.203 F 
ATOM     83  C   UNL A   1      50.361  36.310  25.099  1.00  0.00     0.198 A 
ATOM     84  C   UNL A   1      51.873  36.230  26.958  1.00  0.00     0.198 A 
ATOM     85  F   UNL A   1      51.651  34.545  28.584  1.00  0.00    -0.203 F 
ATOM     86  F   UNL A   1      49.977  36.856  23.937  1.00  0.00    -0.200 F 
ATOM     87  C   UNL A   1      51.457  36.822  25.777  1.00  0.00     0.200 A 
ATOM     88  F   UNL A   1      52.925  36.729  27.624  1.00  0.00    -0.200 F 
ATOM     89  F   UNL A   1      52.118  37.879  25.284  1.00  0.00    -0.200 F 
ENDBRANCH  55  79
BRANCH  67  90
ATOM     90  C   UNL A   1      51.333  27.751  26.178  1.00  0.00     0.064 A 
ATOM     91  C   UNL A   1      51.243  27.509  24.799  1.00  0.00     0.173 A 
ATOM     92  C   UNL A   1      52.460  27.259  26.855  1.00  0.00     0.173 A 
ATOM     93  F   UNL A   1      50.183  27.947  24.103  1.00  0.00    -0.203 F 
ATOM     94  C   UNL A   1      52.218  26.766  24.136  1.00  0.00     0.198 A 
ATOM     95  C   UNL A   1      53.452  26.551  26.181  1.00  0.00     0.198 A 
ATOM     96  F   UNL A   1      52.605  27.471  28.172  1.00  0.00    -0.203 F 
ATOM     97  F   UNL A   1      52.074  26.489  22.832  1.00  0.00    -0.200 F 
ATOM     98  C   UNL A   1      53.322  26.293  24.825  1.00  0.00     0.200 A 
ATOM     99  F   UNL A   1      54.529  26.111  26.846  1.00  0.00    -0.200 F 
ATOM    100  F   UNL A   1      54.259  25.579  24.186  1.00  0.00    -0.200 F 
ENDBRANCH  67  90
ENDBRANCH  41  42
ENDBRANCH  34  36
ENDBRANCH  33  34
ENDBRANCH  32  33
ENDBRANCH  31  32
ENDBRANCH  30  31
ENDBRANCH  29  30
ENDBRANCH  28  29
ENDBRANCH  27  28
ENDBRANCH   1  27
TORSDOF 23
ENDMDL
