MODEL 1
REMARK VINA RESULT:     -10.8      0.000      0.000
REMARK SMILES NS(=O)(=O)c1ccc(-n2nc(C(F)(F)F)cc2-c2ccc(CC(=O)OCCOCCOCCOCCOC(=O)c3ccc(-c4c5nc(c(-c6c(F)c(F)c(F)c(F)c6F)c6ccc([nH]6)c(-c6c(F)c(F)c(F)c(F)c6F)c6nc(c(-c7c(F)c(F)c(F)c(F)c7F)c7ccc4[nH]7)C=C6)C=C5)cc3)cc2)cc1
REMARK SMILES IDX 29 1 28 2 27 3 26 4 25 5 23 6 24 7 22 8 21 9 18 10 19 11
REMARK SMILES IDX 104 12 20 13 103 14 17 15 9 16 10 17 11 18 16 19 8 20 5 21
REMARK SMILES IDX 6 22 106 23 7 24 105 25 2 26 3 27 4 28 1 29 12 32 13 33
REMARK SMILES IDX 14 34 15 35 30 36 31 37 32 38 33 39 34 40 35 41 36 42 37 43
REMARK SMILES IDX 38 44 39 45 40 46 41 47 102 48 42 49 101 50 43 51 44 52
REMARK SMILES IDX 45 53 95 54 46 55 100 56 94 57 96 58 47 59 99 60 93 61 92 62
REMARK SMILES IDX 48 64 80 65 60 66 79 67 61 68 64 69 78 70 97 71 62 72 63 73
REMARK SMILES IDX 77 75 98 76 65 77 49 78 50 79 58 80 51 81 52 82 56 83 59 84
REMARK SMILES IDX 53 85 54 86 57 87 55 88 81 89 82 90 90 91 83 92 84 93 88 94
REMARK SMILES IDX 91 95 85 96 86 97 89 98 87 99 66 100 67 101 75 102 68 103
REMARK SMILES IDX 69 104 73 105 76 106 70 107 71 108 74 109 72 110
REMARK H PARENT 1 30 1 31 96 63 64 74
REMARK Flexibility Score: inf
ROOT
ATOM      1  C   UNL A   1      40.130  21.031  26.815  1.00  0.00     0.188 C 
ENDROOT
BRANCH   1   2
ATOM      2  O   UNL A   1      39.305  21.819  25.983  1.00  0.00    -0.376 OA
BRANCH   2   3
ATOM      3  C   UNL A   1      38.187  21.187  25.375  1.00  0.00     0.202 C 
BRANCH   3   4
ATOM      4  C   UNL A   1      36.867  21.969  25.187  1.00  0.00     0.261 C 
BRANCH   4   5
ATOM      5  O   UNL A   1      35.860  21.382  24.322  1.00  0.00    -0.463 OA
BRANCH   5   6
ATOM      6  C   UNL A   1      34.593  21.293  24.772  1.00  0.00     0.310 C 
ATOM      7  O   UNL A   1      34.268  20.569  25.710  1.00  0.00    -0.252 OA
BRANCH   6   8
ATOM      8  C   UNL A   1      33.577  22.172  24.056  1.00  0.00     0.158 C 
BRANCH   8   9
ATOM      9  C   UNL A   1      33.334  23.646  24.390  1.00  0.00    -0.037 A 
ATOM     10  C   UNL A   1      33.286  26.392  25.294  1.00  0.00     0.000 A 
ATOM     11  C   UNL A   1      33.958  26.024  24.122  1.00  0.00     0.010 A 
ATOM     12  C   UNL A   1      32.606  25.368  25.980  1.00  0.00     0.010 A 
ATOM     13  C   UNL A   1      33.987  24.677  23.683  1.00  0.00     0.005 A 
ATOM     14  C   UNL A   1      32.617  24.025  25.531  1.00  0.00     0.005 A 
BRANCH  10  15
ATOM     15  C   UNL A   1      33.451  27.738  25.907  1.00  0.00     0.075 A 
ATOM     16  N   UNL A   1      32.811  28.953  25.597  1.00  0.00    -0.233 N 
ATOM     17  N   UNL A   1      33.427  30.011  26.187  1.00  0.00    -0.163 NA
ATOM     18  C   UNL A   1      34.348  29.494  27.010  1.00  0.00     0.167 A 
ATOM     19  C   UNL A   1      34.425  28.093  26.837  1.00  0.00     0.064 A 
BRANCH  16  20
ATOM     20  C   UNL A   1      31.615  29.237  24.877  1.00  0.00     0.065 A 
ATOM     21  C   UNL A   1      29.273  29.792  23.369  1.00  0.00     0.082 A 
ATOM     22  C   UNL A   1      29.860  30.715  24.218  1.00  0.00     0.024 A 
ATOM     23  C   UNL A   1      29.936  28.589  23.186  1.00  0.00     0.024 A 
ATOM     24  C   UNL A   1      30.971  30.446  25.030  1.00  0.00     0.030 A 
ATOM     25  C   UNL A   1      31.128  28.337  23.900  1.00  0.00     0.030 A 
BRANCH  21  26
ATOM     26  S   UNL A   1      27.786  30.184  22.450  1.00  0.00     0.238 S 
ATOM     27  O   UNL A   1      28.099  30.040  21.052  1.00  0.00    -0.207 OA
ATOM     28  O   UNL A   1      27.184  31.374  23.008  1.00  0.00    -0.207 OA
BRANCH  26  29
ATOM     29  N   UNL A   1      26.672  28.972  22.774  1.00  0.00    -0.225 NA
ATOM     30  H   UNL A   1      27.007  28.089  22.388  1.00  0.00     0.137 HD
ATOM     31  H   UNL A   1      25.777  29.210  22.346  1.00  0.00     0.137 HD
ENDBRANCH  26  29
ENDBRANCH  21  26
ENDBRANCH  16  20
BRANCH  18  32
ATOM     32  C   UNL A   1      35.166  30.346  27.948  1.00  0.00     0.435 C 
ATOM     33  F   UNL A   1      36.220  30.957  27.346  1.00  0.00    -0.164 F 
ATOM     34  F   UNL A   1      34.413  31.329  28.514  1.00  0.00    -0.164 F 
ATOM     35  F   UNL A   1      35.676  29.616  28.977  1.00  0.00    -0.164 F 
ENDBRANCH  18  32
ENDBRANCH  10  15
ENDBRANCH   8   9
ENDBRANCH   6   8
ENDBRANCH   5   6
ENDBRANCH   4   5
ENDBRANCH   3   4
ENDBRANCH   2   3
ENDBRANCH   1   2
BRANCH   1  36
ATOM     36  C   UNL A   1      40.918  19.958  26.051  1.00  0.00     0.188 C 
BRANCH  36  37
ATOM     37  O   UNL A   1      42.301  19.769  26.325  1.00  0.00    -0.377 OA
BRANCH  37  38
ATOM     38  C   UNL A   1      43.305  20.217  25.419  1.00  0.00     0.188 C 
BRANCH  38  39
ATOM     39  C   UNL A   1      44.263  21.353  25.805  1.00  0.00     0.188 C 
BRANCH  39  40
ATOM     40  O   UNL A   1      45.082  21.792  24.750  1.00  0.00    -0.376 OA
BRANCH  40  41
ATOM     41  C   UNL A   1      44.875  23.112  24.317  1.00  0.00     0.202 C 
BRANCH  41  42
ATOM     42  C   UNL A   1      43.973  24.106  25.062  1.00  0.00     0.261 C 
BRANCH  42  43
ATOM     43  O   UNL A   1      44.015  24.519  26.451  1.00  0.00    -0.460 OA
BRANCH  43  44
ATOM     44  C   UNL A   1      42.938  24.209  27.242  1.00  0.00     0.338 C 
ATOM     45  O   UNL A   1      42.062  23.410  26.942  1.00  0.00    -0.246 OA
BRANCH  44  46
ATOM     46  C   UNL A   1      42.693  25.217  28.328  1.00  0.00     0.060 A 
ATOM     47  C   UNL A   1      41.366  25.660  28.420  1.00  0.00     0.016 A 
ATOM     48  C   UNL A   1      43.706  26.001  28.885  1.00  0.00     0.016 A 
ATOM     49  C   UNL A   1      41.106  26.999  28.707  1.00  0.00     0.010 A 
ATOM     50  C   UNL A   1      43.438  27.352  29.165  1.00  0.00     0.010 A 
ATOM     51  C   UNL A   1      42.160  27.887  28.949  1.00  0.00    -0.014 A 
BRANCH  51  52
ATOM     52  C   UNL A   1      41.809  29.283  29.280  1.00  0.00     0.031 A 
ATOM     53  C   UNL A   1      42.880  30.183  28.838  1.00  0.00     0.074 A 
ATOM     54  C   UNL A   1      40.710  29.832  29.847  1.00  0.00     0.049 A 
ATOM     55  N   UNL A   1      43.734  30.797  29.583  1.00  0.00    -0.248 NA
ATOM     56  C   UNL A   1      43.149  30.236  27.396  1.00  0.00     0.031 C 
ATOM     57  C   UNL A   1      39.459  29.176  30.143  1.00  0.00     0.029 A 
ATOM     58  N   UNL A   1      40.447  31.124  30.238  1.00  0.00    -0.354 N 
ATOM     59  C   UNL A   1      44.540  31.475  28.689  1.00  0.00     0.074 A 
ATOM     60  C   UNL A   1      44.293  30.913  27.386  1.00  0.00     0.031 C 
ATOM     61  C   UNL A   1      38.504  30.060  30.493  1.00  0.00     0.029 A 
ATOM     62  C   UNL A   1      39.106  31.374  30.542  1.00  0.00     0.049 A 
ATOM     63  H   UNL A   1      41.146  31.817  30.297  1.00  0.00     0.167 HD
ATOM     64  C   UNL A   1      45.107  32.659  29.023  1.00  0.00     0.037 A 
ATOM     65  C   UNL A   1      38.496  32.561  30.799  1.00  0.00     0.037 A 
ATOM     66  C   UNL A   1      45.181  32.847  30.447  1.00  0.00     0.049 A 
ATOM     67  C   UNL A   1      39.546  33.526  31.183  1.00  0.00     0.074 A 
ATOM     68  C   UNL A   1      45.755  32.143  31.488  1.00  0.00     0.029 A 
ATOM     69  N   UNL A   1      44.299  33.721  31.028  1.00  0.00    -0.354 N 
ATOM     70  N   UNL A   1      40.171  33.513  32.325  1.00  0.00    -0.248 NA
ATOM     71  C   UNL A   1      40.188  34.289  30.125  1.00  0.00     0.031 C 
ATOM     72  C   UNL A   1      44.890  32.333  32.604  1.00  0.00     0.029 A 
ATOM     73  C   UNL A   1      43.849  33.167  32.198  1.00  0.00     0.049 A 
ATOM     74  H   UNL A   1      44.035  34.599  30.667  1.00  0.00     0.167 HD
ATOM     75  C   UNL A   1      41.472  33.863  32.006  1.00  0.00     0.074 A 
ATOM     76  C   UNL A   1      41.393  34.455  30.676  1.00  0.00     0.031 C 
ATOM     77  C   UNL A   1      42.519  33.371  32.728  1.00  0.00     0.037 A 
BRANCH  64  78
ATOM     78  C   UNL A   1      45.230  33.769  28.022  1.00  0.00     0.064 A 
ATOM     79  C   UNL A   1      46.501  34.240  27.666  1.00  0.00     0.173 A 
ATOM     80  C   UNL A   1      44.134  34.549  27.577  1.00  0.00     0.173 A 
ATOM     81  F   UNL A   1      47.603  33.609  28.095  1.00  0.00    -0.203 F 
ATOM     82  C   UNL A   1      46.661  35.413  26.925  1.00  0.00     0.198 A 
ATOM     83  C   UNL A   1      44.294  35.673  26.778  1.00  0.00     0.198 A 
ATOM     84  F   UNL A   1      42.880  34.318  27.987  1.00  0.00    -0.203 F 
ATOM     85  F   UNL A   1      47.892  35.888  26.698  1.00  0.00    -0.200 F 
ATOM     86  C   UNL A   1      45.560  36.120  26.472  1.00  0.00     0.200 A 
ATOM     87  F   UNL A   1      43.213  36.353  26.373  1.00  0.00    -0.200 F 
ATOM     88  F   UNL A   1      45.716  37.262  25.791  1.00  0.00    -0.200 F 
ENDBRANCH  64  78
BRANCH  65  89
ATOM     89  C   UNL A   1      37.092  32.980  30.542  1.00  0.00     0.064 A 
ATOM     90  C   UNL A   1      36.142  33.049  31.577  1.00  0.00     0.173 A 
ATOM     91  C   UNL A   1      36.723  33.585  29.324  1.00  0.00     0.173 A 
ATOM     92  F   UNL A   1      36.416  32.533  32.784  1.00  0.00    -0.203 F 
ATOM     93  C   UNL A   1      34.919  33.713  31.413  1.00  0.00     0.198 A 
ATOM     94  C   UNL A   1      35.500  34.237  29.157  1.00  0.00     0.198 A 
ATOM     95  F   UNL A   1      37.582  33.638  28.296  1.00  0.00    -0.203 F 
ATOM     96  F   UNL A   1      34.069  33.817  32.445  1.00  0.00    -0.200 F 
ATOM     97  C   UNL A   1      34.605  34.316  30.208  1.00  0.00     0.200 A 
ATOM     98  F   UNL A   1      35.221  34.843  27.995  1.00  0.00    -0.200 F 
ATOM     99  F   UNL A   1      33.464  35.008  30.070  1.00  0.00    -0.200 F 
ENDBRANCH  65  89
BRANCH  77 100
ATOM    100  C   UNL A   1      42.217  32.775  34.075  1.00  0.00     0.064 A 
ATOM    101  C   UNL A   1      41.831  31.439  34.287  1.00  0.00     0.173 A 
ATOM    102  C   UNL A   1      42.444  33.568  35.210  1.00  0.00     0.173 A 
ATOM    103  F   UNL A   1      41.685  30.592  33.258  1.00  0.00    -0.203 F 
ATOM    104  C   UNL A   1      41.641  30.939  35.576  1.00  0.00     0.198 A 
ATOM    105  C   UNL A   1      42.292  33.056  36.494  1.00  0.00     0.198 A 
ATOM    106  F   UNL A   1      42.859  34.837  35.069  1.00  0.00    -0.203 F 
ATOM    107  F   UNL A   1      41.259  29.668  35.756  1.00  0.00    -0.200 F 
ATOM    108  C   UNL A   1      41.881  31.745  36.678  1.00  0.00     0.200 A 
ATOM    109  F   UNL A   1      42.570  33.825  37.556  1.00  0.00    -0.200 F 
ATOM    110  F   UNL A   1      41.742  31.253  37.917  1.00  0.00    -0.200 F 
ENDBRANCH  77 100
ENDBRANCH  51  52
ENDBRANCH  44  46
ENDBRANCH  43  44
ENDBRANCH  42  43
ENDBRANCH  41  42
ENDBRANCH  40  41
ENDBRANCH  39  40
ENDBRANCH  38  39
ENDBRANCH  37  38
ENDBRANCH  36  37
ENDBRANCH   1  36
TORSDOF 26
ENDMDL
MODEL 2
REMARK VINA RESULT:      -9.4      6.312      9.940
REMARK SMILES NS(=O)(=O)c1ccc(-n2nc(C(F)(F)F)cc2-c2ccc(CC(=O)OCCOCCOCCOCCOC(=O)c3ccc(-c4c5nc(c(-c6c(F)c(F)c(F)c(F)c6F)c6ccc([nH]6)c(-c6c(F)c(F)c(F)c(F)c6F)c6nc(c(-c7c(F)c(F)c(F)c(F)c7F)c7ccc4[nH]7)C=C6)C=C5)cc3)cc2)cc1
REMARK SMILES IDX 29 1 28 2 27 3 26 4 25 5 23 6 24 7 22 8 21 9 18 10 19 11
REMARK SMILES IDX 104 12 20 13 103 14 17 15 9 16 10 17 11 18 16 19 8 20 5 21
REMARK SMILES IDX 6 22 106 23 7 24 105 25 2 26 3 27 4 28 1 29 12 32 13 33
REMARK SMILES IDX 14 34 15 35 30 36 31 37 32 38 33 39 34 40 35 41 36 42 37 43
REMARK SMILES IDX 38 44 39 45 40 46 41 47 102 48 42 49 101 50 43 51 44 52
REMARK SMILES IDX 45 53 95 54 46 55 100 56 94 57 96 58 47 59 99 60 93 61 92 62
REMARK SMILES IDX 48 64 80 65 60 66 79 67 61 68 64 69 78 70 97 71 62 72 63 73
REMARK SMILES IDX 77 75 98 76 65 77 49 78 50 79 58 80 51 81 52 82 56 83 59 84
REMARK SMILES IDX 53 85 54 86 57 87 55 88 81 89 82 90 90 91 83 92 84 93 88 94
REMARK SMILES IDX 91 95 85 96 86 97 89 98 87 99 66 100 67 101 75 102 68 103
REMARK SMILES IDX 69 104 73 105 76 106 70 107 71 108 74 109 72 110
REMARK H PARENT 1 30 1 31 96 63 64 74
REMARK Flexibility Score: inf
ROOT
ATOM      1  C   UNL A   1      40.744  21.433  27.009  1.00  0.00     0.188 C 
ENDROOT
BRANCH   1   2
ATOM      2  O   UNL A   1      39.941  22.019  26.006  1.00  0.00    -0.376 OA
BRANCH   2   3
ATOM      3  C   UNL A   1      38.676  21.429  25.746  1.00  0.00     0.202 C 
BRANCH   3   4
ATOM      4  C   UNL A   1      37.453  22.325  25.448  1.00  0.00     0.261 C 
BRANCH   4   5
ATOM      5  O   UNL A   1      36.549  21.895  24.396  1.00  0.00    -0.463 OA
BRANCH   5   6
ATOM      6  C   UNL A   1      35.239  21.763  24.682  1.00  0.00     0.310 C 
ATOM      7  O   UNL A   1      34.818  20.985  25.534  1.00  0.00    -0.252 OA
BRANCH   6   8
ATOM      8  C   UNL A   1      34.299  22.664  23.894  1.00  0.00     0.158 C 
BRANCH   8   9
ATOM      9  C   UNL A   1      33.872  24.062  24.348  1.00  0.00    -0.037 A 
ATOM     10  C   UNL A   1      33.526  26.741  25.379  1.00  0.00     0.000 A 
ATOM     11  C   UNL A   1      33.966  26.517  24.069  1.00  0.00     0.010 A 
ATOM     12  C   UNL A   1      33.224  25.601  26.147  1.00  0.00     0.010 A 
ATOM     13  C   UNL A   1      34.142  25.204  23.566  1.00  0.00     0.005 A 
ATOM     14  C   UNL A   1      33.379  24.288  25.639  1.00  0.00     0.005 A 
BRANCH  10  15
ATOM     15  C   UNL A   1      33.576  28.090  26.006  1.00  0.00     0.075 A 
ATOM     16  N   UNL A   1      32.852  29.256  25.695  1.00  0.00    -0.233 N 
ATOM     17  N   UNL A   1      33.373  30.351  26.306  1.00  0.00    -0.163 NA
ATOM     18  C   UNL A   1      34.316  29.898  27.143  1.00  0.00     0.167 A 
ATOM     19  C   UNL A   1      34.503  28.508  26.959  1.00  0.00     0.064 A 
BRANCH  16  20
ATOM     20  C   UNL A   1      31.651  29.455  24.953  1.00  0.00     0.065 A 
ATOM     21  C   UNL A   1      29.303  29.847  23.404  1.00  0.00     0.082 A 
ATOM     22  C   UNL A   1      29.791  30.795  24.287  1.00  0.00     0.024 A 
ATOM     23  C   UNL A   1      30.070  28.709  23.210  1.00  0.00     0.024 A 
ATOM     24  C   UNL A   1      30.903  30.602  25.119  1.00  0.00     0.030 A 
ATOM     25  C   UNL A   1      31.263  28.541  23.946  1.00  0.00     0.030 A 
BRANCH  21  26
ATOM     26  S   UNL A   1      27.808  30.134  22.460  1.00  0.00     0.238 S 
ATOM     27  O   UNL A   1      28.142  29.962  21.071  1.00  0.00    -0.207 OA
ATOM     28  O   UNL A   1      27.142  31.309  22.974  1.00  0.00    -0.207 OA
BRANCH  26  29
ATOM     29  N   UNL A   1      26.752  28.878  22.813  1.00  0.00    -0.225 NA
ATOM     30  H   UNL A   1      27.284  28.059  23.108  1.00  0.00     0.137 HD
ATOM     31  H   UNL A   1      26.208  28.649  21.982  1.00  0.00     0.137 HD
ENDBRANCH  26  29
ENDBRANCH  21  26
ENDBRANCH  16  20
BRANCH  18  32
ATOM     32  C   UNL A   1      35.048  30.799  28.104  1.00  0.00     0.435 C 
ATOM     33  F   UNL A   1      35.658  30.129  29.117  1.00  0.00    -0.164 F 
ATOM     34  F   UNL A   1      36.014  31.522  27.473  1.00  0.00    -0.164 F 
ATOM     35  F   UNL A   1      34.213  31.704  28.684  1.00  0.00    -0.164 F 
ENDBRANCH  18  32
ENDBRANCH  10  15
ENDBRANCH   8   9
ENDBRANCH   6   8
ENDBRANCH   5   6
ENDBRANCH   4   5
ENDBRANCH   3   4
ENDBRANCH   2   3
ENDBRANCH   1   2
BRANCH   1  36
ATOM     36  C   UNL A   1      40.796  19.901  26.929  1.00  0.00     0.188 C 
BRANCH  36  37
ATOM     37  O   UNL A   1      42.039  19.248  26.702  1.00  0.00    -0.377 OA
BRANCH  37  38
ATOM     38  C   UNL A   1      42.849  19.566  25.575  1.00  0.00     0.188 C 
BRANCH  38  39
ATOM     39  C   UNL A   1      44.242  20.185  25.756  1.00  0.00     0.188 C 
BRANCH  39  40
ATOM     40  O   UNL A   1      45.064  20.084  24.620  1.00  0.00    -0.376 OA
BRANCH  40  41
ATOM     41  C   UNL A   1      44.974  21.141  23.698  1.00  0.00     0.202 C 
BRANCH  41  42
ATOM     42  C   UNL A   1      44.350  22.501  24.041  1.00  0.00     0.261 C 
BRANCH  42  43
ATOM     43  O   UNL A   1      44.962  23.662  24.657  1.00  0.00    -0.460 OA
BRANCH  43  44
ATOM     44  C   UNL A   1      44.763  23.851  26.001  1.00  0.00     0.338 C 
ATOM     45  O   UNL A   1      43.739  23.552  26.601  1.00  0.00    -0.246 OA
BRANCH  44  46
ATOM     46  C   UNL A   1      45.733  24.821  26.612  1.00  0.00     0.060 A 
ATOM     47  C   UNL A   1      45.428  26.170  26.384  1.00  0.00     0.016 A 
ATOM     48  C   UNL A   1      47.041  24.475  26.960  1.00  0.00     0.016 A 
ATOM     49  C   UNL A   1      46.456  27.077  26.134  1.00  0.00     0.010 A 
ATOM     50  C   UNL A   1      48.075  25.392  26.698  1.00  0.00     0.010 A 
ATOM     51  C   UNL A   1      47.790  26.655  26.157  1.00  0.00    -0.014 A 
BRANCH  51  52
ATOM     52  C   UNL A   1      48.829  27.676  25.916  1.00  0.00     0.031 A 
ATOM     53  C   UNL A   1      49.363  27.532  24.557  1.00  0.00     0.074 A 
ATOM     54  C   UNL A   1      49.304  28.685  26.682  1.00  0.00     0.049 A 
ATOM     55  N   UNL A   1      50.518  27.066  24.223  1.00  0.00    -0.248 NA
ATOM     56  C   UNL A   1      48.423  27.740  23.450  1.00  0.00     0.031 C 
ATOM     57  C   UNL A   1      48.772  29.151  27.941  1.00  0.00     0.029 A 
ATOM     58  N   UNL A   1      50.343  29.562  26.476  1.00  0.00    -0.354 N 
ATOM     59  C   UNL A   1      50.513  27.104  22.842  1.00  0.00     0.074 A 
ATOM     60  C   UNL A   1      49.147  27.292  22.428  1.00  0.00     0.031 C 
ATOM     61  C   UNL A   1      49.341  30.312  28.322  1.00  0.00     0.029 A 
ATOM     62  C   UNL A   1      50.373  30.642  27.363  1.00  0.00     0.049 A 
ATOM     63  H   UNL A   1      51.010  29.440  25.761  1.00  0.00     0.167 HD
ATOM     64  C   UNL A   1      51.659  27.307  22.148  1.00  0.00     0.037 A 
ATOM     65  C   UNL A   1      51.158  31.751  27.332  1.00  0.00     0.037 A 
ATOM     66  C   UNL A   1      52.829  26.992  22.922  1.00  0.00     0.049 A 
ATOM     67  C   UNL A   1      52.325  31.445  26.481  1.00  0.00     0.074 A 
ATOM     68  C   UNL A   1      53.284  25.860  23.574  1.00  0.00     0.029 A 
ATOM     69  N   UNL A   1      53.579  28.031  23.411  1.00  0.00    -0.354 N 
ATOM     70  N   UNL A   1      53.307  30.667  26.837  1.00  0.00    -0.248 NA
ATOM     71  C   UNL A   1      52.214  31.701  25.055  1.00  0.00     0.031 C 
ATOM     72  C   UNL A   1      53.988  26.333  24.719  1.00  0.00     0.029 A 
ATOM     73  C   UNL A   1      53.954  27.727  24.694  1.00  0.00     0.049 A 
ATOM     74  H   UNL A   1      53.808  28.855  22.923  1.00  0.00     0.167 HD
ATOM     75  C   UNL A   1      53.639  29.985  25.679  1.00  0.00     0.074 A 
ATOM     76  C   UNL A   1      53.033  30.752  24.598  1.00  0.00     0.031 C 
ATOM     77  C   UNL A   1      54.121  28.711  25.740  1.00  0.00     0.037 A 
BRANCH  64  78
ATOM     78  C   UNL A   1      51.675  28.149  20.907  1.00  0.00     0.064 A 
ATOM     79  C   UNL A   1      52.124  27.594  19.702  1.00  0.00     0.173 A 
ATOM     80  C   UNL A   1      51.488  29.553  20.910  1.00  0.00     0.173 A 
ATOM     81  F   UNL A   1      52.395  26.283  19.617  1.00  0.00    -0.203 F 
ATOM     82  C   UNL A   1      52.377  28.390  18.583  1.00  0.00     0.198 A 
ATOM     83  C   UNL A   1      51.669  30.332  19.774  1.00  0.00     0.198 A 
ATOM     84  F   UNL A   1      51.231  30.238  22.032  1.00  0.00    -0.203 F 
ATOM     85  F   UNL A   1      52.908  27.838  17.485  1.00  0.00    -0.200 F 
ATOM     86  C   UNL A   1      52.138  29.754  18.616  1.00  0.00     0.200 A 
ATOM     87  F   UNL A   1      51.453  31.653  19.840  1.00  0.00    -0.200 F 
ATOM     88  F   UNL A   1      52.412  30.520  17.553  1.00  0.00    -0.200 F 
ENDBRANCH  64  78
BRANCH  65  89
ATOM     89  C   UNL A   1      50.872  33.128  27.819  1.00  0.00     0.064 A 
ATOM     90  C   UNL A   1      51.723  33.778  28.731  1.00  0.00     0.173 A 
ATOM     91  C   UNL A   1      49.906  33.938  27.189  1.00  0.00     0.173 A 
ATOM     92  F   UNL A   1      52.696  33.098  29.353  1.00  0.00    -0.203 F 
ATOM     93  C   UNL A   1      51.635  35.157  28.968  1.00  0.00     0.198 A 
ATOM     94  C   UNL A   1      49.812  35.309  27.434  1.00  0.00     0.198 A 
ATOM     95  F   UNL A   1      49.093  33.434  26.251  1.00  0.00    -0.203 F 
ATOM     96  F   UNL A   1      52.510  35.751  29.792  1.00  0.00    -0.200 F 
ATOM     97  C   UNL A   1      50.689  35.922  28.310  1.00  0.00     0.200 A 
ATOM     98  F   UNL A   1      48.911  36.044  26.767  1.00  0.00    -0.200 F 
ATOM     99  F   UNL A   1      50.646  37.251  28.486  1.00  0.00    -0.200 F 
ENDBRANCH  65  89
BRANCH  77 100
ATOM    100  C   UNL A   1      54.638  28.224  27.066  1.00  0.00     0.064 A 
ATOM    101  C   UNL A   1      53.840  27.634  28.064  1.00  0.00     0.173 A 
ATOM    102  C   UNL A   1      56.023  28.252  27.281  1.00  0.00     0.173 A 
ATOM    103  F   UNL A   1      52.519  27.486  27.892  1.00  0.00    -0.203 F 
ATOM    104  C   UNL A   1      54.406  27.138  29.238  1.00  0.00     0.198 A 
ATOM    105  C   UNL A   1      56.588  27.720  28.435  1.00  0.00     0.198 A 
ATOM    106  F   UNL A   1      56.838  28.759  26.343  1.00  0.00    -0.203 F 
ATOM    107  F   UNL A   1      53.627  26.595  30.184  1.00  0.00    -0.200 F 
ATOM    108  C   UNL A   1      55.780  27.173  29.419  1.00  0.00     0.200 A 
ATOM    109  F   UNL A   1      57.920  27.714  28.584  1.00  0.00    -0.200 F 
ATOM    110  F   UNL A   1      56.328  26.656  30.528  1.00  0.00    -0.200 F 
ENDBRANCH  77 100
ENDBRANCH  51  52
ENDBRANCH  44  46
ENDBRANCH  43  44
ENDBRANCH  42  43
ENDBRANCH  41  42
ENDBRANCH  40  41
ENDBRANCH  39  40
ENDBRANCH  38  39
ENDBRANCH  37  38
ENDBRANCH  36  37
ENDBRANCH   1  36
TORSDOF 26
ENDMDL
MODEL 3
REMARK VINA RESULT:      -9.2      5.394     10.294
REMARK SMILES NS(=O)(=O)c1ccc(-n2nc(C(F)(F)F)cc2-c2ccc(CC(=O)OCCOCCOCCOCCOC(=O)c3ccc(-c4c5nc(c(-c6c(F)c(F)c(F)c(F)c6F)c6ccc([nH]6)c(-c6c(F)c(F)c(F)c(F)c6F)c6nc(c(-c7c(F)c(F)c(F)c(F)c7F)c7ccc4[nH]7)C=C6)C=C5)cc3)cc2)cc1
REMARK SMILES IDX 29 1 28 2 27 3 26 4 25 5 23 6 24 7 22 8 21 9 18 10 19 11
REMARK SMILES IDX 104 12 20 13 103 14 17 15 9 16 10 17 11 18 16 19 8 20 5 21
REMARK SMILES IDX 6 22 106 23 7 24 105 25 2 26 3 27 4 28 1 29 12 32 13 33
REMARK SMILES IDX 14 34 15 35 30 36 31 37 32 38 33 39 34 40 35 41 36 42 37 43
REMARK SMILES IDX 38 44 39 45 40 46 41 47 102 48 42 49 101 50 43 51 44 52
REMARK SMILES IDX 45 53 95 54 46 55 100 56 94 57 96 58 47 59 99 60 93 61 92 62
REMARK SMILES IDX 48 64 80 65 60 66 79 67 61 68 64 69 78 70 97 71 62 72 63 73
REMARK SMILES IDX 77 75 98 76 65 77 49 78 50 79 58 80 51 81 52 82 56 83 59 84
REMARK SMILES IDX 53 85 54 86 57 87 55 88 81 89 82 90 90 91 83 92 84 93 88 94
REMARK SMILES IDX 91 95 85 96 86 97 89 98 87 99 66 100 67 101 75 102 68 103
REMARK SMILES IDX 69 104 73 105 76 106 70 107 71 108 74 109 72 110
REMARK H PARENT 1 30 1 31 96 63 64 74
REMARK Flexibility Score: inf
ROOT
ATOM      1  C   UNL A   1      37.375  29.942  29.168  1.00  0.00     0.188 C 
ENDROOT
BRANCH   1   2
ATOM      2  O   UNL A   1      38.446  29.218  29.737  1.00  0.00    -0.376 OA
BRANCH   2   3
ATOM      3  C   UNL A   1      39.248  28.434  28.865  1.00  0.00     0.202 C 
BRANCH   3   4
ATOM      4  C   UNL A   1      39.041  26.905  28.792  1.00  0.00     0.261 C 
BRANCH   4   5
ATOM      5  O   UNL A   1      40.189  26.090  28.438  1.00  0.00    -0.463 OA
BRANCH   5   6
ATOM      6  C   UNL A   1      40.467  25.893  27.135  1.00  0.00     0.310 C 
ATOM      7  O   UNL A   1      40.793  26.804  26.378  1.00  0.00    -0.252 OA
BRANCH   6   8
ATOM      8  C   UNL A   1      40.374  24.452  26.653  1.00  0.00     0.158 C 
BRANCH   8   9
ATOM      9  C   UNL A   1      39.060  23.682  26.501  1.00  0.00    -0.037 A 
ATOM     10  C   UNL A   1      36.619  22.334  25.733  1.00  0.00     0.000 A 
ATOM     11  C   UNL A   1      37.846  21.659  25.761  1.00  0.00     0.010 A 
ATOM     12  C   UNL A   1      36.633  23.683  26.136  1.00  0.00     0.010 A 
ATOM     13  C   UNL A   1      39.043  22.322  26.131  1.00  0.00     0.005 A 
ATOM     14  C   UNL A   1      37.825  24.341  26.526  1.00  0.00     0.005 A 
BRANCH  10  15
ATOM     15  C   UNL A   1      35.406  21.738  25.112  1.00  0.00     0.075 A 
ATOM     16  N   UNL A   1      34.213  22.355  24.692  1.00  0.00    -0.233 N 
ATOM     17  N   UNL A   1      33.238  21.444  24.434  1.00  0.00    -0.163 NA
ATOM     18  C   UNL A   1      33.822  20.242  24.511  1.00  0.00     0.167 A 
ATOM     19  C   UNL A   1      35.153  20.375  24.970  1.00  0.00     0.064 A 
BRANCH  16  20
ATOM     20  C   UNL A   1      33.899  23.716  24.410  1.00  0.00     0.065 A 
ATOM     21  C   UNL A   1      33.354  26.441  23.821  1.00  0.00     0.082 A 
ATOM     22  C   UNL A   1      33.280  25.916  25.100  1.00  0.00     0.024 A 
ATOM     23  C   UNL A   1      33.818  25.603  22.819  1.00  0.00     0.024 A 
ATOM     24  C   UNL A   1      33.470  24.562  25.411  1.00  0.00     0.030 A 
ATOM     25  C   UNL A   1      34.136  24.262  23.126  1.00  0.00     0.030 A 
BRANCH  21  26
ATOM     26  S   UNL A   1      32.985  28.163  23.496  1.00  0.00     0.238 S 
ATOM     27  O   UNL A   1      31.554  28.310  23.555  1.00  0.00    -0.207 OA
ATOM     28  O   UNL A   1      33.782  28.616  22.378  1.00  0.00    -0.207 OA
BRANCH  26  29
ATOM     29  N   UNL A   1      33.568  29.047  24.798  1.00  0.00    -0.225 NA
ATOM     30  H   UNL A   1      34.514  28.739  25.022  1.00  0.00     0.137 HD
ATOM     31  H   UNL A   1      32.963  28.901  25.606  1.00  0.00     0.137 HD
ENDBRANCH  26  29
ENDBRANCH  21  26
ENDBRANCH  16  20
BRANCH  18  32
ATOM     32  C   UNL A   1      33.099  18.965  24.163  1.00  0.00     0.435 C 
ATOM     33  F   UNL A   1      32.211  19.106  23.143  1.00  0.00    -0.164 F 
ATOM     34  F   UNL A   1      33.969  17.984  23.795  1.00  0.00    -0.164 F 
ATOM     35  F   UNL A   1      32.399  18.477  25.223  1.00  0.00    -0.164 F 
ENDBRANCH  18  32
ENDBRANCH  10  15
ENDBRANCH   8   9
ENDBRANCH   6   8
ENDBRANCH   5   6
ENDBRANCH   4   5
ENDBRANCH   3   4
ENDBRANCH   2   3
ENDBRANCH   1   2
BRANCH   1  36
ATOM     36  C   UNL A   1      37.759  31.368  28.751  1.00  0.00     0.188 C 
BRANCH  36  37
ATOM     37  O   UNL A   1      36.941  32.464  29.145  1.00  0.00    -0.377 OA
BRANCH  37  38
ATOM     38  C   UNL A   1      35.529  32.437  28.965  1.00  0.00     0.188 C 
BRANCH  38  39
ATOM     39  C   UNL A   1      34.649  33.591  29.465  1.00  0.00     0.188 C 
BRANCH  39  40
ATOM     40  O   UNL A   1      34.628  33.728  30.864  1.00  0.00    -0.376 OA
BRANCH  40  41
ATOM     41  C   UNL A   1      34.743  32.537  31.602  1.00  0.00     0.202 C 
BRANCH  41  42
ATOM     42  C   UNL A   1      35.762  32.350  32.735  1.00  0.00     0.261 C 
BRANCH  42  43
ATOM     43  O   UNL A   1      36.774  31.325  32.897  1.00  0.00    -0.460 OA
BRANCH  43  44
ATOM     44  C   UNL A   1      38.089  31.711  32.832  1.00  0.00     0.338 C 
ATOM     45  O   UNL A   1      38.505  32.657  32.178  1.00  0.00    -0.246 OA
BRANCH  44  46
ATOM     46  C   UNL A   1      39.041  30.646  33.298  1.00  0.00     0.060 A 
ATOM     47  C   UNL A   1      40.330  31.108  33.596  1.00  0.00     0.016 A 
ATOM     48  C   UNL A   1      38.857  29.287  33.029  1.00  0.00     0.016 A 
ATOM     49  C   UNL A   1      41.436  30.330  33.260  1.00  0.00     0.010 A 
ATOM     50  C   UNL A   1      39.977  28.510  32.684  1.00  0.00     0.010 A 
ATOM     51  C   UNL A   1      41.262  29.072  32.672  1.00  0.00    -0.014 A 
BRANCH  51  52
ATOM     52  C   UNL A   1      42.477  28.289  32.374  1.00  0.00     0.031 A 
ATOM     53  C   UNL A   1      43.052  27.769  33.620  1.00  0.00     0.074 A 
ATOM     54  C   UNL A   1      43.081  27.958  31.209  1.00  0.00     0.049 A 
ATOM     55  N   UNL A   1      44.122  28.179  34.211  1.00  0.00    -0.248 NA
ATOM     56  C   UNL A   1      42.226  26.832  34.390  1.00  0.00     0.031 C 
ATOM     57  C   UNL A   1      42.572  28.159  29.873  1.00  0.00     0.029 A 
ATOM     58  N   UNL A   1      44.269  27.312  30.961  1.00  0.00    -0.354 N 
ATOM     59  C   UNL A   1      44.200  27.400  35.350  1.00  0.00     0.074 A 
ATOM     60  C   UNL A   1      42.915  26.778  35.527  1.00  0.00     0.031 C 
ATOM     61  C   UNL A   1      43.316  27.512  28.955  1.00  0.00     0.029 A 
ATOM     62  C   UNL A   1      44.442  26.909  29.633  1.00  0.00     0.049 A 
ATOM     63  H   UNL A   1      44.943  27.145  31.661  1.00  0.00     0.167 HD
ATOM     64  C   UNL A   1      45.401  27.064  35.881  1.00  0.00     0.037 A 
ATOM     65  C   UNL A   1      45.411  26.121  29.100  1.00  0.00     0.037 A 
ATOM     66  C   UNL A   1      46.452  27.952  35.460  1.00  0.00     0.049 A 
ATOM     67  C   UNL A   1      46.552  26.122  30.039  1.00  0.00     0.074 A 
ATOM     68  C   UNL A   1      46.661  29.315  35.548  1.00  0.00     0.029 A 
ATOM     69  N   UNL A   1      47.346  27.496  34.526  1.00  0.00    -0.354 N 
ATOM     70  N   UNL A   1      47.358  27.130  30.209  1.00  0.00    -0.248 NA
ATOM     71  C   UNL A   1      46.567  25.121  31.092  1.00  0.00     0.031 C 
ATOM     72  C   UNL A   1      47.374  29.671  34.367  1.00  0.00     0.029 A 
ATOM     73  C   UNL A   1      47.590  28.506  33.632  1.00  0.00     0.049 A 
ATOM     74  H   UNL A   1      47.745  26.595  34.502  1.00  0.00     0.167 HD
ATOM     75  C   UNL A   1      47.627  27.125  31.568  1.00  0.00     0.074 A 
ATOM     76  C   UNL A   1      47.228  25.801  32.031  1.00  0.00     0.031 C 
ATOM     77  C   UNL A   1      47.870  28.292  32.230  1.00  0.00     0.037 A 
BRANCH  64  78
ATOM     78  C   UNL A   1      45.635  25.705  36.468  1.00  0.00     0.064 A 
ATOM     79  C   UNL A   1      45.524  24.571  35.653  1.00  0.00     0.173 A 
ATOM     80  C   UNL A   1      45.733  25.458  37.860  1.00  0.00     0.173 A 
ATOM     81  F   UNL A   1      45.359  24.702  34.329  1.00  0.00    -0.203 F 
ATOM     82  C   UNL A   1      45.502  23.284  36.193  1.00  0.00     0.198 A 
ATOM     83  C   UNL A   1      45.786  24.175  38.388  1.00  0.00     0.198 A 
ATOM     84  F   UNL A   1      45.671  26.442  38.767  1.00  0.00    -0.203 F 
ATOM     85  F   UNL A   1      45.285  22.234  35.392  1.00  0.00    -0.200 F 
ATOM     86  C   UNL A   1      45.645  23.087  37.557  1.00  0.00     0.200 A 
ATOM     87  F   UNL A   1      45.901  24.011  39.713  1.00  0.00    -0.200 F 
ATOM     88  F   UNL A   1      45.590  21.854  38.077  1.00  0.00    -0.200 F 
ENDBRANCH  64  78
BRANCH  65  89
ATOM     89  C   UNL A   1      45.348  25.201  27.932  1.00  0.00     0.064 A 
ATOM     90  C   UNL A   1      44.329  24.238  27.806  1.00  0.00     0.173 A 
ATOM     91  C   UNL A   1      46.127  25.430  26.780  1.00  0.00     0.173 A 
ATOM     92  F   UNL A   1      43.513  23.977  28.837  1.00  0.00    -0.203 F 
ATOM     93  C   UNL A   1      44.085  23.577  26.595  1.00  0.00     0.198 A 
ATOM     94  C   UNL A   1      45.890  24.763  25.577  1.00  0.00     0.198 A 
ATOM     95  F   UNL A   1      47.076  26.376  26.771  1.00  0.00    -0.203 F 
ATOM     96  F   UNL A   1      43.061  22.717  26.496  1.00  0.00    -0.200 F 
ATOM     97  C   UNL A   1      44.858  23.849  25.479  1.00  0.00     0.200 A 
ATOM     98  F   UNL A   1      46.626  25.058  24.496  1.00  0.00    -0.200 F 
ATOM     99  F   UNL A   1      44.583  23.266  24.303  1.00  0.00    -0.200 F 
ENDBRANCH  65  89
BRANCH  77 100
ATOM    100  C   UNL A   1      48.218  29.501  31.406  1.00  0.00     0.064 A 
ATOM    101  C   UNL A   1      47.274  30.355  30.808  1.00  0.00     0.173 A 
ATOM    102  C   UNL A   1      49.568  29.871  31.321  1.00  0.00     0.173 A 
ATOM    103  F   UNL A   1      45.959  30.120  30.925  1.00  0.00    -0.203 F 
ATOM    104  C   UNL A   1      47.673  31.501  30.120  1.00  0.00     0.198 A 
ATOM    105  C   UNL A   1      49.960  31.036  30.669  1.00  0.00     0.198 A 
ATOM    106  F   UNL A   1      50.509  29.119  31.913  1.00  0.00    -0.203 F 
ATOM    107  F   UNL A   1      46.760  32.294  29.544  1.00  0.00    -0.200 F 
ATOM    108  C   UNL A   1      49.015  31.846  30.060  1.00  0.00     0.200 A 
ATOM    109  F   UNL A   1      51.253  31.388  30.653  1.00  0.00    -0.200 F 
ATOM    110  F   UNL A   1      49.395  32.970  29.438  1.00  0.00    -0.200 F 
ENDBRANCH  77 100
ENDBRANCH  51  52
ENDBRANCH  44  46
ENDBRANCH  43  44
ENDBRANCH  42  43
ENDBRANCH  41  42
ENDBRANCH  40  41
ENDBRANCH  39  40
ENDBRANCH  38  39
ENDBRANCH  37  38
ENDBRANCH  36  37
ENDBRANCH   1  36
TORSDOF 26
ENDMDL
