MODEL 1
REMARK VINA RESULT:     -11.1      0.000      0.000
REMARK SMILES COc1cccc([C@@H]2[NH2+][C@@](C)(C(=O)OCCOCCOCCOCCOC(=O)c3ccc(-c4c5nc(c(-c6c(F)c(F)c(F)c(F)c6F)c6ccc([nH]6)c(-c6c(F)c(F)c(F)c(F)c6F)c6nc(c(-c7c(F)c(F)c(F)c(F)c7F)c7ccc4[nH]7)C=C6)C=C5)cc3)[C@@H]3C(=O)N(C)C(=O)[C@@H]32)c1O
REMARK SMILES IDX 20 1 19 2 18 3 17 4 16 5 15 6 14 7 12 8 13 9 10 10 8 11 9 12
REMARK SMILES IDX 99 13 92 16 97 17 11 18 93 19 95 20 98 21 94 22 96 23 7 24
REMARK SMILES IDX 3 25 4 26 100 27 5 28 6 29 2 30 1 31 101 32 21 34 22 35
REMARK SMILES IDX 23 36 24 37 25 38 26 39 27 40 28 41 29 42 30 43 91 44 31 45
REMARK SMILES IDX 90 46 32 47 33 48 34 49 84 50 35 51 89 52 83 53 85 54 36 55
REMARK SMILES IDX 88 56 82 57 81 58 37 60 69 61 49 62 68 63 50 64 53 65 67 66
REMARK SMILES IDX 86 67 51 68 52 69 66 71 87 72 54 73 38 74 39 75 47 76 40 77
REMARK SMILES IDX 41 78 45 79 48 80 42 81 43 82 46 83 44 84 70 85 71 86 79 87
REMARK SMILES IDX 72 88 73 89 77 90 80 91 74 92 75 93 78 94 76 95 55 96 56 97
REMARK SMILES IDX 64 98 57 99 58 100 62 101 65 102 59 103 60 104 63 105 61 106
REMARK H PARENT 9 14 9 15 101 33 85 59 53 70
REMARK Flexibility Score: inf
ROOT
ATOM      1  O   UNL A   1      34.922  31.240  28.532  1.00  0.00    -0.377 OA
ENDROOT
BRANCH   1   2
ATOM      2  C   UNL A   1      34.556  30.222  27.623  1.00  0.00     0.188 C 
BRANCH   2   3
ATOM      3  C   UNL A   1      33.132  30.374  27.051  1.00  0.00     0.188 C 
BRANCH   3   4
ATOM      4  O   UNL A   1      32.347  29.239  26.709  1.00  0.00    -0.376 OA
BRANCH   4   5
ATOM      5  C   UNL A   1      31.598  29.239  25.507  1.00  0.00     0.202 C 
BRANCH   5   6
ATOM      6  C   UNL A   1      31.395  27.922  24.729  1.00  0.00     0.261 C 
BRANCH   6   7
ATOM      7  O   UNL A   1      31.861  26.701  25.340  1.00  0.00    -0.459 OA
BRANCH   7   8
ATOM      8  C   UNL A   1      30.997  25.657  25.298  1.00  0.00     0.368 C 
ATOM      9  O   UNL A   1      29.903  25.673  25.863  1.00  0.00    -0.245 OA
BRANCH   8  10
ATOM     10  C   UNL A   1      31.499  24.385  24.533  1.00  0.00     0.204 C 
ATOM     11  C   UNL A   1      32.121  22.267  25.609  1.00  0.00     0.232 C 
ATOM     12  N   UNL A   1      30.999  23.063  25.043  1.00  0.00    -0.325 N 
ATOM     13  C   UNL A   1      33.284  23.240  25.760  1.00  0.00     0.161 C 
ATOM     14  H   UNL A   1      30.300  23.224  25.769  1.00  0.00     0.347 HD
ATOM     15  H   UNL A   1      30.583  22.545  24.267  1.00  0.00     0.347 HD
ATOM     16  C   UNL A   1      33.012  24.350  24.751  1.00  0.00     0.170 C 
ATOM     17  C   UNL A   1      34.652  22.757  25.379  1.00  0.00     0.239 C 
ATOM     18  C   UNL A   1      30.949  24.640  23.124  1.00  0.00     0.093 C 
ATOM     19  C   UNL A   1      33.918  23.985  23.611  1.00  0.00     0.240 C 
ATOM     20  N   UNL A   1      34.931  23.219  24.125  1.00  0.00    -0.285 N 
ATOM     21  O   UNL A   1      35.363  22.053  26.080  1.00  0.00    -0.274 OA
ATOM     22  O   UNL A   1      33.789  24.314  22.444  1.00  0.00    -0.274 OA
ATOM     23  C   UNL A   1      36.123  22.853  23.404  1.00  0.00     0.156 C 
BRANCH  11  24
ATOM     24  C   UNL A   1      32.464  20.945  24.921  1.00  0.00     0.056 A 
ATOM     25  C   UNL A   1      32.900  18.533  24.972  1.00  0.00     0.161 A 
ATOM     26  C   UNL A   1      32.645  18.462  23.600  1.00  0.00     0.050 A 
ATOM     27  C   UNL A   1      32.863  19.784  25.605  1.00  0.00     0.166 A 
ATOM     28  C   UNL A   1      32.320  19.608  22.879  1.00  0.00     0.005 A 
ATOM     29  C   UNL A   1      32.213  20.834  23.538  1.00  0.00     0.014 A 
BRANCH  25  30
ATOM     30  O   UNL A   1      33.233  17.330  25.534  1.00  0.00    -0.493 OA
ATOM     31  C   UNL A   1      32.969  16.162  24.770  1.00  0.00     0.278 C 
ENDBRANCH  25  30
BRANCH  27  32
ATOM     32  O   UNL A   1      33.277  19.955  26.889  1.00  0.00    -0.504 OA
ATOM     33  H   UNL A   1      33.216  20.797  27.294  1.00  0.00     0.293 HD
ENDBRANCH  27  32
ENDBRANCH  11  24
ENDBRANCH   8  10
ENDBRANCH   7   8
ENDBRANCH   6   7
ENDBRANCH   5   6
ENDBRANCH   4   5
ENDBRANCH   3   4
ENDBRANCH   2   3
ENDBRANCH   1   2
BRANCH   1  34
ATOM     34  C   UNL A   1      35.734  32.265  28.003  1.00  0.00     0.188 C 
BRANCH  34  35
ATOM     35  C   UNL A   1      35.799  33.570  28.811  1.00  0.00     0.188 C 
BRANCH  35  36
ATOM     36  O   UNL A   1      35.078  34.644  28.209  1.00  0.00    -0.376 OA
BRANCH  36  37
ATOM     37  C   UNL A   1      33.660  34.608  28.230  1.00  0.00     0.202 C 
BRANCH  37  38
ATOM     38  C   UNL A   1      32.961  35.550  29.225  1.00  0.00     0.261 C 
BRANCH  38  39
ATOM     39  O   UNL A   1      32.505  34.959  30.451  1.00  0.00    -0.460 OA
BRANCH  39  40
ATOM     40  C   UNL A   1      32.797  35.598  31.602  1.00  0.00     0.338 C 
ATOM     41  O   UNL A   1      32.135  36.462  32.153  1.00  0.00    -0.246 OA
BRANCH  40  42
ATOM     42  C   UNL A   1      33.962  34.925  32.215  1.00  0.00     0.060 A 
ATOM     43  C   UNL A   1      35.211  35.555  32.142  1.00  0.00     0.016 A 
ATOM     44  C   UNL A   1      33.824  33.706  32.885  1.00  0.00     0.016 A 
ATOM     45  C   UNL A   1      36.334  34.950  32.703  1.00  0.00     0.010 A 
ATOM     46  C   UNL A   1      34.956  33.083  33.418  1.00  0.00     0.010 A 
ATOM     47  C   UNL A   1      36.221  33.685  33.293  1.00  0.00    -0.014 A 
BRANCH  47  48
ATOM     48  C   UNL A   1      37.455  32.897  33.529  1.00  0.00     0.031 A 
ATOM     49  C   UNL A   1      38.211  33.153  34.805  1.00  0.00     0.074 A 
ATOM     50  C   UNL A   1      37.864  31.942  32.677  1.00  0.00     0.049 A 
ATOM     51  N   UNL A   1      39.308  32.598  35.253  1.00  0.00    -0.248 NA
ATOM     52  C   UNL A   1      37.646  34.178  35.700  1.00  0.00     0.031 C 
ATOM     53  C   UNL A   1      37.191  31.570  31.435  1.00  0.00     0.029 A 
ATOM     54  N   UNL A   1      38.952  31.107  32.736  1.00  0.00    -0.354 N 
ATOM     55  C   UNL A   1      39.556  33.199  36.481  1.00  0.00     0.074 A 
ATOM     56  C   UNL A   1      38.526  34.193  36.689  1.00  0.00     0.031 C 
ATOM     57  C   UNL A   1      37.890  30.587  30.839  1.00  0.00     0.029 A 
ATOM     58  C   UNL A   1      39.070  30.279  31.647  1.00  0.00     0.049 A 
ATOM     59  H   UNL A   1      39.586  31.102  33.488  1.00  0.00     0.167 HD
ATOM     60  C   UNL A   1      40.545  32.936  37.367  1.00  0.00     0.037 A 
ATOM     61  C   UNL A   1      40.036  29.392  31.336  1.00  0.00     0.037 A 
ATOM     62  C   UNL A   1      41.579  31.960  37.152  1.00  0.00     0.049 A 
ATOM     63  C   UNL A   1      41.178  29.179  32.300  1.00  0.00     0.074 A 
ATOM     64  C   UNL A   1      42.638  31.628  37.976  1.00  0.00     0.029 A 
ATOM     65  N   UNL A   1      41.687  31.166  36.019  1.00  0.00    -0.354 N 
ATOM     66  N   UNL A   1      41.397  29.735  33.468  1.00  0.00    -0.248 NA
ATOM     67  C   UNL A   1      42.204  28.202  31.905  1.00  0.00     0.031 C 
ATOM     68  C   UNL A   1      43.418  30.669  37.319  1.00  0.00     0.029 A 
ATOM     69  C   UNL A   1      42.807  30.356  36.115  1.00  0.00     0.049 A 
ATOM     70  H   UNL A   1      41.061  31.177  35.259  1.00  0.00     0.167 HD
ATOM     71  C   UNL A   1      42.558  29.151  33.961  1.00  0.00     0.074 A 
ATOM     72  C   UNL A   1      42.989  28.185  32.972  1.00  0.00     0.031 C 
ATOM     73  C   UNL A   1      43.211  29.389  35.126  1.00  0.00     0.037 A 
BRANCH  60  74
ATOM     74  C   UNL A   1      40.563  33.736  38.637  1.00  0.00     0.064 A 
ATOM     75  C   UNL A   1      41.397  34.855  38.791  1.00  0.00     0.173 A 
ATOM     76  C   UNL A   1      39.726  33.390  39.708  1.00  0.00     0.173 A 
ATOM     77  F   UNL A   1      42.232  35.217  37.806  1.00  0.00    -0.203 F 
ATOM     78  C   UNL A   1      41.412  35.577  39.981  1.00  0.00     0.198 A 
ATOM     79  C   UNL A   1      39.720  34.135  40.884  1.00  0.00     0.198 A 
ATOM     80  F   UNL A   1      38.910  32.329  39.614  1.00  0.00    -0.203 F 
ATOM     81  F   UNL A   1      42.257  36.608  40.127  1.00  0.00    -0.200 F 
ATOM     82  C   UNL A   1      40.568  35.223  41.022  1.00  0.00     0.200 A 
ATOM     83  F   UNL A   1      38.895  33.798  41.884  1.00  0.00    -0.200 F 
ATOM     84  F   UNL A   1      40.579  35.924  42.165  1.00  0.00    -0.200 F 
ENDBRANCH  60  74
BRANCH  61  85
ATOM     85  C   UNL A   1      39.982  28.642  30.051  1.00  0.00     0.064 A 
ATOM     86  C   UNL A   1      39.392  27.373  29.971  1.00  0.00     0.173 A 
ATOM     87  C   UNL A   1      40.569  29.160  28.886  1.00  0.00     0.173 A 
ATOM     88  F   UNL A   1      38.841  26.820  31.062  1.00  0.00    -0.203 F 
ATOM     89  C   UNL A   1      39.417  26.638  28.787  1.00  0.00     0.198 A 
ATOM     90  C   UNL A   1      40.563  28.439  27.693  1.00  0.00     0.198 A 
ATOM     91  F   UNL A   1      41.153  30.367  28.907  1.00  0.00    -0.203 F 
ATOM     92  F   UNL A   1      38.902  25.402  28.757  1.00  0.00    -0.200 F 
ATOM     93  C   UNL A   1      39.999  27.174  27.647  1.00  0.00     0.200 A 
ATOM     94  F   UNL A   1      41.119  28.965  26.593  1.00  0.00    -0.200 F 
ATOM     95  F   UNL A   1      40.028  26.466  26.510  1.00  0.00    -0.200 F 
ENDBRANCH  61  85
BRANCH  73  96
ATOM     96  C   UNL A   1      44.426  28.553  35.423  1.00  0.00     0.064 A 
ATOM     97  C   UNL A   1      44.338  27.334  36.111  1.00  0.00     0.173 A 
ATOM     98  C   UNL A   1      45.694  28.969  34.986  1.00  0.00     0.173 A 
ATOM     99  F   UNL A   1      43.152  26.894  36.558  1.00  0.00    -0.203 F 
ATOM    100  C   UNL A   1      45.479  26.584  36.388  1.00  0.00     0.198 A 
ATOM    101  C   UNL A   1      46.827  28.198  35.232  1.00  0.00     0.198 A 
ATOM    102  F   UNL A   1      45.834  30.120  34.312  1.00  0.00    -0.203 F 
ATOM    103  F   UNL A   1      45.378  25.455  37.104  1.00  0.00    -0.200 F 
ATOM    104  C   UNL A   1      46.720  27.013  35.944  1.00  0.00     0.200 A 
ATOM    105  F   UNL A   1      48.023  28.605  34.784  1.00  0.00    -0.200 F 
ATOM    106  F   UNL A   1      47.815  26.288  36.208  1.00  0.00    -0.200 F 
ENDBRANCH  73  96
ENDBRANCH  47  48
ENDBRANCH  40  42
ENDBRANCH  39  40
ENDBRANCH  38  39
ENDBRANCH  37  38
ENDBRANCH  36  37
ENDBRANCH  35  36
ENDBRANCH  34  35
ENDBRANCH   1  34
TORSDOF 23
ENDMDL
MODEL 2
REMARK VINA RESULT:     -10.7      3.406      9.348
REMARK SMILES COc1cccc([C@@H]2[NH2+][C@@](C)(C(=O)OCCOCCOCCOCCOC(=O)c3ccc(-c4c5nc(c(-c6c(F)c(F)c(F)c(F)c6F)c6ccc([nH]6)c(-c6c(F)c(F)c(F)c(F)c6F)c6nc(c(-c7c(F)c(F)c(F)c(F)c7F)c7ccc4[nH]7)C=C6)C=C5)cc3)[C@@H]3C(=O)N(C)C(=O)[C@@H]32)c1O
REMARK SMILES IDX 20 1 19 2 18 3 17 4 16 5 15 6 14 7 12 8 13 9 10 10 8 11 9 12
REMARK SMILES IDX 99 13 92 16 97 17 11 18 93 19 95 20 98 21 94 22 96 23 7 24
REMARK SMILES IDX 3 25 4 26 100 27 5 28 6 29 2 30 1 31 101 32 21 34 22 35
REMARK SMILES IDX 23 36 24 37 25 38 26 39 27 40 28 41 29 42 30 43 91 44 31 45
REMARK SMILES IDX 90 46 32 47 33 48 34 49 84 50 35 51 89 52 83 53 85 54 36 55
REMARK SMILES IDX 88 56 82 57 81 58 37 60 69 61 49 62 68 63 50 64 53 65 67 66
REMARK SMILES IDX 86 67 51 68 52 69 66 71 87 72 54 73 38 74 39 75 47 76 40 77
REMARK SMILES IDX 41 78 45 79 48 80 42 81 43 82 46 83 44 84 70 85 71 86 79 87
REMARK SMILES IDX 72 88 73 89 77 90 80 91 74 92 75 93 78 94 76 95 55 96 56 97
REMARK SMILES IDX 64 98 57 99 58 100 62 101 65 102 59 103 60 104 63 105 61 106
REMARK H PARENT 9 14 9 15 101 33 85 59 53 70
REMARK Flexibility Score: inf
ROOT
ATOM      1  O   UNL A   1      40.449  20.325  26.987  1.00  0.00    -0.377 OA
ENDROOT
BRANCH   1   2
ATOM      2  C   UNL A   1      40.311  21.343  26.018  1.00  0.00     0.188 C 
BRANCH   2   3
ATOM      3  C   UNL A   1      39.201  22.365  26.334  1.00  0.00     0.188 C 
BRANCH   3   4
ATOM      4  O   UNL A   1      37.825  22.032  26.195  1.00  0.00    -0.376 OA
BRANCH   4   5
ATOM      5  C   UNL A   1      37.259  21.908  24.903  1.00  0.00     0.202 C 
BRANCH   5   6
ATOM      6  C   UNL A   1      35.728  21.805  24.742  1.00  0.00     0.261 C 
BRANCH   6   7
ATOM      7  O   UNL A   1      34.941  22.975  25.040  1.00  0.00    -0.459 OA
BRANCH   7   8
ATOM      8  C   UNL A   1      34.520  23.689  23.966  1.00  0.00     0.368 C 
ATOM      9  O   UNL A   1      35.170  23.769  22.924  1.00  0.00    -0.245 OA
BRANCH   8  10
ATOM     10  C   UNL A   1      33.175  24.470  24.149  1.00  0.00     0.204 C 
ATOM     11  C   UNL A   1      32.687  26.659  23.148  1.00  0.00     0.232 C 
ATOM     12  N   UNL A   1      32.653  25.187  22.935  1.00  0.00    -0.325 N 
ATOM     13  C   UNL A   1      33.553  26.879  24.382  1.00  0.00     0.161 C 
ATOM     14  H   UNL A   1      33.232  24.949  22.129  1.00  0.00     0.347 HD
ATOM     15  H   UNL A   1      31.688  24.898  22.770  1.00  0.00     0.347 HD
ATOM     16  C   UNL A   1      33.477  25.573  25.164  1.00  0.00     0.170 C 
ATOM     17  C   UNL A   1      33.099  27.903  25.381  1.00  0.00     0.239 C 
ATOM     18  C   UNL A   1      32.215  23.337  24.535  1.00  0.00     0.093 C 
ATOM     19  C   UNL A   1      32.476  25.890  26.237  1.00  0.00     0.240 C 
ATOM     20  N   UNL A   1      32.478  27.249  26.406  1.00  0.00    -0.285 N 
ATOM     21  O   UNL A   1      33.250  29.109  25.260  1.00  0.00    -0.274 OA
ATOM     22  O   UNL A   1      31.792  25.091  26.854  1.00  0.00    -0.274 OA
ATOM     23  C   UNL A   1      31.823  27.937  27.489  1.00  0.00     0.156 C 
BRANCH  11  24
ATOM     24  C   UNL A   1      31.349  27.401  23.152  1.00  0.00     0.056 A 
ATOM     25  C   UNL A   1      29.862  29.176  22.347  1.00  0.00     0.161 A 
ATOM     26  C   UNL A   1      28.761  28.469  22.834  1.00  0.00     0.050 A 
ATOM     27  C   UNL A   1      31.149  28.661  22.563  1.00  0.00     0.166 A 
ATOM     28  C   UNL A   1      28.932  27.252  23.489  1.00  0.00     0.005 A 
ATOM     29  C   UNL A   1      30.213  26.715  23.629  1.00  0.00     0.014 A 
BRANCH  25  30
ATOM     30  O   UNL A   1      29.536  30.366  21.755  1.00  0.00    -0.493 OA
ATOM     31  C   UNL A   1      28.155  30.631  21.550  1.00  0.00     0.278 C 
ENDBRANCH  25  30
BRANCH  27  32
ATOM     32  O   UNL A   1      32.270  29.379  22.282  1.00  0.00    -0.504 OA
ATOM     33  H   UNL A   1      32.768  29.188  21.513  1.00  0.00     0.293 HD
ENDBRANCH  27  32
ENDBRANCH  11  24
ENDBRANCH   8  10
ENDBRANCH   7   8
ENDBRANCH   6   7
ENDBRANCH   5   6
ENDBRANCH   4   5
ENDBRANCH   3   4
ENDBRANCH   2   3
ENDBRANCH   1   2
BRANCH   1  34
ATOM     34  C   UNL A   1      41.673  19.625  26.963  1.00  0.00     0.188 C 
BRANCH  34  35
ATOM     35  C   UNL A   1      42.373  19.520  25.599  1.00  0.00     0.188 C 
BRANCH  35  36
ATOM     36  O   UNL A   1      43.738  19.119  25.694  1.00  0.00    -0.376 OA
BRANCH  36  37
ATOM     37  C   UNL A   1      44.750  20.070  25.397  1.00  0.00     0.202 C 
BRANCH  37  38
ATOM     38  C   UNL A   1      44.277  21.441  24.882  1.00  0.00     0.261 C 
BRANCH  38  39
ATOM     39  O   UNL A   1      44.287  22.517  25.831  1.00  0.00    -0.460 OA
BRANCH  39  40
ATOM     40  C   UNL A   1      43.817  23.715  25.427  1.00  0.00     0.338 C 
ATOM     41  O   UNL A   1      43.459  24.023  24.302  1.00  0.00    -0.246 OA
BRANCH  40  42
ATOM     42  C   UNL A   1      43.598  24.549  26.628  1.00  0.00     0.060 A 
ATOM     43  C   UNL A   1      42.786  24.044  27.652  1.00  0.00     0.016 A 
ATOM     44  C   UNL A   1      44.210  25.798  26.763  1.00  0.00     0.016 A 
ATOM     45  C   UNL A   1      42.552  24.801  28.797  1.00  0.00     0.010 A 
ATOM     46  C   UNL A   1      43.947  26.573  27.897  1.00  0.00     0.010 A 
ATOM     47  C   UNL A   1      43.084  26.093  28.899  1.00  0.00    -0.014 A 
BRANCH  47  48
ATOM     48  C   UNL A   1      42.523  27.016  29.914  1.00  0.00     0.031 A 
ATOM     49  C   UNL A   1      43.206  27.077  31.254  1.00  0.00     0.074 A 
ATOM     50  C   UNL A   1      41.483  27.823  29.644  1.00  0.00     0.049 A 
ATOM     51  N   UNL A   1      42.922  27.802  32.305  1.00  0.00    -0.248 NA
ATOM     52  C   UNL A   1      44.374  26.197  31.427  1.00  0.00     0.031 C 
ATOM     53  C   UNL A   1      40.770  27.889  28.371  1.00  0.00     0.029 A 
ATOM     54  N   UNL A   1      40.847  28.747  30.436  1.00  0.00    -0.354 N 
ATOM     55  C   UNL A   1      43.880  27.472  33.256  1.00  0.00     0.074 A 
ATOM     56  C   UNL A   1      44.723  26.449  32.679  1.00  0.00     0.031 C 
ATOM     57  C   UNL A   1      39.783  28.798  28.472  1.00  0.00     0.029 A 
ATOM     58  C   UNL A   1      39.782  29.357  29.824  1.00  0.00     0.049 A 
ATOM     59  H   UNL A   1      41.130  28.951  31.356  1.00  0.00     0.167 HD
ATOM     60  C   UNL A   1      44.052  27.985  34.496  1.00  0.00     0.037 A 
ATOM     61  C   UNL A   1      38.898  30.250  30.313  1.00  0.00     0.037 A 
ATOM     62  C   UNL A   1      43.201  28.989  35.077  1.00  0.00     0.049 A 
ATOM     63  C   UNL A   1      39.058  30.744  31.731  1.00  0.00     0.074 A 
ATOM     64  C   UNL A   1      43.276  29.565  36.331  1.00  0.00     0.029 A 
ATOM     65  N   UNL A   1      42.108  29.558  34.439  1.00  0.00    -0.354 N 
ATOM     66  N   UNL A   1      39.976  30.443  32.619  1.00  0.00    -0.248 NA
ATOM     67  C   UNL A   1      38.062  31.713  32.210  1.00  0.00     0.031 C 
ATOM     68  C   UNL A   1      42.197  30.445  36.473  1.00  0.00     0.029 A 
ATOM     69  C   UNL A   1      41.489  30.466  35.281  1.00  0.00     0.049 A 
ATOM     70  H   UNL A   1      41.815  29.347  33.522  1.00  0.00     0.167 HD
ATOM     71  C   UNL A   1      39.692  31.211  33.742  1.00  0.00     0.074 A 
ATOM     72  C   UNL A   1      38.524  32.003  33.418  1.00  0.00     0.031 C 
ATOM     73  C   UNL A   1      40.335  31.258  34.935  1.00  0.00     0.037 A 
BRANCH  60  74
ATOM     74  C   UNL A   1      45.191  27.448  35.312  1.00  0.00     0.064 A 
ATOM     75  C   UNL A   1      46.479  28.003  35.235  1.00  0.00     0.173 A 
ATOM     76  C   UNL A   1      44.992  26.376  36.194  1.00  0.00     0.173 A 
ATOM     77  F   UNL A   1      46.729  29.016  34.393  1.00  0.00    -0.203 F 
ATOM     78  C   UNL A   1      47.529  27.483  35.988  1.00  0.00     0.198 A 
ATOM     79  C   UNL A   1      46.037  25.881  36.970  1.00  0.00     0.198 A 
ATOM     80  F   UNL A   1      43.782  25.808  36.305  1.00  0.00    -0.203 F 
ATOM     81  F   UNL A   1      48.762  27.992  35.857  1.00  0.00    -0.200 F 
ATOM     82  C   UNL A   1      47.305  26.430  36.861  1.00  0.00     0.200 A 
ATOM     83  F   UNL A   1      45.816  24.870  37.821  1.00  0.00    -0.200 F 
ATOM     84  F   UNL A   1      48.315  25.935  37.590  1.00  0.00    -0.200 F 
ENDBRANCH  60  74
BRANCH  61  85
ATOM     85  C   UNL A   1      37.771  30.732  29.468  1.00  0.00     0.064 A 
ATOM     86  C   UNL A   1      37.716  32.057  29.011  1.00  0.00     0.173 A 
ATOM     87  C   UNL A   1      36.697  29.889  29.145  1.00  0.00     0.173 A 
ATOM     88  F   UNL A   1      38.704  32.912  29.315  1.00  0.00    -0.203 F 
ATOM     89  C   UNL A   1      36.619  32.527  28.291  1.00  0.00     0.198 A 
ATOM     90  C   UNL A   1      35.617  30.351  28.395  1.00  0.00     0.198 A 
ATOM     91  F   UNL A   1      36.694  28.614  29.561  1.00  0.00    -0.203 F 
ATOM     92  F   UNL A   1      36.565  33.814  27.922  1.00  0.00    -0.200 F 
ATOM     93  C   UNL A   1      35.572  31.672  27.980  1.00  0.00     0.200 A 
ATOM     94  F   UNL A   1      34.612  29.518  28.090  1.00  0.00    -0.200 F 
ATOM     95  F   UNL A   1      34.515  32.126  27.292  1.00  0.00    -0.200 F 
ENDBRANCH  61  85
BRANCH  73  96
ATOM     96  C   UNL A   1      39.830  32.240  35.956  1.00  0.00     0.064 A 
ATOM     97  C   UNL A   1      38.762  31.936  36.814  1.00  0.00     0.173 A 
ATOM     98  C   UNL A   1      40.443  33.495  36.093  1.00  0.00     0.173 A 
ATOM     99  F   UNL A   1      38.134  30.754  36.719  1.00  0.00    -0.203 F 
ATOM    100  C   UNL A   1      38.301  32.868  37.741  1.00  0.00     0.198 A 
ATOM    101  C   UNL A   1      40.004  34.410  37.046  1.00  0.00     0.198 A 
ATOM    102  F   UNL A   1      41.476  33.834  35.307  1.00  0.00    -0.203 F 
ATOM    103  F   UNL A   1      37.238  32.580  38.505  1.00  0.00    -0.200 F 
ATOM    104  C   UNL A   1      38.926  34.100  37.860  1.00  0.00     0.200 A 
ATOM    105  F   UNL A   1      40.622  35.592  37.173  1.00  0.00    -0.200 F 
ATOM    106  F   UNL A   1      38.482  34.993  38.756  1.00  0.00    -0.200 F 
ENDBRANCH  73  96
ENDBRANCH  47  48
ENDBRANCH  40  42
ENDBRANCH  39  40
ENDBRANCH  38  39
ENDBRANCH  37  38
ENDBRANCH  36  37
ENDBRANCH  35  36
ENDBRANCH  34  35
ENDBRANCH   1  34
TORSDOF 23
ENDMDL
MODEL 3
REMARK VINA RESULT:     -10.6      3.606      9.395
REMARK SMILES COc1cccc([C@@H]2[NH2+][C@@](C)(C(=O)OCCOCCOCCOCCOC(=O)c3ccc(-c4c5nc(c(-c6c(F)c(F)c(F)c(F)c6F)c6ccc([nH]6)c(-c6c(F)c(F)c(F)c(F)c6F)c6nc(c(-c7c(F)c(F)c(F)c(F)c7F)c7ccc4[nH]7)C=C6)C=C5)cc3)[C@@H]3C(=O)N(C)C(=O)[C@@H]32)c1O
REMARK SMILES IDX 20 1 19 2 18 3 17 4 16 5 15 6 14 7 12 8 13 9 10 10 8 11 9 12
REMARK SMILES IDX 99 13 92 16 97 17 11 18 93 19 95 20 98 21 94 22 96 23 7 24
REMARK SMILES IDX 3 25 4 26 100 27 5 28 6 29 2 30 1 31 101 32 21 34 22 35
REMARK SMILES IDX 23 36 24 37 25 38 26 39 27 40 28 41 29 42 30 43 91 44 31 45
REMARK SMILES IDX 90 46 32 47 33 48 34 49 84 50 35 51 89 52 83 53 85 54 36 55
REMARK SMILES IDX 88 56 82 57 81 58 37 60 69 61 49 62 68 63 50 64 53 65 67 66
REMARK SMILES IDX 86 67 51 68 52 69 66 71 87 72 54 73 38 74 39 75 47 76 40 77
REMARK SMILES IDX 41 78 45 79 48 80 42 81 43 82 46 83 44 84 70 85 71 86 79 87
REMARK SMILES IDX 72 88 73 89 77 90 80 91 74 92 75 93 78 94 76 95 55 96 56 97
REMARK SMILES IDX 64 98 57 99 58 100 62 101 65 102 59 103 60 104 63 105 61 106
REMARK H PARENT 9 14 9 15 101 33 85 59 53 70
REMARK Flexibility Score: inf
ROOT
ATOM      1  O   UNL A   1      42.282  19.231  27.128  1.00  0.00    -0.377 OA
ENDROOT
BRANCH   1   2
ATOM      2  C   UNL A   1      41.124  19.922  27.547  1.00  0.00     0.188 C 
BRANCH   2   3
ATOM      3  C   UNL A   1      41.295  21.453  27.614  1.00  0.00     0.188 C 
BRANCH   3   4
ATOM      4  O   UNL A   1      40.222  22.333  27.304  1.00  0.00    -0.376 OA
BRANCH   4   5
ATOM      5  C   UNL A   1      39.252  21.949  26.346  1.00  0.00     0.202 C 
BRANCH   5   6
ATOM      6  C   UNL A   1      38.007  22.832  26.118  1.00  0.00     0.261 C 
BRANCH   6   7
ATOM      7  O   UNL A   1      36.791  22.183  25.696  1.00  0.00    -0.459 OA
BRANCH   7   8
ATOM      8  C   UNL A   1      36.425  22.400  24.408  1.00  0.00     0.368 C 
ATOM      9  O   UNL A   1      37.108  22.034  23.451  1.00  0.00    -0.245 OA
BRANCH   8  10
ATOM     10  C   UNL A   1      35.100  23.209  24.201  1.00  0.00     0.204 C 
ATOM     11  C   UNL A   1      34.287  24.964  25.713  1.00  0.00     0.232 C 
ATOM     12  N   UNL A   1      35.154  24.672  24.540  1.00  0.00    -0.325 N 
ATOM     13  C   UNL A   1      33.947  23.611  26.324  1.00  0.00     0.161 C 
ATOM     14  H   UNL A   1      36.116  24.931  24.758  1.00  0.00     0.347 HD
ATOM     15  H   UNL A   1      34.820  25.209  23.739  1.00  0.00     0.347 HD
ATOM     16  C   UNL A   1      34.097  22.608  25.187  1.00  0.00     0.170 C 
ATOM     17  C   UNL A   1      32.538  23.391  26.792  1.00  0.00     0.239 C 
ATOM     18  C   UNL A   1      34.868  23.033  22.695  1.00  0.00     0.093 C 
ATOM     19  C   UNL A   1      32.676  22.383  24.757  1.00  0.00     0.240 C 
ATOM     20  N   UNL A   1      31.875  22.690  25.824  1.00  0.00    -0.285 N 
ATOM     21  O   UNL A   1      32.081  23.800  27.848  1.00  0.00    -0.274 OA
ATOM     22  O   UNL A   1      32.299  21.990  23.666  1.00  0.00    -0.274 OA
ATOM     23  C   UNL A   1      30.467  22.398  25.898  1.00  0.00     0.156 C 
BRANCH  11  24
ATOM     24  C   UNL A   1      33.095  25.898  25.492  1.00  0.00     0.056 A 
ATOM     25  C   UNL A   1      31.026  26.521  24.335  1.00  0.00     0.161 A 
ATOM     26  C   UNL A   1      30.689  27.361  25.400  1.00  0.00     0.050 A 
ATOM     27  C   UNL A   1      32.254  25.843  24.368  1.00  0.00     0.166 A 
ATOM     28  C   UNL A   1      31.538  27.493  26.495  1.00  0.00     0.005 A 
ATOM     29  C   UNL A   1      32.721  26.754  26.548  1.00  0.00     0.014 A 
BRANCH  25  30
ATOM     30  O   UNL A   1      30.106  26.519  23.322  1.00  0.00    -0.493 OA
ATOM     31  C   UNL A   1      28.939  27.307  23.503  1.00  0.00     0.278 C 
ENDBRANCH  25  30
BRANCH  27  32
ATOM     32  O   UNL A   1      32.729  25.159  23.293  1.00  0.00    -0.504 OA
ATOM     33  H   UNL A   1      32.210  24.485  22.900  1.00  0.00     0.293 HD
ENDBRANCH  27  32
ENDBRANCH  11  24
ENDBRANCH   8  10
ENDBRANCH   7   8
ENDBRANCH   6   7
ENDBRANCH   5   6
ENDBRANCH   4   5
ENDBRANCH   3   4
ENDBRANCH   2   3
ENDBRANCH   1   2
BRANCH   1  34
ATOM     34  C   UNL A   1      42.591  19.339  25.755  1.00  0.00     0.188 C 
BRANCH  34  35
ATOM     35  C   UNL A   1      43.936  18.745  25.309  1.00  0.00     0.188 C 
BRANCH  35  36
ATOM     36  O   UNL A   1      44.892  19.734  24.931  1.00  0.00    -0.376 OA
BRANCH  36  37
ATOM     37  C   UNL A   1      44.552  21.104  25.085  1.00  0.00     0.202 C 
BRANCH  37  38
ATOM     38  C   UNL A   1      45.688  22.052  25.508  1.00  0.00     0.261 C 
BRANCH  38  39
ATOM     39  O   UNL A   1      45.298  23.239  26.213  1.00  0.00    -0.460 OA
BRANCH  39  40
ATOM     40  C   UNL A   1      44.895  24.299  25.482  1.00  0.00     0.338 C 
ATOM     41  O   UNL A   1      45.046  24.466  24.283  1.00  0.00    -0.246 OA
BRANCH  40  42
ATOM     42  C   UNL A   1      44.038  25.145  26.339  1.00  0.00     0.060 A 
ATOM     43  C   UNL A   1      44.359  26.503  26.470  1.00  0.00     0.016 A 
ATOM     44  C   UNL A   1      42.912  24.620  26.980  1.00  0.00     0.016 A 
ATOM     45  C   UNL A   1      43.578  27.332  27.273  1.00  0.00     0.010 A 
ATOM     46  C   UNL A   1      42.149  25.444  27.813  1.00  0.00     0.010 A 
ATOM     47  C   UNL A   1      42.505  26.793  27.993  1.00  0.00    -0.014 A 
BRANCH  47  48
ATOM     48  C   UNL A   1      41.938  27.576  29.117  1.00  0.00     0.031 A 
ATOM     49  C   UNL A   1      42.644  27.503  30.444  1.00  0.00     0.074 A 
ATOM     50  C   UNL A   1      40.870  28.377  28.959  1.00  0.00     0.049 A 
ATOM     51  N   UNL A   1      42.361  28.093  31.577  1.00  0.00    -0.248 NA
ATOM     52  C   UNL A   1      43.840  26.644  30.496  1.00  0.00     0.031 C 
ATOM     53  C   UNL A   1      40.131  28.568  27.714  1.00  0.00     0.029 A 
ATOM     54  N   UNL A   1      40.224  29.184  29.864  1.00  0.00    -0.354 N 
ATOM     55  C   UNL A   1      43.345  27.684  32.468  1.00  0.00     0.074 A 
ATOM     56  C   UNL A   1      44.206  26.761  31.762  1.00  0.00     0.031 C 
ATOM     57  C   UNL A   1      39.121  29.429  27.936  1.00  0.00     0.029 A 
ATOM     58  C   UNL A   1      39.130  29.829  29.343  1.00  0.00     0.049 A 
ATOM     59  H   UNL A   1      40.519  29.289  30.797  1.00  0.00     0.167 HD
ATOM     60  C   UNL A   1      43.527  28.056  33.756  1.00  0.00     0.037 A 
ATOM     61  C   UNL A   1      38.232  30.632  29.946  1.00  0.00     0.037 A 
ATOM     62  C   UNL A   1      42.659  28.960  34.463  1.00  0.00     0.049 A 
ATOM     63  C   UNL A   1      38.405  30.963  31.409  1.00  0.00     0.074 A 
ATOM     64  C   UNL A   1      42.742  29.390  35.774  1.00  0.00     0.029 A 
ATOM     65  N   UNL A   1      41.539  29.565  33.912  1.00  0.00    -0.354 N 
ATOM     66  N   UNL A   1      39.348  30.590  32.241  1.00  0.00    -0.248 NA
ATOM     67  C   UNL A   1      37.392  31.840  32.013  1.00  0.00     0.031 C 
ATOM     68  C   UNL A   1      41.642  30.214  36.034  1.00  0.00     0.029 A 
ATOM     69  C   UNL A   1      40.911  30.352  34.864  1.00  0.00     0.049 A 
ATOM     70  H   UNL A   1      41.234  29.453  32.982  1.00  0.00     0.167 HD
ATOM     71  C   UNL A   1      39.064  31.214  33.451  1.00  0.00     0.074 A 
ATOM     72  C   UNL A   1      37.869  32.003  33.239  1.00  0.00     0.031 C 
ATOM     73  C   UNL A   1      39.729  31.143  34.630  1.00  0.00     0.037 A 
BRANCH  60  74
ATOM     74  C   UNL A   1      44.696  27.463  34.486  1.00  0.00     0.064 A 
ATOM     75  C   UNL A   1      44.630  26.189  35.073  1.00  0.00     0.173 A 
ATOM     76  C   UNL A   1      45.904  28.170  34.589  1.00  0.00     0.173 A 
ATOM     77  F   UNL A   1      43.493  25.480  35.022  1.00  0.00    -0.203 F 
ATOM     78  C   UNL A   1      45.720  25.660  35.759  1.00  0.00     0.198 A 
ATOM     79  C   UNL A   1      47.002  27.622  35.247  1.00  0.00     0.198 A 
ATOM     80  F   UNL A   1      46.021  29.392  34.048  1.00  0.00    -0.203 F 
ATOM     81  F   UNL A   1      45.616  24.465  36.359  1.00  0.00    -0.200 F 
ATOM     82  C   UNL A   1      46.907  26.372  35.838  1.00  0.00     0.200 A 
ATOM     83  F   UNL A   1      48.151  28.308  35.312  1.00  0.00    -0.200 F 
ATOM     84  F   UNL A   1      47.957  25.858  36.492  1.00  0.00    -0.200 F 
ENDBRANCH  60  74
BRANCH  61  85
ATOM     85  C   UNL A   1      37.075  31.174  29.181  1.00  0.00     0.064 A 
ATOM     86  C   UNL A   1      37.010  32.527  28.818  1.00  0.00     0.173 A 
ATOM     87  C   UNL A   1      35.985  30.358  28.844  1.00  0.00     0.173 A 
ATOM     88  F   UNL A   1      38.013  33.356  29.142  1.00  0.00    -0.203 F 
ATOM     89  C   UNL A   1      35.888  33.048  28.176  1.00  0.00     0.198 A 
ATOM     90  C   UNL A   1      34.878  30.873  28.170  1.00  0.00     0.198 A 
ATOM     91  F   UNL A   1      35.991  29.058  29.171  1.00  0.00    -0.203 F 
ATOM     92  F   UNL A   1      35.827  34.358  27.899  1.00  0.00    -0.200 F 
ATOM     93  C   UNL A   1      34.825  32.220  27.848  1.00  0.00     0.200 A 
ATOM     94  F   UNL A   1      33.858  30.067  27.848  1.00  0.00    -0.200 F 
ATOM     95  F   UNL A   1      33.745  32.723  27.235  1.00  0.00    -0.200 F 
ENDBRANCH  61  85
BRANCH  73  96
ATOM     96  C   UNL A   1      39.216  31.984  35.766  1.00  0.00     0.064 A 
ATOM     97  C   UNL A   1      38.324  31.478  36.723  1.00  0.00     0.173 A 
ATOM     98  C   UNL A   1      39.646  33.313  35.911  1.00  0.00     0.173 A 
ATOM     99  F   UNL A   1      37.874  30.217  36.627  1.00  0.00    -0.203 F 
ATOM    100  C   UNL A   1      37.850  32.282  37.757  1.00  0.00     0.198 A 
ATOM    101  C   UNL A   1      39.200  34.102  36.968  1.00  0.00     0.198 A 
ATOM    102  F   UNL A   1      40.508  33.846  35.032  1.00  0.00    -0.203 F 
ATOM    103  F   UNL A   1      36.949  31.795  38.622  1.00  0.00    -0.200 F 
ATOM    104  C   UNL A   1      38.293  33.590  37.882  1.00  0.00     0.200 A 
ATOM    105  F   UNL A   1      39.644  35.360  37.097  1.00  0.00    -0.200 F 
ATOM    106  F   UNL A   1      37.838  34.360  38.880  1.00  0.00    -0.200 F 
ENDBRANCH  73  96
ENDBRANCH  47  48
ENDBRANCH  40  42
ENDBRANCH  39  40
ENDBRANCH  38  39
ENDBRANCH  37  38
ENDBRANCH  36  37
ENDBRANCH  35  36
ENDBRANCH  34  35
ENDBRANCH   1  34
TORSDOF 23
ENDMDL
