MODEL 1
REMARK VINA RESULT:      -8.9      0.000      0.000
REMARK SMILES O=C(OCCOCCOCCOCCOC(=O)[C@@H]1CCCC[C@@H]1C(=O)Nc1nc(-c2ccc(Cl)c(Cl)c2)cs1)c1ccc(-c2c3nc(c(-c4c(F)c(F)c(F)c(F)c4F)c4ccc([nH]4)c(-c4c(F)c(F)c(F)c(F)c4F)c4nc(c(-c5c(F)c(F)c(F)c(F)c5F)c5ccc2[nH]5)C=C4)C=C3)cc1
REMARK SMILES IDX 10 1 9 2 8 3 7 4 6 5 5 6 4 7 3 8 2 9 1 10 40 11 41 12 102 13
REMARK SMILES IDX 42 14 101 15 43 16 44 17 45 18 95 19 46 20 100 21 94 22
REMARK SMILES IDX 96 23 47 24 99 25 93 26 92 27 48 29 80 30 60 31 79 32 61 33
REMARK SMILES IDX 64 34 78 35 97 36 62 37 63 38 77 40 98 41 65 42 49 43 50 44
REMARK SMILES IDX 58 45 51 46 52 47 56 48 59 49 53 50 54 51 57 52 55 53 81 54
REMARK SMILES IDX 82 55 90 56 83 57 84 58 88 59 91 60 85 61 86 62 89 63 87 64
REMARK SMILES IDX 66 65 67 66 75 67 68 68 69 69 73 70 76 71 70 72 71 73 74 74
REMARK SMILES IDX 72 75 11 76 12 77 13 78 14 79 15 80 16 81 17 82 18 83 19 84
REMARK SMILES IDX 23 85 20 86 22 87 21 88 24 89 25 90 26 91 27 93 28 94 39 95
REMARK SMILES IDX 29 96 38 97 30 98 31 99 37 100 32 101 35 102 33 103 36 104
REMARK SMILES IDX 34 105
REMARK H PARENT 96 28 64 39 26 92
REMARK Flexibility Score: inf
ROOT
ATOM      1  C   UNL A   1      37.723  32.817  36.928  1.00  0.00     0.188 C 
ENDROOT
BRANCH   1   2
ATOM      2  O   UNL A   1      37.999  33.666  38.030  1.00  0.00    -0.377 OA
BRANCH   2   3
ATOM      3  C   UNL A   1      39.129  33.310  38.820  1.00  0.00     0.188 C 
BRANCH   3   4
ATOM      4  C   UNL A   1      38.932  33.396  40.336  1.00  0.00     0.188 C 
BRANCH   4   5
ATOM      5  O   UNL A   1      39.432  34.622  40.876  1.00  0.00    -0.376 OA
BRANCH   5   6
ATOM      6  C   UNL A   1      38.515  35.720  40.878  1.00  0.00     0.202 C 
BRANCH   6   7
ATOM      7  C   UNL A   1      39.081  36.994  40.259  1.00  0.00     0.261 C 
BRANCH   7   8
ATOM      8  O   UNL A   1      39.464  36.811  38.890  1.00  0.00    -0.460 OA
BRANCH   8   9
ATOM      9  C   UNL A   1      40.718  36.772  38.375  1.00  0.00     0.338 C 
ATOM     10  O   UNL A   1      41.616  37.335  39.000  1.00  0.00    -0.246 OA
BRANCH   9  11
ATOM     11  C   UNL A   1      41.099  36.064  37.108  1.00  0.00     0.060 A 
ATOM     12  C   UNL A   1      40.235  35.699  36.075  1.00  0.00     0.016 A 
ATOM     13  C   UNL A   1      42.469  35.796  36.930  1.00  0.00     0.016 A 
ATOM     14  C   UNL A   1      40.681  35.051  34.937  1.00  0.00     0.010 A 
ATOM     15  C   UNL A   1      42.938  35.143  35.787  1.00  0.00     0.010 A 
ATOM     16  C   UNL A   1      42.028  34.741  34.805  1.00  0.00    -0.014 A 
BRANCH  16  17
ATOM     17  C   UNL A   1      42.374  33.780  33.747  1.00  0.00     0.031 A 
ATOM     18  C   UNL A   1      42.738  34.344  32.407  1.00  0.00     0.074 A 
ATOM     19  C   UNL A   1      42.570  32.487  34.055  1.00  0.00     0.049 A 
ATOM     20  N   UNL A   1      43.077  33.729  31.308  1.00  0.00    -0.248 NA
ATOM     21  C   UNL A   1      42.749  35.816  32.299  1.00  0.00     0.031 C 
ATOM     22  C   UNL A   1      42.408  31.906  35.391  1.00  0.00     0.029 A 
ATOM     23  N   UNL A   1      42.989  31.440  33.283  1.00  0.00    -0.354 N 
ATOM     24  C   UNL A   1      43.319  34.732  30.380  1.00  0.00     0.074 A 
ATOM     25  C   UNL A   1      43.078  35.998  31.031  1.00  0.00     0.031 C 
ATOM     26  C   UNL A   1      42.733  30.604  35.344  1.00  0.00     0.029 A 
ATOM     27  C   UNL A   1      43.054  30.250  33.966  1.00  0.00     0.049 A 
ATOM     28  H   UNL A   1      43.222  31.530  32.331  1.00  0.00     0.167 HD
ATOM     29  C   UNL A   1      43.713  34.596  29.095  1.00  0.00     0.037 A 
ATOM     30  C   UNL A   1      43.300  29.013  33.499  1.00  0.00     0.037 A 
ATOM     31  C   UNL A   1      43.936  33.315  28.484  1.00  0.00     0.049 A 
ATOM     32  C   UNL A   1      43.596  28.875  32.027  1.00  0.00     0.074 A 
ATOM     33  C   UNL A   1      44.223  33.017  27.168  1.00  0.00     0.029 A 
ATOM     34  N   UNL A   1      43.894  32.109  29.175  1.00  0.00    -0.354 N 
ATOM     35  N   UNL A   1      43.720  29.812  31.115  1.00  0.00    -0.248 NA
ATOM     36  C   UNL A   1      43.774  27.512  31.513  1.00  0.00     0.031 C 
ATOM     37  C   UNL A   1      44.312  31.625  27.054  1.00  0.00     0.029 A 
ATOM     38  C   UNL A   1      44.140  31.060  28.311  1.00  0.00     0.049 A 
ATOM     39  H   UNL A   1      43.714  32.017  30.139  1.00  0.00     0.167 HD
ATOM     40  C   UNL A   1      44.009  29.159  29.927  1.00  0.00     0.074 A 
ATOM     41  C   UNL A   1      44.069  27.744  30.243  1.00  0.00     0.031 C 
ATOM     42  C   UNL A   1      44.200  29.669  28.684  1.00  0.00     0.037 A 
BRANCH  29  43
ATOM     43  C   UNL A   1      43.840  35.850  28.282  1.00  0.00     0.064 A 
ATOM     44  C   UNL A   1      45.068  36.508  28.117  1.00  0.00     0.173 A 
ATOM     45  C   UNL A   1      42.703  36.431  27.701  1.00  0.00     0.173 A 
ATOM     46  F   UNL A   1      46.180  36.016  28.683  1.00  0.00    -0.203 F 
ATOM     47  C   UNL A   1      45.148  37.716  27.425  1.00  0.00     0.198 A 
ATOM     48  C   UNL A   1      42.790  37.622  26.986  1.00  0.00     0.198 A 
ATOM     49  F   UNL A   1      41.501  35.851  27.841  1.00  0.00    -0.203 F 
ATOM     50  F   UNL A   1      46.320  38.360  27.337  1.00  0.00    -0.200 F 
ATOM     51  C   UNL A   1      44.009  38.269  26.856  1.00  0.00     0.200 A 
ATOM     52  F   UNL A   1      41.689  38.156  26.438  1.00  0.00    -0.200 F 
ATOM     53  F   UNL A   1      44.086  39.435  26.199  1.00  0.00    -0.200 F 
ENDBRANCH  29  43
BRANCH  30  54
ATOM     54  C   UNL A   1      43.197  27.827  34.392  1.00  0.00     0.064 A 
ATOM     55  C   UNL A   1      44.314  27.306  35.062  1.00  0.00     0.173 A 
ATOM     56  C   UNL A   1      41.975  27.152  34.560  1.00  0.00     0.173 A 
ATOM     57  F   UNL A   1      45.512  27.895  34.923  1.00  0.00    -0.203 F 
ATOM     58  C   UNL A   1      44.221  26.146  35.831  1.00  0.00     0.198 A 
ATOM     59  C   UNL A   1      41.875  26.016  35.360  1.00  0.00     0.198 A 
ATOM     60  F   UNL A   1      40.871  27.597  33.942  1.00  0.00    -0.203 F 
ATOM     61  F   UNL A   1      45.319  25.635  36.403  1.00  0.00    -0.200 F 
ATOM     62  C   UNL A   1      43.001  25.505  35.983  1.00  0.00     0.200 A 
ATOM     63  F   UNL A   1      40.690  25.409  35.512  1.00  0.00    -0.200 F 
ATOM     64  F   UNL A   1      42.914  24.386  36.715  1.00  0.00    -0.200 F 
ENDBRANCH  30  54
BRANCH  42  65
ATOM     65  C   UNL A   1      44.532  28.689  27.600  1.00  0.00     0.064 A 
ATOM     66  C   UNL A   1      45.838  28.215  27.411  1.00  0.00     0.173 A 
ATOM     67  C   UNL A   1      43.519  28.189  26.769  1.00  0.00     0.173 A 
ATOM     68  F   UNL A   1      46.842  28.676  28.173  1.00  0.00    -0.203 F 
ATOM     69  C   UNL A   1      46.123  27.300  26.404  1.00  0.00     0.198 A 
ATOM     70  C   UNL A   1      43.802  27.245  25.788  1.00  0.00     0.198 A 
ATOM     71  F   UNL A   1      42.252  28.606  26.920  1.00  0.00    -0.203 F 
ATOM     72  F   UNL A   1      47.388  26.902  26.201  1.00  0.00    -0.200 F 
ATOM     73  C   UNL A   1      45.104  26.810  25.600  1.00  0.00     0.200 A 
ATOM     74  F   UNL A   1      42.814  26.759  25.025  1.00  0.00    -0.200 F 
ATOM     75  F   UNL A   1      45.380  25.920  24.637  1.00  0.00    -0.200 F 
ENDBRANCH  42  65
ENDBRANCH  16  17
ENDBRANCH   9  11
ENDBRANCH   8   9
ENDBRANCH   7   8
ENDBRANCH   6   7
ENDBRANCH   5   6
ENDBRANCH   4   5
ENDBRANCH   3   4
ENDBRANCH   2   3
ENDBRANCH   1   2
BRANCH   1  76
ATOM     76  C   UNL A   1      37.295  33.435  35.578  1.00  0.00     0.188 C 
BRANCH  76  77
ATOM     77  O   UNL A   1      35.894  33.505  35.356  1.00  0.00    -0.376 OA
BRANCH  77  78
ATOM     78  C   UNL A   1      35.494  33.405  33.990  1.00  0.00     0.202 C 
BRANCH  78  79
ATOM     79  C   UNL A   1      36.650  33.349  32.979  1.00  0.00     0.261 C 
BRANCH  79  80
ATOM     80  O   UNL A   1      37.103  32.038  32.601  1.00  0.00    -0.463 OA
BRANCH  80  81
ATOM     81  C   UNL A   1      38.413  31.849  32.291  1.00  0.00     0.309 C 
ATOM     82  O   UNL A   1      39.334  32.578  32.638  1.00  0.00    -0.252 OA
BRANCH  81  83
ATOM     83  C   UNL A   1      38.571  30.471  31.662  1.00  0.00     0.111 C 
ATOM     84  C   UNL A   1      40.047  30.157  31.333  1.00  0.00     0.016 C 
ATOM     85  C   UNL A   1      37.631  30.122  30.505  1.00  0.00     0.093 C 
ATOM     86  C   UNL A   1      40.248  28.671  31.054  1.00  0.00     0.001 C 
ATOM     87  C   UNL A   1      37.854  28.604  30.269  1.00  0.00     0.014 C 
ATOM     88  C   UNL A   1      39.300  28.200  29.964  1.00  0.00     0.001 C 
BRANCH  85  89
ATOM     89  C   UNL A   1      37.784  31.212  29.414  1.00  0.00     0.230 C 
ATOM     90  O   UNL A   1      38.538  32.171  29.601  1.00  0.00    -0.274 OA
ATOM     91  N   UNL A   1      37.236  31.061  28.181  1.00  0.00    -0.302 N 
ATOM     92  H   UNL A   1      37.802  31.111  27.377  1.00  0.00     0.172 HD
BRANCH  91  93
ATOM     93  C   UNL A   1      35.901  30.840  28.062  1.00  0.00     0.189 A 
ATOM     94  N   UNL A   1      35.341  29.681  27.871  1.00  0.00    -0.220 NA
ATOM     95  S   UNL A   1      34.872  32.190  28.112  1.00  0.00    -0.105 S 
ATOM     96  C   UNL A   1      34.040  29.870  27.471  1.00  0.00     0.084 A 
ATOM     97  C   UNL A   1      33.597  31.177  27.527  1.00  0.00     0.097 A 
BRANCH  96  98
ATOM     98  C   UNL A   1      33.310  28.728  26.960  1.00  0.00     0.003 A 
ATOM     99  C   UNL A   1      31.975  28.553  27.345  1.00  0.00     0.012 A 
ATOM    100  C   UNL A   1      33.952  27.728  26.223  1.00  0.00     0.032 A 
ATOM    101  C   UNL A   1      31.268  27.415  26.957  1.00  0.00     0.023 A 
ATOM    102  C   UNL A   1      33.247  26.579  25.843  1.00  0.00     0.060 A 
ATOM    103  C   UNL A   1      31.901  26.429  26.197  1.00  0.00     0.059 A 
ATOM    104  Cl  UNL A   1      34.110  25.371  24.956  1.00  0.00    -0.083 Cl
ATOM    105  Cl  UNL A   1      30.970  25.048  25.742  1.00  0.00    -0.083 Cl
ENDBRANCH  96  98
ENDBRANCH  91  93
ENDBRANCH  85  89
ENDBRANCH  81  83
ENDBRANCH  80  81
ENDBRANCH  79  80
ENDBRANCH  78  79
ENDBRANCH  77  78
ENDBRANCH  76  77
ENDBRANCH   1  76
TORSDOF 23
ENDMDL
MODEL 2
REMARK VINA RESULT:      -8.4      5.496     10.501
REMARK SMILES O=C(OCCOCCOCCOCCOC(=O)[C@@H]1CCCC[C@@H]1C(=O)Nc1nc(-c2ccc(Cl)c(Cl)c2)cs1)c1ccc(-c2c3nc(c(-c4c(F)c(F)c(F)c(F)c4F)c4ccc([nH]4)c(-c4c(F)c(F)c(F)c(F)c4F)c4nc(c(-c5c(F)c(F)c(F)c(F)c5F)c5ccc2[nH]5)C=C4)C=C3)cc1
REMARK SMILES IDX 10 1 9 2 8 3 7 4 6 5 5 6 4 7 3 8 2 9 1 10 40 11 41 12 102 13
REMARK SMILES IDX 42 14 101 15 43 16 44 17 45 18 95 19 46 20 100 21 94 22
REMARK SMILES IDX 96 23 47 24 99 25 93 26 92 27 48 29 80 30 60 31 79 32 61 33
REMARK SMILES IDX 64 34 78 35 97 36 62 37 63 38 77 40 98 41 65 42 49 43 50 44
REMARK SMILES IDX 58 45 51 46 52 47 56 48 59 49 53 50 54 51 57 52 55 53 81 54
REMARK SMILES IDX 82 55 90 56 83 57 84 58 88 59 91 60 85 61 86 62 89 63 87 64
REMARK SMILES IDX 66 65 67 66 75 67 68 68 69 69 73 70 76 71 70 72 71 73 74 74
REMARK SMILES IDX 72 75 11 76 12 77 13 78 14 79 15 80 16 81 17 82 18 83 19 84
REMARK SMILES IDX 23 85 20 86 22 87 21 88 24 89 25 90 26 91 27 93 28 94 39 95
REMARK SMILES IDX 29 96 38 97 30 98 31 99 37 100 32 101 35 102 33 103 36 104
REMARK SMILES IDX 34 105
REMARK H PARENT 96 28 64 39 26 92
REMARK Flexibility Score: inf
ROOT
ATOM      1  C   UNL A   1      46.436  24.208  33.817  1.00  0.00     0.188 C 
ENDROOT
BRANCH   1   2
ATOM      2  O   UNL A   1      45.347  23.456  33.307  1.00  0.00    -0.377 OA
BRANCH   2   3
ATOM      3  C   UNL A   1      44.420  22.969  34.274  1.00  0.00     0.188 C 
BRANCH   3   4
ATOM      4  C   UNL A   1      45.002  22.679  35.660  1.00  0.00     0.188 C 
BRANCH   4   5
ATOM      5  O   UNL A   1      45.958  23.664  36.061  1.00  0.00    -0.376 OA
BRANCH   5   6
ATOM      6  C   UNL A   1      46.392  23.592  37.421  1.00  0.00     0.202 C 
BRANCH   6   7
ATOM      7  C   UNL A   1      47.228  24.788  37.863  1.00  0.00     0.261 C 
BRANCH   7   8
ATOM      8  O   UNL A   1      47.670  25.584  36.757  1.00  0.00    -0.460 OA
BRANCH   8   9
ATOM      9  C   UNL A   1      47.390  26.887  36.504  1.00  0.00     0.338 C 
ATOM     10  O   UNL A   1      48.093  27.742  37.040  1.00  0.00    -0.246 OA
BRANCH   9  11
ATOM     11  C   UNL A   1      46.299  27.364  35.591  1.00  0.00     0.060 A 
ATOM     12  C   UNL A   1      46.401  28.387  34.647  1.00  0.00     0.016 A 
ATOM     13  C   UNL A   1      45.076  26.672  35.664  1.00  0.00     0.016 A 
ATOM     14  C   UNL A   1      45.337  28.755  33.844  1.00  0.00     0.010 A 
ATOM     15  C   UNL A   1      43.990  27.030  34.859  1.00  0.00     0.010 A 
ATOM     16  C   UNL A   1      44.119  28.101  33.971  1.00  0.00    -0.014 A 
BRANCH  16  17
ATOM     17  C   UNL A   1      42.962  28.748  33.334  1.00  0.00     0.031 A 
ATOM     18  C   UNL A   1      42.631  28.327  31.935  1.00  0.00     0.074 A 
ATOM     19  C   UNL A   1      42.128  29.501  34.070  1.00  0.00     0.049 A 
ATOM     20  N   UNL A   1      41.677  28.736  31.145  1.00  0.00    -0.248 NA
ATOM     21  C   UNL A   1      43.483  27.273  31.351  1.00  0.00     0.031 C 
ATOM     22  C   UNL A   1      42.298  29.800  35.495  1.00  0.00     0.029 A 
ATOM     23  N   UNL A   1      40.951  30.112  33.738  1.00  0.00    -0.354 N 
ATOM     24  C   UNL A   1      41.826  28.007  29.973  1.00  0.00     0.074 A 
ATOM     25  C   UNL A   1      42.968  27.140  30.140  1.00  0.00     0.031 C 
ATOM     26  C   UNL A   1      41.255  30.534  35.915  1.00  0.00     0.029 A 
ATOM     27  C   UNL A   1      40.389  30.814  34.776  1.00  0.00     0.049 A 
ATOM     28  H   UNL A   1      40.547  30.056  32.843  1.00  0.00     0.167 HD
ATOM     29  C   UNL A   1      41.066  28.065  28.858  1.00  0.00     0.037 A 
ATOM     30  C   UNL A   1      39.316  31.626  34.773  1.00  0.00     0.037 A 
ATOM     31  C   UNL A   1      39.941  28.949  28.731  1.00  0.00     0.049 A 
ATOM     32  C   UNL A   1      38.570  31.782  33.472  1.00  0.00     0.074 A 
ATOM     33  C   UNL A   1      39.151  29.200  27.628  1.00  0.00     0.029 A 
ATOM     34  N   UNL A   1      39.450  29.731  29.771  1.00  0.00    -0.354 N 
ATOM     35  N   UNL A   1      38.771  31.177  32.324  1.00  0.00    -0.248 NA
ATOM     36  C   UNL A   1      37.458  32.739  33.459  1.00  0.00     0.031 C 
ATOM     37  C   UNL A   1      38.207  30.168  27.989  1.00  0.00     0.029 A 
ATOM     38  C   UNL A   1      38.372  30.476  29.333  1.00  0.00     0.049 A 
ATOM     39  H   UNL A   1      39.817  29.752  30.684  1.00  0.00     0.167 HD
ATOM     40  C   UNL A   1      37.804  31.662  31.458  1.00  0.00     0.074 A 
ATOM     41  C   UNL A   1      36.997  32.592  32.225  1.00  0.00     0.031 C 
ATOM     42  C   UNL A   1      37.597  31.379  30.146  1.00  0.00     0.037 A 
BRANCH  29  43
ATOM     43  C   UNL A   1      41.487  27.212  27.698  1.00  0.00     0.064 A 
ATOM     44  C   UNL A   1      41.200  25.839  27.641  1.00  0.00     0.173 A 
ATOM     45  C   UNL A   1      42.236  27.767  26.650  1.00  0.00     0.173 A 
ATOM     46  F   UNL A   1      40.519  25.250  28.636  1.00  0.00    -0.203 F 
ATOM     47  C   UNL A   1      41.671  25.050  26.593  1.00  0.00     0.198 A 
ATOM     48  C   UNL A   1      42.681  26.982  25.590  1.00  0.00     0.198 A 
ATOM     49  F   UNL A   1      42.551  29.071  26.662  1.00  0.00    -0.203 F 
ATOM     50  F   UNL A   1      41.441  23.730  26.594  1.00  0.00    -0.200 F 
ATOM     51  C   UNL A   1      42.408  25.623  25.567  1.00  0.00     0.200 A 
ATOM     52  F   UNL A   1      43.393  27.538  24.599  1.00  0.00    -0.200 F 
ATOM     53  F   UNL A   1      42.867  24.862  24.564  1.00  0.00    -0.200 F 
ENDBRANCH  29  43
BRANCH  30  54
ATOM     54  C   UNL A   1      38.943  32.400  35.989  1.00  0.00     0.064 A 
ATOM     55  C   UNL A   1      38.120  31.858  36.986  1.00  0.00     0.173 A 
ATOM     56  C   UNL A   1      39.367  33.729  36.158  1.00  0.00     0.173 A 
ATOM     57  F   UNL A   1      37.667  30.601  36.870  1.00  0.00    -0.203 F 
ATOM     58  C   UNL A   1      37.711  32.621  38.080  1.00  0.00     0.198 A 
ATOM     59  C   UNL A   1      38.990  34.479  37.270  1.00  0.00     0.198 A 
ATOM     60  F   UNL A   1      40.152  34.307  35.235  1.00  0.00    -0.203 F 
ATOM     61  F   UNL A   1      36.869  32.097  38.982  1.00  0.00    -0.200 F 
ATOM     62  C   UNL A   1      38.150  33.929  38.224  1.00  0.00     0.200 A 
ATOM     63  F   UNL A   1      39.428  35.737  37.407  1.00  0.00    -0.200 F 
ATOM     64  F   UNL A   1      37.749  34.664  39.270  1.00  0.00    -0.200 F 
ENDBRANCH  30  54
BRANCH  42  65
ATOM     65  C   UNL A   1      36.431  32.054  29.490  1.00  0.00     0.064 A 
ATOM     66  C   UNL A   1      36.423  33.433  29.239  1.00  0.00     0.173 A 
ATOM     67  C   UNL A   1      35.325  31.298  29.073  1.00  0.00     0.173 A 
ATOM     68  F   UNL A   1      37.453  34.197  29.635  1.00  0.00    -0.203 F 
ATOM     69  C   UNL A   1      35.334  34.037  28.622  1.00  0.00     0.198 A 
ATOM     70  C   UNL A   1      34.254  31.900  28.421  1.00  0.00     0.198 A 
ATOM     71  F   UNL A   1      35.293  29.973  29.282  1.00  0.00    -0.203 F 
ATOM     72  F   UNL A   1      35.320  35.366  28.443  1.00  0.00    -0.200 F 
ATOM     73  C   UNL A   1      34.255  33.269  28.206  1.00  0.00     0.200 A 
ATOM     74  F   UNL A   1      33.222  31.155  28.004  1.00  0.00    -0.200 F 
ATOM     75  F   UNL A   1      33.211  33.853  27.603  1.00  0.00    -0.200 F 
ENDBRANCH  42  65
ENDBRANCH  16  17
ENDBRANCH   9  11
ENDBRANCH   8   9
ENDBRANCH   7   8
ENDBRANCH   6   7
ENDBRANCH   5   6
ENDBRANCH   4   5
ENDBRANCH   3   4
ENDBRANCH   2   3
ENDBRANCH   1   2
BRANCH   1  76
ATOM     76  C   UNL A   1      47.214  25.156  32.878  1.00  0.00     0.188 C 
BRANCH  76  77
ATOM     77  O   UNL A   1      46.501  25.602  31.734  1.00  0.00    -0.376 OA
BRANCH  77  78
ATOM     78  C   UNL A   1      47.294  26.263  30.749  1.00  0.00     0.202 C 
BRANCH  78  79
ATOM     79  C   UNL A   1      47.294  25.597  29.364  1.00  0.00     0.261 C 
BRANCH  79  80
ATOM     80  O   UNL A   1      47.353  26.482  28.232  1.00  0.00    -0.463 OA
BRANCH  80  81
ATOM     81  C   UNL A   1      46.337  27.360  28.018  1.00  0.00     0.309 C 
ATOM     82  O   UNL A   1      45.153  27.060  27.917  1.00  0.00    -0.252 OA
BRANCH  81  83
ATOM     83  C   UNL A   1      46.877  28.775  28.171  1.00  0.00     0.111 C 
ATOM     84  C   UNL A   1      45.864  29.700  28.882  1.00  0.00     0.016 C 
ATOM     85  C   UNL A   1      47.483  29.427  26.926  1.00  0.00     0.093 C 
ATOM     86  C   UNL A   1      46.530  30.988  29.356  1.00  0.00     0.001 C 
ATOM     87  C   UNL A   1      48.163  30.718  27.457  1.00  0.00     0.014 C 
ATOM     88  C   UNL A   1      47.235  31.681  28.203  1.00  0.00     0.001 C 
BRANCH  85  89
ATOM     89  C   UNL A   1      46.422  29.394  25.798  1.00  0.00     0.230 C 
ATOM     90  O   UNL A   1      45.382  30.050  25.910  1.00  0.00    -0.274 OA
ATOM     91  N   UNL A   1      46.673  28.792  24.607  1.00  0.00    -0.302 N 
ATOM     92  H   UNL A   1      46.590  29.300  23.767  1.00  0.00     0.172 HD
BRANCH  91  93
ATOM     93  C   UNL A   1      47.037  27.484  24.580  1.00  0.00     0.189 A 
ATOM     94  N   UNL A   1      46.219  26.472  24.586  1.00  0.00    -0.220 NA
ATOM     95  S   UNL A   1      48.697  27.128  24.593  1.00  0.00    -0.105 S 
ATOM     96  C   UNL A   1      46.920  25.329  24.886  1.00  0.00     0.084 A 
ATOM     97  C   UNL A   1      48.291  25.483  24.941  1.00  0.00     0.097 A 
BRANCH  96  98
ATOM     98  C   UNL A   1      46.169  24.129  25.195  1.00  0.00     0.003 A 
ATOM     99  C   UNL A   1      45.942  23.194  24.177  1.00  0.00     0.012 A 
ATOM    100  C   UNL A   1      45.544  23.964  26.435  1.00  0.00     0.032 A 
ATOM    101  C   UNL A   1      45.140  22.077  24.407  1.00  0.00     0.023 A 
ATOM    102  C   UNL A   1      44.729  22.849  26.664  1.00  0.00     0.060 A 
ATOM    103  C   UNL A   1      44.537  21.897  25.654  1.00  0.00     0.059 A 
ATOM    104  Cl  UNL A   1      43.966  22.722  28.210  1.00  0.00    -0.083 Cl
ATOM    105  Cl  UNL A   1      43.562  20.490  25.878  1.00  0.00    -0.083 Cl
ENDBRANCH  96  98
ENDBRANCH  91  93
ENDBRANCH  85  89
ENDBRANCH  81  83
ENDBRANCH  80  81
ENDBRANCH  79  80
ENDBRANCH  78  79
ENDBRANCH  77  78
ENDBRANCH  76  77
ENDBRANCH   1  76
TORSDOF 23
ENDMDL
MODEL 3
REMARK VINA RESULT:      -8.3      3.188      8.681
REMARK SMILES O=C(OCCOCCOCCOCCOC(=O)[C@@H]1CCCC[C@@H]1C(=O)Nc1nc(-c2ccc(Cl)c(Cl)c2)cs1)c1ccc(-c2c3nc(c(-c4c(F)c(F)c(F)c(F)c4F)c4ccc([nH]4)c(-c4c(F)c(F)c(F)c(F)c4F)c4nc(c(-c5c(F)c(F)c(F)c(F)c5F)c5ccc2[nH]5)C=C4)C=C3)cc1
REMARK SMILES IDX 10 1 9 2 8 3 7 4 6 5 5 6 4 7 3 8 2 9 1 10 40 11 41 12 102 13
REMARK SMILES IDX 42 14 101 15 43 16 44 17 45 18 95 19 46 20 100 21 94 22
REMARK SMILES IDX 96 23 47 24 99 25 93 26 92 27 48 29 80 30 60 31 79 32 61 33
REMARK SMILES IDX 64 34 78 35 97 36 62 37 63 38 77 40 98 41 65 42 49 43 50 44
REMARK SMILES IDX 58 45 51 46 52 47 56 48 59 49 53 50 54 51 57 52 55 53 81 54
REMARK SMILES IDX 82 55 90 56 83 57 84 58 88 59 91 60 85 61 86 62 89 63 87 64
REMARK SMILES IDX 66 65 67 66 75 67 68 68 69 69 73 70 76 71 70 72 71 73 74 74
REMARK SMILES IDX 72 75 11 76 12 77 13 78 14 79 15 80 16 81 17 82 18 83 19 84
REMARK SMILES IDX 23 85 20 86 22 87 21 88 24 89 25 90 26 91 27 93 28 94 39 95
REMARK SMILES IDX 29 96 38 97 30 98 31 99 37 100 32 101 35 102 33 103 36 104
REMARK SMILES IDX 34 105
REMARK H PARENT 96 28 64 39 26 92
REMARK Flexibility Score: inf
ROOT
ATOM      1  C   UNL A   1      41.305  35.248  34.857  1.00  0.00     0.188 C 
ENDROOT
BRANCH   1   2
ATOM      2  O   UNL A   1      41.541  35.988  36.043  1.00  0.00    -0.377 OA
BRANCH   2   3
ATOM      3  C   UNL A   1      40.384  36.351  36.790  1.00  0.00     0.188 C 
BRANCH   3   4
ATOM      4  C   UNL A   1      40.280  35.739  38.189  1.00  0.00     0.188 C 
BRANCH   4   5
ATOM      5  O   UNL A   1      39.004  35.134  38.418  1.00  0.00    -0.376 OA
BRANCH   5   6
ATOM      6  C   UNL A   1      38.879  33.771  38.003  1.00  0.00     0.202 C 
BRANCH   6   7
ATOM      7  C   UNL A   1      37.519  33.435  37.401  1.00  0.00     0.261 C 
BRANCH   7   8
ATOM      8  O   UNL A   1      37.508  32.153  36.759  1.00  0.00    -0.460 OA
BRANCH   8   9
ATOM      9  C   UNL A   1      37.716  31.877  35.448  1.00  0.00     0.338 C 
ATOM     10  O   UNL A   1      36.828  32.169  34.649  1.00  0.00    -0.246 OA
BRANCH   9  11
ATOM     11  C   UNL A   1      38.968  31.263  34.893  1.00  0.00     0.060 A 
ATOM     12  C   UNL A   1      40.252  31.379  35.428  1.00  0.00     0.016 A 
ATOM     13  C   UNL A   1      38.814  30.451  33.754  1.00  0.00     0.016 A 
ATOM     14  C   UNL A   1      41.349  30.771  34.846  1.00  0.00     0.010 A 
ATOM     15  C   UNL A   1      39.911  29.828  33.153  1.00  0.00     0.010 A 
ATOM     16  C   UNL A   1      41.188  30.022  33.688  1.00  0.00    -0.014 A 
BRANCH  16  17
ATOM     17  C   UNL A   1      42.416  29.685  32.954  1.00  0.00     0.031 A 
ATOM     18  C   UNL A   1      43.126  28.427  33.354  1.00  0.00     0.074 A 
ATOM     19  C   UNL A   1      42.735  30.361  31.838  1.00  0.00     0.049 A 
ATOM     20  N   UNL A   1      44.222  27.902  32.881  1.00  0.00    -0.248 NA
ATOM     21  C   UNL A   1      42.493  27.633  34.425  1.00  0.00     0.031 C 
ATOM     22  C   UNL A   1      41.976  31.489  31.291  1.00  0.00     0.029 A 
ATOM     23  N   UNL A   1      43.750  30.174  30.941  1.00  0.00    -0.354 N 
ATOM     24  C   UNL A   1      44.417  26.734  33.605  1.00  0.00     0.074 A 
ATOM     25  C   UNL A   1      43.341  26.627  34.561  1.00  0.00     0.031 C 
ATOM     26  C   UNL A   1      42.550  31.888  30.144  1.00  0.00     0.029 A 
ATOM     27  C   UNL A   1      43.753  31.093  29.921  1.00  0.00     0.049 A 
ATOM     28  H   UNL A   1      44.414  29.452  31.020  1.00  0.00     0.167 HD
ATOM     29  C   UNL A   1      45.415  25.833  33.472  1.00  0.00     0.037 A 
ATOM     30  C   UNL A   1      44.663  31.284  28.949  1.00  0.00     0.037 A 
ATOM     31  C   UNL A   1      46.472  25.983  32.511  1.00  0.00     0.049 A 
ATOM     32  C   UNL A   1      45.844  30.347  28.914  1.00  0.00     0.074 A 
ATOM     33  C   UNL A   1      47.607  25.216  32.338  1.00  0.00     0.029 A 
ATOM     34  N   UNL A   1      46.508  26.986  31.548  1.00  0.00    -0.354 N 
ATOM     35  N   UNL A   1      46.094  29.301  29.667  1.00  0.00    -0.248 NA
ATOM     36  C   UNL A   1      46.875  30.621  27.906  1.00  0.00     0.031 C 
ATOM     37  C   UNL A   1      48.351  25.783  31.297  1.00  0.00     0.029 A 
ATOM     38  C   UNL A   1      47.652  26.866  30.783  1.00  0.00     0.049 A 
ATOM     39  H   UNL A   1      45.819  27.679  31.431  1.00  0.00     0.167 HD
ATOM     40  C   UNL A   1      47.297  28.780  29.215  1.00  0.00     0.074 A 
ATOM     41  C   UNL A   1      47.711  29.612  28.101  1.00  0.00     0.031 C 
ATOM     42  C   UNL A   1      48.007  27.718  29.676  1.00  0.00     0.037 A 
BRANCH  29  43
ATOM     43  C   UNL A   1      45.430  24.682  34.434  1.00  0.00     0.064 A 
ATOM     44  C   UNL A   1      46.069  24.763  35.681  1.00  0.00     0.173 A 
ATOM     45  C   UNL A   1      44.841  23.459  34.079  1.00  0.00     0.173 A 
ATOM     46  F   UNL A   1      46.681  25.897  36.054  1.00  0.00    -0.203 F 
ATOM     47  C   UNL A   1      46.140  23.655  36.524  1.00  0.00     0.198 A 
ATOM     48  C   UNL A   1      44.889  22.363  34.935  1.00  0.00     0.198 A 
ATOM     49  F   UNL A   1      44.231  23.323  32.892  1.00  0.00    -0.203 F 
ATOM     50  F   UNL A   1      46.811  23.737  37.681  1.00  0.00    -0.200 F 
ATOM     51  C   UNL A   1      45.546  22.458  36.152  1.00  0.00     0.200 A 
ATOM     52  F   UNL A   1      44.315  21.206  34.574  1.00  0.00    -0.200 F 
ATOM     53  F   UNL A   1      45.623  21.391  36.959  1.00  0.00    -0.200 F 
ENDBRANCH  29  43
BRANCH  30  54
ATOM     54  C   UNL A   1      44.542  32.429  28.006  1.00  0.00     0.064 A 
ATOM     55  C   UNL A   1      44.763  33.752  28.418  1.00  0.00     0.173 A 
ATOM     56  C   UNL A   1      44.152  32.229  26.671  1.00  0.00     0.173 A 
ATOM     57  F   UNL A   1      45.117  34.007  29.687  1.00  0.00    -0.203 F 
ATOM     58  C   UNL A   1      44.568  34.823  27.546  1.00  0.00     0.198 A 
ATOM     59  C   UNL A   1      43.994  33.297  25.790  1.00  0.00     0.198 A 
ATOM     60  F   UNL A   1      43.921  30.988  26.217  1.00  0.00    -0.203 F 
ATOM     61  F   UNL A   1      44.720  36.079  27.988  1.00  0.00    -0.200 F 
ATOM     62  C   UNL A   1      44.187  34.595  26.232  1.00  0.00     0.200 A 
ATOM     63  F   UNL A   1      43.639  33.067  24.519  1.00  0.00    -0.200 F 
ATOM     64  F   UNL A   1      43.991  35.625  25.398  1.00  0.00    -0.200 F 
ENDBRANCH  30  54
BRANCH  42  65
ATOM     65  C   UNL A   1      49.270  27.386  28.941  1.00  0.00     0.064 A 
ATOM     66  C   UNL A   1      49.273  26.533  27.829  1.00  0.00     0.173 A 
ATOM     67  C   UNL A   1      50.486  27.965  29.335  1.00  0.00     0.173 A 
ATOM     68  F   UNL A   1      48.136  25.945  27.425  1.00  0.00    -0.203 F 
ATOM     69  C   UNL A   1      50.455  26.245  27.157  1.00  0.00     0.198 A 
ATOM     70  C   UNL A   1      51.659  27.704  28.637  1.00  0.00     0.198 A 
ATOM     71  F   UNL A   1      50.530  28.796  30.388  1.00  0.00    -0.203 F 
ATOM     72  F   UNL A   1      50.447  25.381  26.132  1.00  0.00    -0.200 F 
ATOM     73  C   UNL A   1      51.645  26.837  27.557  1.00  0.00     0.200 A 
ATOM     74  F   UNL A   1      52.804  28.291  29.013  1.00  0.00    -0.200 F 
ATOM     75  F   UNL A   1      52.781  26.564  26.901  1.00  0.00    -0.200 F 
ENDBRANCH  42  65
ENDBRANCH  16  17
ENDBRANCH   9  11
ENDBRANCH   8   9
ENDBRANCH   7   8
ENDBRANCH   6   7
ENDBRANCH   5   6
ENDBRANCH   4   5
ENDBRANCH   3   4
ENDBRANCH   2   3
ENDBRANCH   1   2
BRANCH   1  76
ATOM     76  C   UNL A   1      39.864  34.815  34.503  1.00  0.00     0.188 C 
BRANCH  76  77
ATOM     77  O   UNL A   1      39.621  34.572  33.125  1.00  0.00    -0.376 OA
BRANCH  77  78
ATOM     78  C   UNL A   1      38.246  34.570  32.747  1.00  0.00     0.202 C 
BRANCH  78  79
ATOM     79  C   UNL A   1      37.948  33.912  31.390  1.00  0.00     0.261 C 
BRANCH  79  80
ATOM     80  O   UNL A   1      37.282  32.638  31.433  1.00  0.00    -0.463 OA
BRANCH  80  81
ATOM     81  C   UNL A   1      35.949  32.572  31.180  1.00  0.00     0.309 C 
ATOM     82  O   UNL A   1      35.116  32.046  31.908  1.00  0.00    -0.252 OA
BRANCH  81  83
ATOM     83  C   UNL A   1      35.635  33.463  29.986  1.00  0.00     0.111 C 
ATOM     84  C   UNL A   1      34.205  34.042  30.063  1.00  0.00     0.016 C 
ATOM     85  C   UNL A   1      35.961  32.906  28.597  1.00  0.00     0.093 C 
ATOM     86  C   UNL A   1      34.024  35.199  29.085  1.00  0.00     0.001 C 
ATOM     87  C   UNL A   1      35.783  34.117  27.642  1.00  0.00     0.014 C 
ATOM     88  C   UNL A   1      34.399  34.773  27.677  1.00  0.00     0.001 C 
BRANCH  85  89
ATOM     89  C   UNL A   1      35.233  31.548  28.438  1.00  0.00     0.230 C 
ATOM     90  O   UNL A   1      34.005  31.491  28.546  1.00  0.00    -0.274 OA
ATOM     91  N   UNL A   1      35.891  30.437  28.019  1.00  0.00    -0.302 N 
ATOM     92  H   UNL A   1      35.579  29.947  27.223  1.00  0.00     0.172 HD
BRANCH  91  93
ATOM     93  C   UNL A   1      36.981  30.003  28.703  1.00  0.00     0.189 A 
ATOM     94  N   UNL A   1      38.206  30.023  28.264  1.00  0.00    -0.220 NA
ATOM     95  S   UNL A   1      36.729  29.328  30.240  1.00  0.00    -0.105 S 
ATOM     96  C   UNL A   1      38.983  29.219  29.061  1.00  0.00     0.084 A 
ATOM     97  C   UNL A   1      38.354  28.735  30.192  1.00  0.00     0.097 A 
BRANCH  96  98
ATOM     98  C   UNL A   1      40.320  28.894  28.607  1.00  0.00     0.003 A 
ATOM     99  C   UNL A   1      40.697  29.254  27.307  1.00  0.00     0.012 A 
ATOM    100  C   UNL A   1      41.176  28.102  29.379  1.00  0.00     0.032 A 
ATOM    101  C   UNL A   1      41.937  28.871  26.797  1.00  0.00     0.023 A 
ATOM    102  C   UNL A   1      42.416  27.707  28.864  1.00  0.00     0.060 A 
ATOM    103  C   UNL A   1      42.804  28.103  27.578  1.00  0.00     0.059 A 
ATOM    104  Cl  UNL A   1      43.412  26.707  29.862  1.00  0.00    -0.083 Cl
ATOM    105  Cl  UNL A   1      44.328  27.668  26.892  1.00  0.00    -0.083 Cl
ENDBRANCH  96  98
ENDBRANCH  91  93
ENDBRANCH  85  89
ENDBRANCH  81  83
ENDBRANCH  80  81
ENDBRANCH  79  80
ENDBRANCH  78  79
ENDBRANCH  77  78
ENDBRANCH  76  77
ENDBRANCH   1  76
TORSDOF 23
ENDMDL
