MODEL 1
REMARK VINA RESULT:     -10.8      0.000      0.000
REMARK SMILES C[C@H](C(=O)OCCOCCOCCOCCOC(=O)c1ccc(-c2c3nc(c(-c4c(F)c(F)c(F)c(F)c4F)c4ccc([nH]4)c(-c4c(F)c(F)c(F)c(F)c4F)c4nc(c(-c5c(F)c(F)c(F)c(F)c5F)c5ccc2[nH]5)C=C4)C=C3)cc1)c1ccc(C[C@H]2CCC[C@@H]2O)cc1
REMARK SMILES IDX 10 1 9 2 8 3 7 4 6 5 5 6 3 7 4 8 2 9 1 10 83 11 84 12 95 13
REMARK SMILES IDX 85 14 94 15 86 16 87 17 88 18 89 19 92 20 90 21 91 22 93 23
REMARK SMILES IDX 11 25 12 26 13 27 14 28 15 29 16 30 17 31 18 32 19 33 20 34
REMARK SMILES IDX 21 35 82 36 22 37 81 38 23 39 24 40 25 41 75 42 26 43 80 44
REMARK SMILES IDX 74 45 76 46 27 47 79 48 73 49 72 50 28 52 60 53 40 54 59 55
REMARK SMILES IDX 41 56 44 57 58 58 77 59 42 60 43 61 57 63 78 64 45 65 29 66
REMARK SMILES IDX 30 67 38 68 31 69 32 70 36 71 39 72 33 73 34 74 37 75 35 76
REMARK SMILES IDX 61 77 62 78 70 79 63 80 64 81 68 82 71 83 65 84 66 85 69 86
REMARK SMILES IDX 67 87 46 88 47 89 55 90 48 91 49 92 53 93 56 94 50 95 51 96
REMARK SMILES IDX 54 97 52 98
REMARK H PARENT 93 24 76 51 44 62
REMARK Flexibility Score: inf
ROOT
ATOM      1  C   UNL A   1      34.723  25.142  24.483  1.00  0.00     0.188 C 
ENDROOT
BRANCH   1   2
ATOM      2  C   UNL A   1      34.106  24.596  23.189  1.00  0.00     0.188 C 
BRANCH   2   3
ATOM      3  O   UNL A   1      34.086  25.414  22.033  1.00  0.00    -0.376 OA
BRANCH   3   4
ATOM      4  C   UNL A   1      32.876  25.972  21.544  1.00  0.00     0.202 C 
BRANCH   4   5
ATOM      5  C   UNL A   1      31.907  26.851  22.365  1.00  0.00     0.261 C 
BRANCH   5   6
ATOM      6  O   UNL A   1      32.228  27.142  23.728  1.00  0.00    -0.463 OA
BRANCH   6   7
ATOM      7  C   UNL A   1      31.223  27.580  24.523  1.00  0.00     0.313 C 
ATOM      8  O   UNL A   1      31.024  28.765  24.778  1.00  0.00    -0.252 OA
BRANCH   7   9
ATOM      9  C   UNL A   1      30.293  26.474  25.016  1.00  0.00     0.126 C 
ATOM     10  C   UNL A   1      29.034  26.368  24.145  1.00  0.00     0.025 C 
BRANCH   9  11
ATOM     11  C   UNL A   1      30.902  25.109  25.331  1.00  0.00    -0.034 A 
ATOM     12  C   UNL A   1      31.686  24.831  26.455  1.00  0.00     0.005 A 
ATOM     13  C   UNL A   1      30.719  24.067  24.409  1.00  0.00     0.005 A 
ATOM     14  C   UNL A   1      32.294  23.588  26.643  1.00  0.00     0.004 A 
ATOM     15  C   UNL A   1      31.338  22.824  24.585  1.00  0.00     0.004 A 
ATOM     16  C   UNL A   1      32.167  22.586  25.687  1.00  0.00    -0.048 A 
BRANCH  16  17
ATOM     17  C   UNL A   1      32.931  21.292  25.816  1.00  0.00     0.041 C 
BRANCH  17  18
ATOM     18  C   UNL A   1      32.337  20.085  25.064  1.00  0.00     0.022 C 
ATOM     19  C   UNL A   1      32.389  20.165  23.530  1.00  0.00     0.007 C 
ATOM     20  C   UNL A   1      32.939  18.712  25.386  1.00  0.00     0.117 C 
ATOM     21  C   UNL A   1      32.556  18.724  23.035  1.00  0.00     0.003 C 
ATOM     22  C   UNL A   1      32.388  17.844  24.264  1.00  0.00     0.032 C 
BRANCH  20  23
ATOM     23  O   UNL A   1      32.526  18.220  26.646  1.00  0.00    -0.393 OA
ATOM     24  H   UNL A   1      31.586  18.415  26.776  1.00  0.00     0.210 HD
ENDBRANCH  20  23
ENDBRANCH  17  18
ENDBRANCH  16  17
ENDBRANCH   9  11
ENDBRANCH   7   9
ENDBRANCH   6   7
ENDBRANCH   5   6
ENDBRANCH   4   5
ENDBRANCH   3   4
ENDBRANCH   2   3
ENDBRANCH   1   2
BRANCH   1  25
ATOM     25  O   UNL A   1      35.758  24.335  25.010  1.00  0.00    -0.377 OA
BRANCH  25  26
ATOM     26  C   UNL A   1      35.800  22.984  24.577  1.00  0.00     0.188 C 
BRANCH  26  27
ATOM     27  C   UNL A   1      37.132  22.209  24.645  1.00  0.00     0.188 C 
BRANCH  27  28
ATOM     28  O   UNL A   1      37.050  20.940  25.279  1.00  0.00    -0.376 OA
BRANCH  28  29
ATOM     29  C   UNL A   1      37.840  19.865  24.793  1.00  0.00     0.202 C 
BRANCH  29  30
ATOM     30  C   UNL A   1      39.110  19.491  25.578  1.00  0.00     0.261 C 
BRANCH  30  31
ATOM     31  O   UNL A   1      40.052  20.549  25.805  1.00  0.00    -0.460 OA
BRANCH  31  32
ATOM     32  C   UNL A   1      40.717  20.545  26.977  1.00  0.00     0.338 C 
ATOM     33  O   UNL A   1      41.204  19.581  27.547  1.00  0.00    -0.246 OA
BRANCH  32  34
ATOM     34  C   UNL A   1      40.931  21.948  27.379  1.00  0.00     0.060 A 
ATOM     35  C   UNL A   1      40.185  22.953  26.747  1.00  0.00     0.016 A 
ATOM     36  C   UNL A   1      41.850  22.272  28.380  1.00  0.00     0.016 A 
ATOM     37  C   UNL A   1      40.384  24.290  27.089  1.00  0.00     0.010 A 
ATOM     38  C   UNL A   1      42.068  23.615  28.702  1.00  0.00     0.010 A 
ATOM     39  C   UNL A   1      41.362  24.630  28.033  1.00  0.00    -0.014 A 
BRANCH  39  40
ATOM     40  C   UNL A   1      41.793  26.044  28.161  1.00  0.00     0.031 A 
ATOM     41  C   UNL A   1      43.129  26.430  27.589  1.00  0.00     0.074 A 
ATOM     42  C   UNL A   1      41.012  26.969  28.745  1.00  0.00     0.049 A 
ATOM     43  N   UNL A   1      43.746  27.583  27.615  1.00  0.00    -0.248 NA
ATOM     44  C   UNL A   1      43.870  25.367  26.891  1.00  0.00     0.031 C 
ATOM     45  C   UNL A   1      39.679  26.729  29.290  1.00  0.00     0.029 A 
ATOM     46  N   UNL A   1      41.241  28.301  28.984  1.00  0.00    -0.354 N 
ATOM     47  C   UNL A   1      44.948  27.381  26.948  1.00  0.00     0.074 A 
ATOM     48  C   UNL A   1      44.988  25.990  26.555  1.00  0.00     0.031 C 
ATOM     49  C   UNL A   1      39.210  27.875  29.814  1.00  0.00     0.029 A 
ATOM     50  C   UNL A   1      40.226  28.919  29.672  1.00  0.00     0.049 A 
ATOM     51  H   UNL A   1      42.056  28.770  28.689  1.00  0.00     0.167 HD
ATOM     52  C   UNL A   1      45.926  28.278  26.682  1.00  0.00     0.037 A 
ATOM     53  C   UNL A   1      40.144  30.176  30.152  1.00  0.00     0.037 A 
ATOM     54  C   UNL A   1      45.885  29.659  27.081  1.00  0.00     0.049 A 
ATOM     55  C   UNL A   1      41.288  31.132  29.920  1.00  0.00     0.074 A 
ATOM     56  C   UNL A   1      46.818  30.653  26.845  1.00  0.00     0.029 A 
ATOM     57  N   UNL A   1      44.858  30.239  27.812  1.00  0.00    -0.354 N 
ATOM     58  N   UNL A   1      42.408  30.944  29.264  1.00  0.00    -0.248 NA
ATOM     59  C   UNL A   1      41.153  32.480  30.494  1.00  0.00     0.031 C 
ATOM     60  C   UNL A   1      46.389  31.817  27.491  1.00  0.00     0.029 A 
ATOM     61  C   UNL A   1      45.152  31.570  28.065  1.00  0.00     0.049 A 
ATOM     62  H   UNL A   1      44.042  29.775  28.106  1.00  0.00     0.167 HD
ATOM     63  C   UNL A   1      43.091  32.155  29.315  1.00  0.00     0.074 A 
ATOM     64  C   UNL A   1      42.254  33.074  30.056  1.00  0.00     0.031 C 
ATOM     65  C   UNL A   1      44.302  32.477  28.794  1.00  0.00     0.037 A 
BRANCH  52  66
ATOM     66  C   UNL A   1      47.145  27.781  25.959  1.00  0.00     0.064 A 
ATOM     67  C   UNL A   1      47.230  27.781  24.558  1.00  0.00     0.173 A 
ATOM     68  C   UNL A   1      48.258  27.323  26.681  1.00  0.00     0.173 A 
ATOM     69  F   UNL A   1      46.188  28.194  23.819  1.00  0.00    -0.203 F 
ATOM     70  C   UNL A   1      48.371  27.317  23.908  1.00  0.00     0.198 A 
ATOM     71  C   UNL A   1      49.410  26.892  26.029  1.00  0.00     0.198 A 
ATOM     72  F   UNL A   1      48.233  27.302  28.022  1.00  0.00    -0.203 F 
ATOM     73  F   UNL A   1      48.408  27.278  22.569  1.00  0.00    -0.200 F 
ATOM     74  C   UNL A   1      49.462  26.881  24.644  1.00  0.00     0.200 A 
ATOM     75  F   UNL A   1      50.469  26.485  26.743  1.00  0.00    -0.200 F 
ATOM     76  F   UNL A   1      50.563  26.444  24.017  1.00  0.00    -0.200 F 
ENDBRANCH  52  66
BRANCH  53  77
ATOM     77  C   UNL A   1      38.943  30.607  30.917  1.00  0.00     0.064 A 
ATOM     78  C   UNL A   1      37.839  31.183  30.271  1.00  0.00     0.173 A 
ATOM     79  C   UNL A   1      38.887  30.489  32.314  1.00  0.00     0.173 A 
ATOM     80  F   UNL A   1      37.853  31.345  28.940  1.00  0.00    -0.203 F 
ATOM     81  C   UNL A   1      36.740  31.644  30.993  1.00  0.00     0.198 A 
ATOM     82  C   UNL A   1      37.773  30.919  33.032  1.00  0.00     0.198 A 
ATOM     83  F   UNL A   1      39.916  29.950  32.985  1.00  0.00    -0.203 F 
ATOM     84  F   UNL A   1      35.725  32.243  30.353  1.00  0.00    -0.200 F 
ATOM     85  C   UNL A   1      36.704  31.507  32.372  1.00  0.00     0.200 A 
ATOM     86  F   UNL A   1      37.739  30.773  34.364  1.00  0.00    -0.200 F 
ATOM     87  F   UNL A   1      35.647  31.950  33.065  1.00  0.00    -0.200 F 
ENDBRANCH  53  77
BRANCH  65  88
ATOM     88  C   UNL A   1      44.775  33.895  28.958  1.00  0.00     0.064 A 
ATOM     89  C   UNL A   1      45.558  34.296  30.051  1.00  0.00     0.173 A 
ATOM     90  C   UNL A   1      44.480  34.857  27.977  1.00  0.00     0.173 A 
ATOM     91  F   UNL A   1      45.860  33.422  31.022  1.00  0.00    -0.203 F 
ATOM     92  C   UNL A   1      45.999  35.612  30.172  1.00  0.00     0.198 A 
ATOM     93  C   UNL A   1      44.953  36.161  28.083  1.00  0.00     0.198 A 
ATOM     94  F   UNL A   1      43.744  34.525  26.905  1.00  0.00    -0.203 F 
ATOM     95  F   UNL A   1      46.698  35.986  31.253  1.00  0.00    -0.200 F 
ATOM     96  C   UNL A   1      45.704  36.540  29.185  1.00  0.00     0.200 A 
ATOM     97  F   UNL A   1      44.683  37.051  27.117  1.00  0.00    -0.200 F 
ATOM     98  F   UNL A   1      46.138  37.803  29.298  1.00  0.00    -0.200 F 
ENDBRANCH  65  88
ENDBRANCH  39  40
ENDBRANCH  32  34
ENDBRANCH  31  32
ENDBRANCH  30  31
ENDBRANCH  29  30
ENDBRANCH  28  29
ENDBRANCH  27  28
ENDBRANCH  26  27
ENDBRANCH  25  26
ENDBRANCH   1  25
TORSDOF 24
ENDMDL
MODEL 2
REMARK VINA RESULT:     -10.7      1.975      5.222
REMARK SMILES C[C@H](C(=O)OCCOCCOCCOCCOC(=O)c1ccc(-c2c3nc(c(-c4c(F)c(F)c(F)c(F)c4F)c4ccc([nH]4)c(-c4c(F)c(F)c(F)c(F)c4F)c4nc(c(-c5c(F)c(F)c(F)c(F)c5F)c5ccc2[nH]5)C=C4)C=C3)cc1)c1ccc(C[C@H]2CCC[C@@H]2O)cc1
REMARK SMILES IDX 10 1 9 2 8 3 7 4 6 5 5 6 3 7 4 8 2 9 1 10 83 11 84 12 95 13
REMARK SMILES IDX 85 14 94 15 86 16 87 17 88 18 89 19 92 20 90 21 91 22 93 23
REMARK SMILES IDX 11 25 12 26 13 27 14 28 15 29 16 30 17 31 18 32 19 33 20 34
REMARK SMILES IDX 21 35 82 36 22 37 81 38 23 39 24 40 25 41 75 42 26 43 80 44
REMARK SMILES IDX 74 45 76 46 27 47 79 48 73 49 72 50 28 52 60 53 40 54 59 55
REMARK SMILES IDX 41 56 44 57 58 58 77 59 42 60 43 61 57 63 78 64 45 65 29 66
REMARK SMILES IDX 30 67 38 68 31 69 32 70 36 71 39 72 33 73 34 74 37 75 35 76
REMARK SMILES IDX 61 77 62 78 70 79 63 80 64 81 68 82 71 83 65 84 66 85 69 86
REMARK SMILES IDX 67 87 46 88 47 89 55 90 48 91 49 92 53 93 56 94 50 95 51 96
REMARK SMILES IDX 54 97 52 98
REMARK H PARENT 93 24 76 51 44 62
REMARK Flexibility Score: inf
ROOT
ATOM      1  C   UNL A   1      34.475  24.853  25.181  1.00  0.00     0.188 C 
ENDROOT
BRANCH   1   2
ATOM      2  C   UNL A   1      33.777  24.721  23.820  1.00  0.00     0.188 C 
BRANCH   2   3
ATOM      3  O   UNL A   1      34.105  25.628  22.784  1.00  0.00    -0.376 OA
BRANCH   3   4
ATOM      4  C   UNL A   1      33.099  26.347  22.086  1.00  0.00     0.202 C 
BRANCH   4   5
ATOM      5  C   UNL A   1      32.466  27.674  22.556  1.00  0.00     0.261 C 
BRANCH   5   6
ATOM      6  O   UNL A   1      32.550  28.024  23.941  1.00  0.00    -0.463 OA
BRANCH   6   7
ATOM      7  C   UNL A   1      31.570  28.814  24.442  1.00  0.00     0.313 C 
ATOM      8  O   UNL A   1      30.704  29.344  23.752  1.00  0.00    -0.252 OA
BRANCH   7   9
ATOM      9  C   UNL A   1      31.580  28.927  25.964  1.00  0.00     0.126 C 
ATOM     10  C   UNL A   1      32.198  27.683  26.616  1.00  0.00     0.025 C 
BRANCH   9  11
ATOM     11  C   UNL A   1      32.089  30.226  26.586  1.00  0.00    -0.034 A 
ATOM     12  C   UNL A   1      31.437  31.459  26.490  1.00  0.00     0.005 A 
ATOM     13  C   UNL A   1      33.322  30.209  27.255  1.00  0.00     0.005 A 
ATOM     14  C   UNL A   1      31.996  32.632  27.000  1.00  0.00     0.004 A 
ATOM     15  C   UNL A   1      33.894  31.384  27.754  1.00  0.00     0.004 A 
ATOM     16  C   UNL A   1      33.253  32.617  27.595  1.00  0.00    -0.048 A 
BRANCH  16  17
ATOM     17  C   UNL A   1      33.922  33.899  28.024  1.00  0.00     0.041 C 
BRANCH  17  18
ATOM     18  C   UNL A   1      33.381  34.538  29.317  1.00  0.00     0.022 C 
ATOM     19  C   UNL A   1      34.188  34.245  30.593  1.00  0.00     0.007 C 
ATOM     20  C   UNL A   1      33.227  36.063  29.318  1.00  0.00     0.117 C 
ATOM     21  C   UNL A   1      34.052  35.489  31.477  1.00  0.00     0.003 C 
ATOM     22  C   UNL A   1      33.017  36.369  30.793  1.00  0.00     0.032 C 
BRANCH  20  23
ATOM     23  O   UNL A   1      32.117  36.496  28.556  1.00  0.00    -0.393 OA
ATOM     24  H   UNL A   1      31.345  35.949  28.769  1.00  0.00     0.210 HD
ENDBRANCH  20  23
ENDBRANCH  17  18
ENDBRANCH  16  17
ENDBRANCH   9  11
ENDBRANCH   7   9
ENDBRANCH   6   7
ENDBRANCH   5   6
ENDBRANCH   4   5
ENDBRANCH   3   4
ENDBRANCH   2   3
ENDBRANCH   1   2
BRANCH   1  25
ATOM     25  O   UNL A   1      35.531  23.933  25.375  1.00  0.00    -0.377 OA
BRANCH  25  26
ATOM     26  C   UNL A   1      35.635  22.871  24.438  1.00  0.00     0.188 C 
BRANCH  26  27
ATOM     27  C   UNL A   1      36.941  22.053  24.365  1.00  0.00     0.188 C 
BRANCH  27  28
ATOM     28  O   UNL A   1      37.078  21.059  25.372  1.00  0.00    -0.376 OA
BRANCH  28  29
ATOM     29  C   UNL A   1      37.603  19.786  25.028  1.00  0.00     0.202 C 
BRANCH  29  30
ATOM     30  C   UNL A   1      39.027  19.443  25.500  1.00  0.00     0.261 C 
BRANCH  30  31
ATOM     31  O   UNL A   1      39.904  20.553  25.737  1.00  0.00    -0.460 OA
BRANCH  31  32
ATOM     32  C   UNL A   1      40.645  20.528  26.862  1.00  0.00     0.338 C 
ATOM     33  O   UNL A   1      41.173  19.555  27.378  1.00  0.00    -0.246 OA
BRANCH  32  34
ATOM     34  C   UNL A   1      40.876  21.924  27.281  1.00  0.00     0.060 A 
ATOM     35  C   UNL A   1      40.149  22.946  26.655  1.00  0.00     0.016 A 
ATOM     36  C   UNL A   1      41.795  22.224  28.290  1.00  0.00     0.016 A 
ATOM     37  C   UNL A   1      40.365  24.276  27.013  1.00  0.00     0.010 A 
ATOM     38  C   UNL A   1      42.030  23.560  28.628  1.00  0.00     0.010 A 
ATOM     39  C   UNL A   1      41.342  24.593  27.966  1.00  0.00    -0.014 A 
BRANCH  39  40
ATOM     40  C   UNL A   1      41.792  25.998  28.112  1.00  0.00     0.031 A 
ATOM     41  C   UNL A   1      43.142  26.369  27.560  1.00  0.00     0.074 A 
ATOM     42  C   UNL A   1      41.018  26.930  28.693  1.00  0.00     0.049 A 
ATOM     43  N   UNL A   1      43.776  27.512  27.605  1.00  0.00    -0.248 NA
ATOM     44  C   UNL A   1      43.876  25.300  26.864  1.00  0.00     0.031 C 
ATOM     45  C   UNL A   1      39.674  26.706  29.218  1.00  0.00     0.029 A 
ATOM     46  N   UNL A   1      41.264  28.257  28.946  1.00  0.00    -0.354 N 
ATOM     47  C   UNL A   1      44.983  27.297  26.952  1.00  0.00     0.074 A 
ATOM     48  C   UNL A   1      45.007  25.909  26.548  1.00  0.00     0.031 C 
ATOM     49  C   UNL A   1      39.215  27.855  29.744  1.00  0.00     0.029 A 
ATOM     50  C   UNL A   1      40.248  28.885  29.625  1.00  0.00     0.049 A 
ATOM     51  H   UNL A   1      42.089  28.716  28.666  1.00  0.00     0.167 HD
ATOM     52  C   UNL A   1      45.979  28.181  26.707  1.00  0.00     0.037 A 
ATOM     53  C   UNL A   1      40.178  30.139  30.114  1.00  0.00     0.037 A 
ATOM     54  C   UNL A   1      45.952  29.560  27.117  1.00  0.00     0.049 A 
ATOM     55  C   UNL A   1      41.340  31.079  29.906  1.00  0.00     0.074 A 
ATOM     56  C   UNL A   1      46.903  30.541  26.902  1.00  0.00     0.029 A 
ATOM     57  N   UNL A   1      44.925  30.149  27.838  1.00  0.00    -0.354 N 
ATOM     58  N   UNL A   1      42.466  30.880  29.264  1.00  0.00    -0.248 NA
ATOM     59  C   UNL A   1      41.218  32.424  30.489  1.00  0.00     0.031 C 
ATOM     60  C   UNL A   1      46.483  31.706  27.551  1.00  0.00     0.029 A 
ATOM     61  C   UNL A   1      45.235  31.473  28.107  1.00  0.00     0.049 A 
ATOM     62  H   UNL A   1      44.098  29.695  28.118  1.00  0.00     0.167 HD
ATOM     63  C   UNL A   1      43.167  32.079  29.334  1.00  0.00     0.074 A 
ATOM     64  C   UNL A   1      42.333  33.005  30.071  1.00  0.00     0.031 C 
ATOM     65  C   UNL A   1      44.389  32.387  28.831  1.00  0.00     0.037 A 
BRANCH  52  66
ATOM     66  C   UNL A   1      47.200  27.672  25.996  1.00  0.00     0.064 A 
ATOM     67  C   UNL A   1      47.321  27.720  24.599  1.00  0.00     0.173 A 
ATOM     68  C   UNL A   1      48.279  27.152  26.728  1.00  0.00     0.173 A 
ATOM     69  F   UNL A   1      46.312  28.193  23.850  1.00  0.00    -0.203 F 
ATOM     70  C   UNL A   1      48.463  27.244  23.961  1.00  0.00     0.198 A 
ATOM     71  C   UNL A   1      49.433  26.708  26.089  1.00  0.00     0.198 A 
ATOM     72  F   UNL A   1      48.218  27.083  28.067  1.00  0.00    -0.203 F 
ATOM     73  F   UNL A   1      48.533  27.252  22.623  1.00  0.00    -0.200 F 
ATOM     74  C   UNL A   1      49.520  26.746  24.707  1.00  0.00     0.200 A 
ATOM     75  F   UNL A   1      50.460  26.241  26.814  1.00  0.00    -0.200 F 
ATOM     76  F   UNL A   1      50.623  26.296  24.091  1.00  0.00    -0.200 F 
ENDBRANCH  52  66
BRANCH  53  77
ATOM     77  C   UNL A   1      38.974  30.582  30.866  1.00  0.00     0.064 A 
ATOM     78  C   UNL A   1      38.945  30.560  32.268  1.00  0.00     0.173 A 
ATOM     79  C   UNL A   1      37.811  31.000  30.201  1.00  0.00     0.173 A 
ATOM     80  F   UNL A   1      40.020  30.141  32.952  1.00  0.00    -0.203 F 
ATOM     81  C   UNL A   1      37.796  30.914  32.972  1.00  0.00     0.198 A 
ATOM     82  C   UNL A   1      36.674  31.387  30.906  1.00  0.00     0.198 A 
ATOM     83  F   UNL A   1      37.780  31.037  28.861  1.00  0.00    -0.203 F 
ATOM     84  F   UNL A   1      37.780  30.827  34.311  1.00  0.00    -0.200 F 
ATOM     85  C   UNL A   1      36.664  31.334  32.292  1.00  0.00     0.200 A 
ATOM     86  F   UNL A   1      35.586  31.803  30.244  1.00  0.00    -0.200 F 
ATOM     87  F   UNL A   1      35.559  31.675  32.970  1.00  0.00    -0.200 F 
ENDBRANCH  53  77
BRANCH  65  88
ATOM     88  C   UNL A   1      44.881  33.796  29.013  1.00  0.00     0.064 A 
ATOM     89  C   UNL A   1      45.679  34.170  30.105  1.00  0.00     0.173 A 
ATOM     90  C   UNL A   1      44.588  34.778  28.052  1.00  0.00     0.173 A 
ATOM     91  F   UNL A   1      45.981  33.277  31.059  1.00  0.00    -0.203 F 
ATOM     92  C   UNL A   1      46.138  35.479  30.243  1.00  0.00     0.198 A 
ATOM     93  C   UNL A   1      45.078  36.074  28.174  1.00  0.00     0.198 A 
ATOM     94  F   UNL A   1      43.838  34.473  26.982  1.00  0.00    -0.203 F 
ATOM     95  F   UNL A   1      46.852  35.826  31.323  1.00  0.00    -0.200 F 
ATOM     96  C   UNL A   1      45.844  36.426  29.274  1.00  0.00     0.200 A 
ATOM     97  F   UNL A   1      44.810  36.983  27.225  1.00  0.00    -0.200 F 
ATOM     98  F   UNL A   1      46.295  37.682  29.404  1.00  0.00    -0.200 F 
ENDBRANCH  65  88
ENDBRANCH  39  40
ENDBRANCH  32  34
ENDBRANCH  31  32
ENDBRANCH  30  31
ENDBRANCH  29  30
ENDBRANCH  28  29
ENDBRANCH  27  28
ENDBRANCH  26  27
ENDBRANCH  25  26
ENDBRANCH   1  25
TORSDOF 24
ENDMDL
MODEL 3
REMARK VINA RESULT:     -10.0      2.127      8.891
REMARK SMILES C[C@H](C(=O)OCCOCCOCCOCCOC(=O)c1ccc(-c2c3nc(c(-c4c(F)c(F)c(F)c(F)c4F)c4ccc([nH]4)c(-c4c(F)c(F)c(F)c(F)c4F)c4nc(c(-c5c(F)c(F)c(F)c(F)c5F)c5ccc2[nH]5)C=C4)C=C3)cc1)c1ccc(C[C@H]2CCC[C@@H]2O)cc1
REMARK SMILES IDX 10 1 9 2 8 3 7 4 6 5 5 6 3 7 4 8 2 9 1 10 83 11 84 12 95 13
REMARK SMILES IDX 85 14 94 15 86 16 87 17 88 18 89 19 92 20 90 21 91 22 93 23
REMARK SMILES IDX 11 25 12 26 13 27 14 28 15 29 16 30 17 31 18 32 19 33 20 34
REMARK SMILES IDX 21 35 82 36 22 37 81 38 23 39 24 40 25 41 75 42 26 43 80 44
REMARK SMILES IDX 74 45 76 46 27 47 79 48 73 49 72 50 28 52 60 53 40 54 59 55
REMARK SMILES IDX 41 56 44 57 58 58 77 59 42 60 43 61 57 63 78 64 45 65 29 66
REMARK SMILES IDX 30 67 38 68 31 69 32 70 36 71 39 72 33 73 34 74 37 75 35 76
REMARK SMILES IDX 61 77 62 78 70 79 63 80 64 81 68 82 71 83 65 84 66 85 69 86
REMARK SMILES IDX 67 87 46 88 47 89 55 90 48 91 49 92 53 93 56 94 50 95 51 96
REMARK SMILES IDX 54 97 52 98
REMARK H PARENT 93 24 76 51 44 62
REMARK Flexibility Score: inf
ROOT
ATOM      1  C   UNL A   1      34.384  25.047  25.415  1.00  0.00     0.188 C 
ENDROOT
BRANCH   1   2
ATOM      2  C   UNL A   1      33.744  25.088  24.021  1.00  0.00     0.188 C 
BRANCH   2   3
ATOM      3  O   UNL A   1      34.023  26.180  23.164  1.00  0.00    -0.376 OA
BRANCH   3   4
ATOM      4  C   UNL A   1      32.981  26.913  22.538  1.00  0.00     0.202 C 
BRANCH   4   5
ATOM      5  C   UNL A   1      32.341  28.202  23.098  1.00  0.00     0.261 C 
BRANCH   5   6
ATOM      6  O   UNL A   1      32.471  28.485  24.495  1.00  0.00    -0.463 OA
BRANCH   6   7
ATOM      7  C   UNL A   1      31.582  29.350  25.039  1.00  0.00     0.313 C 
ATOM      8  O   UNL A   1      30.655  29.856  24.412  1.00  0.00    -0.252 OA
BRANCH   7   9
ATOM      9  C   UNL A   1      31.777  29.583  26.535  1.00  0.00     0.126 C 
ATOM     10  C   UNL A   1      32.443  28.377  27.210  1.00  0.00     0.025 C 
BRANCH   9  11
ATOM     11  C   UNL A   1      32.384  30.912  26.983  1.00  0.00    -0.034 A 
ATOM     12  C   UNL A   1      31.731  32.146  26.909  1.00  0.00     0.005 A 
ATOM     13  C   UNL A   1      33.707  30.918  27.450  1.00  0.00     0.005 A 
ATOM     14  C   UNL A   1      32.370  33.341  27.247  1.00  0.00     0.004 A 
ATOM     15  C   UNL A   1      34.357  32.114  27.774  1.00  0.00     0.004 A 
ATOM     16  C   UNL A   1      33.705  33.345  27.637  1.00  0.00    -0.048 A 
BRANCH  16  17
ATOM     17  C   UNL A   1      34.440  34.641  27.870  1.00  0.00     0.041 C 
BRANCH  17  18
ATOM     18  C   UNL A   1      34.270  35.265  29.269  1.00  0.00     0.022 C 
ATOM     19  C   UNL A   1      32.868  35.807  29.591  1.00  0.00     0.007 C 
ATOM     20  C   UNL A   1      34.605  34.367  30.466  1.00  0.00     0.117 C 
ATOM     21  C   UNL A   1      32.669  35.602  31.096  1.00  0.00     0.003 C 
ATOM     22  C   UNL A   1      34.017  35.148  31.633  1.00  0.00     0.032 C 
BRANCH  20  23
ATOM     23  O   UNL A   1      35.998  34.189  30.637  1.00  0.00    -0.393 OA
ATOM     24  H   UNL A   1      36.473  34.913  30.201  1.00  0.00     0.210 HD
ENDBRANCH  20  23
ENDBRANCH  17  18
ENDBRANCH  16  17
ENDBRANCH   9  11
ENDBRANCH   7   9
ENDBRANCH   6   7
ENDBRANCH   5   6
ENDBRANCH   4   5
ENDBRANCH   3   4
ENDBRANCH   2   3
ENDBRANCH   1   2
BRANCH   1  25
ATOM     25  O   UNL A   1      35.425  24.098  25.540  1.00  0.00    -0.377 OA
BRANCH  25  26
ATOM     26  C   UNL A   1      35.519  23.113  24.522  1.00  0.00     0.188 C 
BRANCH  26  27
ATOM     27  C   UNL A   1      36.794  22.250  24.420  1.00  0.00     0.188 C 
BRANCH  27  28
ATOM     28  O   UNL A   1      36.890  21.214  25.388  1.00  0.00    -0.376 OA
BRANCH  28  29
ATOM     29  C   UNL A   1      37.383  19.941  25.000  1.00  0.00     0.202 C 
BRANCH  29  30
ATOM     30  C   UNL A   1      38.812  19.560  25.426  1.00  0.00     0.261 C 
BRANCH  30  31
ATOM     31  O   UNL A   1      39.698  20.649  25.721  1.00  0.00    -0.460 OA
BRANCH  31  32
ATOM     32  C   UNL A   1      40.403  20.579  26.868  1.00  0.00     0.338 C 
ATOM     33  O   UNL A   1      40.796  19.572  27.434  1.00  0.00    -0.246 OA
BRANCH  32  34
ATOM     34  C   UNL A   1      40.791  21.953  27.242  1.00  0.00     0.060 A 
ATOM     35  C   UNL A   1      40.221  23.029  26.546  1.00  0.00     0.016 A 
ATOM     36  C   UNL A   1      41.700  22.181  28.277  1.00  0.00     0.016 A 
ATOM     37  C   UNL A   1      40.589  24.337  26.861  1.00  0.00     0.010 A 
ATOM     38  C   UNL A   1      42.088  23.491  28.573  1.00  0.00     0.010 A 
ATOM     39  C   UNL A   1      41.560  24.571  27.843  1.00  0.00    -0.014 A 
BRANCH  39  40
ATOM     40  C   UNL A   1      42.177  25.915  27.954  1.00  0.00     0.031 A 
ATOM     41  C   UNL A   1      41.419  26.983  28.693  1.00  0.00     0.074 A 
ATOM     42  C   UNL A   1      43.390  26.179  27.438  1.00  0.00     0.049 A 
ATOM     43  N   UNL A   1      41.721  28.242  28.884  1.00  0.00    -0.248 NA
ATOM     44  C   UNL A   1      40.141  26.573  29.298  1.00  0.00     0.031 C 
ATOM     45  C   UNL A   1      44.243  25.217  26.747  1.00  0.00     0.029 A 
ATOM     46  N   UNL A   1      44.108  27.349  27.410  1.00  0.00    -0.354 N 
ATOM     47  C   UNL A   1      40.670  28.773  29.621  1.00  0.00     0.074 A 
ATOM     48  C   UNL A   1      39.709  27.710  29.818  1.00  0.00     0.031 C 
ATOM     49  C   UNL A   1      45.367  25.838  26.350  1.00  0.00     0.029 A 
ATOM     50  C   UNL A   1      45.295  27.250  26.728  1.00  0.00     0.049 A 
ATOM     51  H   UNL A   1      43.801  28.181  27.840  1.00  0.00     0.167 HD
ATOM     52  C   UNL A   1      40.525  30.031  30.097  1.00  0.00     0.037 A 
ATOM     53  C   UNL A   1      46.202  28.200  26.423  1.00  0.00     0.037 A 
ATOM     54  C   UNL A   1      41.482  31.086  29.894  1.00  0.00     0.049 A 
ATOM     55  C   UNL A   1      45.973  29.616  26.889  1.00  0.00     0.074 A 
ATOM     56  C   UNL A   1      41.436  32.391  30.350  1.00  0.00     0.029 A 
ATOM     57  N   UNL A   1      42.653  30.958  29.163  1.00  0.00    -0.354 N 
ATOM     58  N   UNL A   1      44.993  30.107  27.610  1.00  0.00    -0.248 NA
ATOM     59  C   UNL A   1      46.982  30.614  26.500  1.00  0.00     0.031 C 
ATOM     60  C   UNL A   1      42.545  33.072  29.838  1.00  0.00     0.029 A 
ATOM     61  C   UNL A   1      43.322  32.172  29.126  1.00  0.00     0.049 A 
ATOM     62  H   UNL A   1      42.965  30.129  28.734  1.00  0.00     0.167 HD
ATOM     63  C   UNL A   1      45.285  31.454  27.791  1.00  0.00     0.074 A 
ATOM     64  C   UNL A   1      46.540  31.702  27.114  1.00  0.00     0.031 C 
ATOM     65  C   UNL A   1      44.579  32.401  28.459  1.00  0.00     0.037 A 
BRANCH  52  66
ATOM     66  C   UNL A   1      39.264  30.348  30.851  1.00  0.00     0.064 A 
ATOM     67  C   UNL A   1      39.238  30.439  32.250  1.00  0.00     0.173 A 
ATOM     68  C   UNL A   1      38.069  30.591  30.157  1.00  0.00     0.173 A 
ATOM     69  F   UNL A   1      40.350  30.200  32.964  1.00  0.00    -0.203 F 
ATOM     70  C   UNL A   1      38.058  30.735  32.928  1.00  0.00     0.198 A 
ATOM     71  C   UNL A   1      36.899  30.920  30.835  1.00  0.00     0.198 A 
ATOM     72  F   UNL A   1      38.037  30.518  28.817  1.00  0.00    -0.203 F 
ATOM     73  F   UNL A   1      38.046  30.764  34.267  1.00  0.00    -0.200 F 
ATOM     74  C   UNL A   1      36.893  30.983  32.220  1.00  0.00     0.200 A 
ATOM     75  F   UNL A   1      35.777  31.174  30.147  1.00  0.00    -0.200 F 
ATOM     76  F   UNL A   1      35.760  31.277  32.873  1.00  0.00    -0.200 F 
ENDBRANCH  52  66
BRANCH  53  77
ATOM     77  C   UNL A   1      47.407  27.854  25.622  1.00  0.00     0.064 A 
ATOM     78  C   UNL A   1      48.653  27.655  26.233  1.00  0.00     0.173 A 
ATOM     79  C   UNL A   1      47.347  27.751  24.223  1.00  0.00     0.173 A 
ATOM     80  F   UNL A   1      48.770  27.769  27.565  1.00  0.00    -0.203 F 
ATOM     81  C   UNL A   1      49.794  27.393  25.478  1.00  0.00     0.198 A 
ATOM     82  C   UNL A   1      48.482  27.455  23.471  1.00  0.00     0.198 A 
ATOM     83  F   UNL A   1      46.183  27.936  23.585  1.00  0.00    -0.203 F 
ATOM     84  F   UNL A   1      50.982  27.265  26.086  1.00  0.00    -0.200 F 
ATOM     85  C   UNL A   1      49.708  27.287  24.098  1.00  0.00     0.200 A 
ATOM     86  F   UNL A   1      48.390  27.342  22.139  1.00  0.00    -0.200 F 
ATOM     87  F   UNL A   1      50.805  27.034  23.373  1.00  0.00    -0.200 F 
ENDBRANCH  53  77
BRANCH  65  88
ATOM     88  C   UNL A   1      45.168  33.782  28.539  1.00  0.00     0.064 A 
ATOM     89  C   UNL A   1      44.887  34.767  27.580  1.00  0.00     0.173 A 
ATOM     90  C   UNL A   1      45.990  34.138  29.621  1.00  0.00     0.173 A 
ATOM     91  F   UNL A   1      44.118  34.478  26.520  1.00  0.00    -0.203 F 
ATOM     92  C   UNL A   1      45.432  36.045  27.685  1.00  0.00     0.198 A 
ATOM     93  C   UNL A   1      46.503  35.426  29.742  1.00  0.00     0.198 A 
ATOM     94  F   UNL A   1      46.283  33.239  30.572  1.00  0.00    -0.203 F 
ATOM     95  F   UNL A   1      45.195  36.953  26.728  1.00  0.00    -0.200 F 
ATOM     96  C   UNL A   1      46.231  36.376  28.769  1.00  0.00     0.200 A 
ATOM     97  F   UNL A   1      47.258  35.749  30.801  1.00  0.00    -0.200 F 
ATOM     98  F   UNL A   1      46.746  37.609  28.873  1.00  0.00    -0.200 F 
ENDBRANCH  65  88
ENDBRANCH  39  40
ENDBRANCH  32  34
ENDBRANCH  31  32
ENDBRANCH  30  31
ENDBRANCH  29  30
ENDBRANCH  28  29
ENDBRANCH  27  28
ENDBRANCH  26  27
ENDBRANCH  25  26
ENDBRANCH   1  25
TORSDOF 24
ENDMDL
