MODEL 1
REMARK VINA RESULT:     -14.2      0.000      0.000
REMARK SMILES Cc1c(NC(=O)[C@@H]2CC=CC[C@@H]2C(=O)OCCOCCOCCOCCOC(=O)c2ccc(-c3c4nc(c(-c5c(F)c(F)c(F)c(F)c5F)c5ccc([nH]5)c(-c5c(F)c(F)c(F)c(F)c5F)c5nc(c(-c6c(F)c(F)c(F)c(F)c6F)c6ccc3[nH]6)C=C5)C=C4)cc2)cccc1C(=O)N1CCOCC1
REMARK SMILES IDX 20 1 19 2 18 3 17 4 16 5 15 6 13 7 14 8 12 9 7 10 8 11 9 12
REMARK SMILES IDX 11 13 10 14 5 15 4 16 6 18 3 19 1 20 2 21 96 22 93 23 95 24
REMARK SMILES IDX 94 25 97 26 98 27 99 28 100 29 104 30 101 31 103 32 102 33
REMARK SMILES IDX 21 34 22 35 23 36 24 37 25 38 26 39 27 40 28 41 29 42 30 43
REMARK SMILES IDX 31 44 92 45 32 46 91 47 33 48 34 49 35 50 85 51 36 52 90 53
REMARK SMILES IDX 84 54 86 55 37 56 89 57 83 58 82 59 38 61 70 62 50 63 69 64
REMARK SMILES IDX 51 65 54 66 68 67 87 68 52 69 53 70 67 72 88 73 55 74 39 75
REMARK SMILES IDX 40 76 48 77 41 78 42 79 46 80 49 81 43 82 44 83 47 84 45 85
REMARK SMILES IDX 71 86 72 87 80 88 73 89 74 90 78 91 81 92 75 93 76 94 79 95
REMARK SMILES IDX 77 96 56 97 57 98 65 99 58 100 59 101 63 102 66 103 60 104
REMARK SMILES IDX 61 105 64 106 62 107
REMARK H PARENT 4 17 86 60 54 71
REMARK Flexibility Score: inf
ROOT
ATOM      1  C   UNL A   1      41.952  19.924  26.332  1.00  0.00     0.188 C 
ENDROOT
BRANCH   1   2
ATOM      2  C   UNL A   1      41.123  20.862  27.467  1.00  0.00     0.188 C 
BRANCH   2   3
ATOM      3  O   UNL A   1      39.761  22.023  27.366  1.00  0.00    -0.376 OA
BRANCH   3   4
ATOM      4  C   UNL A   1      38.624  22.551  26.089  1.00  0.00     0.202 C 
BRANCH   4   5
ATOM      5  C   UNL A   1      37.177  23.812  26.121  1.00  0.00     0.261 C 
BRANCH   5   6
ATOM      6  O   UNL A   1      35.890  24.125  24.879  1.00  0.00    -0.463 OA
BRANCH   6   7
ATOM      7  C   UNL A   1      35.026  23.559  23.873  1.00  0.00     0.310 C 
ATOM      8  O   UNL A   1      34.757  24.076  22.772  1.00  0.00    -0.252 OA
BRANCH   7   9
ATOM      9  C   UNL A   1      34.424  22.038  23.804  1.00  0.00     0.116 C 
ATOM     10  C   UNL A   1      33.013  21.353  23.732  1.00  0.00     0.097 C 
ATOM     11  C   UNL A   1      32.413  20.926  25.100  1.00  0.00     0.041 C 
ATOM     12  C   UNL A   1      33.404  20.233  25.978  1.00  0.00    -0.030 C 
ATOM     13  C   UNL A   1      35.361  21.082  24.657  1.00  0.00     0.043 C 
ATOM     14  C   UNL A   1      34.720  20.275  25.754  1.00  0.00    -0.030 C 
BRANCH  10  15
ATOM     15  C   UNL A   1      32.157  22.028  22.684  1.00  0.00     0.228 C 
ATOM     16  N   UNL A   1      31.480  23.185  22.845  1.00  0.00    -0.326 N 
ATOM     17  H   UNL A   1      31.121  23.509  21.987  1.00  0.00     0.169 HD
ATOM     18  O   UNL A   1      32.011  21.504  21.572  1.00  0.00    -0.274 OA
BRANCH  16  19
ATOM     19  C   UNL A   1      31.146  24.053  23.895  1.00  0.00     0.044 A 
ATOM     20  C   UNL A   1      31.984  25.887  22.390  1.00  0.00     0.047 C 
ATOM     21  C   UNL A   1      31.265  25.445  23.640  1.00  0.00    -0.015 A 
ATOM     22  C   UNL A   1      30.803  26.368  24.600  1.00  0.00     0.045 A 
ATOM     23  C   UNL A   1      30.658  23.617  25.127  1.00  0.00     0.026 A 
ATOM     24  C   UNL A   1      30.418  25.896  25.868  1.00  0.00     0.014 A 
ATOM     25  C   UNL A   1      30.372  24.532  26.138  1.00  0.00     0.003 A 
BRANCH  22  26
ATOM     26  C   UNL A   1      30.857  27.851  24.455  1.00  0.00     0.254 C 
ATOM     27  O   UNL A   1      29.911  28.379  23.864  1.00  0.00    -0.269 OA
ATOM     28  N   UNL A   1      31.903  28.612  24.971  1.00  0.00    -0.334 N 
ATOM     29  C   UNL A   1      33.258  28.179  25.345  1.00  0.00     0.148 C 
ATOM     30  C   UNL A   1      31.724  30.062  25.045  1.00  0.00     0.148 C 
ATOM     31  C   UNL A   1      33.696  28.810  26.684  1.00  0.00     0.181 C 
ATOM     32  C   UNL A   1      32.106  30.549  26.443  1.00  0.00     0.181 C 
ATOM     33  O   UNL A   1      33.481  30.231  26.718  1.00  0.00    -0.378 OA
ENDBRANCH  22  26
ENDBRANCH  16  19
ENDBRANCH  10  15
ENDBRANCH   7   9
ENDBRANCH   6   7
ENDBRANCH   5   6
ENDBRANCH   4   5
ENDBRANCH   3   4
ENDBRANCH   2   3
ENDBRANCH   1   2
BRANCH   1  34
ATOM     34  O   UNL A   1      43.333  19.987  25.909  1.00  0.00    -0.377 OA
BRANCH  34  35
ATOM     35  C   UNL A   1      43.955  19.240  24.871  1.00  0.00     0.188 C 
BRANCH  35  36
ATOM     36  C   UNL A   1      44.869  19.983  23.941  1.00  0.00     0.188 C 
BRANCH  36  37
ATOM     37  O   UNL A   1      45.324  21.109  24.665  1.00  0.00    -0.376 OA
BRANCH  37  38
ATOM     38  C   UNL A   1      44.794  22.338  24.216  1.00  0.00     0.202 C 
BRANCH  38  39
ATOM     39  C   UNL A   1      44.732  23.347  25.362  1.00  0.00     0.261 C 
BRANCH  39  40
ATOM     40  O   UNL A   1      43.569  24.184  25.162  1.00  0.00    -0.460 OA
BRANCH  40  41
ATOM     41  C   UNL A   1      43.595  25.389  25.811  1.00  0.00     0.338 C 
ATOM     42  O   UNL A   1      44.566  25.893  26.331  1.00  0.00    -0.246 OA
BRANCH  41  43
ATOM     43  C   UNL A   1      42.190  25.809  26.096  1.00  0.00     0.060 A 
ATOM     44  C   UNL A   1      41.735  27.056  25.709  1.00  0.00     0.016 A 
ATOM     45  C   UNL A   1      41.356  25.108  26.928  1.00  0.00     0.016 A 
ATOM     46  C   UNL A   1      40.768  27.721  26.505  1.00  0.00     0.010 A 
ATOM     47  C   UNL A   1      40.337  25.808  27.619  1.00  0.00     0.010 A 
ATOM     48  C   UNL A   1      40.323  27.241  27.746  1.00  0.00    -0.014 A 
BRANCH  48  49
ATOM     49  C   UNL A   1      40.138  28.328  29.225  1.00  0.00     0.031 A 
ATOM     50  C   UNL A   1      38.607  29.469  29.789  1.00  0.00     0.074 A 
ATOM     51  C   UNL A   1      41.391  28.365  29.799  1.00  0.00     0.049 A 
ATOM     52  N   UNL A   1      38.597  30.832  29.659  1.00  0.00    -0.248 NA
ATOM     53  C   UNL A   1      37.006  29.332  29.773  1.00  0.00     0.031 C 
ATOM     54  C   UNL A   1      41.717  28.845  31.094  1.00  0.00     0.029 A 
ATOM     55  N   UNL A   1      42.691  28.144  29.305  1.00  0.00    -0.354 N 
ATOM     56  C   UNL A   1      37.436  31.559  29.692  1.00  0.00     0.074 A 
ATOM     57  C   UNL A   1      36.466  30.544  29.553  1.00  0.00     0.031 C 
ATOM     58  C   UNL A   1      42.925  29.417  31.116  1.00  0.00     0.029 A 
ATOM     59  C   UNL A   1      43.529  29.108  29.874  1.00  0.00     0.049 A 
ATOM     60  H   UNL A   1      42.961  27.439  28.674  1.00  0.00     0.167 HD
ATOM     61  C   UNL A   1      37.363  32.925  29.880  1.00  0.00     0.037 A 
ATOM     62  C   UNL A   1      44.535  29.783  29.292  1.00  0.00     0.037 A 
ATOM     63  C   UNL A   1      38.628  33.552  30.341  1.00  0.00     0.049 A 
ATOM     64  C   UNL A   1      44.264  31.280  29.269  1.00  0.00     0.074 A 
ATOM     65  C   UNL A   1      39.085  33.898  31.608  1.00  0.00     0.029 A 
ATOM     66  N   UNL A   1      39.744  33.701  29.526  1.00  0.00    -0.354 N 
ATOM     67  N   UNL A   1      43.172  31.874  29.715  1.00  0.00    -0.248 NA
ATOM     68  C   UNL A   1      45.202  32.222  28.677  1.00  0.00     0.031 C 
ATOM     69  C   UNL A   1      40.505  34.044  31.570  1.00  0.00     0.029 A 
ATOM     70  C   UNL A   1      40.928  33.900  30.259  1.00  0.00     0.049 A 
ATOM     71  H   UNL A   1      39.711  33.670  28.543  1.00  0.00     0.167 HD
ATOM     72  C   UNL A   1      43.205  33.221  29.404  1.00  0.00     0.074 A 
ATOM     73  C   UNL A   1      44.515  33.373  28.765  1.00  0.00     0.031 C 
ATOM     74  C   UNL A   1      42.218  34.169  29.605  1.00  0.00     0.037 A 
BRANCH  61  75
ATOM     75  C   UNL A   1      35.983  33.589  30.028  1.00  0.00     0.064 A 
ATOM     76  C   UNL A   1      35.234  34.042  28.922  1.00  0.00     0.173 A 
ATOM     77  C   UNL A   1      35.385  33.862  31.278  1.00  0.00     0.173 A 
ATOM     78  F   UNL A   1      35.559  33.703  27.669  1.00  0.00    -0.203 F 
ATOM     79  C   UNL A   1      34.102  34.861  29.063  1.00  0.00     0.198 A 
ATOM     80  C   UNL A   1      34.298  34.738  31.424  1.00  0.00     0.198 A 
ATOM     81  F   UNL A   1      35.824  33.260  32.394  1.00  0.00    -0.203 F 
ATOM     82  F   UNL A   1      33.436  35.274  27.973  1.00  0.00    -0.200 F 
ATOM     83  C   UNL A   1      33.671  35.259  30.312  1.00  0.00     0.200 A 
ATOM     84  F   UNL A   1      33.869  35.079  32.649  1.00  0.00    -0.200 F 
ATOM     85  F   UNL A   1      32.637  36.104  30.443  1.00  0.00    -0.200 F 
ENDBRANCH  61  75
BRANCH  62  86
ATOM     86  C   UNL A   1      45.356  28.825  28.491  1.00  0.00     0.064 A 
ATOM     87  C   UNL A   1      45.278  29.068  27.089  1.00  0.00     0.173 A 
ATOM     88  C   UNL A   1      46.567  28.318  28.973  1.00  0.00     0.173 A 
ATOM     89  F   UNL A   1      44.139  29.551  26.563  1.00  0.00    -0.203 F 
ATOM     90  C   UNL A   1      46.422  29.090  26.289  1.00  0.00     0.198 A 
ATOM     91  C   UNL A   1      47.701  28.278  28.145  1.00  0.00     0.198 A 
ATOM     92  F   UNL A   1      46.712  28.059  30.280  1.00  0.00    -0.203 F 
ATOM     93  F   UNL A   1      46.365  29.610  25.053  1.00  0.00    -0.200 F 
ATOM     94  C   UNL A   1      47.642  28.735  26.832  1.00  0.00     0.200 A 
ATOM     95  F   UNL A   1      48.897  27.971  28.669  1.00  0.00    -0.200 F 
ATOM     96  F   UNL A   1      48.767  28.929  26.130  1.00  0.00    -0.200 F 
ENDBRANCH  62  86
BRANCH  74  97
ATOM     97  C   UNL A   1      42.437  35.602  29.182  1.00  0.00     0.064 A 
ATOM     98  C   UNL A   1      41.958  36.125  27.972  1.00  0.00     0.173 A 
ATOM     99  C   UNL A   1      43.210  36.475  29.976  1.00  0.00     0.173 A 
ATOM    100  F   UNL A   1      41.320  35.342  27.088  1.00  0.00    -0.203 F 
ATOM    101  C   UNL A   1      42.108  37.475  27.655  1.00  0.00     0.198 A 
ATOM    102  C   UNL A   1      43.436  37.799  29.612  1.00  0.00     0.198 A 
ATOM    103  F   UNL A   1      43.736  36.083  31.145  1.00  0.00    -0.203 F 
ATOM    104  F   UNL A   1      41.514  37.970  26.560  1.00  0.00    -0.200 F 
ATOM    105  C   UNL A   1      42.846  38.310  28.476  1.00  0.00     0.200 A 
ATOM    106  F   UNL A   1      44.198  38.579  30.390  1.00  0.00    -0.200 F 
ATOM    107  F   UNL A   1      42.977  39.610  28.179  1.00  0.00    -0.200 F 
ENDBRANCH  74  97
ENDBRANCH  48  49
ENDBRANCH  41  43
ENDBRANCH  40  41
ENDBRANCH  39  40
ENDBRANCH  38  39
ENDBRANCH  37  38
ENDBRANCH  36  37
ENDBRANCH  35  36
ENDBRANCH  34  35
ENDBRANCH   1  34
TORSDOF 23
ENDMDL
MODEL 2
REMARK VINA RESULT:     -12.2      2.811      5.197
REMARK SMILES Cc1c(NC(=O)[C@@H]2CC=CC[C@@H]2C(=O)OCCOCCOCCOCCOC(=O)c2ccc(-c3c4nc(c(-c5c(F)c(F)c(F)c(F)c5F)c5ccc([nH]5)c(-c5c(F)c(F)c(F)c(F)c5F)c5nc(c(-c6c(F)c(F)c(F)c(F)c6F)c6ccc3[nH]6)C=C5)C=C4)cc2)cccc1C(=O)N1CCOCC1
REMARK SMILES IDX 20 1 19 2 18 3 17 4 16 5 15 6 13 7 14 8 12 9 7 10 8 11 9 12
REMARK SMILES IDX 11 13 10 14 5 15 4 16 6 18 3 19 1 20 2 21 96 22 93 23 95 24
REMARK SMILES IDX 94 25 97 26 98 27 99 28 100 29 104 30 101 31 103 32 102 33
REMARK SMILES IDX 21 34 22 35 23 36 24 37 25 38 26 39 27 40 28 41 29 42 30 43
REMARK SMILES IDX 31 44 92 45 32 46 91 47 33 48 34 49 35 50 85 51 36 52 90 53
REMARK SMILES IDX 84 54 86 55 37 56 89 57 83 58 82 59 38 61 70 62 50 63 69 64
REMARK SMILES IDX 51 65 54 66 68 67 87 68 52 69 53 70 67 72 88 73 55 74 39 75
REMARK SMILES IDX 40 76 48 77 41 78 42 79 46 80 49 81 43 82 44 83 47 84 45 85
REMARK SMILES IDX 71 86 72 87 80 88 73 89 74 90 78 91 81 92 75 93 76 94 79 95
REMARK SMILES IDX 77 96 56 97 57 98 65 99 58 100 59 101 63 102 66 103 60 104
REMARK SMILES IDX 61 105 64 106 62 107
REMARK H PARENT 4 17 86 60 54 71
REMARK Flexibility Score: inf
ROOT
ATOM      1  C   UNL A   1      33.903  28.009  26.156  1.00  0.00     0.188 C 
ENDROOT
BRANCH   1   2
ATOM      2  C   UNL A   1      32.898  26.689  26.477  1.00  0.00     0.188 C 
BRANCH   2   3
ATOM      3  O   UNL A   1      31.123  26.483  26.623  1.00  0.00    -0.376 OA
BRANCH   3   4
ATOM      4  C   UNL A   1      29.989  25.100  26.570  1.00  0.00     0.202 C 
BRANCH   4   5
ATOM      5  C   UNL A   1      30.275  23.215  26.795  1.00  0.00     0.261 C 
BRANCH   5   6
ATOM      6  O   UNL A   1      31.811  22.256  26.654  1.00  0.00    -0.463 OA
BRANCH   6   7
ATOM      7  C   UNL A   1      33.158  22.210  26.142  1.00  0.00     0.310 C 
ATOM      8  O   UNL A   1      33.903  21.212  26.145  1.00  0.00    -0.252 OA
BRANCH   7   9
ATOM      9  C   UNL A   1      33.922  23.327  25.222  1.00  0.00     0.116 C 
ATOM     10  C   UNL A   1      33.965  23.752  23.711  1.00  0.00     0.097 C 
ATOM     11  C   UNL A   1      35.101  23.103  22.873  1.00  0.00     0.041 C 
ATOM     12  C   UNL A   1      36.423  23.127  23.568  1.00  0.00    -0.030 C 
ATOM     13  C   UNL A   1      35.379  23.557  25.809  1.00  0.00     0.043 C 
ATOM     14  C   UNL A   1      36.545  23.367  24.877  1.00  0.00    -0.030 C 
BRANCH  10  15
ATOM     15  C   UNL A   1      32.561  23.867  23.161  1.00  0.00     0.228 C 
ATOM     16  N   UNL A   1      31.986  25.000  22.701  1.00  0.00    -0.326 N 
ATOM     17  H   UNL A   1      31.130  24.807  22.254  1.00  0.00     0.169 HD
ATOM     18  O   UNL A   1      31.824  22.874  23.129  1.00  0.00    -0.274 OA
BRANCH  16  19
ATOM     19  C   UNL A   1      32.268  26.373  22.685  1.00  0.00     0.044 A 
ATOM     20  C   UNL A   1      29.937  26.668  23.586  1.00  0.00     0.047 C 
ATOM     21  C   UNL A   1      31.295  27.235  23.257  1.00  0.00    -0.015 A 
ATOM     22  C   UNL A   1      31.586  28.607  23.407  1.00  0.00     0.045 A 
ATOM     23  C   UNL A   1      33.461  26.907  22.197  1.00  0.00     0.026 A 
ATOM     24  C   UNL A   1      32.748  29.125  22.808  1.00  0.00     0.014 A 
ATOM     25  C   UNL A   1      33.666  28.285  22.185  1.00  0.00     0.003 A 
BRANCH  22  26
ATOM     26  C   UNL A   1      30.662  29.617  23.999  1.00  0.00     0.254 C 
ATOM     27  O   UNL A   1      30.897  29.960  25.160  1.00  0.00    -0.269 OA
ATOM     28  N   UNL A   1      29.601  30.164  23.283  1.00  0.00    -0.334 N 
ATOM     29  C   UNL A   1      28.931  29.638  22.084  1.00  0.00     0.148 C 
ATOM     30  C   UNL A   1      28.943  31.350  23.833  1.00  0.00     0.148 C 
ATOM     31  C   UNL A   1      28.668  30.758  21.054  1.00  0.00     0.181 C 
ATOM     32  C   UNL A   1      28.822  32.413  22.742  1.00  0.00     0.181 C 
ATOM     33  O   UNL A   1      28.041  31.910  21.645  1.00  0.00    -0.378 OA
ENDBRANCH  22  26
ENDBRANCH  16  19
ENDBRANCH  10  15
ENDBRANCH   7   9
ENDBRANCH   6   7
ENDBRANCH   5   6
ENDBRANCH   4   5
ENDBRANCH   3   4
ENDBRANCH   2   3
ENDBRANCH   1   2
BRANCH   1  34
ATOM     34  O   UNL A   1      34.040  29.262  26.863  1.00  0.00    -0.377 OA
BRANCH  34  35
ATOM     35  C   UNL A   1      34.929  29.559  27.933  1.00  0.00     0.188 C 
BRANCH  35  36
ATOM     36  C   UNL A   1      36.289  30.082  27.573  1.00  0.00     0.188 C 
BRANCH  36  37
ATOM     37  O   UNL A   1      37.212  29.279  28.282  1.00  0.00    -0.376 OA
BRANCH  37  38
ATOM     38  C   UNL A   1      38.559  29.481  27.911  1.00  0.00     0.202 C 
BRANCH  38  39
ATOM     39  C   UNL A   1      39.347  28.177  28.017  1.00  0.00     0.261 C 
BRANCH  39  40
ATOM     40  O   UNL A   1      39.960  27.916  26.733  1.00  0.00    -0.460 OA
BRANCH  40  41
ATOM     41  C   UNL A   1      40.674  26.751  26.650  1.00  0.00     0.338 C 
ATOM     42  O   UNL A   1      40.221  25.660  26.380  1.00  0.00    -0.246 OA
BRANCH  41  43
ATOM     43  C   UNL A   1      42.007  26.960  27.290  1.00  0.00     0.060 A 
ATOM     44  C   UNL A   1      42.321  26.336  28.483  1.00  0.00     0.016 A 
ATOM     45  C   UNL A   1      42.890  27.924  26.878  1.00  0.00     0.016 A 
ATOM     46  C   UNL A   1      43.173  26.992  29.409  1.00  0.00     0.010 A 
ATOM     47  C   UNL A   1      43.793  28.471  27.822  1.00  0.00     0.010 A 
ATOM     48  C   UNL A   1      43.630  28.309  29.242  1.00  0.00    -0.014 A 
BRANCH  48  49
ATOM     49  C   UNL A   1      43.631  29.542  30.614  1.00  0.00     0.031 A 
ATOM     50  C   UNL A   1      42.111  30.305  31.648  1.00  0.00     0.074 A 
ATOM     51  C   UNL A   1      44.926  30.015  30.667  1.00  0.00     0.049 A 
ATOM     52  N   UNL A   1      41.628  31.572  31.451  1.00  0.00    -0.248 NA
ATOM     53  C   UNL A   1      40.732  29.740  32.248  1.00  0.00     0.031 C 
ATOM     54  C   UNL A   1      45.507  30.780  31.710  1.00  0.00     0.029 A 
ATOM     55  N   UNL A   1      45.976  30.073  29.731  1.00  0.00    -0.354 N 
ATOM     56  C   UNL A   1      40.383  31.953  31.878  1.00  0.00     0.074 A 
ATOM     57  C   UNL A   1      39.797  30.705  32.178  1.00  0.00     0.031 C 
ATOM     58  C   UNL A   1      46.404  31.652  31.240  1.00  0.00     0.029 A 
ATOM     59  C   UNL A   1      46.610  31.310  29.882  1.00  0.00     0.049 A 
ATOM     60  H   UNL A   1      46.221  29.369  29.088  1.00  0.00     0.167 HD
ATOM     61  C   UNL A   1      39.953  33.259  31.999  1.00  0.00     0.037 A 
ATOM     62  C   UNL A   1      47.088  32.121  28.924  1.00  0.00     0.037 A 
ATOM     63  C   UNL A   1      41.033  34.274  31.908  1.00  0.00     0.049 A 
ATOM     64  C   UNL A   1      46.369  33.462  28.917  1.00  0.00     0.074 A 
ATOM     65  C   UNL A   1      41.763  34.943  32.885  1.00  0.00     0.029 A 
ATOM     66  N   UNL A   1      41.695  34.577  30.724  1.00  0.00    -0.354 N 
ATOM     67  N   UNL A   1      45.368  33.806  29.707  1.00  0.00    -0.248 NA
ATOM     68  C   UNL A   1      46.699  34.507  27.958  1.00  0.00     0.031 C 
ATOM     69  C   UNL A   1      42.961  35.458  32.303  1.00  0.00     0.029 A 
ATOM     70  C   UNL A   1      42.932  35.212  30.940  1.00  0.00     0.049 A 
ATOM     71  H   UNL A   1      41.338  34.370  29.830  1.00  0.00     0.167 HD
ATOM     72  C   UNL A   1      44.866  35.038  29.327  1.00  0.00     0.074 A 
ATOM     73  C   UNL A   1      45.759  35.426  28.231  1.00  0.00     0.031 C 
ATOM     74  C   UNL A   1      43.764  35.703  29.831  1.00  0.00     0.037 A 
BRANCH  61  75
ATOM     75  C   UNL A   1      38.574  33.539  32.619  1.00  0.00     0.064 A 
ATOM     76  C   UNL A   1      38.349  33.533  34.011  1.00  0.00     0.173 A 
ATOM     77  C   UNL A   1      37.408  33.755  31.850  1.00  0.00     0.173 A 
ATOM     78  F   UNL A   1      39.363  33.530  34.884  1.00  0.00    -0.203 F 
ATOM     79  C   UNL A   1      37.060  33.543  34.567  1.00  0.00     0.198 A 
ATOM     80  C   UNL A   1      36.117  33.693  32.396  1.00  0.00     0.198 A 
ATOM     81  F   UNL A   1      37.495  34.063  30.547  1.00  0.00    -0.203 F 
ATOM     82  F   UNL A   1      36.907  33.522  35.900  1.00  0.00    -0.200 F 
ATOM     83  C   UNL A   1      35.943  33.560  33.757  1.00  0.00     0.200 A 
ATOM     84  F   UNL A   1      35.044  33.753  31.592  1.00  0.00    -0.200 F 
ATOM     85  F   UNL A   1      34.712  33.491  34.285  1.00  0.00    -0.200 F 
ENDBRANCH  61  75
BRANCH  62  86
ATOM     86  C   UNL A   1      47.841  31.298  27.929  1.00  0.00     0.064 A 
ATOM     87  C   UNL A   1      49.002  30.686  28.484  1.00  0.00     0.173 A 
ATOM     88  C   UNL A   1      47.184  30.594  26.915  1.00  0.00     0.173 A 
ATOM     89  F   UNL A   1      49.680  31.315  29.459  1.00  0.00    -0.203 F 
ATOM     90  C   UNL A   1      49.298  29.342  28.252  1.00  0.00     0.198 A 
ATOM     91  C   UNL A   1      47.530  29.261  26.637  1.00  0.00     0.198 A 
ATOM     92  F   UNL A   1      46.089  31.111  26.341  1.00  0.00    -0.203 F 
ATOM     93  F   UNL A   1      50.209  28.715  29.013  1.00  0.00    -0.200 F 
ATOM     94  C   UNL A   1      48.531  28.619  27.358  1.00  0.00     0.200 A 
ATOM     95  F   UNL A   1      46.772  28.538  25.799  1.00  0.00    -0.200 F 
ATOM     96  F   UNL A   1      48.687  27.290  27.267  1.00  0.00    -0.200 F 
ENDBRANCH  62  86
BRANCH  74  97
ATOM     97  C   UNL A   1      43.361  37.048  29.273  1.00  0.00     0.064 A 
ATOM     98  C   UNL A   1      43.701  38.263  29.884  1.00  0.00     0.173 A 
ATOM     99  C   UNL A   1      42.546  37.133  28.125  1.00  0.00     0.173 A 
ATOM    100  F   UNL A   1      44.365  38.287  31.049  1.00  0.00    -0.203 F 
ATOM    101  C   UNL A   1      43.382  39.486  29.293  1.00  0.00     0.198 A 
ATOM    102  C   UNL A   1      42.152  38.354  27.588  1.00  0.00     0.198 A 
ATOM    103  F   UNL A   1      42.142  36.037  27.466  1.00  0.00    -0.203 F 
ATOM    104  F   UNL A   1      43.846  40.623  29.828  1.00  0.00    -0.200 F 
ATOM    105  C   UNL A   1      42.608  39.530  28.146  1.00  0.00     0.200 A 
ATOM    106  F   UNL A   1      41.357  38.379  26.510  1.00  0.00    -0.200 F 
ATOM    107  F   UNL A   1      42.314  40.703  27.571  1.00  0.00    -0.200 F 
ENDBRANCH  74  97
ENDBRANCH  48  49
ENDBRANCH  41  43
ENDBRANCH  40  41
ENDBRANCH  39  40
ENDBRANCH  38  39
ENDBRANCH  37  38
ENDBRANCH  36  37
ENDBRANCH  35  36
ENDBRANCH  34  35
ENDBRANCH   1  34
TORSDOF 23
ENDMDL
MODEL 3
REMARK VINA RESULT:     -12.2      2.717      6.329
REMARK SMILES Cc1c(NC(=O)[C@@H]2CC=CC[C@@H]2C(=O)OCCOCCOCCOCCOC(=O)c2ccc(-c3c4nc(c(-c5c(F)c(F)c(F)c(F)c5F)c5ccc([nH]5)c(-c5c(F)c(F)c(F)c(F)c5F)c5nc(c(-c6c(F)c(F)c(F)c(F)c6F)c6ccc3[nH]6)C=C5)C=C4)cc2)cccc1C(=O)N1CCOCC1
REMARK SMILES IDX 20 1 19 2 18 3 17 4 16 5 15 6 13 7 14 8 12 9 7 10 8 11 9 12
REMARK SMILES IDX 11 13 10 14 5 15 4 16 6 18 3 19 1 20 2 21 96 22 93 23 95 24
REMARK SMILES IDX 94 25 97 26 98 27 99 28 100 29 104 30 101 31 103 32 102 33
REMARK SMILES IDX 21 34 22 35 23 36 24 37 25 38 26 39 27 40 28 41 29 42 30 43
REMARK SMILES IDX 31 44 92 45 32 46 91 47 33 48 34 49 35 50 85 51 36 52 90 53
REMARK SMILES IDX 84 54 86 55 37 56 89 57 83 58 82 59 38 61 70 62 50 63 69 64
REMARK SMILES IDX 51 65 54 66 68 67 87 68 52 69 53 70 67 72 88 73 55 74 39 75
REMARK SMILES IDX 40 76 48 77 41 78 42 79 46 80 49 81 43 82 44 83 47 84 45 85
REMARK SMILES IDX 71 86 72 87 80 88 73 89 74 90 78 91 81 92 75 93 76 94 79 95
REMARK SMILES IDX 77 96 56 97 57 98 65 99 58 100 59 101 63 102 66 103 60 104
REMARK SMILES IDX 61 105 64 106 62 107
REMARK H PARENT 4 17 86 60 54 71
REMARK Flexibility Score: inf
ROOT
ATOM      1  C   UNL A   1      41.876  20.569  26.216  1.00  0.00     0.188 C 
ENDROOT
BRANCH   1   2
ATOM      2  C   UNL A   1      40.362  19.819  26.184  1.00  0.00     0.188 C 
BRANCH   2   3
ATOM      3  O   UNL A   1      38.778  20.242  25.457  1.00  0.00    -0.376 OA
BRANCH   3   4
ATOM      4  C   UNL A   1      37.826  21.743  25.253  1.00  0.00     0.202 C 
BRANCH   4   5
ATOM      5  C   UNL A   1      37.104  22.584  23.685  1.00  0.00     0.261 C 
BRANCH   5   6
ATOM      6  O   UNL A   1      35.426  23.205  23.378  1.00  0.00    -0.463 OA
BRANCH   6   7
ATOM      7  C   UNL A   1      34.060  22.872  23.058  1.00  0.00     0.310 C 
ATOM      8  O   UNL A   1      33.476  23.144  21.992  1.00  0.00    -0.252 OA
BRANCH   7   9
ATOM      9  C   UNL A   1      33.057  21.861  23.864  1.00  0.00     0.116 C 
ATOM     10  C   UNL A   1      33.103  20.968  25.155  1.00  0.00     0.097 C 
ATOM     11  C   UNL A   1      33.496  19.483  24.919  1.00  0.00     0.041 C 
ATOM     12  C   UNL A   1      32.784  18.871  23.756  1.00  0.00    -0.030 C 
ATOM     13  C   UNL A   1      32.144  21.105  22.809  1.00  0.00     0.043 C 
ATOM     14  C   UNL A   1      32.149  19.599  22.834  1.00  0.00    -0.030 C 
BRANCH  10  15
ATOM     15  C   UNL A   1      33.679  21.751  26.312  1.00  0.00     0.228 C 
ATOM     16  N   UNL A   1      33.129  22.850  26.872  1.00  0.00    -0.326 N 
ATOM     17  H   UNL A   1      33.597  23.097  27.703  1.00  0.00     0.169 HD
ATOM     18  O   UNL A   1      34.760  21.413  26.811  1.00  0.00    -0.274 OA
BRANCH  16  19
ATOM     19  C   UNL A   1      32.077  23.737  26.599  1.00  0.00     0.044 A 
ATOM     20  C   UNL A   1      33.881  25.417  26.091  1.00  0.00     0.047 C 
ATOM     21  C   UNL A   1      32.430  25.007  26.069  1.00  0.00    -0.015 A 
ATOM     22  C   UNL A   1      31.414  25.882  25.634  1.00  0.00     0.045 A 
ATOM     23  C   UNL A   1      30.733  23.408  26.766  1.00  0.00     0.026 A 
ATOM     24  C   UNL A   1      30.074  25.564  25.916  1.00  0.00     0.014 A 
ATOM     25  C   UNL A   1      29.737  24.347  26.502  1.00  0.00     0.003 A 
BRANCH  22  26
ATOM     26  C   UNL A   1      31.645  27.235  25.050  1.00  0.00     0.254 C 
ATOM     27  O   UNL A   1      31.355  28.197  25.765  1.00  0.00    -0.269 OA
ATOM     28  N   UNL A   1      32.178  27.414  23.776  1.00  0.00    -0.334 N 
ATOM     29  C   UNL A   1      32.224  26.463  22.656  1.00  0.00     0.148 C 
ATOM     30  C   UNL A   1      32.644  28.753  23.411  1.00  0.00     0.148 C 
ATOM     31  C   UNL A   1      33.600  26.491  21.956  1.00  0.00     0.181 C 
ATOM     32  C   UNL A   1      34.047  28.653  22.813  1.00  0.00     0.181 C 
ATOM     33  O   UNL A   1      34.026  27.827  21.637  1.00  0.00    -0.378 OA
ENDBRANCH  22  26
ENDBRANCH  16  19
ENDBRANCH  10  15
ENDBRANCH   7   9
ENDBRANCH   6   7
ENDBRANCH   5   6
ENDBRANCH   4   5
ENDBRANCH   3   4
ENDBRANCH   2   3
ENDBRANCH   1   2
BRANCH   1  34
ATOM     34  O   UNL A   1      42.790  20.857  25.133  1.00  0.00    -0.377 OA
BRANCH  34  35
ATOM     35  C   UNL A   1      43.514  22.060  24.909  1.00  0.00     0.188 C 
BRANCH  35  36
ATOM     36  C   UNL A   1      44.880  21.938  24.300  1.00  0.00     0.188 C 
BRANCH  36  37
ATOM     37  O   UNL A   1      45.616  23.045  24.781  1.00  0.00    -0.376 OA
BRANCH  37  38
ATOM     38  C   UNL A   1      46.100  22.891  26.098  1.00  0.00     0.202 C 
BRANCH  38  39
ATOM     39  C   UNL A   1      45.897  24.177  26.898  1.00  0.00     0.261 C 
BRANCH  39  40
ATOM     40  O   UNL A   1      47.197  24.758  27.152  1.00  0.00    -0.460 OA
BRANCH  40  41
ATOM     41  C   UNL A   1      47.593  25.721  26.264  1.00  0.00     0.338 C 
ATOM     42  O   UNL A   1      48.029  25.522  25.151  1.00  0.00    -0.246 OA
BRANCH  41  43
ATOM     43  C   UNL A   1      47.749  27.013  26.996  1.00  0.00     0.060 A 
ATOM     44  C   UNL A   1      47.110  27.220  28.205  1.00  0.00     0.016 A 
ATOM     45  C   UNL A   1      48.326  28.123  26.436  1.00  0.00     0.016 A 
ATOM     46  C   UNL A   1      46.668  28.525  28.543  1.00  0.00     0.010 A 
ATOM     47  C   UNL A   1      47.923  29.404  26.888  1.00  0.00     0.010 A 
ATOM     48  C   UNL A   1      46.730  29.617  27.664  1.00  0.00    -0.014 A 
BRANCH  48  49
ATOM     49  C   UNL A   1      45.328  30.794  27.439  1.00  0.00     0.031 A 
ATOM     50  C   UNL A   1      45.144  32.688  28.022  1.00  0.00     0.074 A 
ATOM     51  C   UNL A   1      44.296  30.028  26.940  1.00  0.00     0.049 A 
ATOM     52  N   UNL A   1      44.377  33.076  29.088  1.00  0.00    -0.248 NA
ATOM     53  C   UNL A   1      46.115  33.966  28.098  1.00  0.00     0.031 C 
ATOM     54  C   UNL A   1      43.093  30.501  26.356  1.00  0.00     0.029 A 
ATOM     55  N   UNL A   1      43.997  28.652  26.991  1.00  0.00    -0.354 N 
ATOM     56  C   UNL A   1      44.544  34.288  29.705  1.00  0.00     0.074 A 
ATOM     57  C   UNL A   1      45.783  34.704  29.173  1.00  0.00     0.031 C 
ATOM     58  C   UNL A   1      42.063  29.693  26.627  1.00  0.00     0.029 A 
ATOM     59  C   UNL A   1      42.620  28.526  27.202  1.00  0.00     0.049 A 
ATOM     60  H   UNL A   1      44.640  27.914  26.895  1.00  0.00     0.167 HD
ATOM     61  C   UNL A   1      43.632  34.874  30.559  1.00  0.00     0.037 A 
ATOM     62  C   UNL A   1      41.977  27.643  27.984  1.00  0.00     0.037 A 
ATOM     63  C   UNL A   1      42.290  34.236  30.560  1.00  0.00     0.049 A 
ATOM     64  C   UNL A   1      41.210  28.339  29.099  1.00  0.00     0.074 A 
ATOM     65  C   UNL A   1      41.115  34.546  29.885  1.00  0.00     0.029 A 
ATOM     66  N   UNL A   1      42.043  32.986  31.116  1.00  0.00    -0.354 N 
ATOM     67  N   UNL A   1      41.190  29.640  29.328  1.00  0.00    -0.248 NA
ATOM     68  C   UNL A   1      40.443  27.593  30.086  1.00  0.00     0.031 C 
ATOM     69  C   UNL A   1      40.267  33.397  29.870  1.00  0.00     0.029 A 
ATOM     70  C   UNL A   1      40.859  32.401  30.630  1.00  0.00     0.049 A 
ATOM     71  H   UNL A   1      42.633  32.555  31.776  1.00  0.00     0.167 HD
ATOM     72  C   UNL A   1      40.512  29.904  30.503  1.00  0.00     0.074 A 
ATOM     73  C   UNL A   1      40.057  28.574  30.919  1.00  0.00     0.031 C 
ATOM     74  C   UNL A   1      40.352  31.119  31.143  1.00  0.00     0.037 A 
BRANCH  61  75
ATOM     75  C   UNL A   1      43.894  36.300  31.073  1.00  0.00     0.064 A 
ATOM     76  C   UNL A   1      44.150  36.585  32.431  1.00  0.00     0.173 A 
ATOM     77  C   UNL A   1      43.832  37.444  30.248  1.00  0.00     0.173 A 
ATOM     78  F   UNL A   1      44.426  35.615  33.310  1.00  0.00    -0.203 F 
ATOM     79  C   UNL A   1      44.144  37.894  32.940  1.00  0.00     0.198 A 
ATOM     80  C   UNL A   1      43.754  38.748  30.762  1.00  0.00     0.198 A 
ATOM     81  F   UNL A   1      43.875  37.328  28.911  1.00  0.00    -0.203 F 
ATOM     82  F   UNL A   1      44.381  38.103  34.244  1.00  0.00    -0.200 F 
ATOM     83  C   UNL A   1      43.885  38.969  32.116  1.00  0.00     0.200 A 
ATOM     84  F   UNL A   1      43.542  39.785  29.937  1.00  0.00    -0.200 F 
ATOM     85  F   UNL A   1      43.803  40.211  32.616  1.00  0.00    -0.200 F 
ENDBRANCH  61  75
BRANCH  62  86
ATOM     86  C   UNL A   1      42.570  26.288  27.768  1.00  0.00     0.064 A 
ATOM     87  C   UNL A   1      43.369  25.854  28.865  1.00  0.00     0.173 A 
ATOM     88  C   UNL A   1      41.888  25.296  27.057  1.00  0.00     0.173 A 
ATOM     89  F   UNL A   1      44.053  26.759  29.586  1.00  0.00    -0.203 F 
ATOM     90  C   UNL A   1      43.247  24.566  29.390  1.00  0.00     0.198 A 
ATOM     91  C   UNL A   1      41.823  23.983  27.553  1.00  0.00     0.198 A 
ATOM     92  F   UNL A   1      41.122  25.629  26.009  1.00  0.00    -0.203 F 
ATOM     93  F   UNL A   1      43.777  24.278  30.589  1.00  0.00    -0.200 F 
ATOM     94  C   UNL A   1      42.438  23.644  28.754  1.00  0.00     0.200 A 
ATOM     95  F   UNL A   1      41.013  23.090  26.966  1.00  0.00    -0.200 F 
ATOM     96  F   UNL A   1      42.169  22.471  29.346  1.00  0.00    -0.200 F 
ENDBRANCH  62  86
BRANCH  74  97
ATOM     97  C   UNL A   1      39.581  31.206  32.439  1.00  0.00     0.064 A 
ATOM     98  C   UNL A   1      40.133  30.867  33.682  1.00  0.00     0.173 A 
ATOM     99  C   UNL A   1      38.219  31.574  32.440  1.00  0.00     0.173 A 
ATOM    100  F   UNL A   1      41.381  30.384  33.774  1.00  0.00    -0.203 F 
ATOM    101  C   UNL A   1      39.415  31.040  34.866  1.00  0.00     0.198 A 
ATOM    102  C   UNL A   1      37.478  31.658  33.614  1.00  0.00     0.198 A 
ATOM    103  F   UNL A   1      37.577  31.901  31.309  1.00  0.00    -0.203 F 
ATOM    104  F   UNL A   1      40.021  30.844  36.045  1.00  0.00    -0.200 F 
ATOM    105  C   UNL A   1      38.089  31.436  34.831  1.00  0.00     0.200 A 
ATOM    106  F   UNL A   1      36.181  31.988  33.558  1.00  0.00    -0.200 F 
ATOM    107  F   UNL A   1      37.405  31.616  35.968  1.00  0.00    -0.200 F 
ENDBRANCH  74  97
ENDBRANCH  48  49
ENDBRANCH  41  43
ENDBRANCH  40  41
ENDBRANCH  39  40
ENDBRANCH  38  39
ENDBRANCH  37  38
ENDBRANCH  36  37
ENDBRANCH  35  36
ENDBRANCH  34  35
ENDBRANCH   1  34
TORSDOF 23
ENDMDL
