MODEL 1
REMARK VINA RESULT:     -10.7      0.000      0.000
REMARK SMILES CC[C@@H]1CCC[C@@](C[C@@H]2CSc3ccccc32)(C(=O)OCCOCCOCCOCCOC(=O)c2ccc(-c3c4nc(c(-c5c(F)c(F)c(F)c(F)c5F)c5ccc([nH]5)c(-c5c(F)c(F)c(F)c(F)c5F)c5nc(c(-c6c(F)c(F)c(F)c(F)c6F)c6ccc3[nH]6)C=C5)C=C4)cc2)C1
REMARK SMILES IDX 26 1 25 2 24 3 23 4 22 5 21 6 20 7 18 8 19 9 7 10 3 11 4 12
REMARK SMILES IDX 98 13 5 14 6 15 2 16 1 17 8 18 9 19 10 20 17 21 11 22 12 23
REMARK SMILES IDX 16 24 13 25 15 26 14 27 27 28 28 29 29 30 30 31 31 32 32 33
REMARK SMILES IDX 33 34 34 35 35 36 36 37 97 38 37 39 96 40 38 41 39 42 40 43
REMARK SMILES IDX 90 44 41 45 95 46 89 47 91 48 42 49 94 50 88 51 87 52 43 54
REMARK SMILES IDX 75 55 55 56 74 57 56 58 59 59 73 60 92 61 57 62 58 63 72 65
REMARK SMILES IDX 93 66 60 67 44 68 45 69 53 70 46 71 47 72 51 73 54 74 48 75
REMARK SMILES IDX 49 76 52 77 50 78 76 79 77 80 85 81 78 82 79 83 83 84 86 85
REMARK SMILES IDX 80 86 81 87 84 88 82 89 61 90 62 91 70 92 63 93 64 94 68 95
REMARK SMILES IDX 71 96 65 97 66 98 69 99 67 100
REMARK H PARENT 91 53 59 64
REMARK Flexibility Score: inf
ROOT
ATOM      1  O   UNL A   1      41.709  20.220  25.758  1.00  0.00    -0.377 OA
ENDROOT
BRANCH   1   2
ATOM      2  C   UNL A   1      40.619  20.383  26.644  1.00  0.00     0.188 C 
BRANCH   2   3
ATOM      3  C   UNL A   1      40.076  21.803  26.764  1.00  0.00     0.188 C 
BRANCH   3   4
ATOM      4  O   UNL A   1      38.833  22.071  26.139  1.00  0.00    -0.376 OA
BRANCH   4   5
ATOM      5  C   UNL A   1      38.260  21.030  25.344  1.00  0.00     0.202 C 
BRANCH   5   6
ATOM      6  C   UNL A   1      36.734  21.005  25.151  1.00  0.00     0.261 C 
BRANCH   6   7
ATOM      7  O   UNL A   1      36.118  22.321  25.099  1.00  0.00    -0.463 OA
BRANCH   7   8
ATOM      8  C   UNL A   1      35.150  22.577  26.016  1.00  0.00     0.312 C 
ATOM      9  O   UNL A   1      35.084  21.987  27.092  1.00  0.00    -0.252 OA
BRANCH   8  10
ATOM     10  C   UNL A   1      34.037  23.551  25.550  1.00  0.00     0.069 C 
ATOM     11  C   UNL A   1      32.515  21.834  24.304  1.00  0.00    -0.010 C 
ATOM     12  C   UNL A   1      31.265  22.343  25.020  1.00  0.00     0.003 C 
ATOM     13  C   UNL A   1      33.518  23.001  24.163  1.00  0.00     0.022 C 
ATOM     14  C   UNL A   1      31.586  22.878  26.397  1.00  0.00     0.001 C 
ATOM     15  C   UNL A   1      32.822  23.763  26.473  1.00  0.00     0.019 C 
BRANCH  11  16
ATOM     16  C   UNL A   1      32.161  21.178  22.957  1.00  0.00     0.000 C 
ATOM     17  C   UNL A   1      32.284  19.654  22.994  1.00  0.00     0.004 C 
ENDBRANCH  11  16
BRANCH  10  18
ATOM     18  C   UNL A   1      34.805  24.921  25.288  1.00  0.00     0.028 C 
BRANCH  18  19
ATOM     19  C   UNL A   1      34.083  26.302  25.093  1.00  0.00     0.032 C 
ATOM     20  C   UNL A   1      33.225  26.831  26.256  1.00  0.00     0.083 C 
ATOM     21  C   UNL A   1      33.241  26.395  23.842  1.00  0.00    -0.030 A 
ATOM     22  S   UNL A   1      31.470  26.791  25.772  1.00  0.00    -0.125 SA
ATOM     23  C   UNL A   1      31.867  26.544  24.065  1.00  0.00     0.011 A 
ATOM     24  C   UNL A   1      33.723  26.193  22.549  1.00  0.00     0.005 A 
ATOM     25  C   UNL A   1      30.957  26.385  23.029  1.00  0.00     0.015 A 
ATOM     26  C   UNL A   1      32.813  26.046  21.501  1.00  0.00     0.000 A 
ATOM     27  C   UNL A   1      31.437  26.117  21.743  1.00  0.00     0.001 A 
ENDBRANCH  18  19
ENDBRANCH  10  18
ENDBRANCH   8  10
ENDBRANCH   7   8
ENDBRANCH   6   7
ENDBRANCH   5   6
ENDBRANCH   4   5
ENDBRANCH   3   4
ENDBRANCH   2   3
ENDBRANCH   1   2
BRANCH   1  28
ATOM     28  C   UNL A   1      42.488  19.033  25.820  1.00  0.00     0.188 C 
BRANCH  28  29
ATOM     29  C   UNL A   1      43.847  19.015  25.112  1.00  0.00     0.188 C 
BRANCH  29  30
ATOM     30  O   UNL A   1      44.228  20.173  24.362  1.00  0.00    -0.376 OA
BRANCH  30  31
ATOM     31  C   UNL A   1      45.402  20.890  24.737  1.00  0.00     0.202 C 
BRANCH  31  32
ATOM     32  C   UNL A   1      45.230  21.873  25.895  1.00  0.00     0.261 C 
BRANCH  32  33
ATOM     33  O   UNL A   1      44.107  22.745  25.686  1.00  0.00    -0.460 OA
BRANCH  33  34
ATOM     34  C   UNL A   1      44.399  24.034  25.403  1.00  0.00     0.338 C 
ATOM     35  O   UNL A   1      44.969  24.471  24.417  1.00  0.00    -0.246 OA
BRANCH  34  36
ATOM     36  C   UNL A   1      43.754  24.889  26.418  1.00  0.00     0.060 A 
ATOM     37  C   UNL A   1      42.716  24.392  27.209  1.00  0.00     0.016 A 
ATOM     38  C   UNL A   1      44.214  26.201  26.584  1.00  0.00     0.016 A 
ATOM     39  C   UNL A   1      42.152  25.208  28.190  1.00  0.00     0.010 A 
ATOM     40  C   UNL A   1      43.640  27.019  27.557  1.00  0.00     0.010 A 
ATOM     41  C   UNL A   1      42.621  26.519  28.379  1.00  0.00    -0.014 A 
BRANCH  41  42
ATOM     42  C   UNL A   1      42.141  27.311  29.532  1.00  0.00     0.031 A 
ATOM     43  C   UNL A   1      42.843  27.270  30.851  1.00  0.00     0.074 A 
ATOM     44  C   UNL A   1      41.046  28.074  29.358  1.00  0.00     0.049 A 
ATOM     45  N   UNL A   1      42.575  27.943  31.943  1.00  0.00    -0.248 NA
ATOM     46  C   UNL A   1      43.993  26.361  30.966  1.00  0.00     0.031 C 
ATOM     47  C   UNL A   1      40.279  28.166  28.115  1.00  0.00     0.029 A 
ATOM     48  N   UNL A   1      40.393  28.917  30.220  1.00  0.00    -0.354 N 
ATOM     49  C   UNL A   1      43.532  27.555  32.870  1.00  0.00     0.074 A 
ATOM     50  C   UNL A   1      44.364  26.559  32.225  1.00  0.00     0.031 C 
ATOM     51  C   UNL A   1      39.266  29.029  28.290  1.00  0.00     0.029 A 
ATOM     52  C   UNL A   1      39.301  29.532  29.659  1.00  0.00     0.049 A 
ATOM     53  H   UNL A   1      40.679  29.067  31.150  1.00  0.00     0.167 HD
ATOM     54  C   UNL A   1      43.701  28.009  34.135  1.00  0.00     0.037 A 
ATOM     55  C   UNL A   1      38.425  30.404  30.193  1.00  0.00     0.037 A 
ATOM     56  C   UNL A   1      42.859  28.995  34.766  1.00  0.00     0.049 A 
ATOM     57  C   UNL A   1      38.619  30.856  31.613  1.00  0.00     0.074 A 
ATOM     58  C   UNL A   1      42.973  29.540  36.034  1.00  0.00     0.029 A 
ATOM     59  N   UNL A   1      41.742  29.575  34.183  1.00  0.00    -0.354 N 
ATOM     60  N   UNL A   1      39.562  30.530  32.462  1.00  0.00    -0.248 NA
ATOM     61  C   UNL A   1      37.632  31.806  32.144  1.00  0.00     0.031 C 
ATOM     62  C   UNL A   1      41.899  30.412  36.235  1.00  0.00     0.029 A 
ATOM     63  C   UNL A   1      41.143  30.452  35.075  1.00  0.00     0.049 A 
ATOM     64  H   UNL A   1      41.421  29.391  33.270  1.00  0.00     0.167 HD
ATOM     65  C   UNL A   1      39.294  31.242  33.622  1.00  0.00     0.074 A 
ATOM     66  C   UNL A   1      38.114  32.040  33.357  1.00  0.00     0.031 C 
ATOM     67  C   UNL A   1      39.961  31.231  34.801  1.00  0.00     0.037 A 
BRANCH  54  68
ATOM     68  C   UNL A   1      44.845  27.455  34.932  1.00  0.00     0.064 A 
ATOM     69  C   UNL A   1      46.093  28.094  34.956  1.00  0.00     0.173 A 
ATOM     70  C   UNL A   1      44.665  26.333  35.755  1.00  0.00     0.173 A 
ATOM     71  F   UNL A   1      46.316  29.170  34.186  1.00  0.00    -0.203 F 
ATOM     72  C   UNL A   1      47.122  27.626  35.771  1.00  0.00     0.198 A 
ATOM     73  C   UNL A   1      45.688  25.883  36.587  1.00  0.00     0.198 A 
ATOM     74  F   UNL A   1      43.488  25.690  35.775  1.00  0.00    -0.203 F 
ATOM     75  F   UNL A   1      48.312  28.241  35.765  1.00  0.00    -0.200 F 
ATOM     76  C   UNL A   1      46.915  26.529  36.593  1.00  0.00     0.200 A 
ATOM     77  F   UNL A   1      45.480  24.832  37.392  1.00  0.00    -0.200 F 
ATOM     78  F   UNL A   1      47.898  26.094  37.394  1.00  0.00    -0.200 F 
ENDBRANCH  54  68
BRANCH  55  79
ATOM     79  C   UNL A   1      37.303  30.918  29.367  1.00  0.00     0.064 A 
ATOM     80  C   UNL A   1      36.200  30.109  29.068  1.00  0.00     0.173 A 
ATOM     81  C   UNL A   1      37.306  32.230  28.874  1.00  0.00     0.173 A 
ATOM     82  F   UNL A   1      36.162  28.840  29.502  1.00  0.00    -0.203 F 
ATOM     83  C   UNL A   1      35.147  30.589  28.292  1.00  0.00     0.198 A 
ATOM     84  C   UNL A   1      36.239  32.718  28.122  1.00  0.00     0.198 A 
ATOM     85  F   UNL A   1      38.337  33.046  29.137  1.00  0.00    -0.203 F 
ATOM     86  F   UNL A   1      34.121  29.782  27.987  1.00  0.00    -0.200 F 
ATOM     87  C   UNL A   1      35.163  31.894  27.827  1.00  0.00     0.200 A 
ATOM     88  F   UNL A   1      36.252  33.986  27.687  1.00  0.00    -0.200 F 
ATOM     89  F   UNL A   1      34.146  32.358  27.087  1.00  0.00    -0.200 F 
ENDBRANCH  55  79
BRANCH  67  90
ATOM     90  C   UNL A   1      39.431  32.112  35.895  1.00  0.00     0.064 A 
ATOM     91  C   UNL A   1      38.497  31.639  36.828  1.00  0.00     0.173 A 
ATOM     92  C   UNL A   1      39.886  33.433  36.033  1.00  0.00     0.173 A 
ATOM     93  F   UNL A   1      38.020  30.388  36.731  1.00  0.00    -0.203 F 
ATOM     94  C   UNL A   1      38.018  32.463  37.844  1.00  0.00     0.198 A 
ATOM     95  C   UNL A   1      39.427  34.244  37.068  1.00  0.00     0.198 A 
ATOM     96  F   UNL A   1      40.783  33.933  35.171  1.00  0.00    -0.203 F 
ATOM     97  F   UNL A   1      37.088  32.004  38.693  1.00  0.00    -0.200 F 
ATOM     98  C   UNL A   1      38.489  33.761  37.967  1.00  0.00     0.200 A 
ATOM     99  F   UNL A   1      39.893  35.493  37.194  1.00  0.00    -0.200 F 
ATOM    100  F   UNL A   1      38.030  34.551  38.948  1.00  0.00    -0.200 F 
ENDBRANCH  67  90
ENDBRANCH  41  42
ENDBRANCH  34  36
ENDBRANCH  33  34
ENDBRANCH  32  33
ENDBRANCH  31  32
ENDBRANCH  30  31
ENDBRANCH  29  30
ENDBRANCH  28  29
ENDBRANCH   1  28
TORSDOF 23
ENDMDL
MODEL 2
REMARK VINA RESULT:     -10.6      1.340      7.261
REMARK SMILES CC[C@@H]1CCC[C@@](C[C@@H]2CSc3ccccc32)(C(=O)OCCOCCOCCOCCOC(=O)c2ccc(-c3c4nc(c(-c5c(F)c(F)c(F)c(F)c5F)c5ccc([nH]5)c(-c5c(F)c(F)c(F)c(F)c5F)c5nc(c(-c6c(F)c(F)c(F)c(F)c6F)c6ccc3[nH]6)C=C5)C=C4)cc2)C1
REMARK SMILES IDX 26 1 25 2 24 3 23 4 22 5 21 6 20 7 18 8 19 9 7 10 3 11 4 12
REMARK SMILES IDX 98 13 5 14 6 15 2 16 1 17 8 18 9 19 10 20 17 21 11 22 12 23
REMARK SMILES IDX 16 24 13 25 15 26 14 27 27 28 28 29 29 30 30 31 31 32 32 33
REMARK SMILES IDX 33 34 34 35 35 36 36 37 97 38 37 39 96 40 38 41 39 42 40 43
REMARK SMILES IDX 90 44 41 45 95 46 89 47 91 48 42 49 94 50 88 51 87 52 43 54
REMARK SMILES IDX 75 55 55 56 74 57 56 58 59 59 73 60 92 61 57 62 58 63 72 65
REMARK SMILES IDX 93 66 60 67 44 68 45 69 53 70 46 71 47 72 51 73 54 74 48 75
REMARK SMILES IDX 49 76 52 77 50 78 76 79 77 80 85 81 78 82 79 83 83 84 86 85
REMARK SMILES IDX 80 86 81 87 84 88 82 89 61 90 62 91 70 92 63 93 64 94 68 95
REMARK SMILES IDX 71 96 65 97 66 98 69 99 67 100
REMARK H PARENT 91 53 59 64
REMARK Flexibility Score: inf
ROOT
ATOM      1  O   UNL A   1      40.463  23.788  27.115  1.00  0.00    -0.377 OA
ENDROOT
BRANCH   1   2
ATOM      2  C   UNL A   1      39.161  24.290  27.340  1.00  0.00     0.188 C 
BRANCH   2   3
ATOM      3  C   UNL A   1      38.200  24.179  26.160  1.00  0.00     0.188 C 
BRANCH   3   4
ATOM      4  O   UNL A   1      37.344  23.050  26.133  1.00  0.00    -0.376 OA
BRANCH   4   5
ATOM      5  C   UNL A   1      37.477  22.150  25.031  1.00  0.00     0.202 C 
BRANCH   5   6
ATOM      6  C   UNL A   1      36.704  22.451  23.735  1.00  0.00     0.261 C 
BRANCH   6   7
ATOM      7  O   UNL A   1      35.734  23.528  23.855  1.00  0.00    -0.463 OA
BRANCH   7   8
ATOM      8  C   UNL A   1      34.491  23.286  23.368  1.00  0.00     0.312 C 
ATOM      9  O   UNL A   1      34.252  23.222  22.165  1.00  0.00    -0.252 OA
BRANCH   8  10
ATOM     10  C   UNL A   1      33.360  23.251  24.428  1.00  0.00     0.069 C 
ATOM     11  C   UNL A   1      33.647  20.779  25.221  1.00  0.00    -0.010 C 
ATOM     12  C   UNL A   1      33.641  21.194  26.690  1.00  0.00     0.003 C 
ATOM     13  C   UNL A   1      32.786  21.779  24.417  1.00  0.00     0.022 C 
ATOM     14  C   UNL A   1      34.201  22.584  26.884  1.00  0.00     0.001 C 
ATOM     15  C   UNL A   1      33.714  23.621  25.882  1.00  0.00     0.019 C 
BRANCH  11  16
ATOM     16  C   UNL A   1      33.193  19.318  25.048  1.00  0.00     0.000 C 
ATOM     17  C   UNL A   1      34.280  18.430  24.440  1.00  0.00     0.004 C 
ENDBRANCH  11  16
BRANCH  10  18
ATOM     18  C   UNL A   1      32.247  24.226  23.843  1.00  0.00     0.028 C 
BRANCH  18  19
ATOM     19  C   UNL A   1      31.645  25.439  24.636  1.00  0.00     0.032 C 
ATOM     20  C   UNL A   1      30.118  25.632  24.597  1.00  0.00     0.083 C 
ATOM     21  C   UNL A   1      32.268  26.775  24.303  1.00  0.00    -0.030 A 
ATOM     22  S   UNL A   1      29.727  27.135  23.646  1.00  0.00    -0.125 SA
ATOM     23  C   UNL A   1      31.406  27.694  23.695  1.00  0.00     0.011 A 
ATOM     24  C   UNL A   1      33.628  27.062  24.424  1.00  0.00     0.005 A 
ATOM     25  C   UNL A   1      31.900  28.850  23.107  1.00  0.00     0.015 A 
ATOM     26  C   UNL A   1      34.128  28.230  23.846  1.00  0.00     0.000 A 
ATOM     27  C   UNL A   1      33.273  29.108  23.170  1.00  0.00     0.001 A 
ENDBRANCH  18  19
ENDBRANCH  10  18
ENDBRANCH   8  10
ENDBRANCH   7   8
ENDBRANCH   6   7
ENDBRANCH   5   6
ENDBRANCH   4   5
ENDBRANCH   3   4
ENDBRANCH   2   3
ENDBRANCH   1   2
BRANCH   1  28
ATOM     28  C   UNL A   1      40.799  22.486  27.576  1.00  0.00     0.188 C 
BRANCH  28  29
ATOM     29  C   UNL A   1      41.084  21.395  26.539  1.00  0.00     0.188 C 
BRANCH  29  30
ATOM     30  O   UNL A   1      41.906  21.735  25.417  1.00  0.00    -0.376 OA
BRANCH  30  31
ATOM     31  C   UNL A   1      43.283  22.040  25.630  1.00  0.00     0.202 C 
BRANCH  31  32
ATOM     32  C   UNL A   1      43.922  22.952  24.583  1.00  0.00     0.261 C 
BRANCH  32  33
ATOM     33  O   UNL A   1      43.611  24.334  24.825  1.00  0.00    -0.460 OA
BRANCH  33  34
ATOM     34  C   UNL A   1      44.640  25.115  25.224  1.00  0.00     0.338 C 
ATOM     35  O   UNL A   1      45.703  25.297  24.655  1.00  0.00    -0.246 OA
BRANCH  34  36
ATOM     36  C   UNL A   1      44.210  25.876  26.412  1.00  0.00     0.060 A 
ATOM     37  C   UNL A   1      44.414  27.256  26.484  1.00  0.00     0.016 A 
ATOM     38  C   UNL A   1      43.578  25.192  27.458  1.00  0.00     0.016 A 
ATOM     39  C   UNL A   1      43.960  27.958  27.600  1.00  0.00     0.010 A 
ATOM     40  C   UNL A   1      43.136  25.894  28.579  1.00  0.00     0.010 A 
ATOM     41  C   UNL A   1      43.306  27.284  28.645  1.00  0.00    -0.014 A 
BRANCH  41  42
ATOM     42  C   UNL A   1      42.674  28.058  29.736  1.00  0.00     0.031 A 
ATOM     43  C   UNL A   1      41.361  28.747  29.543  1.00  0.00     0.074 A 
ATOM     44  C   UNL A   1      43.320  28.125  30.915  1.00  0.00     0.049 A 
ATOM     45  N   UNL A   1      40.655  29.424  30.414  1.00  0.00    -0.248 NA
ATOM     46  C   UNL A   1      40.760  28.671  28.204  1.00  0.00     0.031 C 
ATOM     47  C   UNL A   1      44.615  27.504  31.196  1.00  0.00     0.029 A 
ATOM     48  N   UNL A   1      42.978  28.739  32.092  1.00  0.00    -0.354 N 
ATOM     49  C   UNL A   1      39.517  29.839  29.738  1.00  0.00     0.074 A 
ATOM     50  C   UNL A   1      39.644  29.371  28.372  1.00  0.00     0.031 C 
ATOM     51  C   UNL A   1      44.953  27.756  32.470  1.00  0.00     0.029 A 
ATOM     52  C   UNL A   1      43.911  28.571  33.085  1.00  0.00     0.049 A 
ATOM     53  H   UNL A   1      42.145  29.248  32.214  1.00  0.00     0.167 HD
ATOM     54  C   UNL A   1      38.461  30.531  30.227  1.00  0.00     0.037 A 
ATOM     55  C   UNL A   1      43.924  29.028  34.352  1.00  0.00     0.037 A 
ATOM     56  C   UNL A   1      38.352  30.997  31.588  1.00  0.00     0.049 A 
ATOM     57  C   UNL A   1      42.753  29.827  34.851  1.00  0.00     0.074 A 
ATOM     58  C   UNL A   1      37.304  31.679  32.183  1.00  0.00     0.029 A 
ATOM     59  N   UNL A   1      39.328  30.840  32.561  1.00  0.00    -0.354 N 
ATOM     60  N   UNL A   1      41.654  30.163  34.222  1.00  0.00    -0.248 NA
ATOM     61  C   UNL A   1      42.822  30.301  36.239  1.00  0.00     0.031 C 
ATOM     62  C   UNL A   1      37.666  31.976  33.501  1.00  0.00     0.029 A 
ATOM     63  C   UNL A   1      38.918  31.435  33.745  1.00  0.00     0.049 A 
ATOM     64  H   UNL A   1      40.186  30.375  32.431  1.00  0.00     0.167 HD
ATOM     65  C   UNL A   1      40.893  30.875  35.137  1.00  0.00     0.074 A 
ATOM     66  C   UNL A   1      41.645  30.898  36.375  1.00  0.00     0.031 C 
ATOM     67  C   UNL A   1      39.683  31.460  34.967  1.00  0.00     0.037 A 
BRANCH  54  68
ATOM     68  C   UNL A   1      37.324  30.827  29.296  1.00  0.00     0.064 A 
ATOM     69  C   UNL A   1      36.379  29.846  28.963  1.00  0.00     0.173 A 
ATOM     70  C   UNL A   1      37.119  32.127  28.809  1.00  0.00     0.173 A 
ATOM     71  F   UNL A   1      36.529  28.587  29.402  1.00  0.00    -0.203 F 
ATOM     72  C   UNL A   1      35.274  30.153  28.171  1.00  0.00     0.198 A 
ATOM     73  C   UNL A   1      36.001  32.437  28.038  1.00  0.00     0.198 A 
ATOM     74  F   UNL A   1      37.989  33.105  29.104  1.00  0.00    -0.203 F 
ATOM     75  F   UNL A   1      34.394  29.195  27.850  1.00  0.00    -0.200 F 
ATOM     76  C   UNL A   1      35.081  31.450  27.719  1.00  0.00     0.200 A 
ATOM     77  F   UNL A   1      35.807  33.694  27.616  1.00  0.00    -0.200 F 
ATOM     78  F   UNL A   1      34.005  31.749  26.978  1.00  0.00    -0.200 F 
ENDBRANCH  54  68
BRANCH  55  79
ATOM     79  C   UNL A   1      45.076  28.715  35.235  1.00  0.00     0.064 A 
ATOM     80  C   UNL A   1      46.150  29.606  35.358  1.00  0.00     0.173 A 
ATOM     81  C   UNL A   1      45.119  27.530  35.982  1.00  0.00     0.173 A 
ATOM     82  F   UNL A   1      46.162  30.744  34.649  1.00  0.00    -0.203 F 
ATOM     83  C   UNL A   1      47.233  29.314  36.185  1.00  0.00     0.198 A 
ATOM     84  C   UNL A   1      46.189  27.253  36.830  1.00  0.00     0.198 A 
ATOM     85  F   UNL A   1      44.112  26.647  35.902  1.00  0.00    -0.203 F 
ATOM     86  F   UNL A   1      48.266  30.164  36.256  1.00  0.00    -0.200 F 
ATOM     87  C   UNL A   1      47.248  28.143  36.926  1.00  0.00     0.200 A 
ATOM     88  F   UNL A   1      46.192  26.126  37.555  1.00  0.00    -0.200 F 
ATOM     89  F   UNL A   1      48.286  27.867  37.727  1.00  0.00    -0.200 F 
ENDBRANCH  55  79
BRANCH  67  90
ATOM     90  C   UNL A   1      39.096  32.175  36.149  1.00  0.00     0.064 A 
ATOM     91  C   UNL A   1      38.225  31.527  37.038  1.00  0.00     0.173 A 
ATOM     92  C   UNL A   1      39.434  33.511  36.417  1.00  0.00     0.173 A 
ATOM     93  F   UNL A   1      37.860  30.255  36.819  1.00  0.00    -0.203 F 
ATOM     94  C   UNL A   1      37.693  32.198  38.136  1.00  0.00     0.198 A 
ATOM     95  C   UNL A   1      38.924  34.169  37.533  1.00  0.00     0.198 A 
ATOM     96  F   UNL A   1      40.266  34.175  35.602  1.00  0.00    -0.203 F 
ATOM     97  F   UNL A   1      36.824  31.574  38.943  1.00  0.00    -0.200 F 
ATOM     98  C   UNL A   1      38.049  33.515  38.386  1.00  0.00     0.200 A 
ATOM     99  F   UNL A   1      39.278  35.436  37.782  1.00  0.00    -0.200 F 
ATOM    100  F   UNL A   1      37.539  34.157  39.447  1.00  0.00    -0.200 F 
ENDBRANCH  67  90
ENDBRANCH  41  42
ENDBRANCH  34  36
ENDBRANCH  33  34
ENDBRANCH  32  33
ENDBRANCH  31  32
ENDBRANCH  30  31
ENDBRANCH  29  30
ENDBRANCH  28  29
ENDBRANCH   1  28
TORSDOF 23
ENDMDL
MODEL 3
REMARK VINA RESULT:     -10.5      3.818      9.318
REMARK SMILES CC[C@@H]1CCC[C@@](C[C@@H]2CSc3ccccc32)(C(=O)OCCOCCOCCOCCOC(=O)c2ccc(-c3c4nc(c(-c5c(F)c(F)c(F)c(F)c5F)c5ccc([nH]5)c(-c5c(F)c(F)c(F)c(F)c5F)c5nc(c(-c6c(F)c(F)c(F)c(F)c6F)c6ccc3[nH]6)C=C5)C=C4)cc2)C1
REMARK SMILES IDX 26 1 25 2 24 3 23 4 22 5 21 6 20 7 18 8 19 9 7 10 3 11 4 12
REMARK SMILES IDX 98 13 5 14 6 15 2 16 1 17 8 18 9 19 10 20 17 21 11 22 12 23
REMARK SMILES IDX 16 24 13 25 15 26 14 27 27 28 28 29 29 30 30 31 31 32 32 33
REMARK SMILES IDX 33 34 34 35 35 36 36 37 97 38 37 39 96 40 38 41 39 42 40 43
REMARK SMILES IDX 90 44 41 45 95 46 89 47 91 48 42 49 94 50 88 51 87 52 43 54
REMARK SMILES IDX 75 55 55 56 74 57 56 58 59 59 73 60 92 61 57 62 58 63 72 65
REMARK SMILES IDX 93 66 60 67 44 68 45 69 53 70 46 71 47 72 51 73 54 74 48 75
REMARK SMILES IDX 49 76 52 77 50 78 76 79 77 80 85 81 78 82 79 83 83 84 86 85
REMARK SMILES IDX 80 86 81 87 84 88 82 89 61 90 62 91 70 92 63 93 64 94 68 95
REMARK SMILES IDX 71 96 65 97 66 98 69 99 67 100
REMARK H PARENT 91 53 59 64
REMARK Flexibility Score: inf
ROOT
ATOM      1  O   UNL A   1      35.496  32.278  27.415  1.00  0.00    -0.377 OA
ENDROOT
BRANCH   1   2
ATOM      2  C   UNL A   1      36.095  31.133  27.988  1.00  0.00     0.188 C 
BRANCH   2   3
ATOM      3  C   UNL A   1      35.770  29.809  27.303  1.00  0.00     0.188 C 
BRANCH   3   4
ATOM      4  O   UNL A   1      34.713  29.043  27.854  1.00  0.00    -0.376 OA
BRANCH   4   5
ATOM      5  C   UNL A   1      33.381  29.388  27.468  1.00  0.00     0.202 C 
BRANCH   5   6
ATOM      6  C   UNL A   1      32.475  28.292  26.880  1.00  0.00     0.261 C 
BRANCH   6   7
ATOM      7  O   UNL A   1      33.190  27.115  26.414  1.00  0.00    -0.463 OA
BRANCH   7   8
ATOM      8  C   UNL A   1      33.516  27.082  25.096  1.00  0.00     0.312 C 
ATOM      9  O   UNL A   1      34.134  27.989  24.544  1.00  0.00    -0.252 OA
BRANCH   8  10
ATOM     10  C   UNL A   1      32.917  25.896  24.296  1.00  0.00     0.069 C 
ATOM     11  C   UNL A   1      30.861  27.127  23.258  1.00  0.00    -0.010 C 
ATOM     12  C   UNL A   1      31.183  26.598  21.862  1.00  0.00     0.003 C 
ATOM     13  C   UNL A   1      31.351  26.101  24.304  1.00  0.00     0.022 C 
ATOM     14  C   UNL A   1      32.667  26.380  21.672  1.00  0.00     0.001 C 
ATOM     15  C   UNL A   1      33.373  25.700  22.837  1.00  0.00     0.019 C 
BRANCH  11  16
ATOM     16  C   UNL A   1      29.367  27.465  23.399  1.00  0.00     0.000 C 
ATOM     17  C   UNL A   1      28.981  28.751  22.667  1.00  0.00     0.004 C 
ENDBRANCH  11  16
BRANCH  10  18
ATOM     18  C   UNL A   1      33.259  24.618  25.180  1.00  0.00     0.028 C 
BRANCH  18  19
ATOM     19  C   UNL A   1      33.212  23.145  24.640  1.00  0.00     0.032 C 
ATOM     20  C   UNL A   1      32.405  22.113  25.448  1.00  0.00     0.083 C 
ATOM     21  C   UNL A   1      34.568  22.535  24.371  1.00  0.00    -0.030 A 
ATOM     22  S   UNL A   1      33.550  20.914  26.203  1.00  0.00    -0.125 SA
ATOM     23  C   UNL A   1      34.897  21.444  25.183  1.00  0.00     0.011 A 
ATOM     24  C   UNL A   1      35.518  23.076  23.504  1.00  0.00     0.005 A 
ATOM     25  C   UNL A   1      36.195  20.954  25.224  1.00  0.00     0.015 A 
ATOM     26  C   UNL A   1      36.822  22.578  23.531  1.00  0.00     0.000 A 
ATOM     27  C   UNL A   1      37.165  21.539  24.404  1.00  0.00     0.001 A 
ENDBRANCH  18  19
ENDBRANCH  10  18
ENDBRANCH   8  10
ENDBRANCH   7   8
ENDBRANCH   6   7
ENDBRANCH   5   6
ENDBRANCH   4   5
ENDBRANCH   3   4
ENDBRANCH   2   3
ENDBRANCH   1   2
BRANCH   1  28
ATOM     28  C   UNL A   1      35.426  33.481  28.169  1.00  0.00     0.188 C 
BRANCH  28  29
ATOM     29  C   UNL A   1      34.768  33.438  29.552  1.00  0.00     0.188 C 
BRANCH  29  30
ATOM     30  O   UNL A   1      33.434  33.940  29.676  1.00  0.00    -0.376 OA
BRANCH  30  31
ATOM     31  C   UNL A   1      33.149  35.272  29.253  1.00  0.00     0.202 C 
BRANCH  31  32
ATOM     32  C   UNL A   1      32.631  36.210  30.343  1.00  0.00     0.261 C 
BRANCH  32  33
ATOM     33  O   UNL A   1      32.312  35.496  31.548  1.00  0.00    -0.460 OA
BRANCH  33  34
ATOM     34  C   UNL A   1      32.951  35.903  32.668  1.00  0.00     0.338 C 
ATOM     35  O   UNL A   1      32.547  36.679  33.517  1.00  0.00    -0.246 OA
BRANCH  34  36
ATOM     36  C   UNL A   1      34.190  35.115  32.807  1.00  0.00     0.060 A 
ATOM     37  C   UNL A   1      35.422  35.653  32.431  1.00  0.00     0.016 A 
ATOM     38  C   UNL A   1      34.108  33.822  33.339  1.00  0.00     0.016 A 
ATOM     39  C   UNL A   1      36.583  34.901  32.612  1.00  0.00     0.010 A 
ATOM     40  C   UNL A   1      35.269  33.066  33.508  1.00  0.00     0.010 A 
ATOM     41  C   UNL A   1      36.513  33.612  33.165  1.00  0.00    -0.014 A 
BRANCH  41  42
ATOM     42  C   UNL A   1      37.760  32.896  33.515  1.00  0.00     0.031 A 
ATOM     43  C   UNL A   1      38.504  33.199  34.777  1.00  0.00     0.074 A 
ATOM     44  C   UNL A   1      38.208  31.958  32.660  1.00  0.00     0.049 A 
ATOM     45  N   UNL A   1      39.583  32.626  35.249  1.00  0.00    -0.248 NA
ATOM     46  C   UNL A   1      37.974  34.281  35.619  1.00  0.00     0.031 C 
ATOM     47  C   UNL A   1      37.564  31.604  31.395  1.00  0.00     0.029 A 
ATOM     48  N   UNL A   1      39.300  31.132  32.725  1.00  0.00    -0.354 N 
ATOM     49  C   UNL A   1      39.853  33.263  36.452  1.00  0.00     0.074 A 
ATOM     50  C   UNL A   1      38.846  34.292  36.619  1.00  0.00     0.031 C 
ATOM     51  C   UNL A   1      38.266  30.622  30.807  1.00  0.00     0.029 A 
ATOM     52  C   UNL A   1      39.416  30.295  31.643  1.00  0.00     0.049 A 
ATOM     53  H   UNL A   1      39.939  31.139  33.475  1.00  0.00     0.167 HD
ATOM     54  C   UNL A   1      40.842  32.992  37.336  1.00  0.00     0.037 A 
ATOM     55  C   UNL A   1      40.349  29.368  31.358  1.00  0.00     0.037 A 
ATOM     56  C   UNL A   1      41.843  31.969  37.152  1.00  0.00     0.049 A 
ATOM     57  C   UNL A   1      41.457  29.120  32.343  1.00  0.00     0.074 A 
ATOM     58  C   UNL A   1      42.866  31.601  38.009  1.00  0.00     0.029 A 
ATOM     59  N   UNL A   1      41.952  31.160  36.031  1.00  0.00    -0.354 N 
ATOM     60  N   UNL A   1      41.670  29.685  33.506  1.00  0.00    -0.248 NA
ATOM     61  C   UNL A   1      42.448  28.099  31.979  1.00  0.00     0.031 C 
ATOM     62  C   UNL A   1      43.622  30.603  37.386  1.00  0.00     0.029 A 
ATOM     63  C   UNL A   1      43.042  30.312  36.163  1.00  0.00     0.049 A 
ATOM     64  H   UNL A   1      41.346  31.184  35.255  1.00  0.00     0.167 HD
ATOM     65  C   UNL A   1      42.807  29.082  34.021  1.00  0.00     0.074 A 
ATOM     66  C   UNL A   1      43.224  28.086  33.055  1.00  0.00     0.031 C 
ATOM     67  C   UNL A   1      43.452  29.333  35.187  1.00  0.00     0.037 A 
BRANCH  54  68
ATOM     68  C   UNL A   1      40.900  33.805  38.595  1.00  0.00     0.064 A 
ATOM     69  C   UNL A   1      41.695  34.957  38.684  1.00  0.00     0.173 A 
ATOM     70  C   UNL A   1      40.080  33.487  39.689  1.00  0.00     0.173 A 
ATOM     71  F   UNL A   1      42.497  35.303  37.666  1.00  0.00    -0.203 F 
ATOM     72  C   UNL A   1      41.672  35.757  39.824  1.00  0.00     0.198 A 
ATOM     73  C   UNL A   1      40.042  34.303  40.817  1.00  0.00     0.198 A 
ATOM     74  F   UNL A   1      39.295  32.400  39.652  1.00  0.00    -0.203 F 
ATOM     75  F   UNL A   1      42.453  36.843  39.894  1.00  0.00    -0.200 F 
ATOM     76  C   UNL A   1      40.838  35.436  40.884  1.00  0.00     0.200 A 
ATOM     77  F   UNL A   1      39.223  33.999  41.834  1.00  0.00    -0.200 F 
ATOM     78  F   UNL A   1      40.799  36.220  41.970  1.00  0.00    -0.200 F 
ENDBRANCH  54  68
BRANCH  55  79
ATOM     79  C   UNL A   1      40.255  28.594  30.094  1.00  0.00     0.064 A 
ATOM     80  C   UNL A   1      40.855  29.060  28.918  1.00  0.00     0.173 A 
ATOM     81  C   UNL A   1      39.577  27.367  30.042  1.00  0.00     0.173 A 
ATOM     82  F   UNL A   1      41.499  30.237  28.915  1.00  0.00    -0.203 F 
ATOM     83  C   UNL A   1      40.767  28.336  27.731  1.00  0.00     0.198 A 
ATOM     84  C   UNL A   1      39.514  26.631  28.862  1.00  0.00     0.198 A 
ATOM     85  F   UNL A   1      38.990  26.875  31.143  1.00  0.00    -0.203 F 
ATOM     86  F   UNL A   1      41.316  28.824  26.610  1.00  0.00    -0.200 F 
ATOM     87  C   UNL A   1      40.104  27.119  27.705  1.00  0.00     0.200 A 
ATOM     88  F   UNL A   1      38.884  25.447  28.845  1.00  0.00    -0.200 F 
ATOM     89  F   UNL A   1      40.026  26.419  26.565  1.00  0.00    -0.200 F 
ENDBRANCH  55  79
BRANCH  67  90
ATOM     90  C   UNL A   1      44.676  28.515  35.482  1.00  0.00     0.064 A 
ATOM     91  C   UNL A   1      44.596  27.307  36.190  1.00  0.00     0.173 A 
ATOM     92  C   UNL A   1      45.937  28.925  35.022  1.00  0.00     0.173 A 
ATOM     93  F   UNL A   1      43.416  26.879  36.664  1.00  0.00    -0.203 F 
ATOM     94  C   UNL A   1      45.737  26.553  36.451  1.00  0.00     0.198 A 
ATOM     95  C   UNL A   1      47.071  28.153  35.258  1.00  0.00     0.198 A 
ATOM     96  F   UNL A   1      46.068  30.069  34.335  1.00  0.00    -0.203 F 
ATOM     97  F   UNL A   1      45.643  25.429  37.174  1.00  0.00    -0.200 F 
ATOM     98  C   UNL A   1      46.971  26.973  35.979  1.00  0.00     0.200 A 
ATOM     99  F   UNL A   1      48.261  28.552  34.790  1.00  0.00    -0.200 F 
ATOM    100  F   UNL A   1      48.068  26.242  36.227  1.00  0.00    -0.200 F 
ENDBRANCH  67  90
ENDBRANCH  41  42
ENDBRANCH  34  36
ENDBRANCH  33  34
ENDBRANCH  32  33
ENDBRANCH  31  32
ENDBRANCH  30  31
ENDBRANCH  29  30
ENDBRANCH  28  29
ENDBRANCH   1  28
TORSDOF 23
ENDMDL
