MODEL 1
REMARK VINA RESULT:     -11.4      0.000      0.000
REMARK SMILES C[C@@H]1CC(C)(C)C[C@@](CC(=O)Nc2cccc(C(F)(F)F)c2)(C(=O)OCCOCCOCCOCCOC(=O)c2ccc(-c3c4nc(c(-c5c(F)c(F)c(F)c(F)c5F)c5ccc([nH]5)c(-c5c(F)c(F)c(F)c(F)c5F)c5nc(c(-c6c(F)c(F)c(F)c(F)c6F)c6ccc3[nH]6)C=C5)C=C4)cc2)C1
REMARK SMILES IDX 30 1 29 2 28 3 27 4 26 5 25 6 23 7 24 8 8 9 1 10 2 11 3 12
REMARK SMILES IDX 103 13 4 14 5 15 6 16 7 17 9 18 10 19 11 20 12 21 13 23
REMARK SMILES IDX 14 24 22 25 15 26 17 27 16 28 18 29 19 30 20 31 21 32 31 33
REMARK SMILES IDX 32 34 33 35 34 36 35 37 36 38 37 39 38 40 39 41 40 42 41 43
REMARK SMILES IDX 102 44 42 45 101 46 43 47 44 48 45 49 95 50 46 51 100 52
REMARK SMILES IDX 94 53 96 54 47 55 99 56 93 57 92 58 48 60 80 61 60 62 79 63
REMARK SMILES IDX 61 64 64 65 78 66 97 67 62 68 63 69 77 71 98 72 65 73 49 74
REMARK SMILES IDX 50 75 58 76 51 77 52 78 56 79 59 80 53 81 54 82 57 83 55 84
REMARK SMILES IDX 81 85 82 86 90 87 83 88 84 89 88 90 91 91 85 92 86 93 89 94
REMARK SMILES IDX 87 95 66 96 67 97 75 98 68 99 69 100 73 101 76 102 70 103
REMARK SMILES IDX 71 104 74 105 72 106
REMARK H PARENT 12 22 96 59 64 70
REMARK Flexibility Score: inf
ROOT
ATOM      1  C   UNL A   1      33.674  34.299  29.268  1.00  0.00     0.188 C 
ENDROOT
BRANCH   1   2
ATOM      2  C   UNL A   1      34.151  33.591  27.989  1.00  0.00     0.188 C 
BRANCH   2   3
ATOM      3  O   UNL A   1      33.868  32.202  27.959  1.00  0.00    -0.376 OA
BRANCH   3   4
ATOM      4  C   UNL A   1      34.735  31.266  27.360  1.00  0.00     0.202 C 
BRANCH   4   5
ATOM      5  C   UNL A   1      34.304  29.802  27.345  1.00  0.00     0.261 C 
BRANCH   5   6
ATOM      6  O   UNL A   1      33.566  29.337  26.201  1.00  0.00    -0.463 OA
BRANCH   6   7
ATOM      7  C   UNL A   1      32.295  28.913  26.400  1.00  0.00     0.312 C 
ATOM      8  O   UNL A   1      31.558  29.394  27.249  1.00  0.00    -0.252 OA
BRANCH   7   9
ATOM      9  C   UNL A   1      31.907  27.699  25.552  1.00  0.00     0.078 C 
ATOM     10  C   UNL A   1      30.994  24.500  25.433  1.00  0.00     0.008 C 
ATOM     11  C   UNL A   1      30.182  25.731  25.805  1.00  0.00    -0.013 C 
ATOM     12  C   UNL A   1      29.321  26.315  24.699  1.00  0.00     0.009 C 
ATOM     13  C   UNL A   1      30.990  26.838  26.442  1.00  0.00     0.022 C 
ATOM     14  C   UNL A   1      30.034  27.245  23.689  1.00  0.00    -0.034 C 
ATOM     15  C   UNL A   1      30.723  26.423  22.587  1.00  0.00     0.011 C 
ATOM     16  C   UNL A   1      28.907  28.049  22.990  1.00  0.00     0.011 C 
ATOM     17  C   UNL A   1      31.037  28.243  24.365  1.00  0.00     0.025 C 
BRANCH   9  18
ATOM     18  C   UNL A   1      33.240  27.059  25.101  1.00  0.00     0.119 C 
BRANCH  18  19
ATOM     19  C   UNL A   1      33.678  26.771  23.676  1.00  0.00     0.225 C 
ATOM     20  O   UNL A   1      33.873  27.781  22.971  1.00  0.00    -0.275 OA
ATOM     21  N   UNL A   1      33.938  25.629  23.011  1.00  0.00    -0.326 N 
ATOM     22  H   UNL A   1      34.283  25.857  22.117  1.00  0.00     0.169 HD
BRANCH  21  23
ATOM     23  C   UNL A   1      33.895  24.228  23.130  1.00  0.00     0.041 A 
ATOM     24  C   UNL A   1      32.845  23.616  22.434  1.00  0.00     0.026 A 
ATOM     25  C   UNL A   1      34.698  23.409  23.914  1.00  0.00     0.039 A 
ATOM     26  C   UNL A   1      32.529  22.270  22.622  1.00  0.00     0.003 A 
ATOM     27  C   UNL A   1      34.337  22.072  24.208  1.00  0.00     0.058 A 
ATOM     28  C   UNL A   1      33.249  21.510  23.535  1.00  0.00     0.013 A 
BRANCH  27  29
ATOM     29  C   UNL A   1      35.042  21.269  25.285  1.00  0.00     0.416 C 
ATOM     30  F   UNL A   1      34.341  20.161  25.668  1.00  0.00    -0.166 F 
ATOM     31  F   UNL A   1      36.261  20.814  24.892  1.00  0.00    -0.166 F 
ATOM     32  F   UNL A   1      35.230  21.971  26.434  1.00  0.00    -0.166 F 
ENDBRANCH  27  29
ENDBRANCH  21  23
ENDBRANCH  18  19
ENDBRANCH   9  18
ENDBRANCH   7   9
ENDBRANCH   6   7
ENDBRANCH   5   6
ENDBRANCH   4   5
ENDBRANCH   3   4
ENDBRANCH   2   3
ENDBRANCH   1   2
BRANCH   1  33
ATOM     33  O   UNL A   1      32.558  35.178  29.141  1.00  0.00    -0.377 OA
BRANCH  33  34
ATOM     34  C   UNL A   1      32.529  36.267  30.050  1.00  0.00     0.188 C 
BRANCH  34  35
ATOM     35  C   UNL A   1      33.641  36.248  31.120  1.00  0.00     0.188 C 
BRANCH  35  36
ATOM     36  O   UNL A   1      33.486  35.556  32.345  1.00  0.00    -0.376 OA
BRANCH  36  37
ATOM     37  C   UNL A   1      34.501  35.518  33.331  1.00  0.00     0.202 C 
BRANCH  37  38
ATOM     38  C   UNL A   1      35.834  34.763  33.186  1.00  0.00     0.261 C 
BRANCH  38  39
ATOM     39  O   UNL A   1      36.046  33.996  32.002  1.00  0.00    -0.460 OA
BRANCH  39  40
ATOM     40  C   UNL A   1      35.589  32.730  32.027  1.00  0.00     0.338 C 
ATOM     41  O   UNL A   1      34.459  32.348  32.297  1.00  0.00    -0.246 OA
BRANCH  40  42
ATOM     42  C   UNL A   1      36.648  31.865  31.476  1.00  0.00     0.060 A 
ATOM     43  C   UNL A   1      37.747  31.544  32.287  1.00  0.00     0.016 A 
ATOM     44  C   UNL A   1      36.548  31.353  30.180  1.00  0.00     0.016 A 
ATOM     45  C   UNL A   1      38.762  30.732  31.798  1.00  0.00     0.010 A 
ATOM     46  C   UNL A   1      37.591  30.578  29.672  1.00  0.00     0.010 A 
ATOM     47  C   UNL A   1      38.715  30.297  30.470  1.00  0.00    -0.014 A 
BRANCH  47  48
ATOM     48  C   UNL A   1      39.955  29.788  29.846  1.00  0.00     0.031 A 
ATOM     49  C   UNL A   1      41.107  30.742  29.706  1.00  0.00     0.074 A 
ATOM     50  C   UNL A   1      40.068  28.509  29.452  1.00  0.00     0.049 A 
ATOM     51  N   UNL A   1      42.275  30.561  29.148  1.00  0.00    -0.248 NA
ATOM     52  C   UNL A   1      40.911  32.086  30.274  1.00  0.00     0.031 C 
ATOM     53  C   UNL A   1      39.037  27.484  29.593  1.00  0.00     0.029 A 
ATOM     54  N   UNL A   1      41.109  27.862  28.838  1.00  0.00    -0.354 N 
ATOM     55  C   UNL A   1      42.944  31.771  29.284  1.00  0.00     0.074 A 
ATOM     56  C   UNL A   1      42.046  32.685  29.953  1.00  0.00     0.031 C 
ATOM     57  C   UNL A   1      39.491  26.337  29.059  1.00  0.00     0.029 A 
ATOM     58  C   UNL A   1      40.828  26.561  28.508  1.00  0.00     0.049 A 
ATOM     59  H   UNL A   1      41.977  28.290  28.651  1.00  0.00     0.167 HD
ATOM     60  C   UNL A   1      44.199  32.086  28.889  1.00  0.00     0.037 A 
ATOM     61  C   UNL A   1      41.558  25.669  27.810  1.00  0.00     0.037 A 
ATOM     62  C   UNL A   1      45.083  31.169  28.222  1.00  0.00     0.049 A 
ATOM     63  C   UNL A   1      42.924  26.071  27.308  1.00  0.00     0.074 A 
ATOM     64  C   UNL A   1      46.381  31.379  27.796  1.00  0.00     0.029 A 
ATOM     65  N   UNL A   1      44.751  29.867  27.875  1.00  0.00    -0.354 N 
ATOM     66  N   UNL A   1      43.564  27.206  27.460  1.00  0.00    -0.248 NA
ATOM     67  C   UNL A   1      43.669  25.064  26.539  1.00  0.00     0.031 C 
ATOM     68  C   UNL A   1      46.813  30.227  27.131  1.00  0.00     0.029 A 
ATOM     69  C   UNL A   1      45.811  29.273  27.208  1.00  0.00     0.049 A 
ATOM     70  H   UNL A   1      43.892  29.430  28.073  1.00  0.00     0.167 HD
ATOM     71  C   UNL A   1      44.796  27.039  26.839  1.00  0.00     0.074 A 
ATOM     72  C   UNL A   1      44.818  25.687  26.321  1.00  0.00     0.031 C 
ATOM     73  C   UNL A   1      45.818  27.921  26.709  1.00  0.00     0.037 A 
BRANCH  60  74
ATOM     74  C   UNL A   1      44.669  33.491  29.126  1.00  0.00     0.064 A 
ATOM     75  C   UNL A   1      45.346  33.861  30.298  1.00  0.00     0.173 A 
ATOM     76  C   UNL A   1      44.462  34.477  28.150  1.00  0.00     0.173 A 
ATOM     77  F   UNL A   1      45.553  32.960  31.271  1.00  0.00    -0.203 F 
ATOM     78  C   UNL A   1      45.776  35.170  30.493  1.00  0.00     0.198 A 
ATOM     79  C   UNL A   1      44.924  35.776  28.333  1.00  0.00     0.198 A 
ATOM     80  F   UNL A   1      43.819  34.177  27.010  1.00  0.00    -0.203 F 
ATOM     81  F   UNL A   1      46.376  35.513  31.642  1.00  0.00    -0.200 F 
ATOM     82  C   UNL A   1      45.574  36.125  29.508  1.00  0.00     0.200 A 
ATOM     83  F   UNL A   1      44.739  36.693  27.373  1.00  0.00    -0.200 F 
ATOM     84  F   UNL A   1      45.998  37.382  29.692  1.00  0.00    -0.200 F 
ENDBRANCH  60  74
BRANCH  61  85
ATOM     85  C   UNL A   1      41.009  24.318  27.520  1.00  0.00     0.064 A 
ATOM     86  C   UNL A   1      41.535  23.172  28.134  1.00  0.00     0.173 A 
ATOM     87  C   UNL A   1      39.969  24.140  26.594  1.00  0.00     0.173 A 
ATOM     88  F   UNL A   1      42.547  23.286  29.006  1.00  0.00    -0.203 F 
ATOM     89  C   UNL A   1      41.062  21.901  27.813  1.00  0.00     0.198 A 
ATOM     90  C   UNL A   1      39.474  22.872  26.300  1.00  0.00     0.198 A 
ATOM     91  F   UNL A   1      39.431  25.201  25.975  1.00  0.00    -0.203 F 
ATOM     92  F   UNL A   1      41.623  20.820  28.371  1.00  0.00    -0.200 F 
ATOM     93  C   UNL A   1      40.028  21.753  26.901  1.00  0.00     0.200 A 
ATOM     94  F   UNL A   1      38.466  22.734  25.428  1.00  0.00    -0.200 F 
ATOM     95  F   UNL A   1      39.573  20.530  26.594  1.00  0.00    -0.200 F 
ENDBRANCH  61  85
BRANCH  73  96
ATOM     96  C   UNL A   1      47.066  27.442  26.023  1.00  0.00     0.064 A 
ATOM     97  C   UNL A   1      48.101  26.806  26.725  1.00  0.00     0.173 A 
ATOM     98  C   UNL A   1      47.208  27.581  24.633  1.00  0.00     0.173 A 
ATOM     99  F   UNL A   1      48.023  26.657  28.056  1.00  0.00    -0.203 F 
ATOM    100  C   UNL A   1      49.243  26.356  26.066  1.00  0.00     0.198 A 
ATOM    101  C   UNL A   1      48.332  27.096  23.973  1.00  0.00     0.198 A 
ATOM    102  F   UNL A   1      46.243  28.172  23.910  1.00  0.00    -0.203 F 
ATOM    103  F   UNL A   1      50.243  25.802  26.766  1.00  0.00    -0.200 F 
ATOM    104  C   UNL A   1      49.354  26.494  24.691  1.00  0.00     0.200 A 
ATOM    105  F   UNL A   1      48.429  27.213  22.641  1.00  0.00    -0.200 F 
ATOM    106  F   UNL A   1      50.449  26.051  24.057  1.00  0.00    -0.200 F 
ENDBRANCH  73  96
ENDBRANCH  47  48
ENDBRANCH  40  42
ENDBRANCH  39  40
ENDBRANCH  38  39
ENDBRANCH  37  38
ENDBRANCH  36  37
ENDBRANCH  35  36
ENDBRANCH  34  35
ENDBRANCH  33  34
ENDBRANCH   1  33
TORSDOF 24
ENDMDL
MODEL 2
REMARK VINA RESULT:     -11.3      2.325      3.516
REMARK SMILES C[C@@H]1CC(C)(C)C[C@@](CC(=O)Nc2cccc(C(F)(F)F)c2)(C(=O)OCCOCCOCCOCCOC(=O)c2ccc(-c3c4nc(c(-c5c(F)c(F)c(F)c(F)c5F)c5ccc([nH]5)c(-c5c(F)c(F)c(F)c(F)c5F)c5nc(c(-c6c(F)c(F)c(F)c(F)c6F)c6ccc3[nH]6)C=C5)C=C4)cc2)C1
REMARK SMILES IDX 30 1 29 2 28 3 27 4 26 5 25 6 23 7 24 8 8 9 1 10 2 11 3 12
REMARK SMILES IDX 103 13 4 14 5 15 6 16 7 17 9 18 10 19 11 20 12 21 13 23
REMARK SMILES IDX 14 24 22 25 15 26 17 27 16 28 18 29 19 30 20 31 21 32 31 33
REMARK SMILES IDX 32 34 33 35 34 36 35 37 36 38 37 39 38 40 39 41 40 42 41 43
REMARK SMILES IDX 102 44 42 45 101 46 43 47 44 48 45 49 95 50 46 51 100 52
REMARK SMILES IDX 94 53 96 54 47 55 99 56 93 57 92 58 48 60 80 61 60 62 79 63
REMARK SMILES IDX 61 64 64 65 78 66 97 67 62 68 63 69 77 71 98 72 65 73 49 74
REMARK SMILES IDX 50 75 58 76 51 77 52 78 56 79 59 80 53 81 54 82 57 83 55 84
REMARK SMILES IDX 81 85 82 86 90 87 83 88 84 89 88 90 91 91 85 92 86 93 89 94
REMARK SMILES IDX 87 95 66 96 67 97 75 98 68 99 69 100 73 101 76 102 70 103
REMARK SMILES IDX 71 104 74 105 72 106
REMARK H PARENT 12 22 96 59 64 70
REMARK Flexibility Score: inf
ROOT
ATOM      1  C   UNL A   1      34.371  34.107  28.276  1.00  0.00     0.188 C 
ENDROOT
BRANCH   1   2
ATOM      2  C   UNL A   1      34.590  32.585  28.215  1.00  0.00     0.188 C 
BRANCH   2   3
ATOM      3  O   UNL A   1      33.526  31.873  27.605  1.00  0.00    -0.376 OA
BRANCH   3   4
ATOM      4  C   UNL A   1      33.532  30.470  27.474  1.00  0.00     0.202 C 
BRANCH   4   5
ATOM      5  C   UNL A   1      32.442  29.828  26.621  1.00  0.00     0.261 C 
BRANCH   5   6
ATOM      6  O   UNL A   1      32.576  28.431  26.308  1.00  0.00    -0.463 OA
BRANCH   6   7
ATOM      7  C   UNL A   1      33.108  28.103  25.106  1.00  0.00     0.312 C 
ATOM      8  O   UNL A   1      33.411  28.934  24.262  1.00  0.00    -0.252 OA
BRANCH   7   9
ATOM      9  C   UNL A   1      33.182  26.595  24.853  1.00  0.00     0.078 C 
ATOM     10  C   UNL A   1      34.896  23.755  25.129  1.00  0.00     0.008 C 
ATOM     11  C   UNL A   1      34.121  24.531  26.182  1.00  0.00    -0.013 C 
ATOM     12  C   UNL A   1      32.711  24.041  26.461  1.00  0.00     0.009 C 
ATOM     13  C   UNL A   1      34.092  26.025  25.957  1.00  0.00     0.022 C 
ATOM     14  C   UNL A   1      31.612  24.516  25.482  1.00  0.00    -0.034 C 
ATOM     15  C   UNL A   1      31.573  23.620  24.233  1.00  0.00     0.011 C 
ATOM     16  C   UNL A   1      30.266  24.289  26.219  1.00  0.00     0.011 C 
ATOM     17  C   UNL A   1      31.738  26.029  25.093  1.00  0.00     0.025 C 
BRANCH   9  18
ATOM     18  C   UNL A   1      33.674  26.439  23.395  1.00  0.00     0.119 C 
BRANCH  18  19
ATOM     19  C   UNL A   1      32.923  26.824  22.132  1.00  0.00     0.225 C 
ATOM     20  O   UNL A   1      33.544  26.621  21.069  1.00  0.00    -0.275 OA
ATOM     21  N   UNL A   1      31.689  27.315  21.915  1.00  0.00    -0.326 N 
ATOM     22  H   UNL A   1      31.532  27.354  20.944  1.00  0.00     0.169 HD
BRANCH  21  23
ATOM     23  C   UNL A   1      30.541  27.795  22.572  1.00  0.00     0.041 A 
ATOM     24  C   UNL A   1      29.708  26.797  23.093  1.00  0.00     0.026 A 
ATOM     25  C   UNL A   1      30.101  29.108  22.680  1.00  0.00     0.039 A 
ATOM     26  C   UNL A   1      28.432  27.089  23.576  1.00  0.00     0.003 A 
ATOM     27  C   UNL A   1      28.774  29.421  23.062  1.00  0.00     0.058 A 
ATOM     28  C   UNL A   1      27.952  28.390  23.525  1.00  0.00     0.013 A 
BRANCH  27  29
ATOM     29  C   UNL A   1      28.201  30.817  22.903  1.00  0.00     0.416 C 
ATOM     30  F   UNL A   1      27.594  31.008  21.694  1.00  0.00    -0.166 F 
ATOM     31  F   UNL A   1      27.259  31.111  23.837  1.00  0.00    -0.166 F 
ATOM     32  F   UNL A   1      29.148  31.791  22.970  1.00  0.00    -0.166 F 
ENDBRANCH  27  29
ENDBRANCH  21  23
ENDBRANCH  18  19
ENDBRANCH   9  18
ENDBRANCH   7   9
ENDBRANCH   6   7
ENDBRANCH   5   6
ENDBRANCH   4   5
ENDBRANCH   3   4
ENDBRANCH   2   3
ENDBRANCH   1   2
BRANCH   1  33
ATOM     33  O   UNL A   1      34.923  34.793  29.397  1.00  0.00    -0.377 OA
BRANCH  33  34
ATOM     34  C   UNL A   1      34.374  34.448  30.659  1.00  0.00     0.188 C 
BRANCH  34  35
ATOM     35  C   UNL A   1      34.192  35.632  31.633  1.00  0.00     0.188 C 
BRANCH  35  36
ATOM     36  O   UNL A   1      34.996  35.777  32.788  1.00  0.00    -0.376 OA
BRANCH  36  37
ATOM     37  C   UNL A   1      34.845  34.954  33.929  1.00  0.00     0.202 C 
BRANCH  37  38
ATOM     38  C   UNL A   1      35.741  33.748  34.263  1.00  0.00     0.261 C 
BRANCH  38  39
ATOM     39  O   UNL A   1      36.461  33.131  33.198  1.00  0.00    -0.460 OA
BRANCH  39  40
ATOM     40  C   UNL A   1      35.831  32.128  32.559  1.00  0.00     0.338 C 
ATOM     41  O   UNL A   1      34.626  31.972  32.419  1.00  0.00    -0.246 OA
BRANCH  40  42
ATOM     42  C   UNL A   1      36.857  31.324  31.872  1.00  0.00     0.060 A 
ATOM     43  C   UNL A   1      37.903  30.776  32.630  1.00  0.00     0.016 A 
ATOM     44  C   UNL A   1      36.778  31.090  30.497  1.00  0.00     0.016 A 
ATOM     45  C   UNL A   1      38.887  30.013  32.013  1.00  0.00     0.010 A 
ATOM     46  C   UNL A   1      37.793  30.367  29.870  1.00  0.00     0.010 A 
ATOM     47  C   UNL A   1      38.867  29.859  30.623  1.00  0.00    -0.014 A 
BRANCH  47  48
ATOM     48  C   UNL A   1      40.098  29.405  29.942  1.00  0.00     0.031 A 
ATOM     49  C   UNL A   1      41.208  30.403  29.775  1.00  0.00     0.074 A 
ATOM     50  C   UNL A   1      40.241  28.138  29.521  1.00  0.00     0.049 A 
ATOM     51  N   UNL A   1      42.359  30.274  29.167  1.00  0.00    -0.248 NA
ATOM     52  C   UNL A   1      40.988  31.729  30.374  1.00  0.00     0.031 C 
ATOM     53  C   UNL A   1      39.253  27.074  29.684  1.00  0.00     0.029 A 
ATOM     54  N   UNL A   1      41.279  27.539  28.854  1.00  0.00    -0.354 N 
ATOM     55  C   UNL A   1      42.989  31.504  29.300  1.00  0.00     0.074 A 
ATOM     56  C   UNL A   1      42.088  32.374  30.019  1.00  0.00     0.031 C 
ATOM     57  C   UNL A   1      39.726  25.954  29.112  1.00  0.00     0.029 A 
ATOM     58  C   UNL A   1      41.031  26.235  28.512  1.00  0.00     0.049 A 
ATOM     59  H   UNL A   1      42.123  28.002  28.642  1.00  0.00     0.167 HD
ATOM     60  C   UNL A   1      44.215  31.872  28.860  1.00  0.00     0.037 A 
ATOM     61  C   UNL A   1      41.764  25.382  27.771  1.00  0.00     0.037 A 
ATOM     62  C   UNL A   1      45.105  30.998  28.143  1.00  0.00     0.049 A 
ATOM     63  C   UNL A   1      43.093  25.842  27.223  1.00  0.00     0.074 A 
ATOM     64  C   UNL A   1      46.376  31.262  27.670  1.00  0.00     0.029 A 
ATOM     65  N   UNL A   1      44.806  29.691  27.785  1.00  0.00    -0.354 N 
ATOM     66  N   UNL A   1      43.698  26.997  27.370  1.00  0.00    -0.248 NA
ATOM     67  C   UNL A   1      43.842  24.876  26.406  1.00  0.00     0.031 C 
ATOM     68  C   UNL A   1      46.821  30.139  26.968  1.00  0.00     0.029 A 
ATOM     69  C   UNL A   1      45.858  29.147  27.067  1.00  0.00     0.049 A 
ATOM     70  H   UNL A   1      43.971  29.220  28.009  1.00  0.00     0.167 HD
ATOM     71  C   UNL A   1      44.909  26.884  26.697  1.00  0.00     0.074 A 
ATOM     72  C   UNL A   1      44.959  25.543  26.154  1.00  0.00     0.031 C 
ATOM     73  C   UNL A   1      45.893  27.806  26.543  1.00  0.00     0.037 A 
BRANCH  60  74
ATOM     74  C   UNL A   1      44.645  33.289  29.105  1.00  0.00     0.064 A 
ATOM     75  C   UNL A   1      44.299  34.331  28.232  1.00  0.00     0.173 A 
ATOM     76  C   UNL A   1      45.392  33.610  30.248  1.00  0.00     0.173 A 
ATOM     77  F   UNL A   1      43.601  34.075  27.116  1.00  0.00    -0.203 F 
ATOM     78  C   UNL A   1      44.707  35.639  28.483  1.00  0.00     0.198 A 
ATOM     79  C   UNL A   1      45.768  34.923  30.513  1.00  0.00     0.198 A 
ATOM     80  F   UNL A   1      45.750  32.650  31.115  1.00  0.00    -0.203 F 
ATOM     81  F   UNL A   1      44.408  36.611  27.610  1.00  0.00    -0.200 F 
ATOM     82  C   UNL A   1      45.432  35.936  29.627  1.00  0.00     0.200 A 
ATOM     83  F   UNL A   1      46.457  35.209  31.627  1.00  0.00    -0.200 F 
ATOM     84  F   UNL A   1      45.814  37.196  29.873  1.00  0.00    -0.200 F 
ENDBRANCH  60  74
BRANCH  61  85
ATOM     85  C   UNL A   1      41.253  24.017  27.477  1.00  0.00     0.064 A 
ATOM     86  C   UNL A   1      41.866  22.879  28.020  1.00  0.00     0.173 A 
ATOM     87  C   UNL A   1      40.160  23.820  26.619  1.00  0.00     0.173 A 
ATOM     88  F   UNL A   1      42.930  23.012  28.825  1.00  0.00    -0.203 F 
ATOM     89  C   UNL A   1      41.424  21.597  27.694  1.00  0.00     0.198 A 
ATOM     90  C   UNL A   1      39.698  22.539  26.321  1.00  0.00     0.198 A 
ATOM     91  F   UNL A   1      39.537  24.872  26.070  1.00  0.00    -0.203 F 
ATOM     92  F   UNL A   1      42.066  20.527  28.180  1.00  0.00    -0.200 F 
ATOM     93  C   UNL A   1      40.337  21.429  26.850  1.00  0.00     0.200 A 
ATOM     94  F   UNL A   1      38.638  22.382  25.516  1.00  0.00    -0.200 F 
ATOM     95  F   UNL A   1      39.913  20.197  26.538  1.00  0.00    -0.200 F 
ENDBRANCH  61  85
BRANCH  73  96
ATOM     96  C   UNL A   1      47.130  27.383  25.800  1.00  0.00     0.064 A 
ATOM     97  C   UNL A   1      48.165  26.672  26.426  1.00  0.00     0.173 A 
ATOM     98  C   UNL A   1      47.259  27.655  24.428  1.00  0.00     0.173 A 
ATOM     99  F   UNL A   1      48.098  26.396  27.737  1.00  0.00    -0.203 F 
ATOM    100  C   UNL A   1      49.295  26.278  25.713  1.00  0.00     0.198 A 
ATOM    101  C   UNL A   1      48.371  27.226  23.712  1.00  0.00     0.198 A 
ATOM    102  F   UNL A   1      46.293  28.323  23.778  1.00  0.00    -0.203 F 
ATOM    103  F   UNL A   1      50.296  25.649  26.345  1.00  0.00    -0.200 F 
ATOM    104  C   UNL A   1      49.394  26.548  24.356  1.00  0.00     0.200 A 
ATOM    105  F   UNL A   1      48.455  27.471  22.396  1.00  0.00    -0.200 F 
ATOM    106  F   UNL A   1      50.477  26.158  23.671  1.00  0.00    -0.200 F 
ENDBRANCH  73  96
ENDBRANCH  47  48
ENDBRANCH  40  42
ENDBRANCH  39  40
ENDBRANCH  38  39
ENDBRANCH  37  38
ENDBRANCH  36  37
ENDBRANCH  35  36
ENDBRANCH  34  35
ENDBRANCH  33  34
ENDBRANCH   1  33
TORSDOF 24
ENDMDL
MODEL 3
REMARK VINA RESULT:     -11.0      4.914      7.882
REMARK SMILES C[C@@H]1CC(C)(C)C[C@@](CC(=O)Nc2cccc(C(F)(F)F)c2)(C(=O)OCCOCCOCCOCCOC(=O)c2ccc(-c3c4nc(c(-c5c(F)c(F)c(F)c(F)c5F)c5ccc([nH]5)c(-c5c(F)c(F)c(F)c(F)c5F)c5nc(c(-c6c(F)c(F)c(F)c(F)c6F)c6ccc3[nH]6)C=C5)C=C4)cc2)C1
REMARK SMILES IDX 30 1 29 2 28 3 27 4 26 5 25 6 23 7 24 8 8 9 1 10 2 11 3 12
REMARK SMILES IDX 103 13 4 14 5 15 6 16 7 17 9 18 10 19 11 20 12 21 13 23
REMARK SMILES IDX 14 24 22 25 15 26 17 27 16 28 18 29 19 30 20 31 21 32 31 33
REMARK SMILES IDX 32 34 33 35 34 36 35 37 36 38 37 39 38 40 39 41 40 42 41 43
REMARK SMILES IDX 102 44 42 45 101 46 43 47 44 48 45 49 95 50 46 51 100 52
REMARK SMILES IDX 94 53 96 54 47 55 99 56 93 57 92 58 48 60 80 61 60 62 79 63
REMARK SMILES IDX 61 64 64 65 78 66 97 67 62 68 63 69 77 71 98 72 65 73 49 74
REMARK SMILES IDX 50 75 58 76 51 77 52 78 56 79 59 80 53 81 54 82 57 83 55 84
REMARK SMILES IDX 81 85 82 86 90 87 83 88 84 89 88 90 91 91 85 92 86 93 89 94
REMARK SMILES IDX 87 95 66 96 67 97 75 98 68 99 69 100 73 101 76 102 70 103
REMARK SMILES IDX 71 104 74 105 72 106
REMARK H PARENT 12 22 96 59 64 70
REMARK Flexibility Score: inf
ROOT
ATOM      1  C   UNL A   1      33.254  30.608  26.589  1.00  0.00     0.188 C 
ENDROOT
BRANCH   1   2
ATOM      2  C   UNL A   1      33.463  29.086  26.507  1.00  0.00     0.188 C 
BRANCH   2   3
ATOM      3  O   UNL A   1      32.322  28.370  26.066  1.00  0.00    -0.376 OA
BRANCH   3   4
ATOM      4  C   UNL A   1      31.886  28.393  24.726  1.00  0.00     0.202 C 
BRANCH   4   5
ATOM      5  C   UNL A   1      31.942  27.088  23.935  1.00  0.00     0.261 C 
BRANCH   5   6
ATOM      6  O   UNL A   1      32.447  25.923  24.608  1.00  0.00    -0.463 OA
BRANCH   6   7
ATOM      7  C   UNL A   1      33.461  25.245  24.020  1.00  0.00     0.312 C 
ATOM      8  O   UNL A   1      33.944  25.570  22.945  1.00  0.00    -0.252 OA
BRANCH   7   9
ATOM      9  C   UNL A   1      33.866  23.968  24.761  1.00  0.00     0.078 C 
ATOM     10  C   UNL A   1      34.198  22.355  27.654  1.00  0.00     0.008 C 
ATOM     11  C   UNL A   1      32.946  22.659  26.847  1.00  0.00    -0.013 C 
ATOM     12  C   UNL A   1      32.448  21.540  25.951  1.00  0.00     0.009 C 
ATOM     13  C   UNL A   1      33.018  23.940  26.047  1.00  0.00     0.022 C 
ATOM     14  C   UNL A   1      33.145  21.394  24.578  1.00  0.00    -0.034 C 
ATOM     15  C   UNL A   1      34.443  20.579  24.713  1.00  0.00     0.011 C 
ATOM     16  C   UNL A   1      32.187  20.540  23.708  1.00  0.00     0.011 C 
ATOM     17  C   UNL A   1      33.406  22.765  23.866  1.00  0.00     0.025 C 
BRANCH   9  18
ATOM     18  C   UNL A   1      35.400  24.056  24.941  1.00  0.00     0.119 C 
BRANCH  18  19
ATOM     19  C   UNL A   1      36.457  23.354  24.108  1.00  0.00     0.225 C 
ATOM     20  O   UNL A   1      36.210  23.292  22.887  1.00  0.00    -0.275 OA
ATOM     21  N   UNL A   1      37.648  22.803  24.415  1.00  0.00    -0.326 N 
ATOM     22  H   UNL A   1      38.087  22.519  23.580  1.00  0.00     0.169 HD
BRANCH  21  23
ATOM     23  C   UNL A   1      38.491  22.486  25.495  1.00  0.00     0.041 A 
ATOM     24  C   UNL A   1      38.720  23.542  26.385  1.00  0.00     0.026 A 
ATOM     25  C   UNL A   1      39.182  21.302  25.724  1.00  0.00     0.039 A 
ATOM     26  C   UNL A   1      39.699  23.463  27.377  1.00  0.00     0.003 A 
ATOM     27  C   UNL A   1      40.251  21.230  26.649  1.00  0.00     0.058 A 
ATOM     28  C   UNL A   1      40.487  22.325  27.484  1.00  0.00     0.013 A 
BRANCH  27  29
ATOM     29  C   UNL A   1      41.191  20.041  26.696  1.00  0.00     0.416 C 
ATOM     30  F   UNL A   1      41.483  19.643  27.970  1.00  0.00    -0.166 F 
ATOM     31  F   UNL A   1      40.686  18.942  26.076  1.00  0.00    -0.166 F 
ATOM     32  F   UNL A   1      42.401  20.296  26.130  1.00  0.00    -0.166 F 
ENDBRANCH  27  29
ENDBRANCH  21  23
ENDBRANCH  18  19
ENDBRANCH   9  18
ENDBRANCH   7   9
ENDBRANCH   6   7
ENDBRANCH   5   6
ENDBRANCH   4   5
ENDBRANCH   3   4
ENDBRANCH   2   3
ENDBRANCH   1   2
BRANCH   1  33
ATOM     33  O   UNL A   1      33.566  31.236  27.830  1.00  0.00    -0.377 OA
BRANCH  33  34
ATOM     34  C   UNL A   1      34.948  31.337  28.136  1.00  0.00     0.188 C 
BRANCH  34  35
ATOM     35  C   UNL A   1      35.514  32.774  28.110  1.00  0.00     0.188 C 
BRANCH  35  36
ATOM     36  O   UNL A   1      35.003  33.792  28.949  1.00  0.00    -0.376 OA
BRANCH  36  37
ATOM     37  C   UNL A   1      34.224  34.865  28.455  1.00  0.00     0.202 C 
BRANCH  37  38
ATOM     38  C   UNL A   1      33.114  35.578  29.248  1.00  0.00     0.261 C 
BRANCH  38  39
ATOM     39  O   UNL A   1      32.602  34.934  30.413  1.00  0.00    -0.460 OA
BRANCH  39  40
ATOM     40  C   UNL A   1      32.797  35.577  31.579  1.00  0.00     0.338 C 
ATOM     41  O   UNL A   1      32.087  36.433  32.089  1.00  0.00    -0.246 OA
BRANCH  40  42
ATOM     42  C   UNL A   1      33.935  34.931  32.258  1.00  0.00     0.060 A 
ATOM     43  C   UNL A   1      35.180  35.577  32.248  1.00  0.00     0.016 A 
ATOM     44  C   UNL A   1      33.772  33.712  32.921  1.00  0.00     0.016 A 
ATOM     45  C   UNL A   1      36.274  34.996  32.877  1.00  0.00     0.010 A 
ATOM     46  C   UNL A   1      34.881  33.105  33.510  1.00  0.00     0.010 A 
ATOM     47  C   UNL A   1      36.140  33.730  33.456  1.00  0.00    -0.014 A 
BRANCH  47  48
ATOM     48  C   UNL A   1      37.363  32.956  33.760  1.00  0.00     0.031 A 
ATOM     49  C   UNL A   1      38.069  33.250  35.053  1.00  0.00     0.074 A 
ATOM     50  C   UNL A   1      37.809  31.996  32.934  1.00  0.00     0.049 A 
ATOM     51  N   UNL A   1      39.184  32.755  35.524  1.00  0.00    -0.248 NA
ATOM     52  C   UNL A   1      37.430  34.241  35.934  1.00  0.00     0.031 C 
ATOM     53  C   UNL A   1      37.170  31.588  31.685  1.00  0.00     0.029 A 
ATOM     54  N   UNL A   1      38.921  31.198  33.024  1.00  0.00    -0.354 N 
ATOM     55  C   UNL A   1      39.384  33.385  36.745  1.00  0.00     0.074 A 
ATOM     56  C   UNL A   1      38.294  34.316  36.932  1.00  0.00     0.031 C 
ATOM     57  C   UNL A   1      37.915  30.627  31.112  1.00  0.00     0.029 A 
ATOM     58  C   UNL A   1      39.099  30.381  31.937  1.00  0.00     0.049 A 
ATOM     59  H   UNL A   1      39.533  31.211  33.795  1.00  0.00     0.167 HD
ATOM     60  C   UNL A   1      40.388  33.199  37.632  1.00  0.00     0.037 A 
ATOM     61  C   UNL A   1      40.120  29.556  31.634  1.00  0.00     0.037 A 
ATOM     62  C   UNL A   1      41.469  32.271  37.435  1.00  0.00     0.049 A 
ATOM     63  C   UNL A   1      41.270  29.426  32.603  1.00  0.00     0.074 A 
ATOM     64  C   UNL A   1      42.528  31.989  38.279  1.00  0.00     0.029 A 
ATOM     65  N   UNL A   1      41.634  31.482  36.305  1.00  0.00    -0.354 N 
ATOM     66  N   UNL A   1      41.445  30.004  33.768  1.00  0.00    -0.248 NA
ATOM     67  C   UNL A   1      42.365  28.526  32.213  1.00  0.00     0.031 C 
ATOM     68  C   UNL A   1      43.369  31.080  37.632  1.00  0.00     0.029 A 
ATOM     69  C   UNL A   1      42.798  30.738  36.416  1.00  0.00     0.049 A 
ATOM     70  H   UNL A   1      41.017  31.455  35.540  1.00  0.00     0.167 HD
ATOM     71  C   UNL A   1      42.647  29.512  34.264  1.00  0.00     0.074 A 
ATOM     72  C   UNL A   1      43.150  28.578  33.279  1.00  0.00     0.031 C 
ATOM     73  C   UNL A   1      43.277  29.805  35.429  1.00  0.00     0.037 A 
BRANCH  60  74
ATOM     74  C   UNL A   1      40.387  34.046  38.871  1.00  0.00     0.064 A 
ATOM     75  C   UNL A   1      40.929  35.339  38.888  1.00  0.00     0.173 A 
ATOM     76  C   UNL A   1      39.807  33.562  40.053  1.00  0.00     0.173 A 
ATOM     77  F   UNL A   1      41.512  35.842  37.790  1.00  0.00    -0.203 F 
ATOM     78  C   UNL A   1      40.912  36.107  40.050  1.00  0.00     0.198 A 
ATOM     79  C   UNL A   1      39.760  34.345  41.202  1.00  0.00     0.198 A 
ATOM     80  F   UNL A   1      39.274  32.330  40.091  1.00  0.00    -0.203 F 
ATOM     81  F   UNL A   1      41.481  37.321  40.057  1.00  0.00    -0.200 F 
ATOM     82  C   UNL A   1      40.320  35.613  41.203  1.00  0.00     0.200 A 
ATOM     83  F   UNL A   1      39.175  33.871  42.311  1.00  0.00    -0.200 F 
ATOM     84  F   UNL A   1      40.294  36.358  42.317  1.00  0.00    -0.200 F 
ENDBRANCH  60  74
BRANCH  61  85
ATOM     85  C   UNL A   1      40.120  28.808  30.349  1.00  0.00     0.064 A 
ATOM     86  C   UNL A   1      40.757  29.320  29.210  1.00  0.00     0.173 A 
ATOM     87  C   UNL A   1      39.453  27.580  30.224  1.00  0.00     0.173 A 
ATOM     88  F   UNL A   1      41.387  30.502  29.270  1.00  0.00    -0.203 F 
ATOM     89  C   UNL A   1      40.703  28.648  27.990  1.00  0.00     0.198 A 
ATOM     90  C   UNL A   1      39.428  26.892  29.013  1.00  0.00     0.198 A 
ATOM     91  F   UNL A   1      38.824  27.045  31.281  1.00  0.00    -0.203 F 
ATOM     92  F   UNL A   1      41.271  29.189  26.904  1.00  0.00    -0.200 F 
ATOM     93  C   UNL A   1      40.044  27.432  27.895  1.00  0.00     0.200 A 
ATOM     94  F   UNL A   1      38.802  25.711  28.928  1.00  0.00    -0.200 F 
ATOM     95  F   UNL A   1      39.993  26.785  26.721  1.00  0.00    -0.200 F 
ENDBRANCH  61  85
BRANCH  73  96
ATOM     96  C   UNL A   1      44.555  29.072  35.730  1.00  0.00     0.064 A 
ATOM     97  C   UNL A   1      45.810  29.600  35.391  1.00  0.00     0.173 A 
ATOM     98  C   UNL A   1      44.523  27.844  36.409  1.00  0.00     0.173 A 
ATOM     99  F   UNL A   1      45.897  30.765  34.731  1.00  0.00    -0.203 F 
ATOM    100  C   UNL A   1      46.982  28.910  35.692  1.00  0.00     0.198 A 
ATOM    101  C   UNL A   1      45.697  27.176  36.742  1.00  0.00     0.198 A 
ATOM    102  F   UNL A   1      43.350  27.299  36.766  1.00  0.00    -0.203 F 
ATOM    103  F   UNL A   1      48.166  29.407  35.309  1.00  0.00    -0.200 F 
ATOM    104  C   UNL A   1      46.925  27.704  36.375  1.00  0.00     0.200 A 
ATOM    105  F   UNL A   1      45.641  26.020  37.419  1.00  0.00    -0.200 F 
ATOM    106  F   UNL A   1      48.055  27.048  36.673  1.00  0.00    -0.200 F 
ENDBRANCH  73  96
ENDBRANCH  47  48
ENDBRANCH  40  42
ENDBRANCH  39  40
ENDBRANCH  38  39
ENDBRANCH  37  38
ENDBRANCH  36  37
ENDBRANCH  35  36
ENDBRANCH  34  35
ENDBRANCH  33  34
ENDBRANCH   1  33
TORSDOF 24
ENDMDL
