MODEL 1
REMARK VINA RESULT:     -11.7      0.000      0.000
REMARK SMILES O=C(OCCOCCOCCOCCOC(=O)c1ccccc1C(=O)c1cccc(S(=O)(=O)N2CCOCC2)c1)c1ccc(-c2c3nc(c(-c4c(F)c(F)c(F)c(F)c4F)c4ccc([nH]4)c(-c4c(F)c(F)c(F)c(F)c4F)c4nc(c(-c5c(F)c(F)c(F)c(F)c5F)c5ccc2[nH]5)C=C4)C=C3)cc1
REMARK SMILES IDX 10 1 9 2 8 3 7 4 6 5 5 6 4 7 3 8 2 9 1 10 41 11 42 12 103 13
REMARK SMILES IDX 43 14 102 15 44 16 45 17 46 18 96 19 47 20 101 21 95 22
REMARK SMILES IDX 97 23 48 24 100 25 94 26 93 27 49 29 81 30 61 31 80 32 62 33
REMARK SMILES IDX 65 34 79 35 98 36 63 37 64 38 78 40 99 41 66 42 50 43 51 44
REMARK SMILES IDX 59 45 52 46 53 47 57 48 60 49 54 50 55 51 58 52 56 53 82 54
REMARK SMILES IDX 83 55 91 56 84 57 85 58 89 59 92 60 86 61 87 62 90 63 88 64
REMARK SMILES IDX 67 65 68 66 76 67 69 68 70 69 74 70 77 71 71 72 72 73 75 74
REMARK SMILES IDX 73 75 11 76 12 77 13 78 14 79 15 80 16 81 17 82 18 83 19 84
REMARK SMILES IDX 23 85 20 86 22 87 21 88 24 89 25 90 26 91 27 92 40 93 28 94
REMARK SMILES IDX 30 95 29 96 31 97 32 98 33 99 34 100 35 101 39 102 36 103
REMARK SMILES IDX 38 104 37 105
REMARK H PARENT 97 28 65 39
REMARK Flexibility Score: inf
ROOT
ATOM      1  C   UNL A   1      41.589  20.158  26.025  1.00  0.00     0.188 C 
ENDROOT
BRANCH   1   2
ATOM      2  O   UNL A   1      42.555  19.241  26.533  1.00  0.00    -0.377 OA
BRANCH   2   3
ATOM      3  C   UNL A   1      43.586  18.799  25.640  1.00  0.00     0.188 C 
BRANCH   3   4
ATOM      4  C   UNL A   1      44.325  19.901  24.874  1.00  0.00     0.188 C 
BRANCH   4   5
ATOM      5  O   UNL A   1      45.199  20.561  25.785  1.00  0.00    -0.376 OA
BRANCH   5   6
ATOM      6  C   UNL A   1      45.637  21.864  25.414  1.00  0.00     0.202 C 
BRANCH   6   7
ATOM      7  C   UNL A   1      45.265  22.907  26.458  1.00  0.00     0.261 C 
BRANCH   7   8
ATOM      8  O   UNL A   1      43.840  22.869  26.606  1.00  0.00    -0.460 OA
BRANCH   8   9
ATOM      9  C   UNL A   1      43.152  23.486  25.612  1.00  0.00     0.338 C 
ATOM     10  O   UNL A   1      43.154  23.209  24.427  1.00  0.00    -0.246 OA
BRANCH   9  11
ATOM     11  C   UNL A   1      42.381  24.580  26.226  1.00  0.00     0.060 A 
ATOM     12  C   UNL A   1      42.744  25.912  25.972  1.00  0.00     0.016 A 
ATOM     13  C   UNL A   1      41.339  24.274  27.100  1.00  0.00     0.016 A 
ATOM     14  C   UNL A   1      42.160  26.938  26.692  1.00  0.00     0.010 A 
ATOM     15  C   UNL A   1      40.756  25.305  27.833  1.00  0.00     0.010 A 
ATOM     16  C   UNL A   1      41.223  26.622  27.675  1.00  0.00    -0.014 A 
BRANCH  16  17
ATOM     17  C   UNL A   1      40.972  27.612  28.735  1.00  0.00     0.031 A 
ATOM     18  C   UNL A   1      41.895  27.598  29.916  1.00  0.00     0.074 A 
ATOM     19  C   UNL A   1      40.013  28.536  28.597  1.00  0.00     0.049 A 
ATOM     20  N   UNL A   1      41.798  28.219  31.057  1.00  0.00    -0.248 NA
ATOM     21  C   UNL A   1      43.105  26.764  29.785  1.00  0.00     0.031 C 
ATOM     22  C   UNL A   1      39.176  28.711  27.414  1.00  0.00     0.029 A 
ATOM     23  N   UNL A   1      39.584  29.498  29.469  1.00  0.00    -0.354 N 
ATOM     24  C   UNL A   1      42.901  27.812  31.797  1.00  0.00     0.074 A 
ATOM     25  C   UNL A   1      43.668  26.910  30.972  1.00  0.00     0.031 C 
ATOM     26  C   UNL A   1      38.310  29.711  27.642  1.00  0.00     0.029 A 
ATOM     27  C   UNL A   1      38.493  30.189  29.011  1.00  0.00     0.049 A 
ATOM     28  H   UNL A   1      40.015  29.677  30.337  1.00  0.00     0.167 HD
ATOM     29  C   UNL A   1      43.219  28.150  33.067  1.00  0.00     0.037 A 
ATOM     30  C   UNL A   1      37.699  31.059  29.663  1.00  0.00     0.037 A 
ATOM     31  C   UNL A   1      42.425  29.052  33.853  1.00  0.00     0.049 A 
ATOM     32  C   UNL A   1      38.019  31.371  31.100  1.00  0.00     0.074 A 
ATOM     33  C   UNL A   1      42.582  29.430  35.171  1.00  0.00     0.029 A 
ATOM     34  N   UNL A   1      41.307  29.721  33.368  1.00  0.00    -0.354 N 
ATOM     35  N   UNL A   1      39.002  30.915  31.844  1.00  0.00    -0.248 NA
ATOM     36  C   UNL A   1      37.117  32.293  31.798  1.00  0.00     0.031 C 
ATOM     37  C   UNL A   1      41.537  30.305  35.494  1.00  0.00     0.029 A 
ATOM     38  C   UNL A   1      40.754  30.502  34.364  1.00  0.00     0.049 A 
ATOM     39  H   UNL A   1      40.961  29.649  32.449  1.00  0.00     0.167 HD
ATOM     40  C   UNL A   1      38.845  31.498  33.092  1.00  0.00     0.074 A 
ATOM     41  C   UNL A   1      37.674  32.351  33.001  1.00  0.00     0.031 C 
ATOM     42  C   UNL A   1      39.591  31.343  34.214  1.00  0.00     0.037 A 
BRANCH  29  43
ATOM     43  C   UNL A   1      44.402  27.459  33.676  1.00  0.00     0.064 A 
ATOM     44  C   UNL A   1      44.280  26.259  34.392  1.00  0.00     0.173 A 
ATOM     45  C   UNL A   1      45.671  28.055  33.607  1.00  0.00     0.173 A 
ATOM     46  F   UNL A   1      43.083  25.666  34.516  1.00  0.00    -0.203 F 
ATOM     47  C   UNL A   1      45.377  25.703  35.049  1.00  0.00     0.198 A 
ATOM     48  C   UNL A   1      46.769  27.483  34.243  1.00  0.00     0.198 A 
ATOM     49  F   UNL A   1      45.841  29.209  32.944  1.00  0.00    -0.203 F 
ATOM     50  F   UNL A   1      45.222  24.594  35.786  1.00  0.00    -0.200 F 
ATOM     51  C   UNL A   1      46.618  26.315  34.975  1.00  0.00     0.200 A 
ATOM     52  F   UNL A   1      47.968  28.078  34.172  1.00  0.00    -0.200 F 
ATOM     53  F   UNL A   1      47.667  25.790  35.625  1.00  0.00    -0.200 F 
ENDBRANCH  29  43
BRANCH  30  54
ATOM     54  C   UNL A   1      36.510  31.615  28.971  1.00  0.00     0.064 A 
ATOM     55  C   UNL A   1      35.395  30.819  28.682  1.00  0.00     0.173 A 
ATOM     56  C   UNL A   1      36.438  32.980  28.646  1.00  0.00     0.173 A 
ATOM     57  F   UNL A   1      35.422  29.506  28.955  1.00  0.00    -0.203 F 
ATOM     58  C   UNL A   1      34.252  31.366  28.100  1.00  0.00     0.198 A 
ATOM     59  C   UNL A   1      35.286  33.531  28.089  1.00  0.00     0.198 A 
ATOM     60  F   UNL A   1      37.479  33.786  28.902  1.00  0.00    -0.203 F 
ATOM     61  F   UNL A   1      33.205  30.579  27.818  1.00  0.00    -0.200 F 
ATOM     62  C   UNL A   1      34.194  32.723  27.816  1.00  0.00     0.200 A 
ATOM     63  F   UNL A   1      35.231  34.844  27.831  1.00  0.00    -0.200 F 
ATOM     64  F   UNL A   1      33.086  33.250  27.278  1.00  0.00    -0.200 F 
ENDBRANCH  30  54
BRANCH  42  65
ATOM     65  C   UNL A   1      39.181  32.130  35.418  1.00  0.00     0.064 A 
ATOM     66  C   UNL A   1      38.402  31.555  36.431  1.00  0.00     0.173 A 
ATOM     67  C   UNL A   1      39.657  33.436  35.601  1.00  0.00     0.173 A 
ATOM     68  F   UNL A   1      37.920  30.312  36.290  1.00  0.00    -0.203 F 
ATOM     69  C   UNL A   1      38.112  32.267  37.591  1.00  0.00     0.198 A 
ATOM     70  C   UNL A   1      39.381  34.136  36.769  1.00  0.00     0.198 A 
ATOM     71  F   UNL A   1      40.413  34.017  34.658  1.00  0.00    -0.203 F 
ATOM     72  F   UNL A   1      37.352  31.710  38.543  1.00  0.00    -0.200 F 
ATOM     73  C   UNL A   1      38.609  33.551  37.763  1.00  0.00     0.200 A 
ATOM     74  F   UNL A   1      39.872  35.370  36.941  1.00  0.00    -0.200 F 
ATOM     75  F   UNL A   1      38.343  34.227  38.889  1.00  0.00    -0.200 F 
ENDBRANCH  42  65
ENDBRANCH  16  17
ENDBRANCH   9  11
ENDBRANCH   8   9
ENDBRANCH   7   8
ENDBRANCH   6   7
ENDBRANCH   5   6
ENDBRANCH   4   5
ENDBRANCH   3   4
ENDBRANCH   2   3
ENDBRANCH   1   2
BRANCH   1  76
ATOM     76  C   UNL A   1      40.520  20.737  26.976  1.00  0.00     0.188 C 
BRANCH  76  77
ATOM     77  O   UNL A   1      39.466  21.434  26.354  1.00  0.00    -0.376 OA
BRANCH  77  78
ATOM     78  C   UNL A   1      38.764  20.845  25.276  1.00  0.00     0.202 C 
BRANCH  78  79
ATOM     79  C   UNL A   1      37.250  20.589  25.239  1.00  0.00     0.261 C 
BRANCH  79  80
ATOM     80  O   UNL A   1      36.340  21.655  24.944  1.00  0.00    -0.460 OA
BRANCH  80  81
ATOM     81  C   UNL A   1      35.140  21.591  25.560  1.00  0.00     0.338 C 
ATOM     82  O   UNL A   1      34.926  21.846  26.734  1.00  0.00    -0.246 OA
BRANCH  81  83
ATOM     83  C   UNL A   1      34.046  21.416  24.592  1.00  0.00     0.071 A 
ATOM     84  C   UNL A   1      33.618  20.073  24.468  1.00  0.00     0.016 A 
ATOM     85  C   UNL A   1      33.487  22.404  23.770  1.00  0.00     0.037 A 
ATOM     86  C   UNL A   1      32.613  19.710  23.577  1.00  0.00     0.001 A 
ATOM     87  C   UNL A   1      32.472  22.008  22.868  1.00  0.00     0.013 A 
ATOM     88  C   UNL A   1      32.036  20.682  22.777  1.00  0.00     0.001 A 
BRANCH  85  89
ATOM     89  C   UNL A   1      33.905  23.830  23.633  1.00  0.00     0.193 C 
ATOM     90  O   UNL A   1      34.752  24.133  22.792  1.00  0.00    -0.289 OA
BRANCH  89  91
ATOM     91  C   UNL A   1      33.366  24.951  24.403  1.00  0.00     0.024 A 
ATOM     92  C   UNL A   1      33.073  24.763  25.758  1.00  0.00     0.012 A 
ATOM     93  C   UNL A   1      33.012  26.135  23.749  1.00  0.00     0.034 A 
ATOM     94  C   UNL A   1      32.451  25.784  26.479  1.00  0.00     0.002 A 
ATOM     95  C   UNL A   1      32.421  27.163  24.485  1.00  0.00     0.083 A 
ATOM     96  C   UNL A   1      32.133  26.989  25.847  1.00  0.00     0.022 A 
BRANCH  95  97
ATOM     97  S   UNL A   1      32.139  28.780  23.781  1.00  0.00     0.243 S 
ATOM     98  O   UNL A   1      32.308  29.730  24.859  1.00  0.00    -0.207 OA
ATOM     99  O   UNL A   1      32.940  28.824  22.578  1.00  0.00    -0.207 OA
BRANCH  97 100
ATOM    100  N   UNL A   1      30.528  28.752  23.335  1.00  0.00    -0.193 NA
ATOM    101  C   UNL A   1      29.918  29.901  22.629  1.00  0.00     0.131 C 
ATOM    102  C   UNL A   1      29.811  27.478  23.109  1.00  0.00     0.131 C 
ATOM    103  C   UNL A   1      28.421  29.978  22.967  1.00  0.00     0.177 C 
ATOM    104  C   UNL A   1      28.345  27.687  23.501  1.00  0.00     0.177 C 
ATOM    105  O   UNL A   1      27.754  28.730  22.710  1.00  0.00    -0.379 OA
ENDBRANCH  97 100
ENDBRANCH  95  97
ENDBRANCH  89  91
ENDBRANCH  85  89
ENDBRANCH  81  83
ENDBRANCH  80  81
ENDBRANCH  79  80
ENDBRANCH  78  79
ENDBRANCH  77  78
ENDBRANCH  76  77
ENDBRANCH   1  76
TORSDOF 24
ENDMDL
MODEL 2
REMARK VINA RESULT:     -11.2      4.714     10.958
REMARK SMILES O=C(OCCOCCOCCOCCOC(=O)c1ccccc1C(=O)c1cccc(S(=O)(=O)N2CCOCC2)c1)c1ccc(-c2c3nc(c(-c4c(F)c(F)c(F)c(F)c4F)c4ccc([nH]4)c(-c4c(F)c(F)c(F)c(F)c4F)c4nc(c(-c5c(F)c(F)c(F)c(F)c5F)c5ccc2[nH]5)C=C4)C=C3)cc1
REMARK SMILES IDX 10 1 9 2 8 3 7 4 6 5 5 6 4 7 3 8 2 9 1 10 41 11 42 12 103 13
REMARK SMILES IDX 43 14 102 15 44 16 45 17 46 18 96 19 47 20 101 21 95 22
REMARK SMILES IDX 97 23 48 24 100 25 94 26 93 27 49 29 81 30 61 31 80 32 62 33
REMARK SMILES IDX 65 34 79 35 98 36 63 37 64 38 78 40 99 41 66 42 50 43 51 44
REMARK SMILES IDX 59 45 52 46 53 47 57 48 60 49 54 50 55 51 58 52 56 53 82 54
REMARK SMILES IDX 83 55 91 56 84 57 85 58 89 59 92 60 86 61 87 62 90 63 88 64
REMARK SMILES IDX 67 65 68 66 76 67 69 68 70 69 74 70 77 71 71 72 72 73 75 74
REMARK SMILES IDX 73 75 11 76 12 77 13 78 14 79 15 80 16 81 17 82 18 83 19 84
REMARK SMILES IDX 23 85 20 86 22 87 21 88 24 89 25 90 26 91 27 92 40 93 28 94
REMARK SMILES IDX 30 95 29 96 31 97 32 98 33 99 34 100 35 101 39 102 36 103
REMARK SMILES IDX 38 104 37 105
REMARK H PARENT 97 28 65 39
REMARK Flexibility Score: inf
ROOT
ATOM      1  C   UNL A   1      33.684  34.180  28.493  1.00  0.00     0.188 C 
ENDROOT
BRANCH   1   2
ATOM      2  O   UNL A   1      32.870  34.631  29.573  1.00  0.00    -0.377 OA
BRANCH   2   3
ATOM      3  C   UNL A   1      32.872  36.035  29.864  1.00  0.00     0.188 C 
BRANCH   3   4
ATOM      4  C   UNL A   1      33.209  36.417  31.309  1.00  0.00     0.188 C 
BRANCH   4   5
ATOM      5  O   UNL A   1      33.730  35.263  31.961  1.00  0.00    -0.376 OA
BRANCH   5   6
ATOM      6  C   UNL A   1      35.065  35.356  32.448  1.00  0.00     0.202 C 
BRANCH   6   7
ATOM      7  C   UNL A   1      35.553  34.035  33.022  1.00  0.00     0.261 C 
BRANCH   7   8
ATOM      8  O   UNL A   1      36.180  33.314  31.955  1.00  0.00    -0.460 OA
BRANCH   8   9
ATOM      9  C   UNL A   1      35.432  32.310  31.433  1.00  0.00     0.338 C 
ATOM     10  O   UNL A   1      34.218  32.252  31.358  1.00  0.00    -0.246 OA
BRANCH   9  11
ATOM     11  C   UNL A   1      36.361  31.268  30.964  1.00  0.00     0.060 A 
ATOM     12  C   UNL A   1      37.162  30.584  31.891  1.00  0.00     0.016 A 
ATOM     13  C   UNL A   1      36.474  31.020  29.597  1.00  0.00     0.016 A 
ATOM     14  C   UNL A   1      38.173  29.750  31.451  1.00  0.00     0.010 A 
ATOM     15  C   UNL A   1      37.497  30.187  29.150  1.00  0.00     0.010 A 
ATOM     16  C   UNL A   1      38.385  29.617  30.078  1.00  0.00    -0.014 A 
BRANCH  16  17
ATOM     17  C   UNL A   1      39.704  29.147  29.626  1.00  0.00     0.031 A 
ATOM     18  C   UNL A   1      40.829  30.137  29.654  1.00  0.00     0.074 A 
ATOM     19  C   UNL A   1      39.899  27.866  29.290  1.00  0.00     0.049 A 
ATOM     20  N   UNL A   1      42.027  30.053  29.146  1.00  0.00    -0.248 NA
ATOM     21  C   UNL A   1      40.561  31.404  30.360  1.00  0.00     0.031 C 
ATOM     22  C   UNL A   1      38.894  26.810  29.382  1.00  0.00     0.029 A 
ATOM     23  N   UNL A   1      41.011  27.242  28.798  1.00  0.00    -0.354 N 
ATOM     24  C   UNL A   1      42.635  31.271  29.426  1.00  0.00     0.074 A 
ATOM     25  C   UNL A   1      41.688  32.070  30.166  1.00  0.00     0.031 C 
ATOM     26  C   UNL A   1      39.432  25.663  28.936  1.00  0.00     0.029 A 
ATOM     27  C   UNL A   1      40.789  25.931  28.465  1.00  0.00     0.049 A 
ATOM     28  H   UNL A   1      41.884  27.687  28.695  1.00  0.00     0.167 HD
ATOM     29  C   UNL A   1      43.871  31.682  29.065  1.00  0.00     0.037 A 
ATOM     30  C   UNL A   1      41.580  25.076  27.791  1.00  0.00     0.037 A 
ATOM     31  C   UNL A   1      44.782  30.854  28.326  1.00  0.00     0.049 A 
ATOM     32  C   UNL A   1      42.925  25.570  27.328  1.00  0.00     0.074 A 
ATOM     33  C   UNL A   1      46.033  31.160  27.831  1.00  0.00     0.029 A 
ATOM     34  N   UNL A   1      44.519  29.534  27.980  1.00  0.00    -0.354 N 
ATOM     35  N   UNL A   1      43.473  26.752  27.499  1.00  0.00    -0.248 NA
ATOM     36  C   UNL A   1      43.752  24.630  26.565  1.00  0.00     0.031 C 
ATOM     37  C   UNL A   1      46.513  30.032  27.153  1.00  0.00     0.029 A 
ATOM     38  C   UNL A   1      45.578  29.011  27.265  1.00  0.00     0.049 A 
ATOM     39  H   UNL A   1      43.696  29.043  28.212  1.00  0.00     0.167 HD
ATOM     40  C   UNL A   1      44.709  26.699  26.874  1.00  0.00     0.074 A 
ATOM     41  C   UNL A   1      44.835  25.360  26.327  1.00  0.00     0.031 C 
ATOM     42  C   UNL A   1      45.654  27.664  26.753  1.00  0.00     0.037 A 
BRANCH  29  43
ATOM     43  C   UNL A   1      44.232  33.103  29.383  1.00  0.00     0.064 A 
ATOM     44  C   UNL A   1      44.755  33.480  30.629  1.00  0.00     0.173 A 
ATOM     45  C   UNL A   1      43.973  34.116  28.447  1.00  0.00     0.173 A 
ATOM     46  F   UNL A   1      44.988  32.554  31.571  1.00  0.00    -0.203 F 
ATOM     47  C   UNL A   1      44.967  34.822  30.939  1.00  0.00     0.198 A 
ATOM     48  C   UNL A   1      44.211  35.454  28.751  1.00  0.00     0.198 A 
ATOM     49  F   UNL A   1      43.462  33.811  27.244  1.00  0.00    -0.203 F 
ATOM     50  F   UNL A   1      45.400  35.166  32.161  1.00  0.00    -0.200 F 
ATOM     51  C   UNL A   1      44.695  35.807  30.001  1.00  0.00     0.200 A 
ATOM     52  F   UNL A   1      43.945  36.403  27.844  1.00  0.00    -0.200 F 
ATOM     53  F   UNL A   1      44.880  37.098  30.309  1.00  0.00    -0.200 F 
ENDBRANCH  29  43
BRANCH  30  54
ATOM     54  C   UNL A   1      41.074  23.718  27.469  1.00  0.00     0.064 A 
ATOM     55  C   UNL A   1      40.054  23.524  26.530  1.00  0.00     0.173 A 
ATOM     56  C   UNL A   1      41.654  22.578  28.049  1.00  0.00     0.173 A 
ATOM     57  F   UNL A   1      39.455  24.582  25.964  1.00  0.00    -0.203 F 
ATOM     58  C   UNL A   1      39.637  22.241  26.178  1.00  0.00     0.198 A 
ATOM     59  C   UNL A   1      41.255  21.296  27.676  1.00  0.00     0.198 A 
ATOM     60  F   UNL A   1      42.635  22.710  28.953  1.00  0.00    -0.203 F 
ATOM     61  F   UNL A   1      38.646  22.082  25.289  1.00  0.00    -0.200 F 
ATOM     62  C   UNL A   1      40.246  21.129  26.742  1.00  0.00     0.200 A 
ATOM     63  F   UNL A   1      41.857  20.227  28.213  1.00  0.00    -0.200 F 
ATOM     64  F   UNL A   1      39.859  19.896  26.384  1.00  0.00    -0.200 F 
ENDBRANCH  30  54
BRANCH  42  65
ATOM     65  C   UNL A   1      46.912  27.299  26.030  1.00  0.00     0.064 A 
ATOM     66  C   UNL A   1      47.043  27.504  24.651  1.00  0.00     0.173 A 
ATOM     67  C   UNL A   1      48.025  26.834  26.746  1.00  0.00     0.173 A 
ATOM     68  F   UNL A   1      45.998  27.938  23.930  1.00  0.00    -0.203 F 
ATOM     69  C   UNL A   1      48.252  27.252  24.009  1.00  0.00     0.198 A 
ATOM     70  C   UNL A   1      49.236  26.603  26.104  1.00  0.00     0.198 A 
ATOM     71  F   UNL A   1      47.942  26.634  28.069  1.00  0.00    -0.203 F 
ATOM     72  F   UNL A   1      48.356  27.437  22.686  1.00  0.00    -0.200 F 
ATOM     73  C   UNL A   1      49.348  26.812  24.737  1.00  0.00     0.200 A 
ATOM     74  F   UNL A   1      50.298  26.191  26.809  1.00  0.00    -0.200 F 
ATOM     75  F   UNL A   1      50.517  26.589  24.119  1.00  0.00    -0.200 F 
ENDBRANCH  42  65
ENDBRANCH  16  17
ENDBRANCH   9  11
ENDBRANCH   8   9
ENDBRANCH   7   8
ENDBRANCH   6   7
ENDBRANCH   5   6
ENDBRANCH   4   5
ENDBRANCH   3   4
ENDBRANCH   2   3
ENDBRANCH   1   2
BRANCH   1  76
ATOM     76  C   UNL A   1      33.398  32.805  27.851  1.00  0.00     0.188 C 
BRANCH  76  77
ATOM     77  O   UNL A   1      32.133  32.666  27.249  1.00  0.00    -0.376 OA
BRANCH  77  78
ATOM     78  C   UNL A   1      31.842  31.529  26.461  1.00  0.00     0.202 C 
BRANCH  78  79
ATOM     79  C   UNL A   1      31.585  30.115  27.006  1.00  0.00     0.261 C 
BRANCH  79  80
ATOM     80  O   UNL A   1      32.407  29.018  26.595  1.00  0.00    -0.460 OA
BRANCH  80  81
ATOM     81  C   UNL A   1      32.592  28.887  25.264  1.00  0.00     0.338 C 
ATOM     82  O   UNL A   1      33.660  28.975  24.679  1.00  0.00    -0.246 OA
BRANCH  81  83
ATOM     83  C   UNL A   1      31.384  28.374  24.599  1.00  0.00     0.071 A 
ATOM     84  C   UNL A   1      30.855  29.265  23.635  1.00  0.00     0.016 A 
ATOM     85  C   UNL A   1      30.709  27.181  24.890  1.00  0.00     0.037 A 
ATOM     86  C   UNL A   1      29.696  28.963  22.927  1.00  0.00     0.001 A 
ATOM     87  C   UNL A   1      29.530  26.901  24.160  1.00  0.00     0.013 A 
ATOM     88  C   UNL A   1      29.033  27.775  23.188  1.00  0.00     0.001 A 
BRANCH  85  89
ATOM     89  C   UNL A   1      31.009  26.195  25.970  1.00  0.00     0.193 C 
ATOM     90  O   UNL A   1      31.098  26.584  27.135  1.00  0.00    -0.289 OA
BRANCH  89  91
ATOM     91  C   UNL A   1      31.181  24.754  25.781  1.00  0.00     0.024 A 
ATOM     92  C   UNL A   1      30.316  23.877  26.442  1.00  0.00     0.012 A 
ATOM     93  C   UNL A   1      32.288  24.276  25.073  1.00  0.00     0.034 A 
ATOM     94  C   UNL A   1      30.536  22.501  26.366  1.00  0.00     0.002 A 
ATOM     95  C   UNL A   1      32.481  22.897  24.975  1.00  0.00     0.083 A 
ATOM     96  C   UNL A   1      31.613  22.008  25.625  1.00  0.00     0.022 A 
BRANCH  95  97
ATOM     97  S   UNL A   1      33.737  22.199  23.914  1.00  0.00     0.243 S 
ATOM     98  O   UNL A   1      33.459  22.682  22.579  1.00  0.00    -0.207 OA
ATOM     99  O   UNL A   1      34.994  22.452  24.583  1.00  0.00    -0.207 OA
BRANCH  97 100
ATOM    100  N   UNL A   1      33.442  20.554  23.963  1.00  0.00    -0.193 NA
ATOM    101  C   UNL A   1      34.123  19.692  24.955  1.00  0.00     0.131 C 
ATOM    102  C   UNL A   1      32.171  19.983  23.464  1.00  0.00     0.131 C 
ATOM    103  C   UNL A   1      34.278  18.274  24.384  1.00  0.00     0.177 C 
ATOM    104  C   UNL A   1      32.469  18.587  22.910  1.00  0.00     0.177 C 
ATOM    105  O   UNL A   1      33.019  17.743  23.933  1.00  0.00    -0.379 OA
ENDBRANCH  97 100
ENDBRANCH  95  97
ENDBRANCH  89  91
ENDBRANCH  85  89
ENDBRANCH  81  83
ENDBRANCH  80  81
ENDBRANCH  79  80
ENDBRANCH  78  79
ENDBRANCH  77  78
ENDBRANCH  76  77
ENDBRANCH   1  76
TORSDOF 24
ENDMDL
MODEL 3
REMARK VINA RESULT:     -10.7      3.454      9.854
REMARK SMILES O=C(OCCOCCOCCOCCOC(=O)c1ccccc1C(=O)c1cccc(S(=O)(=O)N2CCOCC2)c1)c1ccc(-c2c3nc(c(-c4c(F)c(F)c(F)c(F)c4F)c4ccc([nH]4)c(-c4c(F)c(F)c(F)c(F)c4F)c4nc(c(-c5c(F)c(F)c(F)c(F)c5F)c5ccc2[nH]5)C=C4)C=C3)cc1
REMARK SMILES IDX 10 1 9 2 8 3 7 4 6 5 5 6 4 7 3 8 2 9 1 10 41 11 42 12 103 13
REMARK SMILES IDX 43 14 102 15 44 16 45 17 46 18 96 19 47 20 101 21 95 22
REMARK SMILES IDX 97 23 48 24 100 25 94 26 93 27 49 29 81 30 61 31 80 32 62 33
REMARK SMILES IDX 65 34 79 35 98 36 63 37 64 38 78 40 99 41 66 42 50 43 51 44
REMARK SMILES IDX 59 45 52 46 53 47 57 48 60 49 54 50 55 51 58 52 56 53 82 54
REMARK SMILES IDX 83 55 91 56 84 57 85 58 89 59 92 60 86 61 87 62 90 63 88 64
REMARK SMILES IDX 67 65 68 66 76 67 69 68 70 69 74 70 77 71 71 72 72 73 75 74
REMARK SMILES IDX 73 75 11 76 12 77 13 78 14 79 15 80 16 81 17 82 18 83 19 84
REMARK SMILES IDX 23 85 20 86 22 87 21 88 24 89 25 90 26 91 27 92 40 93 28 94
REMARK SMILES IDX 30 95 29 96 31 97 32 98 33 99 34 100 35 101 39 102 36 103
REMARK SMILES IDX 38 104 37 105
REMARK H PARENT 97 28 65 39
REMARK Flexibility Score: inf
ROOT
ATOM      1  C   UNL A   1      35.098  30.887  28.034  1.00  0.00     0.188 C 
ENDROOT
BRANCH   1   2
ATOM      2  O   UNL A   1      34.497  31.987  28.714  1.00  0.00    -0.377 OA
BRANCH   2   3
ATOM      3  C   UNL A   1      34.462  33.249  28.035  1.00  0.00     0.188 C 
BRANCH   3   4
ATOM      4  C   UNL A   1      33.071  33.766  27.658  1.00  0.00     0.188 C 
BRANCH   4   5
ATOM      5  O   UNL A   1      32.566  34.518  28.757  1.00  0.00    -0.376 OA
BRANCH   5   6
ATOM      6  C   UNL A   1      33.061  35.844  28.901  1.00  0.00     0.202 C 
BRANCH   6   7
ATOM      7  C   UNL A   1      32.528  36.516  30.158  1.00  0.00     0.261 C 
BRANCH   7   8
ATOM      8  O   UNL A   1      33.495  36.307  31.194  1.00  0.00    -0.460 OA
BRANCH   8   9
ATOM      9  C   UNL A   1      33.249  35.236  31.990  1.00  0.00     0.338 C 
ATOM     10  O   UNL A   1      32.270  35.039  32.685  1.00  0.00    -0.246 OA
BRANCH   9  11
ATOM     11  C   UNL A   1      34.402  34.327  31.871  1.00  0.00     0.060 A 
ATOM     12  C   UNL A   1      34.388  33.096  32.545  1.00  0.00     0.016 A 
ATOM     13  C   UNL A   1      35.515  34.730  31.136  1.00  0.00     0.016 A 
ATOM     14  C   UNL A   1      35.534  32.325  32.604  1.00  0.00     0.010 A 
ATOM     15  C   UNL A   1      36.674  33.960  31.200  1.00  0.00     0.010 A 
ATOM     16  C   UNL A   1      36.696  32.801  31.994  1.00  0.00    -0.014 A 
BRANCH  16  17
ATOM     17  C   UNL A   1      37.986  32.256  32.447  1.00  0.00     0.031 A 
ATOM     18  C   UNL A   1      38.641  31.232  31.570  1.00  0.00     0.074 A 
ATOM     19  C   UNL A   1      38.580  32.726  33.551  1.00  0.00     0.049 A 
ATOM     20  N   UNL A   1      39.666  30.462  31.810  1.00  0.00    -0.248 NA
ATOM     21  C   UNL A   1      38.055  31.055  30.229  1.00  0.00     0.031 C 
ATOM     22  C   UNL A   1      38.081  33.825  34.372  1.00  0.00     0.029 A 
ATOM     23  N   UNL A   1      39.733  32.328  34.170  1.00  0.00    -0.354 N 
ATOM     24  C   UNL A   1      39.814  29.677  30.673  1.00  0.00     0.074 A 
ATOM     25  C   UNL A   1      38.793  30.075  29.734  1.00  0.00     0.031 C 
ATOM     26  C   UNL A   1      38.916  34.003  35.409  1.00  0.00     0.029 A 
ATOM     27  C   UNL A   1      39.960  32.981  35.353  1.00  0.00     0.049 A 
ATOM     28  H   UNL A   1      40.339  31.644  33.803  1.00  0.00     0.167 HD
ATOM     29  C   UNL A   1      40.715  28.693  30.457  1.00  0.00     0.037 A 
ATOM     30  C   UNL A   1      40.873  32.725  36.307  1.00  0.00     0.037 A 
ATOM     31  C   UNL A   1      41.715  28.328  31.421  1.00  0.00     0.049 A 
ATOM     32  C   UNL A   1      41.823  31.578  36.089  1.00  0.00     0.074 A 
ATOM     33  C   UNL A   1      42.644  27.309  31.371  1.00  0.00     0.029 A 
ATOM     34  N   UNL A   1      41.906  28.994  32.626  1.00  0.00    -0.354 N 
ATOM     35  N   UNL A   1      41.909  30.763  35.062  1.00  0.00    -0.248 NA
ATOM     36  C   UNL A   1      42.784  31.297  37.161  1.00  0.00     0.031 C 
ATOM     37  C   UNL A   1      43.376  27.338  32.564  1.00  0.00     0.029 A 
ATOM     38  C   UNL A   1      42.930  28.402  33.338  1.00  0.00     0.049 A 
ATOM     39  H   UNL A   1      41.386  29.775  32.927  1.00  0.00     0.167 HD
ATOM     40  C   UNL A   1      42.935  29.878  35.356  1.00  0.00     0.074 A 
ATOM     41  C   UNL A   1      43.449  30.264  36.657  1.00  0.00     0.031 C 
ATOM     42  C   UNL A   1      43.409  28.837  34.627  1.00  0.00     0.037 A 
BRANCH  29  43
ATOM     43  C   UNL A   1      40.569  27.908  29.187  1.00  0.00     0.064 A 
ATOM     44  C   UNL A   1      39.706  26.807  29.084  1.00  0.00     0.173 A 
ATOM     45  C   UNL A   1      41.371  28.219  28.078  1.00  0.00     0.173 A 
ATOM     46  F   UNL A   1      38.943  26.447  30.127  1.00  0.00    -0.203 F 
ATOM     47  C   UNL A   1      39.680  26.024  27.931  1.00  0.00     0.198 A 
ATOM     48  C   UNL A   1      41.323  27.450  26.919  1.00  0.00     0.198 A 
ATOM     49  F   UNL A   1      42.221  29.256  28.128  1.00  0.00    -0.203 F 
ATOM     50  F   UNL A   1      38.900  24.934  27.880  1.00  0.00    -0.200 F 
ATOM     51  C   UNL A   1      40.488  26.345  26.851  1.00  0.00     0.200 A 
ATOM     52  F   UNL A   1      42.107  27.761  25.877  1.00  0.00    -0.200 F 
ATOM     53  F   UNL A   1      40.478  25.578  25.751  1.00  0.00    -0.200 F 
ENDBRANCH  29  43
BRANCH  30  54
ATOM     54  C   UNL A   1      40.862  33.527  37.557  1.00  0.00     0.064 A 
ATOM     55  C   UNL A   1      39.960  33.252  38.591  1.00  0.00     0.173 A 
ATOM     56  C   UNL A   1      41.808  34.544  37.768  1.00  0.00     0.173 A 
ATOM     57  F   UNL A   1      39.025  32.304  38.430  1.00  0.00    -0.203 F 
ATOM     58  C   UNL A   1      40.007  33.960  39.792  1.00  0.00     0.198 A 
ATOM     59  C   UNL A   1      41.871  35.231  38.977  1.00  0.00     0.198 A 
ATOM     60  F   UNL A   1      42.695  34.845  36.808  1.00  0.00    -0.203 F 
ATOM     61  F   UNL A   1      39.121  33.690  40.761  1.00  0.00    -0.200 F 
ATOM     62  C   UNL A   1      40.970  34.939  39.988  1.00  0.00     0.200 A 
ATOM     63  F   UNL A   1      42.812  36.166  39.166  1.00  0.00    -0.200 F 
ATOM     64  F   UNL A   1      41.027  35.603  41.152  1.00  0.00    -0.200 F 
ENDBRANCH  30  54
BRANCH  42  65
ATOM     65  C   UNL A   1      44.553  28.066  35.205  1.00  0.00     0.064 A 
ATOM     66  C   UNL A   1      44.339  26.937  36.006  1.00  0.00     0.173 A 
ATOM     67  C   UNL A   1      45.872  28.405  34.869  1.00  0.00     0.173 A 
ATOM     68  F   UNL A   1      43.093  26.586  36.358  1.00  0.00    -0.203 F 
ATOM     69  C   UNL A   1      45.411  26.173  36.455  1.00  0.00     0.198 A 
ATOM     70  C   UNL A   1      46.939  27.627  35.303  1.00  0.00     0.198 A 
ATOM     71  F   UNL A   1      46.118  29.474  34.096  1.00  0.00    -0.203 F 
ATOM     72  F   UNL A   1      45.189  25.105  37.235  1.00  0.00    -0.200 F 
ATOM     73  C   UNL A   1      46.707  26.512  36.095  1.00  0.00     0.200 A 
ATOM     74  F   UNL A   1      48.189  27.948  34.944  1.00  0.00    -0.200 F 
ATOM     75  F   UNL A   1      47.737  25.762  36.513  1.00  0.00    -0.200 F 
ENDBRANCH  42  65
ENDBRANCH  16  17
ENDBRANCH   9  11
ENDBRANCH   8   9
ENDBRANCH   7   8
ENDBRANCH   6   7
ENDBRANCH   5   6
ENDBRANCH   4   5
ENDBRANCH   3   4
ENDBRANCH   2   3
ENDBRANCH   1   2
BRANCH   1  76
ATOM     76  C   UNL A   1      34.243  30.029  27.077  1.00  0.00     0.188 C 
BRANCH  76  77
ATOM     77  O   UNL A   1      32.985  29.638  27.572  1.00  0.00    -0.376 OA
BRANCH  77  78
ATOM     78  C   UNL A   1      32.032  29.051  26.708  1.00  0.00     0.202 C 
BRANCH  78  79
ATOM     79  C   UNL A   1      31.895  27.546  26.430  1.00  0.00     0.261 C 
BRANCH  79  80
ATOM     80  O   UNL A   1      30.633  26.991  26.046  1.00  0.00    -0.460 OA
BRANCH  80  81
ATOM     81  C   UNL A   1      30.552  26.535  24.778  1.00  0.00     0.338 C 
ATOM     82  O   UNL A   1      30.374  25.373  24.447  1.00  0.00    -0.246 OA
BRANCH  81  83
ATOM     83  C   UNL A   1      30.456  27.639  23.811  1.00  0.00     0.071 A 
ATOM     84  C   UNL A   1      29.152  28.179  23.706  1.00  0.00     0.016 A 
ATOM     85  C   UNL A   1      31.475  28.112  22.973  1.00  0.00     0.037 A 
ATOM     86  C   UNL A   1      28.862  29.211  22.819  1.00  0.00     0.001 A 
ATOM     87  C   UNL A   1      31.152  29.156  22.075  1.00  0.00     0.013 A 
ATOM     88  C   UNL A   1      29.867  29.703  22.003  1.00  0.00     0.001 A 
BRANCH  85  89
ATOM     89  C   UNL A   1      32.858  27.574  22.815  1.00  0.00     0.193 C 
ATOM     90  O   UNL A   1      33.819  28.339  22.909  1.00  0.00    -0.289 OA
BRANCH  89  91
ATOM     91  C   UNL A   1      33.202  26.171  22.584  1.00  0.00     0.024 A 
ATOM     92  C   UNL A   1      32.689  25.525  21.454  1.00  0.00     0.012 A 
ATOM     93  C   UNL A   1      33.904  25.459  23.561  1.00  0.00     0.034 A 
ATOM     94  C   UNL A   1      32.911  24.158  21.279  1.00  0.00     0.002 A 
ATOM     95  C   UNL A   1      34.151  24.100  23.361  1.00  0.00     0.083 A 
ATOM     96  C   UNL A   1      33.650  23.445  22.226  1.00  0.00     0.022 A 
BRANCH  95  97
ATOM     97  S   UNL A   1      35.221  23.170  24.447  1.00  0.00     0.243 S 
ATOM     98  O   UNL A   1      36.364  22.775  23.653  1.00  0.00    -0.207 OA
ATOM     99  O   UNL A   1      35.350  23.971  25.644  1.00  0.00    -0.207 OA
BRANCH  97 100
ATOM    100  N   UNL A   1      34.331  21.806  24.824  1.00  0.00    -0.193 NA
ATOM    101  C   UNL A   1      34.994  20.496  25.009  1.00  0.00     0.131 C 
ATOM    102  C   UNL A   1      33.023  21.903  25.510  1.00  0.00     0.131 C 
ATOM    103  C   UNL A   1      34.023  19.369  24.626  1.00  0.00     0.177 C 
ATOM    104  C   UNL A   1      32.152  20.739  25.028  1.00  0.00     0.177 C 
ATOM    105  O   UNL A   1      32.775  19.482  25.332  1.00  0.00    -0.379 OA
ENDBRANCH  97 100
ENDBRANCH  95  97
ENDBRANCH  89  91
ENDBRANCH  85  89
ENDBRANCH  81  83
ENDBRANCH  80  81
ENDBRANCH  79  80
ENDBRANCH  78  79
ENDBRANCH  77  78
ENDBRANCH  76  77
ENDBRANCH   1  76
TORSDOF 24
ENDMDL
