MODEL 1
REMARK VINA RESULT:     -10.5      0.000      0.000
REMARK SMILES COc1ccc(-c2ccc(CCC(=O)OCCOCCOCCOCCOC(=O)c3ccc(-c4c5nc(c(-c6c(F)c(F)c(F)c(F)c6F)c6ccc([nH]6)c(-c6c(F)c(F)c(F)c(F)c6F)c6nc(c(-c7c(F)c(F)c(F)c(F)c7F)c7ccc4[nH]7)C=C6)C=C5)cc3)n2-c2ccc(C(C)=O)cc2)cc1
REMARK SMILES IDX 20 1 19 2 18 3 17 4 16 5 15 6 13 7 14 8 12 9 11 10 10 11
REMARK SMILES IDX 7 12 8 13 93 14 9 15 6 16 3 17 4 18 104 19 5 20 103 21 2 22
REMARK SMILES IDX 1 23 94 24 95 25 102 26 96 27 101 28 97 29 98 30 99 31
REMARK SMILES IDX 100 32 21 33 22 34 23 35 24 36 25 37 26 38 27 39 28 40 29 41
REMARK SMILES IDX 30 42 31 43 92 44 32 45 91 46 33 47 34 48 35 49 85 50 36 51
REMARK SMILES IDX 90 52 84 53 86 54 37 55 89 56 83 57 82 58 38 60 70 61 50 62
REMARK SMILES IDX 69 63 51 64 54 65 68 66 87 67 52 68 53 69 67 71 88 72 55 73
REMARK SMILES IDX 39 74 40 75 48 76 41 77 42 78 46 79 49 80 43 81 44 82 47 83
REMARK SMILES IDX 45 84 71 85 72 86 80 87 73 88 74 89 78 90 81 91 75 92 76 93
REMARK SMILES IDX 79 94 77 95 56 96 57 97 65 98 58 99 59 100 63 101 66 102
REMARK SMILES IDX 60 103 61 104 64 105 62 106
REMARK H PARENT 86 59 54 70
REMARK Flexibility Score: inf
ROOT
ATOM      1  C   UNL A   1      36.236  22.295  24.037  1.00  0.00     0.188 C 
ENDROOT
BRANCH   1   2
ATOM      2  C   UNL A   1      35.306  21.212  24.597  1.00  0.00     0.188 C 
BRANCH   2   3
ATOM      3  O   UNL A   1      34.012  21.299  24.012  1.00  0.00    -0.376 OA
BRANCH   3   4
ATOM      4  C   UNL A   1      32.968  20.596  24.653  1.00  0.00     0.202 C 
BRANCH   4   5
ATOM      5  C   UNL A   1      31.835  21.460  25.215  1.00  0.00     0.261 C 
BRANCH   5   6
ATOM      6  O   UNL A   1      31.953  21.837  26.596  1.00  0.00    -0.463 OA
BRANCH   6   7
ATOM      7  C   UNL A   1      32.149  23.125  26.921  1.00  0.00     0.306 C 
ATOM      8  O   UNL A   1      31.285  23.833  27.428  1.00  0.00    -0.252 OA
BRANCH   7   9
ATOM      9  C   UNL A   1      33.506  23.662  26.487  1.00  0.00     0.129 C 
BRANCH   9  10
ATOM     10  C   UNL A   1      33.694  25.016  25.787  1.00  0.00     0.066 C 
BRANCH  10  11
ATOM     11  C   UNL A   1      32.721  25.393  24.683  1.00  0.00     0.024 A 
ATOM     12  C   UNL A   1      31.186  26.632  23.551  1.00  0.00     0.053 A 
ATOM     13  C   UNL A   1      31.300  25.413  22.915  1.00  0.00     0.029 A 
ATOM     14  N   UNL A   1      32.143  26.661  24.560  1.00  0.00    -0.314 N 
ATOM     15  C   UNL A   1      32.267  24.663  23.597  1.00  0.00     0.024 A 
BRANCH  12  16
ATOM     16  C   UNL A   1      30.286  27.714  23.165  1.00  0.00    -0.001 A 
ATOM     17  C   UNL A   1      28.455  29.681  22.359  1.00  0.00     0.118 A 
ATOM     18  C   UNL A   1      29.800  29.775  21.996  1.00  0.00     0.047 A 
ATOM     19  C   UNL A   1      28.018  28.583  23.100  1.00  0.00     0.047 A 
ATOM     20  C   UNL A   1      30.716  28.799  22.399  1.00  0.00     0.014 A 
ATOM     21  C   UNL A   1      28.930  27.606  23.499  1.00  0.00     0.014 A 
BRANCH  17  22
ATOM     22  O   UNL A   1      27.651  30.692  21.909  1.00  0.00    -0.497 OA
ATOM     23  C   UNL A   1      28.128  32.009  22.165  1.00  0.00     0.278 C 
ENDBRANCH  17  22
ENDBRANCH  12  16
BRANCH  14  24
ATOM     24  C   UNL A   1      32.483  27.781  25.350  1.00  0.00     0.046 A 
ATOM     25  C   UNL A   1      31.620  28.178  26.378  1.00  0.00     0.027 A 
ATOM     26  C   UNL A   1      33.626  28.514  25.048  1.00  0.00     0.027 A 
ATOM     27  C   UNL A   1      31.893  29.343  27.099  1.00  0.00     0.014 A 
ATOM     28  C   UNL A   1      33.875  29.692  25.753  1.00  0.00     0.014 A 
ATOM     29  C   UNL A   1      33.011  30.123  26.777  1.00  0.00     0.017 A 
BRANCH  29  30
ATOM     30  C   UNL A   1      33.329  31.424  27.444  1.00  0.00     0.159 C 
ATOM     31  C   UNL A   1      34.708  31.715  27.978  1.00  0.00     0.093 C 
ATOM     32  O   UNL A   1      32.443  32.274  27.547  1.00  0.00    -0.295 OA
ENDBRANCH  29  30
ENDBRANCH  14  24
ENDBRANCH  10  11
ENDBRANCH   9  10
ENDBRANCH   7   9
ENDBRANCH   6   7
ENDBRANCH   5   6
ENDBRANCH   4   5
ENDBRANCH   3   4
ENDBRANCH   2   3
ENDBRANCH   1   2
BRANCH   1  33
ATOM     33  O   UNL A   1      37.493  22.596  24.628  1.00  0.00    -0.377 OA
BRANCH  33  34
ATOM     34  C   UNL A   1      38.042  21.647  25.529  1.00  0.00     0.188 C 
BRANCH  34  35
ATOM     35  C   UNL A   1      39.153  22.255  26.397  1.00  0.00     0.188 C 
BRANCH  35  36
ATOM     36  O   UNL A   1      40.417  21.625  26.253  1.00  0.00    -0.376 OA
BRANCH  36  37
ATOM     37  C   UNL A   1      40.562  20.216  26.114  1.00  0.00     0.202 C 
BRANCH  37  38
ATOM     38  C   UNL A   1      41.903  19.482  25.938  1.00  0.00     0.261 C 
BRANCH  38  39
ATOM     39  O   UNL A   1      43.080  20.172  26.329  1.00  0.00    -0.460 OA
BRANCH  39  40
ATOM     40  C   UNL A   1      43.783  20.702  25.336  1.00  0.00     0.338 C 
ATOM     41  O   UNL A   1      44.148  20.163  24.278  1.00  0.00    -0.246 OA
BRANCH  40  42
ATOM     42  C   UNL A   1      44.152  22.054  25.683  1.00  0.00     0.060 A 
ATOM     43  C   UNL A   1      45.441  22.262  26.177  1.00  0.00     0.016 A 
ATOM     44  C   UNL A   1      43.109  22.976  25.847  1.00  0.00     0.016 A 
ATOM     45  C   UNL A   1      45.639  23.324  27.023  1.00  0.00     0.010 A 
ATOM     46  C   UNL A   1      43.297  24.012  26.728  1.00  0.00     0.010 A 
ATOM     47  C   UNL A   1      44.542  24.131  27.355  1.00  0.00    -0.014 A 
BRANCH  47  48
ATOM     48  C   UNL A   1      44.758  25.155  28.373  1.00  0.00     0.031 A 
ATOM     49  C   UNL A   1      45.231  26.453  27.737  1.00  0.00     0.074 A 
ATOM     50  C   UNL A   1      44.582  24.738  29.664  1.00  0.00     0.049 A 
ATOM     51  N   UNL A   1      45.993  27.379  28.224  1.00  0.00    -0.248 NA
ATOM     52  C   UNL A   1      44.872  26.734  26.316  1.00  0.00     0.031 C 
ATOM     53  C   UNL A   1      44.083  23.399  30.058  1.00  0.00     0.029 A 
ATOM     54  N   UNL A   1      44.795  25.319  30.895  1.00  0.00    -0.354 N 
ATOM     55  C   UNL A   1      46.016  28.424  27.284  1.00  0.00     0.074 A 
ATOM     56  C   UNL A   1      45.440  27.916  26.079  1.00  0.00     0.031 C 
ATOM     57  C   UNL A   1      44.106  23.249  31.400  1.00  0.00     0.029 A 
ATOM     58  C   UNL A   1      44.601  24.464  32.014  1.00  0.00     0.049 A 
ATOM     59  H   UNL A   1      45.061  26.262  30.993  1.00  0.00     0.167 HD
ATOM     60  C   UNL A   1      46.347  29.703  27.615  1.00  0.00     0.037 A 
ATOM     61  C   UNL A   1      44.858  24.711  33.337  1.00  0.00     0.037 A 
ATOM     62  C   UNL A   1      46.740  29.774  28.982  1.00  0.00     0.049 A 
ATOM     63  C   UNL A   1      45.213  26.135  33.389  1.00  0.00     0.074 A 
ATOM     64  C   UNL A   1      47.845  29.306  29.644  1.00  0.00     0.029 A 
ATOM     65  N   UNL A   1      45.752  30.048  29.897  1.00  0.00    -0.354 N 
ATOM     66  N   UNL A   1      44.362  27.104  33.243  1.00  0.00    -0.248 NA
ATOM     67  C   UNL A   1      46.621  26.513  33.548  1.00  0.00     0.031 C 
ATOM     68  C   UNL A   1      47.336  28.891  30.892  1.00  0.00     0.029 A 
ATOM     69  C   UNL A   1      45.999  29.289  31.013  1.00  0.00     0.049 A 
ATOM     70  H   UNL A   1      45.002  30.676  29.774  1.00  0.00     0.167 HD
ATOM     71  C   UNL A   1      45.180  28.166  32.945  1.00  0.00     0.074 A 
ATOM     72  C   UNL A   1      46.493  27.834  33.456  1.00  0.00     0.031 C 
ATOM     73  C   UNL A   1      44.887  28.934  31.865  1.00  0.00     0.037 A 
BRANCH  60  74
ATOM     74  C   UNL A   1      46.104  30.990  26.890  1.00  0.00     0.064 A 
ATOM     75  C   UNL A   1      47.195  31.874  26.724  1.00  0.00     0.173 A 
ATOM     76  C   UNL A   1      44.827  31.526  26.680  1.00  0.00     0.173 A 
ATOM     77  F   UNL A   1      48.458  31.442  26.882  1.00  0.00    -0.203 F 
ATOM     78  C   UNL A   1      47.010  33.232  26.485  1.00  0.00     0.198 A 
ATOM     79  C   UNL A   1      44.648  32.880  26.390  1.00  0.00     0.198 A 
ATOM     80  F   UNL A   1      43.724  30.789  26.858  1.00  0.00    -0.203 F 
ATOM     81  F   UNL A   1      48.066  34.058  26.473  1.00  0.00    -0.200 F 
ATOM     82  C   UNL A   1      45.734  33.737  26.332  1.00  0.00     0.200 A 
ATOM     83  F   UNL A   1      43.408  33.367  26.246  1.00  0.00    -0.200 F 
ATOM     84  F   UNL A   1      45.545  35.054  26.171  1.00  0.00    -0.200 F 
ENDBRANCH  60  74
BRANCH  61  85
ATOM     85  C   UNL A   1      44.925  23.974  34.659  1.00  0.00     0.064 A 
ATOM     86  C   UNL A   1      45.467  22.702  34.875  1.00  0.00     0.173 A 
ATOM     87  C   UNL A   1      44.510  24.636  35.855  1.00  0.00     0.173 A 
ATOM     88  F   UNL A   1      45.815  21.914  33.853  1.00  0.00    -0.203 F 
ATOM     89  C   UNL A   1      45.676  22.188  36.170  1.00  0.00     0.198 A 
ATOM     90  C   UNL A   1      44.768  24.155  37.137  1.00  0.00     0.198 A 
ATOM     91  F   UNL A   1      43.844  25.799  35.822  1.00  0.00    -0.203 F 
ATOM     92  F   UNL A   1      46.205  20.967  36.323  1.00  0.00    -0.200 F 
ATOM     93  C   UNL A   1      45.368  22.932  37.298  1.00  0.00     0.200 A 
ATOM     94  F   UNL A   1      44.453  24.905  38.204  1.00  0.00    -0.200 F 
ATOM     95  F   UNL A   1      45.639  22.472  38.525  1.00  0.00    -0.200 F 
ENDBRANCH  61  85
BRANCH  73  96
ATOM     96  C   UNL A   1      43.414  28.902  31.485  1.00  0.00     0.064 A 
ATOM     97  C   UNL A   1      43.017  28.365  30.247  1.00  0.00     0.173 A 
ATOM     98  C   UNL A   1      42.399  29.525  32.229  1.00  0.00     0.173 A 
ATOM     99  F   UNL A   1      43.912  27.723  29.481  1.00  0.00    -0.203 F 
ATOM    100  C   UNL A   1      41.706  28.490  29.774  1.00  0.00     0.198 A 
ATOM    101  C   UNL A   1      41.090  29.653  31.762  1.00  0.00     0.198 A 
ATOM    102  F   UNL A   1      42.654  30.020  33.436  1.00  0.00    -0.203 F 
ATOM    103  F   UNL A   1      41.377  27.976  28.581  1.00  0.00    -0.200 F 
ATOM    104  C   UNL A   1      40.745  29.144  30.527  1.00  0.00     0.200 A 
ATOM    105  F   UNL A   1      40.165  30.268  32.516  1.00  0.00    -0.200 F 
ATOM    106  F   UNL A   1      39.490  29.262  30.074  1.00  0.00    -0.200 F 
ENDBRANCH  73  96
ENDBRANCH  47  48
ENDBRANCH  40  42
ENDBRANCH  39  40
ENDBRANCH  38  39
ENDBRANCH  37  38
ENDBRANCH  36  37
ENDBRANCH  35  36
ENDBRANCH  34  35
ENDBRANCH  33  34
ENDBRANCH   1  33
TORSDOF 26
ENDMDL
MODEL 2
REMARK VINA RESULT:     -10.2      3.297      8.725
REMARK SMILES COc1ccc(-c2ccc(CCC(=O)OCCOCCOCCOCCOC(=O)c3ccc(-c4c5nc(c(-c6c(F)c(F)c(F)c(F)c6F)c6ccc([nH]6)c(-c6c(F)c(F)c(F)c(F)c6F)c6nc(c(-c7c(F)c(F)c(F)c(F)c7F)c7ccc4[nH]7)C=C6)C=C5)cc3)n2-c2ccc(C(C)=O)cc2)cc1
REMARK SMILES IDX 20 1 19 2 18 3 17 4 16 5 15 6 13 7 14 8 12 9 11 10 10 11
REMARK SMILES IDX 7 12 8 13 93 14 9 15 6 16 3 17 4 18 104 19 5 20 103 21 2 22
REMARK SMILES IDX 1 23 94 24 95 25 102 26 96 27 101 28 97 29 98 30 99 31
REMARK SMILES IDX 100 32 21 33 22 34 23 35 24 36 25 37 26 38 27 39 28 40 29 41
REMARK SMILES IDX 30 42 31 43 92 44 32 45 91 46 33 47 34 48 35 49 85 50 36 51
REMARK SMILES IDX 90 52 84 53 86 54 37 55 89 56 83 57 82 58 38 60 70 61 50 62
REMARK SMILES IDX 69 63 51 64 54 65 68 66 87 67 52 68 53 69 67 71 88 72 55 73
REMARK SMILES IDX 39 74 40 75 48 76 41 77 42 78 46 79 49 80 43 81 44 82 47 83
REMARK SMILES IDX 45 84 71 85 72 86 80 87 73 88 74 89 78 90 81 91 75 92 76 93
REMARK SMILES IDX 79 94 77 95 56 96 57 97 65 98 58 99 59 100 63 101 66 102
REMARK SMILES IDX 60 103 61 104 64 105 62 106
REMARK H PARENT 86 59 54 70
REMARK Flexibility Score: inf
ROOT
ATOM      1  C   UNL A   1      34.716  31.472  27.738  1.00  0.00     0.188 C 
ENDROOT
BRANCH   1   2
ATOM      2  C   UNL A   1      33.869  30.200  27.607  1.00  0.00     0.188 C 
BRANCH   2   3
ATOM      3  O   UNL A   1      32.814  30.386  26.672  1.00  0.00    -0.376 OA
BRANCH   3   4
ATOM      4  C   UNL A   1      31.827  29.377  26.608  1.00  0.00     0.202 C 
BRANCH   4   5
ATOM      5  C   UNL A   1      31.578  28.781  25.219  1.00  0.00     0.261 C 
BRANCH   5   6
ATOM      6  O   UNL A   1      32.339  29.351  24.142  1.00  0.00    -0.463 OA
BRANCH   6   7
ATOM      7  C   UNL A   1      33.092  28.555  23.364  1.00  0.00     0.306 C 
ATOM      8  O   UNL A   1      34.082  28.946  22.756  1.00  0.00    -0.252 OA
BRANCH   7   9
ATOM      9  C   UNL A   1      32.530  27.149  23.208  1.00  0.00     0.129 C 
BRANCH   9  10
ATOM     10  C   UNL A   1      33.350  25.878  23.474  1.00  0.00     0.066 C 
BRANCH  10  11
ATOM     11  C   UNL A   1      32.610  24.555  23.561  1.00  0.00     0.024 A 
ATOM     12  C   UNL A   1      32.315  22.307  23.745  1.00  0.00     0.053 A 
ATOM     13  C   UNL A   1      31.086  22.876  23.482  1.00  0.00     0.029 A 
ATOM     14  N   UNL A   1      33.223  23.348  23.913  1.00  0.00    -0.314 N 
ATOM     15  C   UNL A   1      31.266  24.263  23.398  1.00  0.00     0.024 A 
BRANCH  12  16
ATOM     16  C   UNL A   1      32.576  20.880  23.907  1.00  0.00    -0.001 A 
ATOM     17  C   UNL A   1      32.927  18.108  24.162  1.00  0.00     0.118 A 
ATOM     18  C   UNL A   1      33.170  18.955  25.246  1.00  0.00     0.047 A 
ATOM     19  C   UNL A   1      32.476  18.646  22.957  1.00  0.00     0.047 A 
ATOM     20  C   UNL A   1      33.000  20.337  25.122  1.00  0.00     0.014 A 
ATOM     21  C   UNL A   1      32.302  20.025  22.833  1.00  0.00     0.014 A 
BRANCH  17  22
ATOM     22  O   UNL A   1      33.125  16.776  24.399  1.00  0.00    -0.497 OA
ATOM     23  C   UNL A   1      34.446  16.418  24.795  1.00  0.00     0.278 C 
ENDBRANCH  17  22
ENDBRANCH  12  16
BRANCH  14  24
ATOM     24  C   UNL A   1      34.558  23.220  24.355  1.00  0.00     0.046 A 
ATOM     25  C   UNL A   1      35.518  22.691  23.486  1.00  0.00     0.027 A 
ATOM     26  C   UNL A   1      34.881  23.552  25.668  1.00  0.00     0.027 A 
ATOM     27  C   UNL A   1      36.818  22.465  23.945  1.00  0.00     0.014 A 
ATOM     28  C   UNL A   1      36.174  23.296  26.127  1.00  0.00     0.014 A 
ATOM     29  C   UNL A   1      37.151  22.745  25.277  1.00  0.00     0.017 A 
BRANCH  29  30
ATOM     30  C   UNL A   1      38.495  22.457  25.869  1.00  0.00     0.159 C 
ATOM     31  C   UNL A   1      39.215  23.477  26.712  1.00  0.00     0.093 C 
ATOM     32  O   UNL A   1      39.012  21.357  25.668  1.00  0.00    -0.295 OA
ENDBRANCH  29  30
ENDBRANCH  14  24
ENDBRANCH  10  11
ENDBRANCH   9  10
ENDBRANCH   7   9
ENDBRANCH   6   7
ENDBRANCH   5   6
ENDBRANCH   4   5
ENDBRANCH   3   4
ENDBRANCH   2   3
ENDBRANCH   1   2
BRANCH   1  33
ATOM     33  O   UNL A   1      34.399  32.504  28.662  1.00  0.00    -0.377 OA
BRANCH  33  34
ATOM     34  C   UNL A   1      35.046  33.757  28.498  1.00  0.00     0.188 C 
BRANCH  34  35
ATOM     35  C   UNL A   1      34.179  34.922  29.000  1.00  0.00     0.188 C 
BRANCH  35  36
ATOM     36  O   UNL A   1      33.517  34.669  30.231  1.00  0.00    -0.376 OA
BRANCH  36  37
ATOM     37  C   UNL A   1      34.076  35.025  31.490  1.00  0.00     0.202 C 
BRANCH  37  38
ATOM     38  C   UNL A   1      34.771  34.046  32.453  1.00  0.00     0.261 C 
BRANCH  38  39
ATOM     39  O   UNL A   1      35.612  33.055  31.882  1.00  0.00    -0.460 OA
BRANCH  39  40
ATOM     40  C   UNL A   1      36.249  32.283  32.751  1.00  0.00     0.338 C 
ATOM     41  O   UNL A   1      36.163  32.283  33.991  1.00  0.00    -0.246 OA
BRANCH  40  42
ATOM     42  C   UNL A   1      37.165  31.421  32.041  1.00  0.00     0.060 A 
ATOM     43  C   UNL A   1      38.177  30.809  32.783  1.00  0.00     0.016 A 
ATOM     44  C   UNL A   1      37.205  31.548  30.646  1.00  0.00     0.016 A 
ATOM     45  C   UNL A   1      39.344  30.492  32.135  1.00  0.00     0.010 A 
ATOM     46  C   UNL A   1      38.389  31.271  30.007  1.00  0.00     0.010 A 
ATOM     47  C   UNL A   1      39.464  30.810  30.775  1.00  0.00    -0.014 A 
BRANCH  47  48
ATOM     48  C   UNL A   1      40.770  30.597  30.157  1.00  0.00     0.031 A 
ATOM     49  C   UNL A   1      41.512  31.916  30.003  1.00  0.00     0.074 A 
ATOM     50  C   UNL A   1      41.028  29.310  29.773  1.00  0.00     0.049 A 
ATOM     51  N   UNL A   1      42.381  32.272  29.113  1.00  0.00    -0.248 NA
ATOM     52  C   UNL A   1      41.185  33.041  30.926  1.00  0.00     0.031 C 
ATOM     53  C   UNL A   1      40.147  28.152  30.053  1.00  0.00     0.029 A 
ATOM     54  N   UNL A   1      42.048  28.709  29.066  1.00  0.00    -0.354 N 
ATOM     55  C   UNL A   1      42.857  33.540  29.492  1.00  0.00     0.074 A 
ATOM     56  C   UNL A   1      41.987  34.023  30.518  1.00  0.00     0.031 C 
ATOM     57  C   UNL A   1      40.620  27.031  29.468  1.00  0.00     0.029 A 
ATOM     58  C   UNL A   1      41.852  27.332  28.768  1.00  0.00     0.049 A 
ATOM     59  H   UNL A   1      42.856  29.198  28.789  1.00  0.00     0.167 HD
ATOM     60  C   UNL A   1      44.050  34.036  29.060  1.00  0.00     0.037 A 
ATOM     61  C   UNL A   1      42.613  26.509  27.981  1.00  0.00     0.037 A 
ATOM     62  C   UNL A   1      44.651  33.139  28.131  1.00  0.00     0.049 A 
ATOM     63  C   UNL A   1      43.800  27.306  27.645  1.00  0.00     0.074 A 
ATOM     64  C   UNL A   1      44.319  32.792  26.847  1.00  0.00     0.029 A 
ATOM     65  N   UNL A   1      45.505  32.194  28.646  1.00  0.00    -0.354 N 
ATOM     66  N   UNL A   1      44.749  27.590  28.484  1.00  0.00    -0.248 NA
ATOM     67  C   UNL A   1      43.913  27.886  26.302  1.00  0.00     0.031 C 
ATOM     68  C   UNL A   1      44.628  31.418  26.783  1.00  0.00     0.029 A 
ATOM     69  C   UNL A   1      45.301  31.030  27.948  1.00  0.00     0.049 A 
ATOM     70  H   UNL A   1      46.146  32.328  29.381  1.00  0.00     0.167 HD
ATOM     71  C   UNL A   1      45.369  28.652  27.873  1.00  0.00     0.074 A 
ATOM     72  C   UNL A   1      45.045  28.567  26.465  1.00  0.00     0.031 C 
ATOM     73  C   UNL A   1      45.605  29.775  28.597  1.00  0.00     0.037 A 
BRANCH  60  74
ATOM     74  C   UNL A   1      44.887  35.156  29.593  1.00  0.00     0.064 A 
ATOM     75  C   UNL A   1      45.380  36.111  28.674  1.00  0.00     0.173 A 
ATOM     76  C   UNL A   1      45.497  35.129  30.854  1.00  0.00     0.173 A 
ATOM     77  F   UNL A   1      44.841  36.225  27.449  1.00  0.00    -0.203 F 
ATOM     78  C   UNL A   1      46.490  36.901  28.959  1.00  0.00     0.198 A 
ATOM     79  C   UNL A   1      46.578  35.960  31.154  1.00  0.00     0.198 A 
ATOM     80  F   UNL A   1      45.140  34.232  31.782  1.00  0.00    -0.203 F 
ATOM     81  F   UNL A   1      47.008  37.692  28.010  1.00  0.00    -0.200 F 
ATOM     82  C   UNL A   1      47.098  36.814  30.195  1.00  0.00     0.200 A 
ATOM     83  F   UNL A   1      47.169  35.870  32.354  1.00  0.00    -0.200 F 
ATOM     84  F   UNL A   1      48.207  37.520  30.452  1.00  0.00    -0.200 F 
ENDBRANCH  60  74
BRANCH  61  85
ATOM     85  C   UNL A   1      42.559  25.128  27.361  1.00  0.00     0.064 A 
ATOM     86  C   UNL A   1      42.711  24.819  26.004  1.00  0.00     0.173 A 
ATOM     87  C   UNL A   1      42.453  23.982  28.207  1.00  0.00     0.173 A 
ATOM     88  F   UNL A   1      42.729  25.776  25.072  1.00  0.00    -0.203 F 
ATOM     89  C   UNL A   1      42.856  23.492  25.552  1.00  0.00     0.198 A 
ATOM     90  C   UNL A   1      42.654  22.674  27.769  1.00  0.00     0.198 A 
ATOM     91  F   UNL A   1      42.165  24.092  29.511  1.00  0.00    -0.203 F 
ATOM     92  F   UNL A   1      43.006  23.250  24.243  1.00  0.00    -0.200 F 
ATOM     93  C   UNL A   1      42.871  22.427  26.437  1.00  0.00     0.200 A 
ATOM     94  F   UNL A   1      42.660  21.669  28.658  1.00  0.00    -0.200 F 
ATOM     95  F   UNL A   1      43.087  21.176  26.011  1.00  0.00    -0.200 F 
ENDBRANCH  61  85
BRANCH  73  96
ATOM     96  C   UNL A   1      45.705  29.518  30.094  1.00  0.00     0.064 A 
ATOM     97  C   UNL A   1      46.730  28.699  30.601  1.00  0.00     0.173 A 
ATOM     98  C   UNL A   1      44.734  29.920  31.025  1.00  0.00     0.173 A 
ATOM     99  F   UNL A   1      47.720  28.292  29.794  1.00  0.00    -0.203 F 
ATOM    100  C   UNL A   1      46.746  28.279  31.936  1.00  0.00     0.198 A 
ATOM    101  C   UNL A   1      44.745  29.504  32.357  1.00  0.00     0.198 A 
ATOM    102  F   UNL A   1      43.749  30.737  30.662  1.00  0.00    -0.203 F 
ATOM    103  F   UNL A   1      47.735  27.487  32.373  1.00  0.00    -0.200 F 
ATOM    104  C   UNL A   1      45.748  28.673  32.811  1.00  0.00     0.200 A 
ATOM    105  F   UNL A   1      43.782  29.915  33.197  1.00  0.00    -0.200 F 
ATOM    106  F   UNL A   1      45.765  28.271  34.089  1.00  0.00    -0.200 F 
ENDBRANCH  73  96
ENDBRANCH  47  48
ENDBRANCH  40  42
ENDBRANCH  39  40
ENDBRANCH  38  39
ENDBRANCH  37  38
ENDBRANCH  36  37
ENDBRANCH  35  36
ENDBRANCH  34  35
ENDBRANCH  33  34
ENDBRANCH   1  33
TORSDOF 26
ENDMDL
MODEL 3
REMARK VINA RESULT:     -10.1      3.661      8.776
REMARK SMILES COc1ccc(-c2ccc(CCC(=O)OCCOCCOCCOCCOC(=O)c3ccc(-c4c5nc(c(-c6c(F)c(F)c(F)c(F)c6F)c6ccc([nH]6)c(-c6c(F)c(F)c(F)c(F)c6F)c6nc(c(-c7c(F)c(F)c(F)c(F)c7F)c7ccc4[nH]7)C=C6)C=C5)cc3)n2-c2ccc(C(C)=O)cc2)cc1
REMARK SMILES IDX 20 1 19 2 18 3 17 4 16 5 15 6 13 7 14 8 12 9 11 10 10 11
REMARK SMILES IDX 7 12 8 13 93 14 9 15 6 16 3 17 4 18 104 19 5 20 103 21 2 22
REMARK SMILES IDX 1 23 94 24 95 25 102 26 96 27 101 28 97 29 98 30 99 31
REMARK SMILES IDX 100 32 21 33 22 34 23 35 24 36 25 37 26 38 27 39 28 40 29 41
REMARK SMILES IDX 30 42 31 43 92 44 32 45 91 46 33 47 34 48 35 49 85 50 36 51
REMARK SMILES IDX 90 52 84 53 86 54 37 55 89 56 83 57 82 58 38 60 70 61 50 62
REMARK SMILES IDX 69 63 51 64 54 65 68 66 87 67 52 68 53 69 67 71 88 72 55 73
REMARK SMILES IDX 39 74 40 75 48 76 41 77 42 78 46 79 49 80 43 81 44 82 47 83
REMARK SMILES IDX 45 84 71 85 72 86 80 87 73 88 74 89 78 90 81 91 75 92 76 93
REMARK SMILES IDX 79 94 77 95 56 96 57 97 65 98 58 99 59 100 63 101 66 102
REMARK SMILES IDX 60 103 61 104 64 105 62 106
REMARK H PARENT 86 59 54 70
REMARK Flexibility Score: inf
ROOT
ATOM      1  C   UNL A   1      34.906  31.291  27.605  1.00  0.00     0.188 C 
ENDROOT
BRANCH   1   2
ATOM      2  C   UNL A   1      33.984  30.104  27.302  1.00  0.00     0.188 C 
BRANCH   2   3
ATOM      3  O   UNL A   1      33.113  30.399  26.217  1.00  0.00    -0.376 OA
BRANCH   3   4
ATOM      4  C   UNL A   1      31.960  29.594  26.082  1.00  0.00     0.202 C 
BRANCH   4   5
ATOM      5  C   UNL A   1      31.753  28.960  24.703  1.00  0.00     0.261 C 
BRANCH   5   6
ATOM      6  O   UNL A   1      32.675  29.362  23.678  1.00  0.00    -0.463 OA
BRANCH   6   7
ATOM      7  C   UNL A   1      33.376  28.431  23.011  1.00  0.00     0.306 C 
ATOM      8  O   UNL A   1      34.395  28.678  22.376  1.00  0.00    -0.252 OA
BRANCH   7   9
ATOM      9  C   UNL A   1      32.719  27.057  23.013  1.00  0.00     0.129 C 
BRANCH   9  10
ATOM     10  C   UNL A   1      33.420  25.786  23.516  1.00  0.00     0.066 C 
BRANCH  10  11
ATOM     11  C   UNL A   1      32.629  24.491  23.532  1.00  0.00     0.024 A 
ATOM     12  C   UNL A   1      32.237  22.255  23.672  1.00  0.00     0.053 A 
ATOM     13  C   UNL A   1      31.056  22.870  23.314  1.00  0.00     0.029 A 
ATOM     14  N   UNL A   1      33.166  23.260  23.922  1.00  0.00    -0.314 N 
ATOM     15  C   UNL A   1      31.293  24.250  23.256  1.00  0.00     0.024 A 
BRANCH  12  16
ATOM     16  C   UNL A   1      32.433  20.818  23.844  1.00  0.00    -0.001 A 
ATOM     17  C   UNL A   1      32.665  18.034  24.095  1.00  0.00     0.118 A 
ATOM     18  C   UNL A   1      32.780  18.858  25.217  1.00  0.00     0.047 A 
ATOM     19  C   UNL A   1      32.400  18.602  22.850  1.00  0.00     0.047 A 
ATOM     20  C   UNL A   1      32.669  20.246  25.095  1.00  0.00     0.014 A 
ATOM     21  C   UNL A   1      32.284  19.987  22.727  1.00  0.00     0.014 A 
BRANCH  17  22
ATOM     22  O   UNL A   1      32.790  16.693  24.334  1.00  0.00    -0.497 OA
ATOM     23  C   UNL A   1      32.728  16.310  25.704  1.00  0.00     0.278 C 
ENDBRANCH  17  22
ENDBRANCH  12  16
BRANCH  14  24
ATOM     24  C   UNL A   1      34.455  23.082  24.472  1.00  0.00     0.046 A 
ATOM     25  C   UNL A   1      34.648  23.292  25.842  1.00  0.00     0.027 A 
ATOM     26  C   UNL A   1      35.523  22.774  23.634  1.00  0.00     0.027 A 
ATOM     27  C   UNL A   1      35.935  23.218  26.378  1.00  0.00     0.014 A 
ATOM     28  C   UNL A   1      36.809  22.732  24.173  1.00  0.00     0.014 A 
ATOM     29  C   UNL A   1      37.031  22.960  25.543  1.00  0.00     0.017 A 
BRANCH  29  30
ATOM     30  C   UNL A   1      38.448  22.945  26.024  1.00  0.00     0.159 C 
ATOM     31  C   UNL A   1      39.272  21.683  25.996  1.00  0.00     0.093 C 
ATOM     32  O   UNL A   1      38.949  23.992  26.439  1.00  0.00    -0.295 OA
ENDBRANCH  29  30
ENDBRANCH  14  24
ENDBRANCH  10  11
ENDBRANCH   9  10
ENDBRANCH   7   9
ENDBRANCH   6   7
ENDBRANCH   5   6
ENDBRANCH   4   5
ENDBRANCH   3   4
ENDBRANCH   2   3
ENDBRANCH   1   2
BRANCH   1  33
ATOM     33  O   UNL A   1      34.526  32.344  28.480  1.00  0.00    -0.377 OA
BRANCH  33  34
ATOM     34  C   UNL A   1      35.415  33.442  28.615  1.00  0.00     0.188 C 
BRANCH  34  35
ATOM     35  C   UNL A   1      34.718  34.783  28.342  1.00  0.00     0.188 C 
BRANCH  35  36
ATOM     36  O   UNL A   1      33.411  34.884  28.886  1.00  0.00    -0.376 OA
BRANCH  36  37
ATOM     37  C   UNL A   1      33.113  35.684  30.025  1.00  0.00     0.202 C 
BRANCH  37  38
ATOM     38  C   UNL A   1      33.254  35.222  31.486  1.00  0.00     0.261 C 
BRANCH  38  39
ATOM     39  O   UNL A   1      34.402  34.456  31.820  1.00  0.00    -0.460 OA
BRANCH  39  40
ATOM     40  C   UNL A   1      35.202  35.000  32.728  1.00  0.00     0.338 C 
ATOM     41  O   UNL A   1      35.137  36.133  33.233  1.00  0.00    -0.246 OA
BRANCH  40  42
ATOM     42  C   UNL A   1      36.268  34.077  33.037  1.00  0.00     0.060 A 
ATOM     43  C   UNL A   1      37.257  34.511  33.922  1.00  0.00     0.016 A 
ATOM     44  C   UNL A   1      36.435  32.985  32.174  1.00  0.00     0.016 A 
ATOM     45  C   UNL A   1      38.510  33.965  33.800  1.00  0.00     0.010 A 
ATOM     46  C   UNL A   1      37.699  32.471  32.023  1.00  0.00     0.010 A 
ATOM     47  C   UNL A   1      38.733  33.016  32.792  1.00  0.00    -0.014 A 
BRANCH  47  48
ATOM     48  C   UNL A   1      40.110  32.571  32.595  1.00  0.00     0.031 A 
ATOM     49  C   UNL A   1      40.698  33.187  31.335  1.00  0.00     0.074 A 
ATOM     50  C   UNL A   1      40.559  31.651  33.503  1.00  0.00     0.049 A 
ATOM     51  N   UNL A   1      41.600  32.719  30.534  1.00  0.00    -0.248 NA
ATOM     52  C   UNL A   1      40.148  34.482  30.839  1.00  0.00     0.031 C 
ATOM     53  C   UNL A   1      39.800  31.201  34.694  1.00  0.00     0.029 A 
ATOM     54  N   UNL A   1      41.708  30.898  33.614  1.00  0.00    -0.354 N 
ATOM     55  C   UNL A   1      41.880  33.731  29.598  1.00  0.00     0.074 A 
ATOM     56  C   UNL A   1      40.861  34.724  29.740  1.00  0.00     0.031 C 
ATOM     57  C   UNL A   1      40.462  30.221  35.347  1.00  0.00     0.029 A 
ATOM     58  C   UNL A   1      41.710  29.943  34.667  1.00  0.00     0.049 A 
ATOM     59  H   UNL A   1      42.474  31.014  33.007  1.00  0.00     0.167 HD
ATOM     60  C   UNL A   1      43.040  33.773  28.887  1.00  0.00     0.037 A 
ATOM     61  C   UNL A   1      42.640  28.976  34.945  1.00  0.00     0.037 A 
ATOM     62  C   UNL A   1      43.834  32.624  29.166  1.00  0.00     0.049 A 
ATOM     63  C   UNL A   1      43.749  29.247  34.021  1.00  0.00     0.074 A 
ATOM     64  C   UNL A   1      43.674  31.301  28.846  1.00  0.00     0.029 A 
ATOM     65  N   UNL A   1      44.741  32.732  30.191  1.00  0.00    -0.354 N 
ATOM     66  N   UNL A   1      44.568  30.246  34.139  1.00  0.00    -0.248 NA
ATOM     67  C   UNL A   1      43.922  28.388  32.844  1.00  0.00     0.031 C 
ATOM     68  C   UNL A   1      44.153  30.622  29.985  1.00  0.00     0.029 A 
ATOM     69  C   UNL A   1      44.750  31.535  30.863  1.00  0.00     0.049 A 
ATOM     70  H   UNL A   1      45.286  33.524  30.406  1.00  0.00     0.167 HD
ATOM     71  C   UNL A   1      45.112  30.325  32.880  1.00  0.00     0.074 A 
ATOM     72  C   UNL A   1      44.940  29.024  32.271  1.00  0.00     0.031 C 
ATOM     73  C   UNL A   1      45.139  31.529  32.255  1.00  0.00     0.037 A 
BRANCH  60  74
ATOM     74  C   UNL A   1      43.679  34.898  28.135  1.00  0.00     0.064 A 
ATOM     75  C   UNL A   1      44.192  34.628  26.845  1.00  0.00     0.173 A 
ATOM     76  C   UNL A   1      44.112  36.084  28.744  1.00  0.00     0.173 A 
ATOM     77  F   UNL A   1      43.815  33.527  26.175  1.00  0.00    -0.203 F 
ATOM     78  C   UNL A   1      45.167  35.430  26.259  1.00  0.00     0.198 A 
ATOM     79  C   UNL A   1      45.052  36.913  28.129  1.00  0.00     0.198 A 
ATOM     80  F   UNL A   1      43.726  36.412  29.983  1.00  0.00    -0.203 F 
ATOM     81  F   UNL A   1      45.725  35.061  25.098  1.00  0.00    -0.200 F 
ATOM     82  C   UNL A   1      45.607  36.565  26.909  1.00  0.00     0.200 A 
ATOM     83  F   UNL A   1      45.480  38.013  28.765  1.00  0.00    -0.200 F 
ATOM     84  F   UNL A   1      46.594  37.304  26.382  1.00  0.00    -0.200 F 
ENDBRANCH  60  74
BRANCH  61  85
ATOM     85  C   UNL A   1      42.814  27.762  35.835  1.00  0.00     0.064 A 
ATOM     86  C   UNL A   1      42.203  26.514  35.668  1.00  0.00     0.173 A 
ATOM     87  C   UNL A   1      43.766  27.802  36.899  1.00  0.00     0.173 A 
ATOM     88  F   UNL A   1      41.222  26.335  34.778  1.00  0.00    -0.203 F 
ATOM     89  C   UNL A   1      42.589  25.387  36.420  1.00  0.00     0.198 A 
ATOM     90  C   UNL A   1      44.189  26.677  37.604  1.00  0.00     0.198 A 
ATOM     91  F   UNL A   1      44.341  28.949  37.288  1.00  0.00    -0.203 F 
ATOM     92  F   UNL A   1      41.977  24.212  36.217  1.00  0.00    -0.200 F 
ATOM     93  C   UNL A   1      43.609  25.459  37.354  1.00  0.00     0.200 A 
ATOM     94  F   UNL A   1      45.179  26.788  38.502  1.00  0.00    -0.200 F 
ATOM     95  F   UNL A   1      44.024  24.368  38.011  1.00  0.00    -0.200 F 
ENDBRANCH  61  85
BRANCH  73  96
ATOM     96  C   UNL A   1      45.121  32.709  33.218  1.00  0.00     0.064 A 
ATOM     97  C   UNL A   1      46.184  32.898  34.119  1.00  0.00     0.173 A 
ATOM     98  C   UNL A   1      44.021  33.564  33.388  1.00  0.00     0.173 A 
ATOM     99  F   UNL A   1      47.291  32.148  34.013  1.00  0.00    -0.203 F 
ATOM    100  C   UNL A   1      46.120  33.846  35.146  1.00  0.00     0.198 A 
ATOM    101  C   UNL A   1      43.952  34.511  34.411  1.00  0.00     0.198 A 
ATOM    102  F   UNL A   1      42.985  33.505  32.558  1.00  0.00    -0.203 F 
ATOM    103  F   UNL A   1      47.150  33.982  35.992  1.00  0.00    -0.200 F 
ATOM    104  C   UNL A   1      45.000  34.645  35.299  1.00  0.00     0.200 A 
ATOM    105  F   UNL A   1      42.868  35.294  34.529  1.00  0.00    -0.200 F 
ATOM    106  F   UNL A   1      44.940  35.554  36.282  1.00  0.00    -0.200 F 
ENDBRANCH  73  96
ENDBRANCH  47  48
ENDBRANCH  40  42
ENDBRANCH  39  40
ENDBRANCH  38  39
ENDBRANCH  37  38
ENDBRANCH  36  37
ENDBRANCH  35  36
ENDBRANCH  34  35
ENDBRANCH  33  34
ENDBRANCH   1  33
TORSDOF 26
ENDMDL
