MODEL 1
REMARK VINA RESULT:      -8.6      0.000      0.000
REMARK SMILES CC[C@@](C)(NC(=O)N(C)[C@@H](C)C(C)C)C(=O)OCCOCCOCCOCCOC(=O)c1ccc(-c2c3nc(c(-c4c(F)c(F)c(F)c(F)c4F)c4ccc([nH]4)c(-c4c(F)c(F)c(F)c(F)c4F)c4nc(c(-c5c(F)c(F)c(F)c(F)c5F)c5ccc2[nH]5)C=C4)C=C3)cc1
REMARK SMILES IDX 22 1 21 2 20 3 19 4 18 5 17 6 15 7 16 8 3 9 4 10 2 11 1 12
REMARK SMILES IDX 5 13 6 14 7 16 8 17 9 18 10 19 11 20 12 21 13 22 14 23 23 24
REMARK SMILES IDX 24 25 25 26 26 27 27 28 28 29 29 30 30 31 31 32 32 33 33 34
REMARK SMILES IDX 94 35 34 36 93 37 35 38 36 39 37 40 87 41 38 42 92 43 86 44
REMARK SMILES IDX 88 45 39 46 91 47 85 48 84 49 40 51 72 52 52 53 71 54 53 55
REMARK SMILES IDX 56 56 70 57 89 58 54 59 55 60 69 62 90 63 57 64 41 65 42 66
REMARK SMILES IDX 50 67 43 68 44 69 48 70 51 71 45 72 46 73 49 74 47 75 73 76
REMARK SMILES IDX 74 77 82 78 75 79 76 80 80 81 83 82 77 83 78 84 81 85 79 86
REMARK SMILES IDX 58 87 59 88 67 89 60 90 61 91 65 92 68 93 62 94 63 95 66 96
REMARK SMILES IDX 64 97
REMARK H PARENT 5 15 88 50 56 61
REMARK Flexibility Score: inf
ROOT
ATOM      1  C   UNL A   1      34.034  37.343  32.838  1.00  0.00     0.188 C 
ENDROOT
BRANCH   1   2
ATOM      2  C   UNL A   1      34.374  35.874  33.111  1.00  0.00     0.188 C 
BRANCH   2   3
ATOM      3  O   UNL A   1      35.571  35.333  32.556  1.00  0.00    -0.376 OA
BRANCH   3   4
ATOM      4  C   UNL A   1      36.400  34.491  33.348  1.00  0.00     0.202 C 
BRANCH   4   5
ATOM      5  C   UNL A   1      37.793  34.509  32.717  1.00  0.00     0.261 C 
BRANCH   5   6
ATOM      6  O   UNL A   1      38.318  33.171  32.758  1.00  0.00    -0.462 OA
BRANCH   6   7
ATOM      7  C   UNL A   1      37.744  32.272  33.581  1.00  0.00     0.331 C 
ATOM      8  O   UNL A   1      36.692  31.702  33.329  1.00  0.00    -0.249 OA
BRANCH   7   9
ATOM      9  C   UNL A   1      38.549  32.108  34.912  1.00  0.00     0.136 C 
ATOM     10  C   UNL A   1      38.096  30.704  35.404  1.00  0.00     0.047 C 
BRANCH   9  11
ATOM     11  C   UNL A   1      40.094  32.041  34.659  1.00  0.00     0.037 C 
ATOM     12  C   UNL A   1      40.868  30.918  35.361  1.00  0.00     0.007 C 
ENDBRANCH   9  11
BRANCH   9  13
ATOM     13  N   UNL A   1      38.232  33.045  36.084  1.00  0.00    -0.322 N 
ATOM     14  C   UNL A   1      37.773  32.845  37.367  1.00  0.00     0.318 C 
ATOM     15  H   UNL A   1      38.392  33.994  35.875  1.00  0.00     0.166 HD
ATOM     16  O   UNL A   1      36.574  33.077  37.530  1.00  0.00    -0.249 OA
BRANCH  14  17
ATOM     17  N   UNL A   1      38.699  32.776  38.422  1.00  0.00    -0.325 N 
ATOM     18  C   UNL A   1      40.095  33.104  38.180  1.00  0.00     0.149 C 
BRANCH  17  19
ATOM     19  C   UNL A   1      38.307  33.034  39.893  1.00  0.00     0.086 C 
ATOM     20  C   UNL A   1      38.446  34.568  39.999  1.00  0.00     0.031 C 
BRANCH  19  21
ATOM     21  C   UNL A   1      37.322  31.922  40.677  1.00  0.00     0.005 C 
ATOM     22  C   UNL A   1      37.553  32.042  42.207  1.00  0.00     0.009 C 
ATOM     23  C   UNL A   1      35.777  31.494  40.695  1.00  0.00     0.009 C 
ENDBRANCH  19  21
ENDBRANCH  17  19
ENDBRANCH  14  17
ENDBRANCH   9  13
ENDBRANCH   7   9
ENDBRANCH   6   7
ENDBRANCH   5   6
ENDBRANCH   4   5
ENDBRANCH   3   4
ENDBRANCH   2   3
ENDBRANCH   1   2
BRANCH   1  24
ATOM     24  O   UNL A   1      33.150  37.537  31.749  1.00  0.00    -0.377 OA
BRANCH  24  25
ATOM     25  C   UNL A   1      32.622  36.361  31.144  1.00  0.00     0.188 C 
BRANCH  25  26
ATOM     26  C   UNL A   1      33.252  35.933  29.783  1.00  0.00     0.188 C 
BRANCH  26  27
ATOM     27  O   UNL A   1      32.466  35.148  28.854  1.00  0.00    -0.376 OA
BRANCH  27  28
ATOM     28  C   UNL A   1      33.184  34.188  28.044  1.00  0.00     0.202 C 
BRANCH  28  29
ATOM     29  C   UNL A   1      34.491  33.490  28.699  1.00  0.00     0.261 C 
BRANCH  29  30
ATOM     30  O   UNL A   1      34.377  32.076  29.176  1.00  0.00    -0.460 OA
BRANCH  30  31
ATOM     31  C   UNL A   1      34.644  30.982  28.374  1.00  0.00     0.338 C 
ATOM     32  O   UNL A   1      33.851  30.511  27.575  1.00  0.00    -0.246 OA
BRANCH  31  33
ATOM     33  C   UNL A   1      36.031  30.321  28.590  1.00  0.00     0.060 A 
ATOM     34  C   UNL A   1      36.420  29.635  29.755  1.00  0.00     0.016 A 
ATOM     35  C   UNL A   1      37.008  30.355  27.591  1.00  0.00     0.016 A 
ATOM     36  C   UNL A   1      37.635  28.951  29.934  1.00  0.00     0.010 A 
ATOM     37  C   UNL A   1      38.264  29.698  27.761  1.00  0.00     0.010 A 
ATOM     38  C   UNL A   1      38.585  28.986  28.935  1.00  0.00    -0.014 A 
BRANCH  38  39
ATOM     39  C   UNL A   1      39.971  28.533  29.243  1.00  0.00     0.031 A 
ATOM     40  C   UNL A   1      40.808  29.467  30.068  1.00  0.00     0.074 A 
ATOM     41  C   UNL A   1      40.474  27.336  28.882  1.00  0.00     0.049 A 
ATOM     42  N   UNL A   1      42.102  29.514  30.238  1.00  0.00    -0.248 NA
ATOM     43  C   UNL A   1      40.064  30.510  30.794  1.00  0.00     0.031 C 
ATOM     44  C   UNL A   1      39.729  26.243  28.262  1.00  0.00     0.029 A 
ATOM     45  N   UNL A   1      41.760  26.849  28.972  1.00  0.00    -0.354 N 
ATOM     46  C   UNL A   1      42.332  30.648  31.006  1.00  0.00     0.074 A 
ATOM     47  C   UNL A   1      41.045  31.235  31.302  1.00  0.00     0.031 C 
ATOM     48  C   UNL A   1      40.578  25.235  27.982  1.00  0.00     0.029 A 
ATOM     49  C   UNL A   1      41.936  25.636  28.345  1.00  0.00     0.049 A 
ATOM     50  H   UNL A   1      42.484  27.322  29.442  1.00  0.00     0.167 HD
ATOM     51  C   UNL A   1      43.519  31.168  31.395  1.00  0.00     0.037 A 
ATOM     52  C   UNL A   1      43.071  24.967  28.048  1.00  0.00     0.037 A 
ATOM     53  C   UNL A   1      44.783  30.545  31.107  1.00  0.00     0.049 A 
ATOM     54  C   UNL A   1      44.398  25.585  28.430  1.00  0.00     0.074 A 
ATOM     55  C   UNL A   1      46.058  30.984  31.409  1.00  0.00     0.029 A 
ATOM     56  N   UNL A   1      44.920  29.327  30.452  1.00  0.00    -0.354 N 
ATOM     57  N   UNL A   1      44.636  26.717  29.051  1.00  0.00    -0.248 NA
ATOM     58  C   UNL A   1      45.612  24.844  28.059  1.00  0.00     0.031 C 
ATOM     59  C   UNL A   1      46.969  30.049  30.900  1.00  0.00     0.029 A 
ATOM     60  C   UNL A   1      46.259  28.999  30.335  1.00  0.00     0.049 A 
ATOM     61  H   UNL A   1      44.174  28.778  30.120  1.00  0.00     0.167 HD
ATOM     62  C   UNL A   1      46.016  26.808  29.176  1.00  0.00     0.074 A 
ATOM     63  C   UNL A   1      46.565  25.611  28.568  1.00  0.00     0.031 C 
ATOM     64  C   UNL A   1      46.767  27.787  29.743  1.00  0.00     0.037 A 
BRANCH  51  65
ATOM     65  C   UNL A   1      43.488  32.511  32.068  1.00  0.00     0.064 A 
ATOM     66  C   UNL A   1      43.396  33.713  31.348  1.00  0.00     0.173 A 
ATOM     67  C   UNL A   1      43.617  32.596  33.463  1.00  0.00     0.173 A 
ATOM     68  F   UNL A   1      43.298  33.692  30.010  1.00  0.00    -0.203 F 
ATOM     69  C   UNL A   1      43.487  34.945  31.994  1.00  0.00     0.198 A 
ATOM     70  C   UNL A   1      43.670  33.829  34.109  1.00  0.00     0.198 A 
ATOM     71  F   UNL A   1      43.713  31.482  34.204  1.00  0.00    -0.203 F 
ATOM     72  F   UNL A   1      43.482  36.077  31.275  1.00  0.00    -0.200 F 
ATOM     73  C   UNL A   1      43.621  35.002  33.372  1.00  0.00     0.200 A 
ATOM     74  F   UNL A   1      43.789  33.880  35.443  1.00  0.00    -0.200 F 
ATOM     75  F   UNL A   1      43.719  36.188  33.990  1.00  0.00    -0.200 F 
ENDBRANCH  51  65
BRANCH  52  76
ATOM     76  C   UNL A   1      43.018  23.664  27.321  1.00  0.00     0.064 A 
ATOM     77  C   UNL A   1      43.359  23.579  25.962  1.00  0.00     0.173 A 
ATOM     78  C   UNL A   1      42.624  22.479  27.960  1.00  0.00     0.173 A 
ATOM     79  F   UNL A   1      43.704  24.686  25.288  1.00  0.00    -0.203 F 
ATOM     80  C   UNL A   1      43.315  22.364  25.277  1.00  0.00     0.198 A 
ATOM     81  C   UNL A   1      42.605  21.259  27.281  1.00  0.00     0.198 A 
ATOM     82  F   UNL A   1      42.266  22.498  29.252  1.00  0.00    -0.203 F 
ATOM     83  F   UNL A   1      43.618  22.320  23.972  1.00  0.00    -0.200 F 
ATOM     84  C   UNL A   1      42.950  21.202  25.939  1.00  0.00     0.200 A 
ATOM     85  F   UNL A   1      42.258  20.137  27.928  1.00  0.00    -0.200 F 
ATOM     86  F   UNL A   1      42.924  20.033  25.286  1.00  0.00    -0.200 F 
ENDBRANCH  52  76
BRANCH  64  87
ATOM     87  C   UNL A   1      48.251  27.569  29.800  1.00  0.00     0.064 A 
ATOM     88  C   UNL A   1      49.112  28.047  28.801  1.00  0.00     0.173 A 
ATOM     89  C   UNL A   1      48.820  26.906  30.898  1.00  0.00     0.173 A 
ATOM     90  F   UNL A   1      48.616  28.677  27.726  1.00  0.00    -0.203 F 
ATOM     91  C   UNL A   1      50.487  27.842  28.887  1.00  0.00     0.198 A 
ATOM     92  C   UNL A   1      50.196  26.729  30.996  1.00  0.00     0.198 A 
ATOM     93  F   UNL A   1      48.039  26.439  31.885  1.00  0.00    -0.203 F 
ATOM     94  F   UNL A   1      51.288  28.263  27.898  1.00  0.00    -0.200 F 
ATOM     95  C   UNL A   1      51.028  27.190  29.986  1.00  0.00     0.200 A 
ATOM     96  F   UNL A   1      50.717  26.113  32.065  1.00  0.00    -0.200 F 
ATOM     97  F   UNL A   1      52.351  26.998  30.069  1.00  0.00    -0.200 F 
ENDBRANCH  64  87
ENDBRANCH  38  39
ENDBRANCH  31  33
ENDBRANCH  30  31
ENDBRANCH  29  30
ENDBRANCH  28  29
ENDBRANCH  27  28
ENDBRANCH  26  27
ENDBRANCH  25  26
ENDBRANCH  24  25
ENDBRANCH   1  24
TORSDOF 25
ENDMDL
MODEL 2
REMARK VINA RESULT:      -8.4      1.641      3.321
REMARK SMILES CC[C@@](C)(NC(=O)N(C)[C@@H](C)C(C)C)C(=O)OCCOCCOCCOCCOC(=O)c1ccc(-c2c3nc(c(-c4c(F)c(F)c(F)c(F)c4F)c4ccc([nH]4)c(-c4c(F)c(F)c(F)c(F)c4F)c4nc(c(-c5c(F)c(F)c(F)c(F)c5F)c5ccc2[nH]5)C=C4)C=C3)cc1
REMARK SMILES IDX 22 1 21 2 20 3 19 4 18 5 17 6 15 7 16 8 3 9 4 10 2 11 1 12
REMARK SMILES IDX 5 13 6 14 7 16 8 17 9 18 10 19 11 20 12 21 13 22 14 23 23 24
REMARK SMILES IDX 24 25 25 26 26 27 27 28 28 29 29 30 30 31 31 32 32 33 33 34
REMARK SMILES IDX 94 35 34 36 93 37 35 38 36 39 37 40 87 41 38 42 92 43 86 44
REMARK SMILES IDX 88 45 39 46 91 47 85 48 84 49 40 51 72 52 52 53 71 54 53 55
REMARK SMILES IDX 56 56 70 57 89 58 54 59 55 60 69 62 90 63 57 64 41 65 42 66
REMARK SMILES IDX 50 67 43 68 44 69 48 70 51 71 45 72 46 73 49 74 47 75 73 76
REMARK SMILES IDX 74 77 82 78 75 79 76 80 80 81 83 82 77 83 78 84 81 85 79 86
REMARK SMILES IDX 58 87 59 88 67 89 60 90 61 91 65 92 68 93 62 94 63 95 66 96
REMARK SMILES IDX 64 97
REMARK H PARENT 5 15 88 50 56 61
REMARK Flexibility Score: inf
ROOT
ATOM      1  C   UNL A   1      33.883  37.332  32.552  1.00  0.00     0.188 C 
ENDROOT
BRANCH   1   2
ATOM      2  C   UNL A   1      33.575  35.979  33.200  1.00  0.00     0.188 C 
BRANCH   2   3
ATOM      3  O   UNL A   1      34.581  34.968  33.187  1.00  0.00    -0.376 OA
BRANCH   3   4
ATOM      4  C   UNL A   1      34.966  34.337  34.402  1.00  0.00     0.202 C 
BRANCH   4   5
ATOM      5  C   UNL A   1      36.480  34.132  34.344  1.00  0.00     0.261 C 
BRANCH   5   6
ATOM      6  O   UNL A   1      36.799  32.950  35.098  1.00  0.00    -0.462 OA
BRANCH   6   7
ATOM      7  C   UNL A   1      37.485  33.079  36.251  1.00  0.00     0.331 C 
ATOM      8  O   UNL A   1      36.952  33.175  37.347  1.00  0.00    -0.249 OA
BRANCH   7   9
ATOM      9  C   UNL A   1      39.028  33.161  36.002  1.00  0.00     0.136 C 
ATOM     10  C   UNL A   1      39.375  34.582  36.527  1.00  0.00     0.047 C 
BRANCH   9  11
ATOM     11  C   UNL A   1      39.818  32.130  36.878  1.00  0.00     0.037 C 
ATOM     12  C   UNL A   1      41.209  32.553  37.370  1.00  0.00     0.007 C 
ENDBRANCH   9  11
BRANCH   9  13
ATOM     13  N   UNL A   1      39.542  33.150  34.557  1.00  0.00    -0.322 N 
ATOM     14  C   UNL A   1      40.100  32.183  33.751  1.00  0.00     0.318 C 
ATOM     15  H   UNL A   1      39.455  34.022  34.109  1.00  0.00     0.166 HD
ATOM     16  O   UNL A   1      41.326  32.242  33.642  1.00  0.00    -0.249 OA
BRANCH  14  17
ATOM     17  N   UNL A   1      39.276  31.480  32.855  1.00  0.00    -0.325 N 
ATOM     18  C   UNL A   1      38.579  30.284  33.303  1.00  0.00     0.149 C 
BRANCH  17  19
ATOM     19  C   UNL A   1      38.522  32.171  31.699  1.00  0.00     0.086 C 
ATOM     20  C   UNL A   1      37.052  31.829  32.022  1.00  0.00     0.031 C 
BRANCH  19  21
ATOM     21  C   UNL A   1      39.246  33.475  30.925  1.00  0.00     0.005 C 
ATOM     22  C   UNL A   1      38.244  34.659  30.901  1.00  0.00     0.009 C 
ATOM     23  C   UNL A   1      40.611  34.311  31.008  1.00  0.00     0.009 C 
ENDBRANCH  19  21
ENDBRANCH  17  19
ENDBRANCH  14  17
ENDBRANCH   9  13
ENDBRANCH   7   9
ENDBRANCH   6   7
ENDBRANCH   5   6
ENDBRANCH   4   5
ENDBRANCH   3   4
ENDBRANCH   2   3
ENDBRANCH   1   2
BRANCH   1  24
ATOM     24  O   UNL A   1      33.539  37.405  31.180  1.00  0.00    -0.377 OA
BRANCH  24  25
ATOM     25  C   UNL A   1      32.747  36.339  30.668  1.00  0.00     0.188 C 
BRANCH  25  26
ATOM     26  C   UNL A   1      33.456  35.347  29.696  1.00  0.00     0.188 C 
BRANCH  26  27
ATOM     27  O   UNL A   1      32.653  34.464  28.874  1.00  0.00    -0.376 OA
BRANCH  27  28
ATOM     28  C   UNL A   1      33.368  33.579  27.980  1.00  0.00     0.202 C 
BRANCH  28  29
ATOM     29  C   UNL A   1      34.889  33.189  28.377  1.00  0.00     0.261 C 
BRANCH  29  30
ATOM     30  O   UNL A   1      35.145  31.834  28.959  1.00  0.00    -0.460 OA
BRANCH  30  31
ATOM     31  C   UNL A   1      35.323  30.699  28.191  1.00  0.00     0.338 C 
ATOM     32  O   UNL A   1      34.459  30.214  27.479  1.00  0.00    -0.246 OA
BRANCH  31  33
ATOM     33  C   UNL A   1      36.708  30.014  28.327  1.00  0.00     0.060 A 
ATOM     34  C   UNL A   1      37.116  29.243  29.431  1.00  0.00     0.016 A 
ATOM     35  C   UNL A   1      37.663  30.111  27.311  1.00  0.00     0.016 A 
ATOM     36  C   UNL A   1      38.329  28.538  29.533  1.00  0.00     0.010 A 
ATOM     37  C   UNL A   1      38.916  29.434  27.404  1.00  0.00     0.010 A 
ATOM     38  C   UNL A   1      39.256  28.637  28.517  1.00  0.00    -0.014 A 
BRANCH  38  39
ATOM     39  C   UNL A   1      40.644  28.152  28.760  1.00  0.00     0.031 A 
ATOM     40  C   UNL A   1      41.578  29.119  29.429  1.00  0.00     0.074 A 
ATOM     41  C   UNL A   1      41.072  26.907  28.475  1.00  0.00     0.049 A 
ATOM     42  N   UNL A   1      42.883  29.123  29.496  1.00  0.00    -0.248 NA
ATOM     43  C   UNL A   1      40.934  30.254  30.109  1.00  0.00     0.031 C 
ATOM     44  C   UNL A   1      40.239  25.796  28.018  1.00  0.00     0.029 A 
ATOM     45  N   UNL A   1      42.342  26.373  28.512  1.00  0.00    -0.354 N 
ATOM     46  C   UNL A   1      43.215  30.310  30.135  1.00  0.00     0.074 A 
ATOM     47  C   UNL A   1      41.979  30.978  30.472  1.00  0.00     0.031 C 
ATOM     48  C   UNL A   1      41.025  24.731  27.769  1.00  0.00     0.029 A 
ATOM     49  C   UNL A   1      42.422  25.102  27.989  1.00  0.00     0.049 A 
ATOM     50  H   UNL A   1      43.118  26.854  28.880  1.00  0.00     0.167 HD
ATOM     51  C   UNL A   1      44.449  30.810  30.384  1.00  0.00     0.037 A 
ATOM     52  C   UNL A   1      43.504  24.359  27.671  1.00  0.00     0.037 A 
ATOM     53  C   UNL A   1      45.662  30.108  30.060  1.00  0.00     0.049 A 
ATOM     54  C   UNL A   1      44.880  24.949  27.892  1.00  0.00     0.074 A 
ATOM     55  C   UNL A   1      46.972  30.514  30.222  1.00  0.00     0.029 A 
ATOM     56  N   UNL A   1      45.700  28.830  29.512  1.00  0.00    -0.354 N 
ATOM     57  N   UNL A   1      45.208  26.121  28.385  1.00  0.00    -0.248 NA
ATOM     58  C   UNL A   1      46.031  24.124  27.501  1.00  0.00     0.031 C 
ATOM     59  C   UNL A   1      47.804  29.498  29.735  1.00  0.00     0.029 A 
ATOM     60  C   UNL A   1      47.013  28.435  29.325  1.00  0.00     0.049 A 
ATOM     61  H   UNL A   1      44.910  28.288  29.289  1.00  0.00     0.167 HD
ATOM     62  C   UNL A   1      46.597  26.161  28.396  1.00  0.00     0.074 A 
ATOM     63  C   UNL A   1      47.050  24.891  27.862  1.00  0.00     0.031 C 
ATOM     64  C   UNL A   1      47.426  27.152  28.811  1.00  0.00     0.037 A 
BRANCH  51  65
ATOM     65  C   UNL A   1      44.521  32.207  30.929  1.00  0.00     0.064 A 
ATOM     66  C   UNL A   1      44.582  32.477  32.306  1.00  0.00     0.173 A 
ATOM     67  C   UNL A   1      44.462  33.303  30.053  1.00  0.00     0.173 A 
ATOM     68  F   UNL A   1      44.613  31.469  33.190  1.00  0.00    -0.203 F 
ATOM     69  C   UNL A   1      44.529  33.786  32.783  1.00  0.00     0.198 A 
ATOM     70  C   UNL A   1      44.448  34.610  30.532  1.00  0.00     0.198 A 
ATOM     71  F   UNL A   1      44.398  33.107  28.728  1.00  0.00    -0.203 F 
ATOM     72  F   UNL A   1      44.504  34.013  34.104  1.00  0.00    -0.200 F 
ATOM     73  C   UNL A   1      44.465  34.850  31.897  1.00  0.00     0.200 A 
ATOM     74  F   UNL A   1      44.396  35.637  29.673  1.00  0.00    -0.200 F 
ATOM     75  F   UNL A   1      44.404  36.107  32.359  1.00  0.00    -0.200 F 
ENDBRANCH  51  65
BRANCH  52  76
ATOM     76  C   UNL A   1      43.345  23.000  27.074  1.00  0.00     0.064 A 
ATOM     77  C   UNL A   1      43.819  22.716  25.784  1.00  0.00     0.173 A 
ATOM     78  C   UNL A   1      42.716  21.958  27.771  1.00  0.00     0.173 A 
ATOM     79  F   UNL A   1      44.393  23.683  25.054  1.00  0.00    -0.203 F 
ATOM     80  C   UNL A   1      43.676  21.446  25.221  1.00  0.00     0.198 A 
ATOM     81  C   UNL A   1      42.597  20.681  27.218  1.00  0.00     0.198 A 
ATOM     82  F   UNL A   1      42.223  22.171  28.999  1.00  0.00    -0.203 F 
ATOM     83  F   UNL A   1      44.113  21.214  23.975  1.00  0.00    -0.200 F 
ATOM     84  C   UNL A   1      43.076  20.426  25.943  1.00  0.00     0.200 A 
ATOM     85  F   UNL A   1      42.022  19.696  27.923  1.00  0.00    -0.200 F 
ATOM     86  F   UNL A   1      42.955  19.203  25.409  1.00  0.00    -0.200 F 
ENDBRANCH  52  76
BRANCH  64  87
ATOM     87  C   UNL A   1      48.901  26.875  28.776  1.00  0.00     0.064 A 
ATOM     88  C   UNL A   1      49.593  26.382  29.891  1.00  0.00     0.173 A 
ATOM     89  C   UNL A   1      49.621  27.067  27.587  1.00  0.00     0.173 A 
ATOM     90  F   UNL A   1      48.951  26.191  31.054  1.00  0.00    -0.203 F 
ATOM     91  C   UNL A   1      50.958  26.119  29.826  1.00  0.00     0.198 A 
ATOM     92  C   UNL A   1      50.979  26.777  27.515  1.00  0.00     0.198 A 
ATOM     93  F   UNL A   1      49.002  27.528  26.488  1.00  0.00    -0.203 F 
ATOM     94  F   UNL A   1      51.611  25.696  30.917  1.00  0.00    -0.200 F 
ATOM     95  C   UNL A   1      51.649  26.311  28.637  1.00  0.00     0.200 A 
ATOM     96  F   UNL A   1      51.641  26.947  26.362  1.00  0.00    -0.200 F 
ATOM     97  F   UNL A   1      52.962  26.054  28.574  1.00  0.00    -0.200 F 
ENDBRANCH  64  87
ENDBRANCH  38  39
ENDBRANCH  31  33
ENDBRANCH  30  31
ENDBRANCH  29  30
ENDBRANCH  28  29
ENDBRANCH  27  28
ENDBRANCH  26  27
ENDBRANCH  25  26
ENDBRANCH  24  25
ENDBRANCH   1  24
TORSDOF 25
ENDMDL
MODEL 3
REMARK VINA RESULT:      -8.0      7.352     13.304
REMARK SMILES CC[C@@](C)(NC(=O)N(C)[C@@H](C)C(C)C)C(=O)OCCOCCOCCOCCOC(=O)c1ccc(-c2c3nc(c(-c4c(F)c(F)c(F)c(F)c4F)c4ccc([nH]4)c(-c4c(F)c(F)c(F)c(F)c4F)c4nc(c(-c5c(F)c(F)c(F)c(F)c5F)c5ccc2[nH]5)C=C4)C=C3)cc1
REMARK SMILES IDX 22 1 21 2 20 3 19 4 18 5 17 6 15 7 16 8 3 9 4 10 2 11 1 12
REMARK SMILES IDX 5 13 6 14 7 16 8 17 9 18 10 19 11 20 12 21 13 22 14 23 23 24
REMARK SMILES IDX 24 25 25 26 26 27 27 28 28 29 29 30 30 31 31 32 32 33 33 34
REMARK SMILES IDX 94 35 34 36 93 37 35 38 36 39 37 40 87 41 38 42 92 43 86 44
REMARK SMILES IDX 88 45 39 46 91 47 85 48 84 49 40 51 72 52 52 53 71 54 53 55
REMARK SMILES IDX 56 56 70 57 89 58 54 59 55 60 69 62 90 63 57 64 41 65 42 66
REMARK SMILES IDX 50 67 43 68 44 69 48 70 51 71 45 72 46 73 49 74 47 75 73 76
REMARK SMILES IDX 74 77 82 78 75 79 76 80 80 81 83 82 77 83 78 84 81 85 79 86
REMARK SMILES IDX 58 87 59 88 67 89 60 90 61 91 65 92 68 93 62 94 63 95 66 96
REMARK SMILES IDX 64 97
REMARK H PARENT 5 15 88 50 56 61
REMARK Flexibility Score: inf
ROOT
ATOM      1  C   UNL A   1      40.310  20.797  26.711  1.00  0.00     0.188 C 
ENDROOT
BRANCH   1   2
ATOM      2  C   UNL A   1      40.136  22.298  26.961  1.00  0.00     0.188 C 
BRANCH   2   3
ATOM      3  O   UNL A   1      38.965  22.944  26.466  1.00  0.00    -0.376 OA
BRANCH   3   4
ATOM      4  C   UNL A   1      38.028  22.210  25.687  1.00  0.00     0.202 C 
BRANCH   4   5
ATOM      5  C   UNL A   1      37.173  23.230  24.933  1.00  0.00     0.261 C 
BRANCH   5   6
ATOM      6  O   UNL A   1      35.810  22.771  24.955  1.00  0.00    -0.462 OA
BRANCH   6   7
ATOM      7  C   UNL A   1      35.068  22.883  23.836  1.00  0.00     0.331 C 
ATOM      8  O   UNL A   1      35.532  23.186  22.745  1.00  0.00    -0.249 OA
BRANCH   7   9
ATOM      9  C   UNL A   1      33.548  22.650  24.122  1.00  0.00     0.136 C 
ATOM     10  C   UNL A   1      32.979  22.375  22.701  1.00  0.00     0.047 C 
BRANCH   9  11
ATOM     11  C   UNL A   1      33.305  21.363  24.983  1.00  0.00     0.037 C 
ATOM     12  C   UNL A   1      33.089  20.046  24.224  1.00  0.00     0.007 C 
ENDBRANCH   9  11
BRANCH   9  13
ATOM     13  N   UNL A   1      32.709  23.821  24.650  1.00  0.00    -0.322 N 
ATOM     14  C   UNL A   1      33.021  25.054  25.178  1.00  0.00     0.318 C 
ATOM     15  H   UNL A   1      31.740  23.656  24.601  1.00  0.00     0.166 HD
ATOM     16  O   UNL A   1      32.953  25.124  26.406  1.00  0.00    -0.249 OA
BRANCH  14  17
ATOM     17  N   UNL A   1      33.016  26.180  24.337  1.00  0.00    -0.325 N 
ATOM     18  C   UNL A   1      33.479  26.056  22.963  1.00  0.00     0.149 C 
BRANCH  17  19
ATOM     19  C   UNL A   1      31.991  27.325  24.484  1.00  0.00     0.086 C 
ATOM     20  C   UNL A   1      30.789  26.789  23.678  1.00  0.00     0.031 C 
BRANCH  19  21
ATOM     21  C   UNL A   1      32.108  28.352  25.808  1.00  0.00     0.005 C 
ATOM     22  C   UNL A   1      31.529  29.737  25.417  1.00  0.00     0.009 C 
ATOM     23  C   UNL A   1      31.717  28.352  27.363  1.00  0.00     0.009 C 
ENDBRANCH  19  21
ENDBRANCH  17  19
ENDBRANCH  14  17
ENDBRANCH   9  13
ENDBRANCH   7   9
ENDBRANCH   6   7
ENDBRANCH   5   6
ENDBRANCH   4   5
ENDBRANCH   3   4
ENDBRANCH   2   3
ENDBRANCH   1   2
BRANCH   1  24
ATOM     24  O   UNL A   1      41.628  20.326  26.931  1.00  0.00    -0.377 OA
BRANCH  24  25
ATOM     25  C   UNL A   1      42.330  19.850  25.787  1.00  0.00     0.188 C 
BRANCH  25  26
ATOM     26  C   UNL A   1      43.073  18.488  25.941  1.00  0.00     0.188 C 
BRANCH  26  27
ATOM     27  O   UNL A   1      44.271  18.242  25.164  1.00  0.00    -0.376 OA
BRANCH  27  28
ATOM     28  C   UNL A   1      44.871  19.387  24.514  1.00  0.00     0.202 C 
BRANCH  28  29
ATOM     29  C   UNL A   1      46.108  20.109  25.270  1.00  0.00     0.261 C 
BRANCH  29  30
ATOM     30  O   UNL A   1      46.183  21.603  25.241  1.00  0.00    -0.460 OA
BRANCH  30  31
ATOM     31  C   UNL A   1      45.565  22.411  26.177  1.00  0.00     0.338 C 
ATOM     32  O   UNL A   1      44.686  22.032  26.934  1.00  0.00    -0.246 OA
BRANCH  31  33
ATOM     33  C   UNL A   1      46.019  23.895  26.178  1.00  0.00     0.060 A 
ATOM     34  C   UNL A   1      45.809  24.799  25.120  1.00  0.00     0.016 A 
ATOM     35  C   UNL A   1      46.672  24.448  27.283  1.00  0.00     0.016 A 
ATOM     36  C   UNL A   1      46.130  26.167  25.138  1.00  0.00     0.010 A 
ATOM     37  C   UNL A   1      47.040  25.827  27.314  1.00  0.00     0.010 A 
ATOM     38  C   UNL A   1      46.765  26.699  26.240  1.00  0.00    -0.014 A 
BRANCH  38  39
ATOM     39  C   UNL A   1      47.375  28.055  26.136  1.00  0.00     0.031 A 
ATOM     40  C   UNL A   1      48.829  28.103  25.765  1.00  0.00     0.074 A 
ATOM     41  C   UNL A   1      46.692  29.207  26.291  1.00  0.00     0.049 A 
ATOM     42  N   UNL A   1      49.701  29.067  25.894  1.00  0.00    -0.248 NA
ATOM     43  C   UNL A   1      49.374  26.869  25.176  1.00  0.00     0.031 C 
ATOM     44  C   UNL A   1      45.245  29.331  26.448  1.00  0.00     0.029 A 
ATOM     45  N   UNL A   1      47.146  30.506  26.362  1.00  0.00    -0.354 N 
ATOM     46  C   UNL A   1      50.915  28.522  25.496  1.00  0.00     0.074 A 
ATOM     47  C   UNL A   1      50.659  27.160  25.084  1.00  0.00     0.031 C 
ATOM     48  C   UNL A   1      44.935  30.627  26.647  1.00  0.00     0.029 A 
ATOM     49  C   UNL A   1      46.166  31.414  26.694  1.00  0.00     0.049 A 
ATOM     50  H   UNL A   1      48.080  30.761  26.189  1.00  0.00     0.167 HD
ATOM     51  C   UNL A   1      52.138  29.101  25.511  1.00  0.00     0.037 A 
ATOM     52  C   UNL A   1      46.269  32.712  27.054  1.00  0.00     0.037 A 
ATOM     53  C   UNL A   1      52.356  30.469  25.901  1.00  0.00     0.049 A 
ATOM     54  C   UNL A   1      47.645  33.336  27.130  1.00  0.00     0.074 A 
ATOM     55  C   UNL A   1      53.543  31.167  25.998  1.00  0.00     0.029 A 
ATOM     56  N   UNL A   1      51.339  31.350  26.250  1.00  0.00    -0.354 N 
ATOM     57  N   UNL A   1      48.814  32.797  26.872  1.00  0.00    -0.248 NA
ATOM     58  C   UNL A   1      47.719  34.740  27.559  1.00  0.00     0.031 C 
ATOM     59  C   UNL A   1      53.249  32.462  26.445  1.00  0.00     0.029 A 
ATOM     60  C   UNL A   1      51.873  32.587  26.568  1.00  0.00     0.049 A 
ATOM     61  H   UNL A   1      50.381  31.128  26.270  1.00  0.00     0.167 HD
ATOM     62  C   UNL A   1      49.755  33.798  27.073  1.00  0.00     0.074 A 
ATOM     63  C   UNL A   1      49.020  34.982  27.472  1.00  0.00     0.031 C 
ATOM     64  C   UNL A   1      51.106  33.750  26.939  1.00  0.00     0.037 A 
BRANCH  51  65
ATOM     65  C   UNL A   1      53.314  28.220  25.198  1.00  0.00     0.064 A 
ATOM     66  C   UNL A   1      53.994  27.492  26.188  1.00  0.00     0.173 A 
ATOM     67  C   UNL A   1      53.809  28.156  23.886  1.00  0.00     0.173 A 
ATOM     68  F   UNL A   1      53.582  27.539  27.463  1.00  0.00    -0.203 F 
ATOM     69  C   UNL A   1      55.152  26.778  25.884  1.00  0.00     0.198 A 
ATOM     70  C   UNL A   1      54.944  27.410  23.580  1.00  0.00     0.198 A 
ATOM     71  F   UNL A   1      53.202  28.833  22.900  1.00  0.00    -0.203 F 
ATOM     72  F   UNL A   1      55.831  26.161  26.861  1.00  0.00    -0.200 F 
ATOM     73  C   UNL A   1      55.624  26.735  24.581  1.00  0.00     0.200 A 
ATOM     74  F   UNL A   1      55.391  27.362  22.317  1.00  0.00    -0.200 F 
ATOM     75  F   UNL A   1      56.743  26.056  24.293  1.00  0.00    -0.200 F 
ENDBRANCH  51  65
BRANCH  52  76
ATOM     76  C   UNL A   1      45.053  33.502  27.409  1.00  0.00     0.064 A 
ATOM     77  C   UNL A   1      44.373  34.259  26.442  1.00  0.00     0.173 A 
ATOM     78  C   UNL A   1      44.545  33.525  28.717  1.00  0.00     0.173 A 
ATOM     79  F   UNL A   1      44.836  34.308  25.185  1.00  0.00    -0.203 F 
ATOM     80  C   UNL A   1      43.234  34.998  26.767  1.00  0.00     0.198 A 
ATOM     81  C   UNL A   1      43.390  34.243  29.035  1.00  0.00     0.198 A 
ATOM     82  F   UNL A   1      45.161  32.840  29.691  1.00  0.00    -0.203 F 
ATOM     83  F   UNL A   1      42.625  35.734  25.827  1.00  0.00    -0.200 F 
ATOM     84  C   UNL A   1      42.736  34.980  28.061  1.00  0.00     0.200 A 
ATOM     85  F   UNL A   1      42.909  34.216  30.287  1.00  0.00    -0.200 F 
ATOM     86  F   UNL A   1      41.633  35.675  28.368  1.00  0.00    -0.200 F 
ENDBRANCH  52  76
BRANCH  64  87
ATOM     87  C   UNL A   1      51.863  35.028  27.150  1.00  0.00     0.064 A 
ATOM     88  C   UNL A   1      52.004  35.987  26.136  1.00  0.00     0.173 A 
ATOM     89  C   UNL A   1      52.421  35.312  28.407  1.00  0.00     0.173 A 
ATOM     90  F   UNL A   1      51.498  35.757  24.915  1.00  0.00    -0.203 F 
ATOM     91  C   UNL A   1      52.700  37.171  26.365  1.00  0.00     0.198 A 
ATOM     92  C   UNL A   1      53.090  36.509  28.641  1.00  0.00     0.198 A 
ATOM     93  F   UNL A   1      52.305  34.432  29.413  1.00  0.00    -0.203 F 
ATOM     94  F   UNL A   1      52.865  38.052  25.368  1.00  0.00    -0.200 F 
ATOM     95  C   UNL A   1      53.237  37.433  27.617  1.00  0.00     0.200 A 
ATOM     96  F   UNL A   1      53.595  36.767  29.855  1.00  0.00    -0.200 F 
ATOM     97  F   UNL A   1      53.903  38.575  27.837  1.00  0.00    -0.200 F 
ENDBRANCH  64  87
ENDBRANCH  38  39
ENDBRANCH  31  33
ENDBRANCH  30  31
ENDBRANCH  29  30
ENDBRANCH  28  29
ENDBRANCH  27  28
ENDBRANCH  26  27
ENDBRANCH  25  26
ENDBRANCH  24  25
ENDBRANCH   1  24
TORSDOF 25
ENDMDL
