MODEL 1
REMARK VINA RESULT:     -10.3      0.000      0.000
REMARK SMILES O=C(COc1ccccc1C[N@@H+]1C[C@@H]2[C@H]3CC[C@H](C3)[C@@H]2C1)OCCOCCOCCOCCOC(=O)c1ccc(-c2c3nc(c(-c4c(F)c(F)c(F)c(F)c4F)c4ccc([nH]4)c(-c4c(F)c(F)c(F)c(F)c4F)c4nc(c(-c5c(F)c(F)c(F)c(F)c5F)c5ccc2[nH]5)C=C4)C=C3)cc1
REMARK SMILES IDX 27 1 26 2 25 3 24 4 23 5 22 6 2 7 1 8 3 9 4 10 5 11 6 12
REMARK SMILES IDX 10 13 7 14 9 15 8 16 11 17 12 18 13 19 21 20 14 22 20 23
REMARK SMILES IDX 15 24 18 25 16 26 19 27 17 28 28 29 29 30 30 31 31 32 32 33
REMARK SMILES IDX 33 34 34 35 35 36 36 37 37 38 38 39 99 40 39 41 98 42 40 43
REMARK SMILES IDX 41 44 42 45 92 46 43 47 97 48 91 49 93 50 44 51 96 52 90 53
REMARK SMILES IDX 89 54 45 56 77 57 57 58 76 59 58 60 61 61 75 62 94 63 59 64
REMARK SMILES IDX 60 65 74 67 95 68 62 69 46 70 47 71 55 72 48 73 49 74 53 75
REMARK SMILES IDX 56 76 50 77 51 78 54 79 52 80 78 81 79 82 87 83 80 84 81 85
REMARK SMILES IDX 85 86 88 87 82 88 83 89 86 90 84 91 63 92 64 93 72 94 65 95
REMARK SMILES IDX 66 96 70 97 73 98 67 99 68 100 71 101 69 102
REMARK H PARENT 12 21 93 55 61 66
REMARK Flexibility Score: inf
ROOT
ATOM      1  C   UNL A   1      34.131  33.705  27.871  1.00  0.00     0.188 C 
ENDROOT
BRANCH   1   2
ATOM      2  C   UNL A   1      32.585  33.787  27.909  1.00  0.00     0.188 C 
BRANCH   2   3
ATOM      3  O   UNL A   1      31.775  33.323  26.844  1.00  0.00    -0.376 OA
BRANCH   3   4
ATOM      4  C   UNL A   1      31.427  32.004  26.493  1.00  0.00     0.202 C 
BRANCH   4   5
ATOM      5  C   UNL A   1      32.073  30.752  27.065  1.00  0.00     0.261 C 
BRANCH   5   6
ATOM      6  O   UNL A   1      33.351  30.370  26.553  1.00  0.00    -0.461 OA
BRANCH   6   7
ATOM      7  C   UNL A   1      33.900  29.137  26.663  1.00  0.00     0.344 C 
ATOM      8  O   UNL A   1      35.071  29.010  27.020  1.00  0.00    -0.248 OA
BRANCH   7   9
ATOM      9  C   UNL A   1      33.045  27.952  26.324  1.00  0.00     0.351 C 
BRANCH   9  10
ATOM     10  O   UNL A   1      33.197  27.668  24.943  1.00  0.00    -0.481 OA
BRANCH  10  11
ATOM     11  C   UNL A   1      31.981  27.609  24.334  1.00  0.00     0.129 A 
ATOM     12  C   UNL A   1      31.468  28.863  23.981  1.00  0.00     0.047 A 
ATOM     13  C   UNL A   1      31.239  26.421  24.178  1.00  0.00     0.048 A 
ATOM     14  C   UNL A   1      30.207  28.959  23.415  1.00  0.00     0.004 A 
ATOM     15  C   UNL A   1      29.985  26.548  23.554  1.00  0.00     0.013 A 
ATOM     16  C   UNL A   1      29.475  27.799  23.185  1.00  0.00     0.001 A 
BRANCH  13  17
ATOM     17  C   UNL A   1      31.625  25.051  24.717  1.00  0.00     0.302 C 
BRANCH  17  18
ATOM     18  N   UNL A   1      32.425  24.179  23.878  1.00  0.00    -0.331 N 
ATOM     19  C   UNL A   1      31.803  23.078  23.196  1.00  0.00     0.266 C 
ATOM     20  C   UNL A   1      33.831  23.926  24.109  1.00  0.00     0.266 C 
ATOM     21  H   UNL A   1      32.457  24.985  23.254  1.00  0.00     0.348 HD
ATOM     22  C   UNL A   1      32.668  21.868  23.505  1.00  0.00     0.056 C 
ATOM     23  C   UNL A   1      34.048  22.415  23.917  1.00  0.00     0.056 C 
ATOM     24  C   UNL A   1      32.254  21.042  24.747  1.00  0.00    -0.002 C 
ATOM     25  C   UNL A   1      34.341  21.649  25.234  1.00  0.00    -0.002 C 
ATOM     26  C   UNL A   1      33.014  19.711  24.675  1.00  0.00     0.004 C 
ATOM     27  C   UNL A   1      32.990  21.678  25.922  1.00  0.00     0.008 C 
ATOM     28  C   UNL A   1      34.465  20.137  24.979  1.00  0.00     0.004 C 
ENDBRANCH  17  18
ENDBRANCH  13  17
ENDBRANCH  10  11
ENDBRANCH   9  10
ENDBRANCH   7   9
ENDBRANCH   6   7
ENDBRANCH   5   6
ENDBRANCH   4   5
ENDBRANCH   3   4
ENDBRANCH   2   3
ENDBRANCH   1   2
BRANCH   1  29
ATOM     29  O   UNL A   1      34.858  33.446  29.062  1.00  0.00    -0.377 OA
BRANCH  29  30
ATOM     30  C   UNL A   1      34.434  34.154  30.206  1.00  0.00     0.188 C 
BRANCH  30  31
ATOM     31  C   UNL A   1      34.536  33.304  31.480  1.00  0.00     0.188 C 
BRANCH  31  32
ATOM     32  O   UNL A   1      34.192  33.947  32.689  1.00  0.00    -0.376 OA
BRANCH  32  33
ATOM     33  C   UNL A   1      34.754  33.605  33.947  1.00  0.00     0.202 C 
BRANCH  33  34
ATOM     34  C   UNL A   1      36.211  33.799  34.417  1.00  0.00     0.261 C 
BRANCH  34  35
ATOM     35  O   UNL A   1      37.258  33.134  33.720  1.00  0.00    -0.460 OA
BRANCH  35  36
ATOM     36  C   UNL A   1      37.676  31.965  34.220  1.00  0.00     0.338 C 
ATOM     37  O   UNL A   1      37.493  31.527  35.347  1.00  0.00    -0.246 OA
BRANCH  36  38
ATOM     38  C   UNL A   1      38.208  31.184  33.090  1.00  0.00     0.060 A 
ATOM     39  C   UNL A   1      39.010  30.071  33.381  1.00  0.00     0.016 A 
ATOM     40  C   UNL A   1      37.911  31.528  31.766  1.00  0.00     0.016 A 
ATOM     41  C   UNL A   1      39.585  29.345  32.352  1.00  0.00     0.010 A 
ATOM     42  C   UNL A   1      38.533  30.833  30.731  1.00  0.00     0.010 A 
ATOM     43  C   UNL A   1      39.425  29.789  31.035  1.00  0.00    -0.014 A 
BRANCH  43  44
ATOM     44  C   UNL A   1      40.484  29.411  30.080  1.00  0.00     0.031 A 
ATOM     45  C   UNL A   1      41.575  30.420  29.840  1.00  0.00     0.074 A 
ATOM     46  C   UNL A   1      40.543  28.180  29.551  1.00  0.00     0.049 A 
ATOM     47  N   UNL A   1      42.652  30.327  29.104  1.00  0.00    -0.248 NA
ATOM     48  C   UNL A   1      41.435  31.713  30.535  1.00  0.00     0.031 C 
ATOM     49  C   UNL A   1      39.578  27.110  29.788  1.00  0.00     0.029 A 
ATOM     50  N   UNL A   1      41.474  27.625  28.715  1.00  0.00    -0.354 N 
ATOM     51  C   UNL A   1      43.304  31.545  29.244  1.00  0.00     0.074 A 
ATOM     52  C   UNL A   1      42.495  32.375  30.104  1.00  0.00     0.031 C 
ATOM     53  C   UNL A   1      39.967  26.020  29.104  1.00  0.00     0.029 A 
ATOM     54  C   UNL A   1      41.190  26.331  28.366  1.00  0.00     0.049 A 
ATOM     55  H   UNL A   1      42.269  28.109  28.397  1.00  0.00     0.167 HD
ATOM     56  C   UNL A   1      44.483  31.934  28.707  1.00  0.00     0.037 A 
ATOM     57  C   UNL A   1      41.848  25.506  27.530  1.00  0.00     0.037 A 
ATOM     58  C   UNL A   1      45.279  31.098  27.853  1.00  0.00     0.049 A 
ATOM     59  C   UNL A   1      43.119  25.993  26.879  1.00  0.00     0.074 A 
ATOM     60  C   UNL A   1      46.489  31.383  27.251  1.00  0.00     0.029 A 
ATOM     61  N   UNL A   1      44.932  29.809  27.472  1.00  0.00    -0.354 N 
ATOM     62  N   UNL A   1      43.741  27.140  27.019  1.00  0.00    -0.248 NA
ATOM     63  C   UNL A   1      43.785  25.061  25.960  1.00  0.00     0.031 C 
ATOM     64  C   UNL A   1      46.843  30.292  26.451  1.00  0.00     0.029 A 
ATOM     65  C   UNL A   1      45.893  29.295  26.620  1.00  0.00     0.049 A 
ATOM     66  H   UNL A   1      44.122  29.332  27.765  1.00  0.00     0.167 HD
ATOM     67  C   UNL A   1      44.892  27.051  26.245  1.00  0.00     0.074 A 
ATOM     68  C   UNL A   1      44.884  25.732  25.646  1.00  0.00     0.031 C 
ATOM     69  C   UNL A   1      45.870  27.971  26.049  1.00  0.00     0.037 A 
BRANCH  56  70
ATOM     70  C   UNL A   1      44.944  33.334  28.989  1.00  0.00     0.064 A 
ATOM     71  C   UNL A   1      44.584  34.419  28.174  1.00  0.00     0.173 A 
ATOM     72  C   UNL A   1      45.760  33.594  30.100  1.00  0.00     0.173 A 
ATOM     73  F   UNL A   1      43.826  34.223  27.083  1.00  0.00    -0.203 F 
ATOM     74  C   UNL A   1      45.047  35.705  28.445  1.00  0.00     0.198 A 
ATOM     75  C   UNL A   1      46.191  34.886  30.388  1.00  0.00     0.198 A 
ATOM     76  F   UNL A   1      46.140  32.593  30.909  1.00  0.00    -0.203 F 
ATOM     77  F   UNL A   1      44.738  36.714  27.620  1.00  0.00    -0.200 F 
ATOM     78  C   UNL A   1      45.842  35.938  29.557  1.00  0.00     0.200 A 
ATOM     79  F   UNL A   1      46.949  35.110  31.471  1.00  0.00    -0.200 F 
ATOM     80  F   UNL A   1      46.279  37.177  29.822  1.00  0.00    -0.200 F 
ENDBRANCH  56  70
BRANCH  57  81
ATOM     81  C   UNL A   1      41.323  24.143  27.259  1.00  0.00     0.064 A 
ATOM     82  C   UNL A   1      40.156  23.951  26.506  1.00  0.00     0.173 A 
ATOM     83  C   UNL A   1      41.960  23.005  27.773  1.00  0.00     0.173 A 
ATOM     84  F   UNL A   1      39.496  25.008  26.011  1.00  0.00    -0.203 F 
ATOM     85  C   UNL A   1      39.631  22.676  26.303  1.00  0.00     0.198 A 
ATOM     86  C   UNL A   1      41.454  21.728  27.541  1.00  0.00     0.198 A 
ATOM     87  F   UNL A   1      43.081  23.132  28.498  1.00  0.00    -0.203 F 
ATOM     88  F   UNL A   1      38.483  22.526  25.629  1.00  0.00    -0.200 F 
ATOM     89  C   UNL A   1      40.284  21.565  26.816  1.00  0.00     0.200 A 
ATOM     90  F   UNL A   1      42.097  20.656  28.026  1.00  0.00    -0.200 F 
ATOM     91  F   UNL A   1      39.780  20.339  26.621  1.00  0.00    -0.200 F 
ENDBRANCH  57  81
BRANCH  69  92
ATOM     92  C   UNL A   1      47.046  27.558  25.209  1.00  0.00     0.064 A 
ATOM     93  C   UNL A   1      47.135  27.869  23.845  1.00  0.00     0.173 A 
ATOM     94  C   UNL A   1      48.114  26.857  25.793  1.00  0.00     0.173 A 
ATOM     95  F   UNL A   1      46.138  28.530  23.236  1.00  0.00    -0.203 F 
ATOM     96  C   UNL A   1      48.227  27.455  23.087  1.00  0.00     0.198 A 
ATOM     97  C   UNL A   1      49.223  26.482  25.041  1.00  0.00     0.198 A 
ATOM     98  F   UNL A   1      48.088  26.546  27.098  1.00  0.00    -0.203 F 
ATOM     99  F   UNL A   1      48.257  27.702  21.770  1.00  0.00    -0.200 F 
ATOM    100  C   UNL A   1      49.272  26.768  23.686  1.00  0.00     0.200 A 
ATOM    101  F   UNL A   1      50.241  25.837  25.628  1.00  0.00    -0.200 F 
ATOM    102  F   UNL A   1      50.323  26.373  22.954  1.00  0.00    -0.200 F 
ENDBRANCH  69  92
ENDBRANCH  43  44
ENDBRANCH  36  38
ENDBRANCH  35  36
ENDBRANCH  34  35
ENDBRANCH  33  34
ENDBRANCH  32  33
ENDBRANCH  31  32
ENDBRANCH  30  31
ENDBRANCH  29  30
ENDBRANCH   1  29
TORSDOF 24
ENDMDL
MODEL 2
REMARK VINA RESULT:     -10.2      5.114      9.653
REMARK SMILES O=C(COc1ccccc1C[N@@H+]1C[C@@H]2[C@H]3CC[C@H](C3)[C@@H]2C1)OCCOCCOCCOCCOC(=O)c1ccc(-c2c3nc(c(-c4c(F)c(F)c(F)c(F)c4F)c4ccc([nH]4)c(-c4c(F)c(F)c(F)c(F)c4F)c4nc(c(-c5c(F)c(F)c(F)c(F)c5F)c5ccc2[nH]5)C=C4)C=C3)cc1
REMARK SMILES IDX 27 1 26 2 25 3 24 4 23 5 22 6 2 7 1 8 3 9 4 10 5 11 6 12
REMARK SMILES IDX 10 13 7 14 9 15 8 16 11 17 12 18 13 19 21 20 14 22 20 23
REMARK SMILES IDX 15 24 18 25 16 26 19 27 17 28 28 29 29 30 30 31 31 32 32 33
REMARK SMILES IDX 33 34 34 35 35 36 36 37 37 38 38 39 99 40 39 41 98 42 40 43
REMARK SMILES IDX 41 44 42 45 92 46 43 47 97 48 91 49 93 50 44 51 96 52 90 53
REMARK SMILES IDX 89 54 45 56 77 57 57 58 76 59 58 60 61 61 75 62 94 63 59 64
REMARK SMILES IDX 60 65 74 67 95 68 62 69 46 70 47 71 55 72 48 73 49 74 53 75
REMARK SMILES IDX 56 76 50 77 51 78 54 79 52 80 78 81 79 82 87 83 80 84 81 85
REMARK SMILES IDX 85 86 88 87 82 88 83 89 86 90 84 91 63 92 64 93 72 94 65 95
REMARK SMILES IDX 66 96 70 97 73 98 67 99 68 100 71 101 69 102
REMARK H PARENT 12 21 93 55 61 66
REMARK Flexibility Score: inf
ROOT
ATOM      1  C   UNL A   1      35.320  33.639  33.978  1.00  0.00     0.188 C 
ENDROOT
BRANCH   1   2
ATOM      2  C   UNL A   1      35.385  34.950  33.155  1.00  0.00     0.188 C 
BRANCH   2   3
ATOM      3  O   UNL A   1      34.773  36.151  33.593  1.00  0.00    -0.376 OA
BRANCH   3   4
ATOM      4  C   UNL A   1      33.655  36.827  33.069  1.00  0.00     0.202 C 
BRANCH   4   5
ATOM      5  C   UNL A   1      33.331  36.960  31.589  1.00  0.00     0.261 C 
BRANCH   5   6
ATOM      6  O   UNL A   1      33.138  35.760  30.840  1.00  0.00    -0.461 OA
BRANCH   6   7
ATOM      7  C   UNL A   1      33.203  35.660  29.492  1.00  0.00     0.344 C 
ATOM      8  O   UNL A   1      32.313  36.142  28.791  1.00  0.00    -0.248 OA
BRANCH   7   9
ATOM      9  C   UNL A   1      34.376  34.940  28.895  1.00  0.00     0.351 C 
BRANCH   9  10
ATOM     10  O   UNL A   1      34.998  34.173  29.914  1.00  0.00    -0.481 OA
BRANCH  10  11
ATOM     11  C   UNL A   1      35.677  33.125  29.372  1.00  0.00     0.129 A 
ATOM     12  C   UNL A   1      34.890  31.983  29.185  1.00  0.00     0.047 A 
ATOM     13  C   UNL A   1      37.066  33.129  29.134  1.00  0.00     0.048 A 
ATOM     14  C   UNL A   1      35.466  30.817  28.706  1.00  0.00     0.004 A 
ATOM     15  C   UNL A   1      37.610  31.947  28.600  1.00  0.00     0.013 A 
ATOM     16  C   UNL A   1      36.821  30.807  28.396  1.00  0.00     0.001 A 
BRANCH  13  17
ATOM     17  C   UNL A   1      38.030  34.247  29.501  1.00  0.00     0.302 C 
BRANCH  17  18
ATOM     18  N   UNL A   1      39.043  33.985  30.507  1.00  0.00    -0.331 N 
ATOM     19  C   UNL A   1      40.087  33.036  30.237  1.00  0.00     0.266 C 
ATOM     20  C   UNL A   1      38.801  34.108  31.928  1.00  0.00     0.266 C 
ATOM     21  H   UNL A   1      39.370  34.921  30.268  1.00  0.00     0.348 HD
ATOM     22  C   UNL A   1      40.120  32.114  31.444  1.00  0.00     0.056 C 
ATOM     23  C   UNL A   1      39.452  32.885  32.598  1.00  0.00     0.056 C 
ATOM     24  C   UNL A   1      39.244  30.841  31.344  1.00  0.00    -0.002 C 
ATOM     25  C   UNL A   1      38.432  31.856  33.154  1.00  0.00    -0.002 C 
ATOM     26  C   UNL A   1      39.683  29.905  32.478  1.00  0.00     0.004 C 
ATOM     27  C   UNL A   1      37.875  31.247  31.883  1.00  0.00     0.008 C 
ATOM     28  C   UNL A   1      39.150  30.625  33.734  1.00  0.00     0.004 C 
ENDBRANCH  17  18
ENDBRANCH  13  17
ENDBRANCH  10  11
ENDBRANCH   9  10
ENDBRANCH   7   9
ENDBRANCH   6   7
ENDBRANCH   5   6
ENDBRANCH   4   5
ENDBRANCH   3   4
ENDBRANCH   2   3
ENDBRANCH   1   2
BRANCH   1  29
ATOM     29  O   UNL A   1      35.604  33.659  35.367  1.00  0.00    -0.377 OA
BRANCH  29  30
ATOM     30  C   UNL A   1      36.970  33.720  35.714  1.00  0.00     0.188 C 
BRANCH  30  31
ATOM     31  C   UNL A   1      37.376  32.577  36.655  1.00  0.00     0.188 C 
BRANCH  31  32
ATOM     32  O   UNL A   1      36.942  32.686  37.995  1.00  0.00    -0.376 OA
BRANCH  32  33
ATOM     33  C   UNL A   1      37.823  32.677  39.109  1.00  0.00     0.202 C 
BRANCH  33  34
ATOM     34  C   UNL A   1      38.425  33.890  39.848  1.00  0.00     0.261 C 
BRANCH  34  35
ATOM     35  O   UNL A   1      39.095  34.897  39.098  1.00  0.00    -0.460 OA
BRANCH  35  36
ATOM     36  C   UNL A   1      40.415  35.013  39.279  1.00  0.00     0.338 C 
ATOM     37  O   UNL A   1      41.025  35.027  40.339  1.00  0.00    -0.246 OA
BRANCH  36  38
ATOM     38  C   UNL A   1      41.040  34.891  37.950  1.00  0.00     0.060 A 
ATOM     39  C   UNL A   1      40.196  34.761  36.838  1.00  0.00     0.016 A 
ATOM     40  C   UNL A   1      42.431  34.921  37.797  1.00  0.00     0.016 A 
ATOM     41  C   UNL A   1      40.738  34.579  35.577  1.00  0.00     0.010 A 
ATOM     42  C   UNL A   1      42.978  34.683  36.538  1.00  0.00     0.010 A 
ATOM     43  C   UNL A   1      42.124  34.440  35.447  1.00  0.00    -0.014 A 
BRANCH  43  44
ATOM     44  C   UNL A   1      42.602  33.669  34.283  1.00  0.00     0.031 A 
ATOM     45  C   UNL A   1      42.678  32.174  34.443  1.00  0.00     0.074 A 
ATOM     46  C   UNL A   1      42.832  34.257  33.100  1.00  0.00     0.049 A 
ATOM     47  N   UNL A   1      43.003  31.256  33.571  1.00  0.00    -0.248 NA
ATOM     48  C   UNL A   1      42.331  31.640  35.773  1.00  0.00     0.031 C 
ATOM     49  C   UNL A   1      42.707  35.686  32.827  1.00  0.00     0.029 A 
ATOM     50  N   UNL A   1      43.206  33.709  31.903  1.00  0.00    -0.354 N 
ATOM     51  C   UNL A   1      42.906  30.048  34.249  1.00  0.00     0.074 A 
ATOM     52  C   UNL A   1      42.526  30.343  35.609  1.00  0.00     0.031 C 
ATOM     53  C   UNL A   1      43.005  35.904  31.534  1.00  0.00     0.029 A 
ATOM     54  C   UNL A   1      43.365  34.634  30.905  1.00  0.00     0.049 A 
ATOM     55  H   UNL A   1      43.344  32.743  31.772  1.00  0.00     0.167 HD
ATOM     56  C   UNL A   1      43.108  28.798  33.773  1.00  0.00     0.037 A 
ATOM     57  C   UNL A   1      43.772  34.461  29.634  1.00  0.00     0.037 A 
ATOM     58  C   UNL A   1      43.485  28.518  32.416  1.00  0.00     0.049 A 
ATOM     59  C   UNL A   1      44.070  33.064  29.150  1.00  0.00     0.074 A 
ATOM     60  C   UNL A   1      43.718  27.294  31.820  1.00  0.00     0.029 A 
ATOM     61  N   UNL A   1      43.696  29.487  31.444  1.00  0.00    -0.354 N 
ATOM     62  N   UNL A   1      43.968  31.922  29.787  1.00  0.00    -0.248 NA
ATOM     63  C   UNL A   1      44.529  32.934  27.761  1.00  0.00     0.031 C 
ATOM     64  C   UNL A   1      44.134  27.524  30.506  1.00  0.00     0.029 A 
ATOM     65  C   UNL A   1      44.082  28.888  30.258  1.00  0.00     0.049 A 
ATOM     66  H   UNL A   1      43.586  30.456  31.579  1.00  0.00     0.167 HD
ATOM     67  C   UNL A   1      44.306  30.936  28.868  1.00  0.00     0.074 A 
ATOM     68  C   UNL A   1      44.605  31.618  27.625  1.00  0.00     0.031 C 
ATOM     69  C   UNL A   1      44.359  29.590  29.030  1.00  0.00     0.037 A 
BRANCH  56  70
ATOM     70  C   UNL A   1      42.976  27.658  34.741  1.00  0.00     0.064 A 
ATOM     71  C   UNL A   1      44.017  27.287  35.606  1.00  0.00     0.173 A 
ATOM     72  C   UNL A   1      41.780  26.927  34.805  1.00  0.00     0.173 A 
ATOM     73  F   UNL A   1      45.191  27.937  35.569  1.00  0.00    -0.203 F 
ATOM     74  C   UNL A   1      43.875  26.209  36.477  1.00  0.00     0.198 A 
ATOM     75  C   UNL A   1      41.630  25.874  35.702  1.00  0.00     0.198 A 
ATOM     76  F   UNL A   1      40.755  27.236  33.996  1.00  0.00    -0.203 F 
ATOM     77  F   UNL A   1      44.903  25.836  37.252  1.00  0.00    -0.200 F 
ATOM     78  C   UNL A   1      42.678  25.510  36.530  1.00  0.00     0.200 A 
ATOM     79  F   UNL A   1      40.468  25.208  35.759  1.00  0.00    -0.200 F 
ATOM     80  F   UNL A   1      42.540  24.479  37.375  1.00  0.00    -0.200 F 
ENDBRANCH  56  70
BRANCH  57  81
ATOM     81  C   UNL A   1      43.922  35.632  28.732  1.00  0.00     0.064 A 
ATOM     82  C   UNL A   1      45.154  36.286  28.589  1.00  0.00     0.173 A 
ATOM     83  C   UNL A   1      42.828  36.141  28.016  1.00  0.00     0.173 A 
ATOM     84  F   UNL A   1      46.225  35.852  29.269  1.00  0.00    -0.203 F 
ATOM     85  C   UNL A   1      45.279  37.420  27.789  1.00  0.00     0.198 A 
ATOM     86  C   UNL A   1      42.962  37.255  27.190  1.00  0.00     0.198 A 
ATOM     87  F   UNL A   1      41.627  35.553  28.115  1.00  0.00    -0.203 F 
ATOM     88  F   UNL A   1      46.454  38.059  27.716  1.00  0.00    -0.200 F 
ATOM     89  C   UNL A   1      44.184  37.900  27.086  1.00  0.00     0.200 A 
ATOM     90  F   UNL A   1      41.905  37.706  26.501  1.00  0.00    -0.200 F 
ATOM     91  F   UNL A   1      44.304  38.991  26.317  1.00  0.00    -0.200 F 
ENDBRANCH  57  81
BRANCH  69  92
ATOM     92  C   UNL A   1      44.686  28.762  27.818  1.00  0.00     0.064 A 
ATOM     93  C   UNL A   1      45.982  28.291  27.564  1.00  0.00     0.173 A 
ATOM     94  C   UNL A   1      43.672  28.416  26.909  1.00  0.00     0.173 A 
ATOM     95  F   UNL A   1      46.989  28.599  28.396  1.00  0.00    -0.203 F 
ATOM     96  C   UNL A   1      46.260  27.544  26.422  1.00  0.00     0.198 A 
ATOM     97  C   UNL A   1      43.946  27.634  25.792  1.00  0.00     0.198 A 
ATOM     98  F   UNL A   1      42.412  28.828  27.112  1.00  0.00    -0.203 F 
ATOM     99  F   UNL A   1      47.519  27.165  26.162  1.00  0.00    -0.200 F 
ATOM    100  C   UNL A   1      45.242  27.211  25.541  1.00  0.00     0.200 A 
ATOM    101  F   UNL A   1      42.955  27.297  24.954  1.00  0.00    -0.200 F 
ATOM    102  F   UNL A   1      45.512  26.490  24.444  1.00  0.00    -0.200 F 
ENDBRANCH  69  92
ENDBRANCH  43  44
ENDBRANCH  36  38
ENDBRANCH  35  36
ENDBRANCH  34  35
ENDBRANCH  33  34
ENDBRANCH  32  33
ENDBRANCH  31  32
ENDBRANCH  30  31
ENDBRANCH  29  30
ENDBRANCH   1  29
TORSDOF 24
ENDMDL
MODEL 3
REMARK VINA RESULT:     -10.0      1.114      2.381
REMARK SMILES O=C(COc1ccccc1C[N@@H+]1C[C@@H]2[C@H]3CC[C@H](C3)[C@@H]2C1)OCCOCCOCCOCCOC(=O)c1ccc(-c2c3nc(c(-c4c(F)c(F)c(F)c(F)c4F)c4ccc([nH]4)c(-c4c(F)c(F)c(F)c(F)c4F)c4nc(c(-c5c(F)c(F)c(F)c(F)c5F)c5ccc2[nH]5)C=C4)C=C3)cc1
REMARK SMILES IDX 27 1 26 2 25 3 24 4 23 5 22 6 2 7 1 8 3 9 4 10 5 11 6 12
REMARK SMILES IDX 10 13 7 14 9 15 8 16 11 17 12 18 13 19 21 20 14 22 20 23
REMARK SMILES IDX 15 24 18 25 16 26 19 27 17 28 28 29 29 30 30 31 31 32 32 33
REMARK SMILES IDX 33 34 34 35 35 36 36 37 37 38 38 39 99 40 39 41 98 42 40 43
REMARK SMILES IDX 41 44 42 45 92 46 43 47 97 48 91 49 93 50 44 51 96 52 90 53
REMARK SMILES IDX 89 54 45 56 77 57 57 58 76 59 58 60 61 61 75 62 94 63 59 64
REMARK SMILES IDX 60 65 74 67 95 68 62 69 46 70 47 71 55 72 48 73 49 74 53 75
REMARK SMILES IDX 56 76 50 77 51 78 54 79 52 80 78 81 79 82 87 83 80 84 81 85
REMARK SMILES IDX 85 86 88 87 82 88 83 89 86 90 84 91 63 92 64 93 72 94 65 95
REMARK SMILES IDX 66 96 70 97 73 98 67 99 68 100 71 101 69 102
REMARK H PARENT 12 21 93 55 61 66
REMARK Flexibility Score: inf
ROOT
ATOM      1  C   UNL A   1      34.143  33.083  28.008  1.00  0.00     0.188 C 
ENDROOT
BRANCH   1   2
ATOM      2  C   UNL A   1      32.757  33.760  27.862  1.00  0.00     0.188 C 
BRANCH   2   3
ATOM      3  O   UNL A   1      31.788  33.309  26.932  1.00  0.00    -0.376 OA
BRANCH   3   4
ATOM      4  C   UNL A   1      31.312  32.005  26.696  1.00  0.00     0.202 C 
BRANCH   4   5
ATOM      5  C   UNL A   1      32.191  30.777  26.516  1.00  0.00     0.261 C 
BRANCH   5   6
ATOM      6  O   UNL A   1      32.220  30.163  25.227  1.00  0.00    -0.461 OA
BRANCH   6   7
ATOM      7  C   UNL A   1      32.649  28.905  24.970  1.00  0.00     0.344 C 
ATOM      8  O   UNL A   1      33.511  28.707  24.113  1.00  0.00    -0.248 OA
BRANCH   7   9
ATOM      9  C   UNL A   1      32.034  27.779  25.746  1.00  0.00     0.351 C 
BRANCH   9  10
ATOM     10  O   UNL A   1      32.379  26.557  25.115  1.00  0.00    -0.481 OA
BRANCH  10  11
ATOM     11  C   UNL A   1      31.692  25.523  25.672  1.00  0.00     0.129 A 
ATOM     12  C   UNL A   1      30.319  25.767  25.802  1.00  0.00     0.047 A 
ATOM     13  C   UNL A   1      32.302  24.363  26.191  1.00  0.00     0.048 A 
ATOM     14  C   UNL A   1      29.506  24.829  26.417  1.00  0.00     0.004 A 
ATOM     15  C   UNL A   1      31.441  23.409  26.763  1.00  0.00     0.013 A 
ATOM     16  C   UNL A   1      30.065  23.643  26.880  1.00  0.00     0.001 A 
BRANCH  13  17
ATOM     17  C   UNL A   1      33.799  24.109  26.282  1.00  0.00     0.302 C 
BRANCH  17  18
ATOM     18  N   UNL A   1      34.423  23.281  25.267  1.00  0.00    -0.331 N 
ATOM     19  C   UNL A   1      33.788  23.122  23.988  1.00  0.00     0.266 C 
ATOM     20  C   UNL A   1      35.272  22.151  25.575  1.00  0.00     0.266 C 
ATOM     21  H   UNL A   1      35.099  24.043  25.213  1.00  0.00     0.348 HD
ATOM     22  C   UNL A   1      33.768  21.625  23.728  1.00  0.00     0.056 C 
ATOM     23  C   UNL A   1      34.863  21.014  24.622  1.00  0.00     0.056 C 
ATOM     24  C   UNL A   1      32.497  20.877  24.202  1.00  0.00    -0.002 C 
ATOM     25  C   UNL A   1      34.122  19.843  25.321  1.00  0.00    -0.002 C 
ATOM     26  C   UNL A   1      32.524  19.489  23.547  1.00  0.00     0.004 C 
ATOM     27  C   UNL A   1      32.780  20.469  25.644  1.00  0.00     0.008 C 
ATOM     28  C   UNL A   1      33.672  18.786  24.299  1.00  0.00     0.004 C 
ENDBRANCH  17  18
ENDBRANCH  13  17
ENDBRANCH  10  11
ENDBRANCH   9  10
ENDBRANCH   7   9
ENDBRANCH   6   7
ENDBRANCH   5   6
ENDBRANCH   4   5
ENDBRANCH   3   4
ENDBRANCH   2   3
ENDBRANCH   1   2
BRANCH   1  29
ATOM     29  O   UNL A   1      34.311  31.996  28.903  1.00  0.00    -0.377 OA
BRANCH  29  30
ATOM     30  C   UNL A   1      35.338  32.142  29.859  1.00  0.00     0.188 C 
BRANCH  30  31
ATOM     31  C   UNL A   1      34.783  32.322  31.279  1.00  0.00     0.188 C 
BRANCH  31  32
ATOM     32  O   UNL A   1      34.713  33.648  31.759  1.00  0.00    -0.376 OA
BRANCH  32  33
ATOM     33  C   UNL A   1      34.635  33.981  33.137  1.00  0.00     0.202 C 
BRANCH  33  34
ATOM     34  C   UNL A   1      35.752  33.886  34.198  1.00  0.00     0.261 C 
BRANCH  34  35
ATOM     35  O   UNL A   1      36.686  32.815  34.126  1.00  0.00    -0.460 OA
BRANCH  35  36
ATOM     36  C   UNL A   1      37.972  33.140  33.950  1.00  0.00     0.338 C 
ATOM     37  O   UNL A   1      38.657  33.881  34.642  1.00  0.00    -0.246 OA
BRANCH  36  38
ATOM     38  C   UNL A   1      38.493  32.259  32.890  1.00  0.00     0.060 A 
ATOM     39  C   UNL A   1      39.257  31.149  33.277  1.00  0.00     0.016 A 
ATOM     40  C   UNL A   1      38.223  32.510  31.540  1.00  0.00     0.016 A 
ATOM     41  C   UNL A   1      39.821  30.329  32.315  1.00  0.00     0.010 A 
ATOM     42  C   UNL A   1      38.835  31.719  30.570  1.00  0.00     0.010 A 
ATOM     43  C   UNL A   1      39.690  30.676  30.966  1.00  0.00    -0.014 A 
BRANCH  43  44
ATOM     44  C   UNL A   1      40.749  30.194  30.057  1.00  0.00     0.031 A 
ATOM     45  C   UNL A   1      41.885  31.140  29.774  1.00  0.00     0.074 A 
ATOM     46  C   UNL A   1      40.764  28.930  29.609  1.00  0.00     0.049 A 
ATOM     47  N   UNL A   1      42.969  30.956  29.066  1.00  0.00    -0.248 NA
ATOM     48  C   UNL A   1      41.788  32.480  30.382  1.00  0.00     0.031 C 
ATOM     49  C   UNL A   1      39.752  27.918  29.895  1.00  0.00     0.029 A 
ATOM     50  N   UNL A   1      41.685  28.285  28.828  1.00  0.00    -0.354 N 
ATOM     51  C   UNL A   1      43.669  32.153  29.140  1.00  0.00     0.074 A 
ATOM     52  C   UNL A   1      42.881  33.068  29.930  1.00  0.00     0.031 C 
ATOM     53  C   UNL A   1      40.107  26.770  29.289  1.00  0.00     0.029 A 
ATOM     54  C   UNL A   1      41.354  26.983  28.556  1.00  0.00     0.049 A 
ATOM     55  H   UNL A   1      42.505  28.714  28.495  1.00  0.00     0.167 HD
ATOM     56  C   UNL A   1      44.872  32.458  28.603  1.00  0.00     0.037 A 
ATOM     57  C   UNL A   1      41.990  26.080  27.787  1.00  0.00     0.037 A 
ATOM     58  C   UNL A   1      45.646  31.537  27.820  1.00  0.00     0.049 A 
ATOM     59  C   UNL A   1      43.291  26.472  27.131  1.00  0.00     0.074 A 
ATOM     60  C   UNL A   1      46.877  31.733  27.224  1.00  0.00     0.029 A 
ATOM     61  N   UNL A   1      45.252  30.241  27.515  1.00  0.00    -0.354 N 
ATOM     62  N   UNL A   1      43.958  27.599  27.210  1.00  0.00    -0.248 NA
ATOM     63  C   UNL A   1      43.933  25.456  26.287  1.00  0.00     0.031 C 
ATOM     64  C   UNL A   1      47.198  30.579  26.503  1.00  0.00     0.029 A 
ATOM     65  C   UNL A   1      46.205  29.634  26.716  1.00  0.00     0.049 A 
ATOM     66  H   UNL A   1      44.418  29.817  27.822  1.00  0.00     0.167 HD
ATOM     67  C   UNL A   1      45.116  27.414  26.466  1.00  0.00     0.074 A 
ATOM     68  C   UNL A   1      45.063  26.060  25.952  1.00  0.00     0.031 C 
ATOM     69  C   UNL A   1      46.135  28.279  26.230  1.00  0.00     0.037 A 
BRANCH  56  70
ATOM     70  C   UNL A   1      45.387  33.854  28.804  1.00  0.00     0.064 A 
ATOM     71  C   UNL A   1      46.303  34.175  29.817  1.00  0.00     0.173 A 
ATOM     72  C   UNL A   1      44.955  34.889  27.961  1.00  0.00     0.173 A 
ATOM     73  F   UNL A   1      46.730  33.227  30.668  1.00  0.00    -0.203 F 
ATOM     74  C   UNL A   1      46.745  35.484  29.997  1.00  0.00     0.198 A 
ATOM     75  C   UNL A   1      45.426  36.188  28.120  1.00  0.00     0.198 A 
ATOM     76  F   UNL A   1      44.074  34.639  26.980  1.00  0.00    -0.203 F 
ATOM     77  F   UNL A   1      47.575  35.777  31.007  1.00  0.00    -0.200 F 
ATOM     78  C   UNL A   1      46.313  36.487  29.142  1.00  0.00     0.200 A 
ATOM     79  F   UNL A   1      45.016  37.154  27.286  1.00  0.00    -0.200 F 
ATOM     80  F   UNL A   1      46.746  37.744  29.310  1.00  0.00    -0.200 F 
ENDBRANCH  56  70
BRANCH  57  81
ATOM     81  C   UNL A   1      41.413  24.725  27.594  1.00  0.00     0.064 A 
ATOM     82  C   UNL A   1      41.990  23.597  28.193  1.00  0.00     0.173 A 
ATOM     83  C   UNL A   1      40.288  24.525  26.780  1.00  0.00     0.173 A 
ATOM     84  F   UNL A   1      43.080  23.732  28.963  1.00  0.00    -0.203 F 
ATOM     85  C   UNL A   1      41.484  22.320  27.963  1.00  0.00     0.198 A 
ATOM     86  C   UNL A   1      39.762  23.252  26.577  1.00  0.00     0.198 A 
ATOM     87  F   UNL A   1      39.696  25.570  26.183  1.00  0.00    -0.203 F 
ATOM     88  F   UNL A   1      42.090  21.254  28.502  1.00  0.00    -0.200 F 
ATOM     89  C   UNL A   1      40.367  22.149  27.159  1.00  0.00     0.200 A 
ATOM     90  F   UNL A   1      38.673  23.093  25.811  1.00  0.00    -0.200 F 
ATOM     91  F   UNL A   1      39.880  20.920  26.937  1.00  0.00    -0.200 F 
ENDBRANCH  57  81
BRANCH  69  92
ATOM     92  C   UNL A   1      47.307  27.765  25.441  1.00  0.00     0.064 A 
ATOM     93  C   UNL A   1      48.428  27.191  26.058  1.00  0.00     0.173 A 
ATOM     94  C   UNL A   1      47.291  27.828  24.038  1.00  0.00     0.173 A 
ATOM     95  F   UNL A   1      48.498  27.112  27.396  1.00  0.00    -0.203 F 
ATOM     96  C   UNL A   1      49.508  26.742  25.302  1.00  0.00     0.198 A 
ATOM     97  C   UNL A   1      48.355  27.341  23.285  1.00  0.00     0.198 A 
ATOM     98  F   UNL A   1      46.237  28.354  23.396  1.00  0.00    -0.203 F 
ATOM     99  F   UNL A   1      50.599  26.263  25.916  1.00  0.00    -0.200 F 
ATOM    100  C   UNL A   1      49.468  26.812  23.918  1.00  0.00     0.200 A 
ATOM    101  F   UNL A   1      48.303  27.390  21.946  1.00  0.00    -0.200 F 
ATOM    102  F   UNL A   1      50.508  26.377  23.193  1.00  0.00    -0.200 F 
ENDBRANCH  69  92
ENDBRANCH  43  44
ENDBRANCH  36  38
ENDBRANCH  35  36
ENDBRANCH  34  35
ENDBRANCH  33  34
ENDBRANCH  32  33
ENDBRANCH  31  32
ENDBRANCH  30  31
ENDBRANCH  29  30
ENDBRANCH   1  29
TORSDOF 24
ENDMDL
