MODEL 1
REMARK VINA RESULT:      -9.6      0.000      0.000
REMARK SMILES O=C(COc1ccc(Br)cc1/C=C1\C(=O)Nc2ccc(Br)cc21)OCCOCCOCCOCCOC(=O)c1ccc(-c2c3nc(c(-c4c(F)c(F)c(F)c(F)c4F)c4ccc([nH]4)c(-c4c(F)c(F)c(F)c(F)c4F)c4nc(c(-c5c(F)c(F)c(F)c(F)c5F)c5ccc2[nH]5)C=C4)C=C3)cc1
REMARK SMILES IDX 29 1 28 2 27 3 26 4 25 5 24 6 2 7 1 8 3 9 4 10 5 11 6 12
REMARK SMILES IDX 11 13 7 14 10 15 8 16 9 17 12 18 13 19 14 20 23 21 15 22
REMARK SMILES IDX 16 23 17 24 22 25 18 27 20 28 19 29 21 30 30 31 31 32 32 33
REMARK SMILES IDX 33 34 34 35 35 36 36 37 37 38 38 39 39 40 40 41 101 42 41 43
REMARK SMILES IDX 100 44 42 45 43 46 44 47 94 48 45 49 99 50 93 51 95 52 46 53
REMARK SMILES IDX 98 54 92 55 91 56 47 58 79 59 59 60 78 61 60 62 63 63 77 64
REMARK SMILES IDX 96 65 61 66 62 67 76 69 97 70 64 71 48 72 49 73 57 74 50 75
REMARK SMILES IDX 51 76 55 77 58 78 52 79 53 80 56 81 54 82 80 83 81 84 89 85
REMARK SMILES IDX 82 86 83 87 87 88 90 89 84 90 85 91 88 92 86 93 65 94 66 95
REMARK SMILES IDX 74 96 67 97 68 98 72 99 75 100 69 101 70 102 73 103 71 104
REMARK H PARENT 16 26 95 57 63 68
REMARK Flexibility Score: inf
ROOT
ATOM      1  C   UNL A   1      35.641  33.832  29.188  1.00  0.00     0.188 C 
ENDROOT
BRANCH   1   2
ATOM      2  C   UNL A   1      35.013  33.346  27.873  1.00  0.00     0.188 C 
BRANCH   2   3
ATOM      3  O   UNL A   1      34.054  32.304  28.009  1.00  0.00    -0.376 OA
BRANCH   3   4
ATOM      4  C   UNL A   1      34.324  30.931  27.814  1.00  0.00     0.202 C 
BRANCH   4   5
ATOM      5  C   UNL A   1      33.316  30.023  27.117  1.00  0.00     0.261 C 
BRANCH   5   6
ATOM      6  O   UNL A   1      33.608  28.612  27.135  1.00  0.00    -0.461 OA
BRANCH   6   7
ATOM      7  C   UNL A   1      33.531  27.767  26.083  1.00  0.00     0.344 C 
ATOM      8  O   UNL A   1      33.763  26.571  26.250  1.00  0.00    -0.248 OA
BRANCH   7   9
ATOM      9  C   UNL A   1      33.186  28.335  24.711  1.00  0.00     0.351 C 
BRANCH   9  10
ATOM     10  O   UNL A   1      33.029  27.378  23.649  1.00  0.00    -0.481 OA
BRANCH  10  11
ATOM     11  C   UNL A   1      31.765  27.570  23.119  1.00  0.00     0.127 A 
ATOM     12  C   UNL A   1      31.480  28.856  22.628  1.00  0.00     0.048 A 
ATOM     13  C   UNL A   1      30.768  26.599  23.320  1.00  0.00     0.018 A 
ATOM     14  C   UNL A   1      30.166  29.288  22.554  1.00  0.00     0.019 A 
ATOM     15  C   UNL A   1      29.462  27.104  23.323  1.00  0.00     0.027 A 
ATOM     16  C   UNL A   1      29.165  28.422  22.957  1.00  0.00     0.018 A 
ATOM     17  Br  UNL A   1      27.378  29.034  23.055  1.00  0.00    -0.051 Br
BRANCH  13  18
ATOM     18  C   UNL A   1      31.130  25.179  23.622  1.00  0.00     0.026 C 
ATOM     19  C   UNL A   1      31.041  24.482  24.773  1.00  0.00     0.050 C 
ATOM     20  C   UNL A   1      30.634  25.005  26.121  1.00  0.00     0.256 C 
ATOM     21  C   UNL A   1      31.778  23.238  25.059  1.00  0.00     0.012 A 
ATOM     22  O   UNL A   1      29.655  25.654  26.426  1.00  0.00    -0.269 OA
ATOM     23  N   UNL A   1      31.571  24.468  26.985  1.00  0.00    -0.321 N 
ATOM     24  C   UNL A   1      32.217  23.394  26.383  1.00  0.00     0.049 A 
ATOM     25  C   UNL A   1      31.987  22.037  24.406  1.00  0.00     0.026 A 
ATOM     26  H   UNL A   1      31.752  24.798  27.895  1.00  0.00     0.170 HD
ATOM     27  C   UNL A   1      33.031  22.488  27.026  1.00  0.00     0.028 A 
ATOM     28  C   UNL A   1      32.723  21.054  25.087  1.00  0.00     0.018 A 
ATOM     29  C   UNL A   1      33.289  21.295  26.356  1.00  0.00     0.018 A 
ATOM     30  Br  UNL A   1      32.894  19.323  24.339  1.00  0.00    -0.051 Br
ENDBRANCH  13  18
ENDBRANCH  10  11
ENDBRANCH   9  10
ENDBRANCH   7   9
ENDBRANCH   6   7
ENDBRANCH   5   6
ENDBRANCH   4   5
ENDBRANCH   3   4
ENDBRANCH   2   3
ENDBRANCH   1   2
BRANCH   1  31
ATOM     31  O   UNL A   1      37.065  33.753  29.243  1.00  0.00    -0.377 OA
BRANCH  31  32
ATOM     32  C   UNL A   1      37.566  32.817  30.194  1.00  0.00     0.188 C 
BRANCH  32  33
ATOM     33  C   UNL A   1      37.294  33.208  31.659  1.00  0.00     0.188 C 
BRANCH  33  34
ATOM     34  O   UNL A   1      37.301  32.099  32.553  1.00  0.00    -0.376 OA
BRANCH  34  35
ATOM     35  C   UNL A   1      36.313  31.102  32.322  1.00  0.00     0.202 C 
BRANCH  35  36
ATOM     36  C   UNL A   1      36.833  29.661  32.213  1.00  0.00     0.261 C 
BRANCH  36  37
ATOM     37  O   UNL A   1      38.235  29.478  32.475  1.00  0.00    -0.460 OA
BRANCH  37  38
ATOM     38  C   UNL A   1      38.957  28.667  31.673  1.00  0.00     0.338 C 
ATOM     39  O   UNL A   1      38.651  27.566  31.251  1.00  0.00    -0.246 OA
BRANCH  38  40
ATOM     40  C   UNL A   1      40.107  29.469  31.201  1.00  0.00     0.060 A 
ATOM     41  C   UNL A   1      40.787  30.311  32.084  1.00  0.00     0.016 A 
ATOM     42  C   UNL A   1      40.432  29.460  29.837  1.00  0.00     0.016 A 
ATOM     43  C   UNL A   1      41.805  31.137  31.607  1.00  0.00     0.010 A 
ATOM     44  C   UNL A   1      41.435  30.304  29.356  1.00  0.00     0.010 A 
ATOM     45  C   UNL A   1      42.140  31.132  30.243  1.00  0.00    -0.014 A 
BRANCH  45  46
ATOM     46  C   UNL A   1      43.369  31.827  29.799  1.00  0.00     0.031 A 
ATOM     47  C   UNL A   1      44.675  31.122  29.617  1.00  0.00     0.074 A 
ATOM     48  C   UNL A   1      43.259  33.140  29.525  1.00  0.00     0.049 A 
ATOM     49  N   UNL A   1      45.799  31.591  29.135  1.00  0.00    -0.248 NA
ATOM     50  C   UNL A   1      44.734  29.714  30.030  1.00  0.00     0.031 C 
ATOM     51  C   UNL A   1      42.026  33.917  29.664  1.00  0.00     0.029 A 
ATOM     52  N   UNL A   1      44.178  34.041  29.059  1.00  0.00    -0.354 N 
ATOM     53  C   UNL A   1      46.692  30.531  29.150  1.00  0.00     0.074 A 
ATOM     54  C   UNL A   1      45.993  29.406  29.741  1.00  0.00     0.031 C 
ATOM     55  C   UNL A   1      42.259  35.175  29.265  1.00  0.00     0.029 A 
ATOM     56  C   UNL A   1      43.656  35.293  28.860  1.00  0.00     0.049 A 
ATOM     57  H   UNL A   1      45.119  33.812  28.884  1.00  0.00     0.167 HD
ATOM     58  C   UNL A   1      47.969  30.504  28.693  1.00  0.00     0.037 A 
ATOM     59  C   UNL A   1      44.233  36.411  28.388  1.00  0.00     0.037 A 
ATOM     60  C   UNL A   1      48.663  31.641  28.138  1.00  0.00     0.049 A 
ATOM     61  C   UNL A   1      45.668  36.369  27.958  1.00  0.00     0.074 A 
ATOM     62  C   UNL A   1      49.955  31.709  27.641  1.00  0.00     0.029 A 
ATOM     63  N   UNL A   1      48.127  32.917  28.018  1.00  0.00    -0.354 N 
ATOM     64  N   UNL A   1      46.493  35.351  27.935  1.00  0.00    -0.248 NA
ATOM     65  C   UNL A   1      46.251  37.631  27.485  1.00  0.00     0.031 C 
ATOM     66  C   UNL A   1      50.215  33.032  27.266  1.00  0.00     0.029 A 
ATOM     67  C   UNL A   1      49.070  33.783  27.482  1.00  0.00     0.049 A 
ATOM     68  H   UNL A   1      47.212  33.171  28.276  1.00  0.00     0.167 HD
ATOM     69  C   UNL A   1      47.687  35.841  27.427  1.00  0.00     0.074 A 
ATOM     70  C   UNL A   1      47.471  37.246  27.141  1.00  0.00     0.031 C 
ATOM     71  C   UNL A   1      48.854  35.184  27.218  1.00  0.00     0.037 A 
BRANCH  58  72
ATOM     72  C   UNL A   1      48.706  29.196  28.762  1.00  0.00     0.064 A 
ATOM     73  C   UNL A   1      49.417  28.822  29.914  1.00  0.00     0.173 A 
ATOM     74  C   UNL A   1      48.643  28.276  27.705  1.00  0.00     0.173 A 
ATOM     75  F   UNL A   1      49.511  29.667  30.952  1.00  0.00    -0.203 F 
ATOM     76  C   UNL A   1      50.052  27.585  29.996  1.00  0.00     0.198 A 
ATOM     77  C   UNL A   1      49.259  27.030  27.800  1.00  0.00     0.198 A 
ATOM     78  F   UNL A   1      47.970  28.578  26.585  1.00  0.00    -0.203 F 
ATOM     79  F   UNL A   1      50.752  27.264  31.093  1.00  0.00    -0.200 F 
ATOM     80  C   UNL A   1      49.966  26.687  28.943  1.00  0.00     0.200 A 
ATOM     81  F   UNL A   1      49.164  26.157  26.787  1.00  0.00    -0.200 F 
ATOM     82  F   UNL A   1      50.569  25.493  29.028  1.00  0.00    -0.200 F 
ENDBRANCH  58  72
BRANCH  59  83
ATOM     83  C   UNL A   1      43.414  37.638  28.244  1.00  0.00     0.064 A 
ATOM     84  C   UNL A   1      42.595  37.821  27.123  1.00  0.00     0.173 A 
ATOM     85  C   UNL A   1      43.380  38.614  29.251  1.00  0.00     0.173 A 
ATOM     86  F   UNL A   1      42.606  36.917  26.133  1.00  0.00    -0.203 F 
ATOM     87  C   UNL A   1      41.770  38.936  27.012  1.00  0.00     0.198 A 
ATOM     88  C   UNL A   1      42.538  39.718  29.149  1.00  0.00     0.198 A 
ATOM     89  F   UNL A   1      44.140  38.475  30.347  1.00  0.00    -0.203 F 
ATOM     90  F   UNL A   1      41.009  39.097  25.922  1.00  0.00    -0.200 F 
ATOM     91  C   UNL A   1      41.736  39.879  28.030  1.00  0.00     0.200 A 
ATOM     92  F   UNL A   1      42.493  40.617  30.141  1.00  0.00    -0.200 F 
ATOM     93  F   UNL A   1      40.926  40.942  27.931  1.00  0.00    -0.200 F 
ENDBRANCH  59  83
BRANCH  71  94
ATOM     94  C   UNL A   1      49.992  35.981  26.649  1.00  0.00     0.064 A 
ATOM     95  C   UNL A   1      50.268  35.980  25.273  1.00  0.00     0.173 A 
ATOM     96  C   UNL A   1      50.797  36.773  27.480  1.00  0.00     0.173 A 
ATOM     97  F   UNL A   1      49.538  35.225  24.439  1.00  0.00    -0.203 F 
ATOM     98  C   UNL A   1      51.325  36.724  24.755  1.00  0.00     0.198 A 
ATOM     99  C   UNL A   1      51.835  37.538  26.954  1.00  0.00     0.198 A 
ATOM    100  F   UNL A   1      50.573  36.812  28.801  1.00  0.00    -0.203 F 
ATOM    101  F   UNL A   1      51.600  36.670  23.444  1.00  0.00    -0.200 F 
ATOM    102  C   UNL A   1      52.103  37.507  25.594  1.00  0.00     0.200 A 
ATOM    103  F   UNL A   1      52.579  38.302  27.765  1.00  0.00    -0.200 F 
ATOM    104  F   UNL A   1      53.117  38.226  25.092  1.00  0.00    -0.200 F 
ENDBRANCH  71  94
ENDBRANCH  45  46
ENDBRANCH  38  40
ENDBRANCH  37  38
ENDBRANCH  36  37
ENDBRANCH  35  36
ENDBRANCH  34  35
ENDBRANCH  33  34
ENDBRANCH  32  33
ENDBRANCH  31  32
ENDBRANCH   1  31
TORSDOF 23
ENDMDL
MODEL 2
REMARK VINA RESULT:      -9.4      5.752     11.169
REMARK SMILES O=C(COc1ccc(Br)cc1/C=C1\C(=O)Nc2ccc(Br)cc21)OCCOCCOCCOCCOC(=O)c1ccc(-c2c3nc(c(-c4c(F)c(F)c(F)c(F)c4F)c4ccc([nH]4)c(-c4c(F)c(F)c(F)c(F)c4F)c4nc(c(-c5c(F)c(F)c(F)c(F)c5F)c5ccc2[nH]5)C=C4)C=C3)cc1
REMARK SMILES IDX 29 1 28 2 27 3 26 4 25 5 24 6 2 7 1 8 3 9 4 10 5 11 6 12
REMARK SMILES IDX 11 13 7 14 10 15 8 16 9 17 12 18 13 19 14 20 23 21 15 22
REMARK SMILES IDX 16 23 17 24 22 25 18 27 20 28 19 29 21 30 30 31 31 32 32 33
REMARK SMILES IDX 33 34 34 35 35 36 36 37 37 38 38 39 39 40 40 41 101 42 41 43
REMARK SMILES IDX 100 44 42 45 43 46 44 47 94 48 45 49 99 50 93 51 95 52 46 53
REMARK SMILES IDX 98 54 92 55 91 56 47 58 79 59 59 60 78 61 60 62 63 63 77 64
REMARK SMILES IDX 96 65 61 66 62 67 76 69 97 70 64 71 48 72 49 73 57 74 50 75
REMARK SMILES IDX 51 76 55 77 58 78 52 79 53 80 56 81 54 82 80 83 81 84 89 85
REMARK SMILES IDX 82 86 83 87 87 88 90 89 84 90 85 91 88 92 86 93 65 94 66 95
REMARK SMILES IDX 74 96 67 97 68 98 72 99 75 100 69 101 70 102 73 103 71 104
REMARK H PARENT 16 26 95 57 63 68
REMARK Flexibility Score: inf
ROOT
ATOM      1  C   UNL A   1      38.562  33.108  39.910  1.00  0.00     0.188 C 
ENDROOT
BRANCH   1   2
ATOM      2  C   UNL A   1      39.710  33.504  38.968  1.00  0.00     0.188 C 
BRANCH   2   3
ATOM      3  O   UNL A   1      39.523  33.148  37.604  1.00  0.00    -0.376 OA
BRANCH   3   4
ATOM      4  C   UNL A   1      38.406  33.516  36.822  1.00  0.00     0.202 C 
BRANCH   4   5
ATOM      5  C   UNL A   1      37.820  32.560  35.788  1.00  0.00     0.261 C 
BRANCH   5   6
ATOM      6  O   UNL A   1      38.762  31.912  34.912  1.00  0.00    -0.461 OA
BRANCH   6   7
ATOM      7  C   UNL A   1      39.073  30.597  34.904  1.00  0.00     0.344 C 
ATOM      8  O   UNL A   1      39.508  30.072  35.927  1.00  0.00    -0.248 OA
BRANCH   7   9
ATOM      9  C   UNL A   1      38.899  29.811  33.609  1.00  0.00     0.351 C 
BRANCH   9  10
ATOM     10  O   UNL A   1      37.555  29.697  33.111  1.00  0.00    -0.481 OA
BRANCH  10  11
ATOM     11  C   UNL A   1      37.629  29.019  31.906  1.00  0.00     0.127 A 
ATOM     12  C   UNL A   1      38.202  27.736  31.943  1.00  0.00     0.048 A 
ATOM     13  C   UNL A   1      37.386  29.704  30.703  1.00  0.00     0.018 A 
ATOM     14  C   UNL A   1      38.770  27.204  30.797  1.00  0.00     0.019 A 
ATOM     15  C   UNL A   1      38.053  29.176  29.591  1.00  0.00     0.027 A 
ATOM     16  C   UNL A   1      38.740  27.957  29.636  1.00  0.00     0.018 A 
ATOM     17  Br  UNL A   1      39.668  27.354  28.103  1.00  0.00    -0.051 Br
BRANCH  13  18
ATOM     18  C   UNL A   1      36.571  30.959  30.686  1.00  0.00     0.026 C 
ATOM     19  C   UNL A   1      36.925  32.234  30.950  1.00  0.00     0.050 C 
ATOM     20  C   UNL A   1      38.256  32.720  31.447  1.00  0.00     0.256 C 
ATOM     21  C   UNL A   1      35.980  33.314  31.287  1.00  0.00     0.012 A 
ATOM     22  O   UNL A   1      39.365  32.490  31.011  1.00  0.00    -0.269 OA
ATOM     23  N   UNL A   1      37.933  33.609  32.455  1.00  0.00    -0.321 N 
ATOM     24  C   UNL A   1      36.604  34.002  32.339  1.00  0.00     0.049 A 
ATOM     25  C   UNL A   1      34.804  33.805  30.750  1.00  0.00     0.026 A 
ATOM     26  H   UNL A   1      38.554  33.920  33.153  1.00  0.00     0.170 HD
ATOM     27  C   UNL A   1      36.015  35.043  33.021  1.00  0.00     0.028 A 
ATOM     28  C   UNL A   1      34.241  34.936  31.363  1.00  0.00     0.018 A 
ATOM     29  C   UNL A   1      34.804  35.514  32.519  1.00  0.00     0.018 A 
ATOM     30  Br  UNL A   1      32.736  35.777  30.577  1.00  0.00    -0.051 Br
ENDBRANCH  13  18
ENDBRANCH  10  11
ENDBRANCH   9  10
ENDBRANCH   7   9
ENDBRANCH   6   7
ENDBRANCH   5   6
ENDBRANCH   4   5
ENDBRANCH   3   4
ENDBRANCH   2   3
ENDBRANCH   1   2
BRANCH   1  31
ATOM     31  O   UNL A   1      38.412  33.940  41.061  1.00  0.00    -0.377 OA
BRANCH  31  32
ATOM     32  C   UNL A   1      39.369  34.991  41.156  1.00  0.00     0.188 C 
BRANCH  32  33
ATOM     33  C   UNL A   1      38.755  36.403  41.097  1.00  0.00     0.188 C 
BRANCH  33  34
ATOM     34  O   UNL A   1      39.408  37.343  41.943  1.00  0.00    -0.376 OA
BRANCH  34  35
ATOM     35  C   UNL A   1      40.719  37.734  41.552  1.00  0.00     0.202 C 
BRANCH  35  36
ATOM     36  C   UNL A   1      40.846  38.322  40.139  1.00  0.00     0.261 C 
BRANCH  36  37
ATOM     37  O   UNL A   1      41.315  37.420  39.123  1.00  0.00    -0.460 OA
BRANCH  37  38
ATOM     38  C   UNL A   1      42.535  37.612  38.581  1.00  0.00     0.338 C 
ATOM     39  O   UNL A   1      43.454  38.280  39.022  1.00  0.00    -0.246 OA
BRANCH  38  40
ATOM     40  C   UNL A   1      42.643  36.661  37.453  1.00  0.00     0.060 A 
ATOM     41  C   UNL A   1      41.492  36.225  36.789  1.00  0.00     0.016 A 
ATOM     42  C   UNL A   1      43.895  36.117  37.134  1.00  0.00     0.016 A 
ATOM     43  C   UNL A   1      41.595  35.253  35.795  1.00  0.00     0.010 A 
ATOM     44  C   UNL A   1      43.993  35.127  36.154  1.00  0.00     0.010 A 
ATOM     45  C   UNL A   1      42.846  34.704  35.465  1.00  0.00    -0.014 A 
BRANCH  45  46
ATOM     46  C   UNL A   1      42.968  33.861  34.256  1.00  0.00     0.031 A 
ATOM     47  C   UNL A   1      43.150  34.433  32.886  1.00  0.00     0.074 A 
ATOM     48  C   UNL A   1      42.945  32.528  34.440  1.00  0.00     0.049 A 
ATOM     49  N   UNL A   1      43.373  33.805  31.760  1.00  0.00    -0.248 NA
ATOM     50  C   UNL A   1      43.066  35.893  32.759  1.00  0.00     0.031 C 
ATOM     51  C   UNL A   1      42.780  31.872  35.738  1.00  0.00     0.029 A 
ATOM     52  N   UNL A   1      43.079  31.495  33.552  1.00  0.00    -0.354 N 
ATOM     53  C   UNL A   1      43.495  34.790  30.791  1.00  0.00     0.074 A 
ATOM     54  C   UNL A   1      43.266  36.058  31.457  1.00  0.00     0.031 C 
ATOM     55  C   UNL A   1      42.849  30.545  35.566  1.00  0.00     0.029 A 
ATOM     56  C   UNL A   1      43.046  30.261  34.148  1.00  0.00     0.049 A 
ATOM     57  H   UNL A   1      43.188  31.626  32.582  1.00  0.00     0.167 HD
ATOM     58  C   UNL A   1      43.791  34.641  29.476  1.00  0.00     0.037 A 
ATOM     59  C   UNL A   1      43.177  29.034  33.615  1.00  0.00     0.037 A 
ATOM     60  C   UNL A   1      43.984  33.369  28.820  1.00  0.00     0.049 A 
ATOM     61  C   UNL A   1      43.430  28.898  32.144  1.00  0.00     0.074 A 
ATOM     62  C   UNL A   1      44.293  33.118  27.493  1.00  0.00     0.029 A 
ATOM     63  N   UNL A   1      43.871  32.131  29.440  1.00  0.00    -0.354 N 
ATOM     64  N   UNL A   1      43.588  29.836  31.244  1.00  0.00    -0.248 NA
ATOM     65  C   UNL A   1      43.529  27.531  31.617  1.00  0.00     0.031 C 
ATOM     66  C   UNL A   1      44.321  31.732  27.300  1.00  0.00     0.029 A 
ATOM     67  C   UNL A   1      44.078  31.115  28.517  1.00  0.00     0.049 A 
ATOM     68  H   UNL A   1      43.672  31.994  30.394  1.00  0.00     0.167 HD
ATOM     69  C   UNL A   1      43.823  29.178  30.046  1.00  0.00     0.074 A 
ATOM     70  C   UNL A   1      43.804  27.758  30.341  1.00  0.00     0.031 C 
ATOM     71  C   UNL A   1      44.037  29.705  28.815  1.00  0.00     0.037 A 
BRANCH  58  72
ATOM     72  C   UNL A   1      43.936  35.887  28.649  1.00  0.00     0.064 A 
ATOM     73  C   UNL A   1      45.190  36.485  28.449  1.00  0.00     0.173 A 
ATOM     74  C   UNL A   1      42.832  36.447  27.988  1.00  0.00     0.173 A 
ATOM     75  F   UNL A   1      46.278  35.992  29.060  1.00  0.00    -0.203 F 
ATOM     76  C   UNL A   1      45.329  37.608  27.636  1.00  0.00     0.198 A 
ATOM     77  C   UNL A   1      42.978  37.554  27.156  1.00  0.00     0.198 A 
ATOM     78  F   UNL A   1      41.611  35.909  28.137  1.00  0.00    -0.203 F 
ATOM     79  F   UNL A   1      46.531  38.181  27.488  1.00  0.00    -0.200 F 
ATOM     80  C   UNL A   1      44.225  38.137  26.984  1.00  0.00     0.200 A 
ATOM     81  F   UNL A   1      41.913  38.056  26.517  1.00  0.00    -0.200 F 
ATOM     82  F   UNL A   1      44.362  39.211  26.194  1.00  0.00    -0.200 F 
ENDBRANCH  58  72
BRANCH  59  83
ATOM     83  C   UNL A   1      43.132  27.853  34.509  1.00  0.00     0.064 A 
ATOM     84  C   UNL A   1      44.243  27.506  35.287  1.00  0.00     0.173 A 
ATOM     85  C   UNL A   1      41.963  27.093  34.656  1.00  0.00     0.173 A 
ATOM     86  F   UNL A   1      45.385  28.199  35.169  1.00  0.00    -0.203 F 
ATOM     87  C   UNL A   1      44.188  26.440  36.181  1.00  0.00     0.198 A 
ATOM     88  C   UNL A   1      41.901  26.041  35.566  1.00  0.00     0.198 A 
ATOM     89  F   UNL A   1      40.871  27.396  33.939  1.00  0.00    -0.203 F 
ATOM     90  F   UNL A   1      45.270  26.117  36.901  1.00  0.00    -0.200 F 
ATOM     91  C   UNL A   1      43.014  25.715  36.326  1.00  0.00     0.200 A 
ATOM     92  F   UNL A   1      40.761  25.355  35.718  1.00  0.00    -0.200 F 
ATOM     93  F   UNL A   1      42.955  24.702  37.202  1.00  0.00    -0.200 F 
ENDBRANCH  59  83
BRANCH  71  94
ATOM     94  C   UNL A   1      44.268  28.737  27.691  1.00  0.00     0.064 A 
ATOM     95  C   UNL A   1      45.485  28.052  27.556  1.00  0.00     0.173 A 
ATOM     96  C   UNL A   1      43.258  28.472  26.756  1.00  0.00     0.173 A 
ATOM     97  F   UNL A   1      46.490  28.284  28.414  1.00  0.00    -0.203 F 
ATOM     98  C   UNL A   1      45.689  27.154  26.510  1.00  0.00     0.198 A 
ATOM     99  C   UNL A   1      43.455  27.553  25.728  1.00  0.00     0.198 A 
ATOM    100  F   UNL A   1      42.075  29.097  26.842  1.00  0.00    -0.203 F 
ATOM    101  F   UNL A   1      46.877  26.548  26.373  1.00  0.00    -0.200 F 
ATOM    102  C   UNL A   1      44.673  26.901  25.602  1.00  0.00     0.200 A 
ATOM    103  F   UNL A   1      42.469  27.301  24.857  1.00  0.00    -0.200 F 
ATOM    104  F   UNL A   1      44.870  26.034  24.599  1.00  0.00    -0.200 F 
ENDBRANCH  71  94
ENDBRANCH  45  46
ENDBRANCH  38  40
ENDBRANCH  37  38
ENDBRANCH  36  37
ENDBRANCH  35  36
ENDBRANCH  34  35
ENDBRANCH  33  34
ENDBRANCH  32  33
ENDBRANCH  31  32
ENDBRANCH   1  31
TORSDOF 23
ENDMDL
MODEL 3
REMARK VINA RESULT:      -9.3      7.349      9.903
REMARK SMILES O=C(COc1ccc(Br)cc1/C=C1\C(=O)Nc2ccc(Br)cc21)OCCOCCOCCOCCOC(=O)c1ccc(-c2c3nc(c(-c4c(F)c(F)c(F)c(F)c4F)c4ccc([nH]4)c(-c4c(F)c(F)c(F)c(F)c4F)c4nc(c(-c5c(F)c(F)c(F)c(F)c5F)c5ccc2[nH]5)C=C4)C=C3)cc1
REMARK SMILES IDX 29 1 28 2 27 3 26 4 25 5 24 6 2 7 1 8 3 9 4 10 5 11 6 12
REMARK SMILES IDX 11 13 7 14 10 15 8 16 9 17 12 18 13 19 14 20 23 21 15 22
REMARK SMILES IDX 16 23 17 24 22 25 18 27 20 28 19 29 21 30 30 31 31 32 32 33
REMARK SMILES IDX 33 34 34 35 35 36 36 37 37 38 38 39 39 40 40 41 101 42 41 43
REMARK SMILES IDX 100 44 42 45 43 46 44 47 94 48 45 49 99 50 93 51 95 52 46 53
REMARK SMILES IDX 98 54 92 55 91 56 47 58 79 59 59 60 78 61 60 62 63 63 77 64
REMARK SMILES IDX 96 65 61 66 62 67 76 69 97 70 64 71 48 72 49 73 57 74 50 75
REMARK SMILES IDX 51 76 55 77 58 78 52 79 53 80 56 81 54 82 80 83 81 84 89 85
REMARK SMILES IDX 82 86 83 87 87 88 90 89 84 90 85 91 88 92 86 93 65 94 66 95
REMARK SMILES IDX 74 96 67 97 68 98 72 99 75 100 69 101 70 102 73 103 71 104
REMARK H PARENT 16 26 95 57 63 68
REMARK Flexibility Score: inf
ROOT
ATOM      1  C   UNL A   1      38.517  27.836  30.579  1.00  0.00     0.188 C 
ENDROOT
BRANCH   1   2
ATOM      2  C   UNL A   1      39.803  27.684  29.751  1.00  0.00     0.188 C 
BRANCH   2   3
ATOM      3  O   UNL A   1      39.705  26.801  28.640  1.00  0.00    -0.376 OA
BRANCH   3   4
ATOM      4  C   UNL A   1      40.442  25.603  28.496  1.00  0.00     0.202 C 
BRANCH   4   5
ATOM      5  C   UNL A   1      40.890  25.117  27.122  1.00  0.00     0.261 C 
BRANCH   5   6
ATOM      6  O   UNL A   1      39.860  24.587  26.265  1.00  0.00    -0.461 OA
BRANCH   6   7
ATOM      7  C   UNL A   1      39.111  23.487  26.501  1.00  0.00     0.344 C 
ATOM      8  O   UNL A   1      39.648  22.472  26.940  1.00  0.00    -0.248 OA
BRANCH   7   9
ATOM      9  C   UNL A   1      37.620  23.536  26.187  1.00  0.00     0.351 C 
BRANCH   9  10
ATOM     10  O   UNL A   1      37.220  22.982  24.921  1.00  0.00    -0.481 OA
BRANCH  10  11
ATOM     11  C   UNL A   1      36.249  22.032  25.189  1.00  0.00     0.127 A 
ATOM     12  C   UNL A   1      36.666  20.690  25.181  1.00  0.00     0.048 A 
ATOM     13  C   UNL A   1      34.892  22.403  25.196  1.00  0.00     0.018 A 
ATOM     14  C   UNL A   1      35.744  19.685  24.936  1.00  0.00     0.019 A 
ATOM     15  C   UNL A   1      34.009  21.371  24.857  1.00  0.00     0.027 A 
ATOM     16  C   UNL A   1      34.424  20.041  24.719  1.00  0.00     0.018 A 
ATOM     17  Br  UNL A   1      33.172  18.725  24.193  1.00  0.00    -0.051 Br
BRANCH  13  18
ATOM     18  C   UNL A   1      34.486  23.823  25.436  1.00  0.00     0.026 C 
ATOM     19  C   UNL A   1      33.526  24.334  26.234  1.00  0.00     0.050 C 
ATOM     20  C   UNL A   1      32.515  23.569  27.039  1.00  0.00     0.256 C 
ATOM     21  C   UNL A   1      32.954  25.686  26.098  1.00  0.00     0.012 A 
ATOM     22  O   UNL A   1      32.691  22.654  27.817  1.00  0.00    -0.269 OA
ATOM     23  N   UNL A   1      31.325  24.229  26.795  1.00  0.00    -0.321 N 
ATOM     24  C   UNL A   1      31.576  25.498  26.285  1.00  0.00     0.049 A 
ATOM     25  C   UNL A   1      33.459  26.967  25.970  1.00  0.00     0.026 A 
ATOM     26  H   UNL A   1      30.429  23.855  26.961  1.00  0.00     0.170 HD
ATOM     27  C   UNL A   1      30.647  26.505  26.150  1.00  0.00     0.028 A 
ATOM     28  C   UNL A   1      32.534  28.022  25.940  1.00  0.00     0.018 A 
ATOM     29  C   UNL A   1      31.143  27.793  25.970  1.00  0.00     0.018 A 
ATOM     30  Br  UNL A   1      33.152  29.813  25.953  1.00  0.00    -0.051 Br
ENDBRANCH  13  18
ENDBRANCH  10  11
ENDBRANCH   9  10
ENDBRANCH   7   9
ENDBRANCH   6   7
ENDBRANCH   5   6
ENDBRANCH   4   5
ENDBRANCH   3   4
ENDBRANCH   2   3
ENDBRANCH   1   2
BRANCH   1  31
ATOM     31  O   UNL A   1      38.041  29.176  30.714  1.00  0.00    -0.377 OA
BRANCH  31  32
ATOM     32  C   UNL A   1      36.672  29.351  30.360  1.00  0.00     0.188 C 
BRANCH  32  33
ATOM     33  C   UNL A   1      36.452  29.738  28.884  1.00  0.00     0.188 C 
BRANCH  33  34
ATOM     34  O   UNL A   1      35.511  30.791  28.708  1.00  0.00    -0.376 OA
BRANCH  34  35
ATOM     35  C   UNL A   1      35.987  31.952  28.036  1.00  0.00     0.202 C 
BRANCH  35  36
ATOM     36  C   UNL A   1      35.669  33.292  28.713  1.00  0.00     0.261 C 
BRANCH  36  37
ATOM     37  O   UNL A   1      36.271  33.504  30.001  1.00  0.00    -0.460 OA
BRANCH  37  38
ATOM     38  C   UNL A   1      35.665  33.015  31.103  1.00  0.00     0.338 C 
ATOM     39  O   UNL A   1      34.478  32.793  31.268  1.00  0.00    -0.246 OA
BRANCH  38  40
ATOM     40  C   UNL A   1      36.746  32.569  32.008  1.00  0.00     0.060 A 
ATOM     41  C   UNL A   1      38.080  32.858  31.705  1.00  0.00     0.016 A 
ATOM     42  C   UNL A   1      36.427  31.759  33.107  1.00  0.00     0.016 A 
ATOM     43  C   UNL A   1      39.098  32.347  32.510  1.00  0.00     0.010 A 
ATOM     44  C   UNL A   1      37.449  31.229  33.899  1.00  0.00     0.010 A 
ATOM     45  C   UNL A   1      38.788  31.537  33.616  1.00  0.00    -0.014 A 
BRANCH  45  46
ATOM     46  C   UNL A   1      39.852  31.207  34.589  1.00  0.00     0.031 A 
ATOM     47  C   UNL A   1      40.700  29.981  34.475  1.00  0.00     0.074 A 
ATOM     48  C   UNL A   1      40.059  32.087  35.586  1.00  0.00     0.049 A 
ATOM     49  N   UNL A   1      41.732  29.628  35.199  1.00  0.00    -0.248 NA
ATOM     50  C   UNL A   1      40.347  29.024  33.418  1.00  0.00     0.031 C 
ATOM     51  C   UNL A   1      39.289  33.317  35.780  1.00  0.00     0.029 A 
ATOM     52  N   UNL A   1      40.977  32.097  36.600  1.00  0.00    -0.354 N 
ATOM     53  C   UNL A   1      42.180  28.428  34.667  1.00  0.00     0.074 A 
ATOM     54  C   UNL A   1      41.270  28.085  33.590  1.00  0.00     0.031 C 
ATOM     55  C   UNL A   1      39.786  33.978  36.835  1.00  0.00     0.029 A 
ATOM     56  C   UNL A   1      40.894  33.211  37.395  1.00  0.00     0.049 A 
ATOM     57  H   UNL A   1      41.634  31.377  36.744  1.00  0.00     0.167 HD
ATOM     58  C   UNL A   1      43.261  27.697  35.038  1.00  0.00     0.037 A 
ATOM     59  C   UNL A   1      41.637  33.584  38.452  1.00  0.00     0.037 A 
ATOM     60  C   UNL A   1      44.138  28.033  36.134  1.00  0.00     0.049 A 
ATOM     61  C   UNL A   1      42.781  32.718  38.884  1.00  0.00     0.074 A 
ATOM     62  C   UNL A   1      45.263  27.359  36.580  1.00  0.00     0.029 A 
ATOM     63  N   UNL A   1      43.981  29.133  36.968  1.00  0.00    -0.354 N 
ATOM     64  N   UNL A   1      43.224  31.608  38.348  1.00  0.00    -0.248 NA
ATOM     65  C   UNL A   1      43.532  33.162  40.065  1.00  0.00     0.031 C 
ATOM     66  C   UNL A   1      45.757  28.022  37.709  1.00  0.00     0.029 A 
ATOM     67  C   UNL A   1      44.971  29.140  37.940  1.00  0.00     0.049 A 
ATOM     68  H   UNL A   1      43.270  29.809  36.882  1.00  0.00     0.167 HD
ATOM     69  C   UNL A   1      44.317  31.226  39.112  1.00  0.00     0.074 A 
ATOM     70  C   UNL A   1      44.478  32.236  40.139  1.00  0.00     0.031 C 
ATOM     71  C   UNL A   1      45.112  30.138  38.971  1.00  0.00     0.037 A 
BRANCH  58  72
ATOM     72  C   UNL A   1      43.570  26.459  34.245  1.00  0.00     0.064 A 
ATOM     73  C   UNL A   1      44.336  26.519  33.070  1.00  0.00     0.173 A 
ATOM     74  C   UNL A   1      43.165  25.194  34.697  1.00  0.00     0.173 A 
ATOM     75  F   UNL A   1      44.746  27.704  32.592  1.00  0.00    -0.203 F 
ATOM     76  C   UNL A   1      44.668  25.362  32.368  1.00  0.00     0.198 A 
ATOM     77  C   UNL A   1      43.520  24.037  34.006  1.00  0.00     0.198 A 
ATOM     78  F   UNL A   1      42.439  25.077  35.819  1.00  0.00    -0.203 F 
ATOM     79  F   UNL A   1      45.372  25.449  31.231  1.00  0.00    -0.200 F 
ATOM     80  C   UNL A   1      44.266  24.122  32.841  1.00  0.00     0.200 A 
ATOM     81  F   UNL A   1      43.142  22.837  34.471  1.00  0.00    -0.200 F 
ATOM     82  F   UNL A   1      44.595  23.009  32.170  1.00  0.00    -0.200 F 
ENDBRANCH  58  72
BRANCH  59  83
ATOM     83  C   UNL A   1      41.343  34.874  39.118  1.00  0.00     0.064 A 
ATOM     84  C   UNL A   1      42.024  36.040  38.747  1.00  0.00     0.173 A 
ATOM     85  C   UNL A   1      40.333  34.983  40.086  1.00  0.00     0.173 A 
ATOM     86  F   UNL A   1      43.005  35.979  37.834  1.00  0.00    -0.203 F 
ATOM     87  C   UNL A   1      41.707  37.269  39.318  1.00  0.00     0.198 A 
ATOM     88  C   UNL A   1      40.001  36.216  40.640  1.00  0.00     0.198 A 
ATOM     89  F   UNL A   1      39.647  33.894  40.464  1.00  0.00    -0.203 F 
ATOM     90  F   UNL A   1      42.385  38.366  38.958  1.00  0.00    -0.200 F 
ATOM     91  C   UNL A   1      40.690  37.357  40.257  1.00  0.00     0.200 A 
ATOM     92  F   UNL A   1      39.006  36.301  41.532  1.00  0.00    -0.200 F 
ATOM     93  F   UNL A   1      40.371  38.544  40.792  1.00  0.00    -0.200 F 
ENDBRANCH  59  83
BRANCH  71  94
ATOM     94  C   UNL A   1      46.235  29.984  39.956  1.00  0.00     0.064 A 
ATOM     95  C   UNL A   1      47.475  30.607  39.754  1.00  0.00     0.173 A 
ATOM     96  C   UNL A   1      46.062  29.229  41.125  1.00  0.00     0.173 A 
ATOM     97  F   UNL A   1      47.697  31.325  38.642  1.00  0.00    -0.203 F 
ATOM     98  C   UNL A   1      48.510  30.459  40.675  1.00  0.00     0.198 A 
ATOM     99  C   UNL A   1      47.090  29.106  42.058  1.00  0.00     0.198 A 
ATOM    100  F   UNL A   1      44.895  28.615  41.369  1.00  0.00    -0.203 F 
ATOM    101  F   UNL A   1      49.703  31.023  40.436  1.00  0.00    -0.200 F 
ATOM    102  C   UNL A   1      48.314  29.714  41.828  1.00  0.00     0.200 A 
ATOM    103  F   UNL A   1      46.896  28.395  43.177  1.00  0.00    -0.200 F 
ATOM    104  F   UNL A   1      49.310  29.576  42.715  1.00  0.00    -0.200 F 
ENDBRANCH  71  94
ENDBRANCH  45  46
ENDBRANCH  38  40
ENDBRANCH  37  38
ENDBRANCH  36  37
ENDBRANCH  35  36
ENDBRANCH  34  35
ENDBRANCH  33  34
ENDBRANCH  32  33
ENDBRANCH  31  32
ENDBRANCH   1  31
TORSDOF 23
ENDMDL
