MODEL 1
REMARK VINA RESULT:     -10.2      0.000      0.000
REMARK SMILES CC(C)CCc1cc2c(cc1Cl)C=C(C(=O)OCCOCCOCCOCCOC(=O)c1ccc(-c3c4nc(c(-c5c(F)c(F)c(F)c(F)c5F)c5ccc([nH]5)c(-c5c(F)c(F)c(F)c(F)c5F)c5nc(c(-c6c(F)c(F)c(F)c(F)c6F)c6ccc3[nH]6)C=C5)C=C4)cc1)[C@@H](C(F)(F)F)O2
REMARK SMILES IDX 22 1 21 2 20 3 19 4 18 5 17 6 15 7 16 8 14 9 6 10 7 11 11 12
REMARK SMILES IDX 8 13 10 14 12 15 9 16 100 17 13 18 95 19 5 20 4 21 2 22 1 23
REMARK SMILES IDX 3 24 96 25 97 26 98 27 99 28 23 29 24 30 25 31 26 32 27 33
REMARK SMILES IDX 28 34 29 35 30 36 31 37 32 38 33 39 94 40 34 41 93 42 35 43
REMARK SMILES IDX 36 44 37 45 87 46 38 47 92 48 86 49 88 50 39 51 91 52 85 53
REMARK SMILES IDX 84 54 40 56 72 57 52 58 71 59 53 60 56 61 70 62 89 63 54 64
REMARK SMILES IDX 55 65 69 67 90 68 57 69 41 70 42 71 50 72 43 73 44 74 48 75
REMARK SMILES IDX 51 76 45 77 46 78 49 79 47 80 73 81 74 82 82 83 75 84 76 85
REMARK SMILES IDX 80 86 83 87 77 88 78 89 81 90 79 91 58 92 59 93 67 94 60 95
REMARK SMILES IDX 61 96 65 97 68 98 62 99 63 100 66 101 64 102
REMARK H PARENT 88 55 56 66
REMARK Flexibility Score: inf
ROOT
ATOM      1  C   UNL A   1      31.784  21.299  22.572  1.00  0.00     0.188 C 
ENDROOT
BRANCH   1   2
ATOM      2  C   UNL A   1      32.446  19.920  22.740  1.00  0.00     0.188 C 
BRANCH   2   3
ATOM      3  O   UNL A   1      32.217  19.334  24.022  1.00  0.00    -0.376 OA
BRANCH   3   4
ATOM      4  C   UNL A   1      33.303  19.370  24.943  1.00  0.00     0.202 C 
BRANCH   4   5
ATOM      5  C   UNL A   1      33.148  20.350  26.116  1.00  0.00     0.261 C 
BRANCH   5   6
ATOM      6  O   UNL A   1      33.654  21.669  25.861  1.00  0.00    -0.460 OA
BRANCH   6   7
ATOM      7  C   UNL A   1      33.406  22.605  26.798  1.00  0.00     0.338 C 
ATOM      8  O   UNL A   1      33.826  22.621  27.941  1.00  0.00    -0.246 OA
BRANCH   7   9
ATOM      9  C   UNL A   1      32.664  23.713  26.162  1.00  0.00     0.087 C 
ATOM     10  C   UNL A   1      31.116  28.243  24.601  1.00  0.00    -0.026 A 
ATOM     11  C   UNL A   1      30.558  26.946  24.598  1.00  0.00     0.052 A 
ATOM     12  C   UNL A   1      32.456  28.375  25.000  1.00  0.00     0.045 A 
ATOM     13  C   UNL A   1      31.288  25.834  25.032  1.00  0.00     0.128 A 
ATOM     14  C   UNL A   1      33.196  27.254  25.401  1.00  0.00     0.032 A 
ATOM     15  Cl  UNL A   1      33.266  29.893  25.121  1.00  0.00    -0.084 Cl
ATOM     16  C   UNL A   1      32.601  25.994  25.460  1.00  0.00     0.019 A 
ATOM     17  O   UNL A   1      30.629  24.638  25.036  1.00  0.00    -0.475 OA
ATOM     18  C   UNL A   1      33.317  24.876  26.046  1.00  0.00     0.027 C 
ATOM     19  C   UNL A   1      31.270  23.478  25.642  1.00  0.00     0.316 C 
BRANCH  10  20
ATOM     20  C   UNL A   1      30.189  29.407  24.305  1.00  0.00     0.037 C 
BRANCH  20  21
ATOM     21  C   UNL A   1      29.877  29.760  22.843  1.00  0.00     0.008 C 
BRANCH  21  22
ATOM     22  C   UNL A   1      28.431  30.203  22.565  1.00  0.00    -0.017 C 
ATOM     23  C   UNL A   1      28.016  31.361  23.473  1.00  0.00     0.007 C 
ATOM     24  C   UNL A   1      28.294  30.615  21.096  1.00  0.00     0.007 C 
ENDBRANCH  21  22
ENDBRANCH  20  21
ENDBRANCH  10  20
BRANCH  19  25
ATOM     25  C   UNL A   1      30.336  22.919  26.726  1.00  0.00     0.430 C 
ATOM     26  F   UNL A   1      29.721  21.786  26.311  1.00  0.00    -0.167 F 
ATOM     27  F   UNL A   1      31.006  22.601  27.860  1.00  0.00    -0.167 F 
ATOM     28  F   UNL A   1      29.372  23.805  27.066  1.00  0.00    -0.167 F 
ENDBRANCH  19  25
ENDBRANCH   7   9
ENDBRANCH   6   7
ENDBRANCH   5   6
ENDBRANCH   4   5
ENDBRANCH   3   4
ENDBRANCH   2   3
ENDBRANCH   1   2
BRANCH   1  29
ATOM     29  O   UNL A   1      32.599  22.231  21.881  1.00  0.00    -0.377 OA
BRANCH  29  30
ATOM     30  C   UNL A   1      33.322  23.187  22.656  1.00  0.00     0.188 C 
BRANCH  30  31
ATOM     31  C   UNL A   1      34.858  23.336  22.557  1.00  0.00     0.188 C 
BRANCH  31  32
ATOM     32  O   UNL A   1      35.536  23.178  23.800  1.00  0.00    -0.376 OA
BRANCH  32  33
ATOM     33  C   UNL A   1      36.839  22.614  23.745  1.00  0.00     0.202 C 
BRANCH  33  34
ATOM     34  C   UNL A   1      37.057  21.491  24.765  1.00  0.00     0.261 C 
BRANCH  34  35
ATOM     35  O   UNL A   1      37.664  21.904  25.999  1.00  0.00    -0.460 OA
BRANCH  35  36
ATOM     36  C   UNL A   1      38.987  21.675  26.161  1.00  0.00     0.338 C 
ATOM     37  O   UNL A   1      39.619  20.697  25.805  1.00  0.00    -0.246 OA
BRANCH  36  38
ATOM     38  C   UNL A   1      39.581  22.925  26.676  1.00  0.00     0.060 A 
ATOM     39  C   UNL A   1      40.528  22.882  27.702  1.00  0.00     0.016 A 
ATOM     40  C   UNL A   1      39.141  24.153  26.164  1.00  0.00     0.016 A 
ATOM     41  C   UNL A   1      41.056  24.071  28.202  1.00  0.00     0.010 A 
ATOM     42  C   UNL A   1      39.664  25.344  26.672  1.00  0.00     0.010 A 
ATOM     43  C   UNL A   1      40.640  25.308  27.680  1.00  0.00    -0.014 A 
BRANCH  43  44
ATOM     44  C   UNL A   1      41.371  26.537  28.064  1.00  0.00     0.031 A 
ATOM     45  C   UNL A   1      42.806  26.757  27.702  1.00  0.00     0.074 A 
ATOM     46  C   UNL A   1      40.689  27.477  28.743  1.00  0.00     0.049 A 
ATOM     47  N   UNL A   1      43.542  27.825  27.887  1.00  0.00    -0.248 NA
ATOM     48  C   UNL A   1      43.509  25.644  27.052  1.00  0.00     0.031 C 
ATOM     49  C   UNL A   1      39.291  27.355  29.158  1.00  0.00     0.029 A 
ATOM     50  N   UNL A   1      41.067  28.715  29.191  1.00  0.00    -0.354 N 
ATOM     51  C   UNL A   1      44.788  27.526  27.355  1.00  0.00     0.074 A 
ATOM     52  C   UNL A   1      44.722  26.158  26.880  1.00  0.00     0.031 C 
ATOM     53  C   UNL A   1      38.921  28.482  29.783  1.00  0.00     0.029 A 
ATOM     54  C   UNL A   1      40.059  29.396  29.827  1.00  0.00     0.049 A 
ATOM     55  H   UNL A   1      41.973  29.081  29.070  1.00  0.00     0.167 HD
ATOM     56  C   UNL A   1      45.874  28.331  27.261  1.00  0.00     0.037 A 
ATOM     57  C   UNL A   1      40.048  30.624  30.377  1.00  0.00     0.037 A 
ATOM     58  C   UNL A   1      45.933  29.686  27.757  1.00  0.00     0.049 A 
ATOM     59  C   UNL A   1      41.283  31.473  30.301  1.00  0.00     0.074 A 
ATOM     60  C   UNL A   1      46.980  30.589  27.675  1.00  0.00     0.029 A 
ATOM     61  N   UNL A   1      44.909  30.329  28.438  1.00  0.00    -0.354 N 
ATOM     62  N   UNL A   1      42.433  31.207  29.733  1.00  0.00    -0.248 NA
ATOM     63  C   UNL A   1      41.214  32.797  30.933  1.00  0.00     0.031 C 
ATOM     64  C   UNL A   1      46.610  31.756  28.350  1.00  0.00     0.029 A 
ATOM     65  C   UNL A   1      45.311  31.604  28.808  1.00  0.00     0.049 A 
ATOM     66  H   UNL A   1      44.026  29.937  28.631  1.00  0.00     0.167 HD
ATOM     67  C   UNL A   1      43.219  32.334  29.921  1.00  0.00     0.074 A 
ATOM     68  C   UNL A   1      42.408  33.295  30.640  1.00  0.00     0.031 C 
ATOM     69  C   UNL A   1      44.500  32.550  29.531  1.00  0.00     0.037 A 
BRANCH  56  70
ATOM     70  C   UNL A   1      47.098  27.786  26.585  1.00  0.00     0.064 A 
ATOM     71  C   UNL A   1      48.064  27.064  27.302  1.00  0.00     0.173 A 
ATOM     72  C   UNL A   1      47.257  27.892  25.195  1.00  0.00     0.173 A 
ATOM     73  F   UNL A   1      47.959  26.934  28.634  1.00  0.00    -0.203 F 
ATOM     74  C   UNL A   1      49.148  26.477  26.654  1.00  0.00     0.198 A 
ATOM     75  C   UNL A   1      48.329  27.284  24.547  1.00  0.00     0.198 A 
ATOM     76  F   UNL A   1      46.355  28.561  24.462  1.00  0.00    -0.203 F 
ATOM     77  F   UNL A   1      50.068  25.808  27.362  1.00  0.00    -0.200 F 
ATOM     78  C   UNL A   1      49.274  26.579  25.276  1.00  0.00     0.200 A 
ATOM     79  F   UNL A   1      48.440  27.368  23.214  1.00  0.00    -0.200 F 
ATOM     80  F   UNL A   1      50.305  25.994  24.652  1.00  0.00    -0.200 F 
ENDBRANCH  56  70
BRANCH  57  81
ATOM     81  C   UNL A   1      38.802  31.126  31.006  1.00  0.00     0.064 A 
ATOM     82  C   UNL A   1      37.785  31.694  30.228  1.00  0.00     0.173 A 
ATOM     83  C   UNL A   1      38.586  31.011  32.386  1.00  0.00     0.173 A 
ATOM     84  F   UNL A   1      37.955  31.837  28.905  1.00  0.00    -0.203 F 
ATOM     85  C   UNL A   1      36.599  32.135  30.808  1.00  0.00     0.198 A 
ATOM     86  C   UNL A   1      37.389  31.428  32.963  1.00  0.00     0.198 A 
ATOM     87  F   UNL A   1      39.528  30.467  33.171  1.00  0.00    -0.203 F 
ATOM     88  F   UNL A   1      35.652  32.700  30.047  1.00  0.00    -0.200 F 
ATOM     89  C   UNL A   1      36.398  31.994  32.174  1.00  0.00     0.200 A 
ATOM     90  F   UNL A   1      37.192  31.275  34.279  1.00  0.00    -0.200 F 
ATOM     91  F   UNL A   1      35.250  32.405  32.730  1.00  0.00    -0.200 F 
ENDBRANCH  57  81
BRANCH  69  92
ATOM     92  C   UNL A   1      45.106  33.882  29.868  1.00  0.00     0.064 A 
ATOM     93  C   UNL A   1      45.765  34.099  31.086  1.00  0.00     0.173 A 
ATOM     94  C   UNL A   1      45.067  34.938  28.944  1.00  0.00     0.173 A 
ATOM     95  F   UNL A   1      45.815  33.127  32.010  1.00  0.00    -0.203 F 
ATOM     96  C   UNL A   1      46.347  35.332  31.376  1.00  0.00     0.198 A 
ATOM     97  C   UNL A   1      45.673  36.158  29.226  1.00  0.00     0.198 A 
ATOM     98  F   UNL A   1      44.452  34.781  27.762  1.00  0.00    -0.203 F 
ATOM     99  F   UNL A   1      46.935  35.530  32.564  1.00  0.00    -0.200 F 
ATOM    100  C   UNL A   1      46.308  36.357  30.443  1.00  0.00     0.200 A 
ATOM    101  F   UNL A   1      45.647  37.144  28.318  1.00  0.00    -0.200 F 
ATOM    102  F   UNL A   1      46.877  37.538  30.720  1.00  0.00    -0.200 F 
ENDBRANCH  69  92
ENDBRANCH  43  44
ENDBRANCH  36  38
ENDBRANCH  35  36
ENDBRANCH  34  35
ENDBRANCH  33  34
ENDBRANCH  32  33
ENDBRANCH  31  32
ENDBRANCH  30  31
ENDBRANCH  29  30
ENDBRANCH   1  29
TORSDOF 24
ENDMDL
MODEL 2
REMARK VINA RESULT:      -9.8      0.504      7.000
REMARK SMILES CC(C)CCc1cc2c(cc1Cl)C=C(C(=O)OCCOCCOCCOCCOC(=O)c1ccc(-c3c4nc(c(-c5c(F)c(F)c(F)c(F)c5F)c5ccc([nH]5)c(-c5c(F)c(F)c(F)c(F)c5F)c5nc(c(-c6c(F)c(F)c(F)c(F)c6F)c6ccc3[nH]6)C=C5)C=C4)cc1)[C@@H](C(F)(F)F)O2
REMARK SMILES IDX 22 1 21 2 20 3 19 4 18 5 17 6 15 7 16 8 14 9 6 10 7 11 11 12
REMARK SMILES IDX 8 13 10 14 12 15 9 16 100 17 13 18 95 19 5 20 4 21 2 22 1 23
REMARK SMILES IDX 3 24 96 25 97 26 98 27 99 28 23 29 24 30 25 31 26 32 27 33
REMARK SMILES IDX 28 34 29 35 30 36 31 37 32 38 33 39 94 40 34 41 93 42 35 43
REMARK SMILES IDX 36 44 37 45 87 46 38 47 92 48 86 49 88 50 39 51 91 52 85 53
REMARK SMILES IDX 84 54 40 56 72 57 52 58 71 59 53 60 56 61 70 62 89 63 54 64
REMARK SMILES IDX 55 65 69 67 90 68 57 69 41 70 42 71 50 72 43 73 44 74 48 75
REMARK SMILES IDX 51 76 45 77 46 78 49 79 47 80 73 81 74 82 82 83 75 84 76 85
REMARK SMILES IDX 80 86 83 87 77 88 78 89 81 90 79 91 58 92 59 93 67 94 60 95
REMARK SMILES IDX 61 96 65 97 68 98 62 99 63 100 66 101 64 102
REMARK H PARENT 88 55 56 66
REMARK Flexibility Score: inf
ROOT
ATOM      1  C   UNL A   1      31.836  20.886  22.742  1.00  0.00     0.188 C 
ENDROOT
BRANCH   1   2
ATOM      2  C   UNL A   1      32.507  19.519  22.973  1.00  0.00     0.188 C 
BRANCH   2   3
ATOM      3  O   UNL A   1      32.204  18.948  24.246  1.00  0.00    -0.376 OA
BRANCH   3   4
ATOM      4  C   UNL A   1      33.204  19.068  25.252  1.00  0.00     0.202 C 
BRANCH   4   5
ATOM      5  C   UNL A   1      32.934  20.124  26.336  1.00  0.00     0.261 C 
BRANCH   5   6
ATOM      6  O   UNL A   1      33.468  21.425  26.046  1.00  0.00    -0.460 OA
BRANCH   6   7
ATOM      7  C   UNL A   1      33.289  22.376  26.983  1.00  0.00     0.338 C 
ATOM      8  O   UNL A   1      33.654  22.332  28.144  1.00  0.00    -0.246 OA
BRANCH   7   9
ATOM      9  C   UNL A   1      32.715  23.571  26.328  1.00  0.00     0.087 C 
ATOM     10  C   UNL A   1      31.769  28.271  24.791  1.00  0.00    -0.026 A 
ATOM     11  C   UNL A   1      31.078  27.041  24.714  1.00  0.00     0.052 A 
ATOM     12  C   UNL A   1      33.084  28.249  25.282  1.00  0.00     0.045 A 
ATOM     13  C   UNL A   1      31.654  25.849  25.166  1.00  0.00     0.128 A 
ATOM     14  C   UNL A   1      33.671  27.048  25.702  1.00  0.00     0.032 A 
ATOM     15  Cl  UNL A   1      34.040  29.669  25.499  1.00  0.00    -0.084 Cl
ATOM     16  C   UNL A   1      32.944  25.858  25.686  1.00  0.00     0.019 A 
ATOM     17  O   UNL A   1      30.873  24.731  25.094  1.00  0.00    -0.475 OA
ATOM     18  C   UNL A   1      33.494  24.658  26.289  1.00  0.00     0.027 C 
ATOM     19  C   UNL A   1      31.343  23.497  25.710  1.00  0.00     0.316 C 
BRANCH  10  20
ATOM     20  C   UNL A   1      30.993  29.533  24.464  1.00  0.00     0.037 C 
BRANCH  20  21
ATOM     21  C   UNL A   1      29.566  29.411  23.910  1.00  0.00     0.008 C 
BRANCH  21  22
ATOM     22  C   UNL A   1      29.126  30.540  22.965  1.00  0.00    -0.017 C 
ATOM     23  C   UNL A   1      29.641  30.315  21.544  1.00  0.00     0.007 C 
ATOM     24  C   UNL A   1      27.598  30.638  22.958  1.00  0.00     0.007 C 
ENDBRANCH  21  22
ENDBRANCH  20  21
ENDBRANCH  10  20
BRANCH  19  25
ATOM     25  C   UNL A   1      30.282  23.021  26.713  1.00  0.00     0.430 C 
ATOM     26  F   UNL A   1      29.296  23.938  26.860  1.00  0.00    -0.167 F 
ATOM     27  F   UNL A   1      29.684  21.872  26.313  1.00  0.00    -0.167 F 
ATOM     28  F   UNL A   1      30.812  22.792  27.937  1.00  0.00    -0.167 F 
ENDBRANCH  19  25
ENDBRANCH   7   9
ENDBRANCH   6   7
ENDBRANCH   5   6
ENDBRANCH   4   5
ENDBRANCH   3   4
ENDBRANCH   2   3
ENDBRANCH   1   2
BRANCH   1  29
ATOM     29  O   UNL A   1      32.714  21.855  22.196  1.00  0.00    -0.377 OA
BRANCH  29  30
ATOM     30  C   UNL A   1      33.345  22.766  23.097  1.00  0.00     0.188 C 
BRANCH  30  31
ATOM     31  C   UNL A   1      34.738  23.373  22.813  1.00  0.00     0.188 C 
BRANCH  31  32
ATOM     32  O   UNL A   1      35.672  23.200  23.876  1.00  0.00    -0.376 OA
BRANCH  32  33
ATOM     33  C   UNL A   1      36.738  22.289  23.642  1.00  0.00     0.202 C 
BRANCH  33  34
ATOM     34  C   UNL A   1      36.911  21.260  24.764  1.00  0.00     0.261 C 
BRANCH  34  35
ATOM     35  O   UNL A   1      37.498  21.773  25.970  1.00  0.00    -0.460 OA
BRANCH  35  36
ATOM     36  C   UNL A   1      38.821  21.577  26.162  1.00  0.00     0.338 C 
ATOM     37  O   UNL A   1      39.473  20.587  25.884  1.00  0.00    -0.246 OA
BRANCH  36  38
ATOM     38  C   UNL A   1      39.390  22.869  26.596  1.00  0.00     0.060 A 
ATOM     39  C   UNL A   1      40.422  22.902  27.537  1.00  0.00     0.016 A 
ATOM     40  C   UNL A   1      38.843  24.059  26.097  1.00  0.00     0.016 A 
ATOM     41  C   UNL A   1      40.927  24.129  27.963  1.00  0.00     0.010 A 
ATOM     42  C   UNL A   1      39.344  25.288  26.532  1.00  0.00     0.010 A 
ATOM     43  C   UNL A   1      40.402  25.329  27.452  1.00  0.00    -0.014 A 
BRANCH  43  44
ATOM     44  C   UNL A   1      41.098  26.604  27.743  1.00  0.00     0.031 A 
ATOM     45  C   UNL A   1      40.425  27.735  28.454  1.00  0.00     0.074 A 
ATOM     46  C   UNL A   1      42.384  26.709  27.361  1.00  0.00     0.049 A 
ATOM     47  N   UNL A   1      40.941  28.868  28.861  1.00  0.00    -0.248 NA
ATOM     48  C   UNL A   1      38.994  27.583  28.746  1.00  0.00     0.031 C 
ATOM     49  C   UNL A   1      43.128  25.669  26.649  1.00  0.00     0.029 A 
ATOM     50  N   UNL A   1      43.290  27.722  27.524  1.00  0.00    -0.354 N 
ATOM     51  C   UNL A   1      39.908  29.556  29.480  1.00  0.00     0.074 A 
ATOM     52  C   UNL A   1      38.722  28.732  29.356  1.00  0.00     0.031 C 
ATOM     53  C   UNL A   1      44.387  26.090  26.455  1.00  0.00     0.029 A 
ATOM     54  C   UNL A   1      44.530  27.432  27.012  1.00  0.00     0.049 A 
ATOM     55  H   UNL A   1      43.074  28.575  27.966  1.00  0.00     0.167 HD
ATOM     56  C   UNL A   1      39.959  30.757  30.108  1.00  0.00     0.037 A 
ATOM     57  C   UNL A   1      45.661  28.162  26.998  1.00  0.00     0.037 A 
ATOM     58  C   UNL A   1      41.143  31.578  30.208  1.00  0.00     0.049 A 
ATOM     59  C   UNL A   1      45.672  29.509  27.658  1.00  0.00     0.074 A 
ATOM     60  C   UNL A   1      41.297  32.792  30.855  1.00  0.00     0.029 A 
ATOM     61  N   UNL A   1      42.371  31.275  29.636  1.00  0.00    -0.354 N 
ATOM     62  N   UNL A   1      44.709  30.120  28.303  1.00  0.00    -0.248 NA
ATOM     63  C   UNL A   1      46.930  30.265  27.598  1.00  0.00     0.031 C 
ATOM     64  C   UNL A   1      42.599  33.250  30.632  1.00  0.00     0.029 A 
ATOM     65  C   UNL A   1      43.277  32.295  29.889  1.00  0.00     0.049 A 
ATOM     66  H   UNL A   1      42.569  30.457  29.125  1.00  0.00     0.167 HD
ATOM     67  C   UNL A   1      45.247  31.321  28.742  1.00  0.00     0.074 A 
ATOM     68  C   UNL A   1      46.628  31.344  28.305  1.00  0.00     0.031 C 
ATOM     69  C   UNL A   1      44.647  32.314  29.444  1.00  0.00     0.037 A 
BRANCH  56  70
ATOM     70  C   UNL A   1      38.705  31.266  30.756  1.00  0.00     0.064 A 
ATOM     71  C   UNL A   1      37.681  31.852  29.996  1.00  0.00     0.173 A 
ATOM     72  C   UNL A   1      38.476  31.074  32.126  1.00  0.00     0.173 A 
ATOM     73  F   UNL A   1      37.850  32.059  28.681  1.00  0.00    -0.203 F 
ATOM     74  C   UNL A   1      36.479  32.234  30.587  1.00  0.00     0.198 A 
ATOM     75  C   UNL A   1      37.264  31.436  32.710  1.00  0.00     0.198 A 
ATOM     76  F   UNL A   1      39.418  30.507  32.895  1.00  0.00    -0.203 F 
ATOM     77  F   UNL A   1      35.523  32.809  29.844  1.00  0.00    -0.200 F 
ATOM     78  C   UNL A   1      36.268  32.017  31.940  1.00  0.00     0.200 A 
ATOM     79  F   UNL A   1      37.055  31.209  34.013  1.00  0.00    -0.200 F 
ATOM     80  F   UNL A   1      35.102  32.365  32.502  1.00  0.00    -0.200 F 
ENDBRANCH  56  70
BRANCH  57  81
ATOM     81  C   UNL A   1      46.881  27.597  26.372  1.00  0.00     0.064 A 
ATOM     82  C   UNL A   1      47.792  26.847  27.126  1.00  0.00     0.173 A 
ATOM     83  C   UNL A   1      47.138  27.761  25.004  1.00  0.00     0.173 A 
ATOM     84  F   UNL A   1      47.593  26.678  28.441  1.00  0.00    -0.203 F 
ATOM     85  C   UNL A   1      48.921  26.286  26.535  1.00  0.00     0.198 A 
ATOM     86  C   UNL A   1      48.253  27.177  24.408  1.00  0.00     0.198 A 
ATOM     87  F   UNL A   1      46.290  28.465  24.239  1.00  0.00    -0.203 F 
ATOM     88  F   UNL A   1      49.793  25.595  27.283  1.00  0.00    -0.200 F 
ATOM     89  C   UNL A   1      49.146  26.444  25.175  1.00  0.00     0.200 A 
ATOM     90  F   UNL A   1      48.459  27.318  23.092  1.00  0.00    -0.200 F 
ATOM     91  F   UNL A   1      50.225  25.891  24.605  1.00  0.00    -0.200 F 
ENDBRANCH  57  81
BRANCH  69  92
ATOM     92  C   UNL A   1      45.482  33.512  29.791  1.00  0.00     0.064 A 
ATOM     93  C   UNL A   1      46.217  33.571  30.984  1.00  0.00     0.173 A 
ATOM     94  C   UNL A   1      45.585  34.593  28.902  1.00  0.00     0.173 A 
ATOM     95  F   UNL A   1      46.141  32.571  31.875  1.00  0.00    -0.203 F 
ATOM     96  C   UNL A   1      47.010  34.677  31.283  1.00  0.00     0.198 A 
ATOM     97  C   UNL A   1      46.399  35.684  29.191  1.00  0.00     0.198 A 
ATOM     98  F   UNL A   1      44.905  34.584  27.746  1.00  0.00    -0.203 F 
ATOM     99  F   UNL A   1      47.670  34.730  32.448  1.00  0.00    -0.200 F 
ATOM    100  C   UNL A   1      47.106  35.728  30.383  1.00  0.00     0.200 A 
ATOM    101  F   UNL A   1      46.502  36.693  28.315  1.00  0.00    -0.200 F 
ATOM    102  F   UNL A   1      47.877  36.787  30.668  1.00  0.00    -0.200 F 
ENDBRANCH  69  92
ENDBRANCH  43  44
ENDBRANCH  36  38
ENDBRANCH  35  36
ENDBRANCH  34  35
ENDBRANCH  33  34
ENDBRANCH  32  33
ENDBRANCH  31  32
ENDBRANCH  30  31
ENDBRANCH  29  30
ENDBRANCH   1  29
TORSDOF 24
ENDMDL
MODEL 3
REMARK VINA RESULT:      -9.6      1.915      2.741
REMARK SMILES CC(C)CCc1cc2c(cc1Cl)C=C(C(=O)OCCOCCOCCOCCOC(=O)c1ccc(-c3c4nc(c(-c5c(F)c(F)c(F)c(F)c5F)c5ccc([nH]5)c(-c5c(F)c(F)c(F)c(F)c5F)c5nc(c(-c6c(F)c(F)c(F)c(F)c6F)c6ccc3[nH]6)C=C5)C=C4)cc1)[C@@H](C(F)(F)F)O2
REMARK SMILES IDX 22 1 21 2 20 3 19 4 18 5 17 6 15 7 16 8 14 9 6 10 7 11 11 12
REMARK SMILES IDX 8 13 10 14 12 15 9 16 100 17 13 18 95 19 5 20 4 21 2 22 1 23
REMARK SMILES IDX 3 24 96 25 97 26 98 27 99 28 23 29 24 30 25 31 26 32 27 33
REMARK SMILES IDX 28 34 29 35 30 36 31 37 32 38 33 39 94 40 34 41 93 42 35 43
REMARK SMILES IDX 36 44 37 45 87 46 38 47 92 48 86 49 88 50 39 51 91 52 85 53
REMARK SMILES IDX 84 54 40 56 72 57 52 58 71 59 53 60 56 61 70 62 89 63 54 64
REMARK SMILES IDX 55 65 69 67 90 68 57 69 41 70 42 71 50 72 43 73 44 74 48 75
REMARK SMILES IDX 51 76 45 77 46 78 49 79 47 80 73 81 74 82 82 83 75 84 76 85
REMARK SMILES IDX 80 86 83 87 77 88 78 89 81 90 79 91 58 92 59 93 67 94 60 95
REMARK SMILES IDX 61 96 65 97 68 98 62 99 63 100 66 101 64 102
REMARK H PARENT 88 55 56 66
REMARK Flexibility Score: inf
ROOT
ATOM      1  C   UNL A   1      31.761  20.665  22.974  1.00  0.00     0.188 C 
ENDROOT
BRANCH   1   2
ATOM      2  C   UNL A   1      32.446  19.307  23.212  1.00  0.00     0.188 C 
BRANCH   2   3
ATOM      3  O   UNL A   1      32.214  18.776  24.518  1.00  0.00    -0.376 OA
BRANCH   3   4
ATOM      4  C   UNL A   1      33.237  18.991  25.484  1.00  0.00     0.202 C 
BRANCH   4   5
ATOM      5  C   UNL A   1      32.990  20.142  26.471  1.00  0.00     0.261 C 
BRANCH   5   6
ATOM      6  O   UNL A   1      33.388  21.435  25.989  1.00  0.00    -0.460 OA
BRANCH   6   7
ATOM      7  C   UNL A   1      33.261  22.467  26.846  1.00  0.00     0.338 C 
ATOM      8  O   UNL A   1      33.753  22.555  27.957  1.00  0.00    -0.246 OA
BRANCH   7   9
ATOM      9  C   UNL A   1      32.555  23.563  26.152  1.00  0.00     0.087 C 
ATOM     10  C   UNL A   1      31.149  28.054  24.359  1.00  0.00    -0.026 A 
ATOM     11  C   UNL A   1      30.553  26.774  24.418  1.00  0.00     0.052 A 
ATOM     12  C   UNL A   1      32.492  28.164  24.757  1.00  0.00     0.045 A 
ATOM     13  C   UNL A   1      31.248  25.665  24.910  1.00  0.00     0.128 A 
ATOM     14  C   UNL A   1      33.196  27.044  25.217  1.00  0.00     0.032 A 
ATOM     15  Cl  UNL A   1      33.346  29.663  24.806  1.00  0.00    -0.084 Cl
ATOM     16  C   UNL A   1      32.563  25.807  25.336  1.00  0.00     0.019 A 
ATOM     17  O   UNL A   1      30.552  24.491  24.972  1.00  0.00    -0.475 OA
ATOM     18  C   UNL A   1      33.243  24.699  25.981  1.00  0.00     0.027 C 
ATOM     19  C   UNL A   1      31.156  23.344  25.638  1.00  0.00     0.316 C 
BRANCH  10  20
ATOM     20  C   UNL A   1      30.258  29.228  24.000  1.00  0.00     0.037 C 
BRANCH  20  21
ATOM     21  C   UNL A   1      28.873  28.957  23.396  1.00  0.00     0.008 C 
BRANCH  21  22
ATOM     22  C   UNL A   1      28.386  29.994  22.371  1.00  0.00    -0.017 C 
ATOM     23  C   UNL A   1      27.691  31.173  23.051  1.00  0.00     0.007 C 
ATOM     24  C   UNL A   1      29.574  30.494  21.543  1.00  0.00     0.007 C 
ENDBRANCH  21  22
ENDBRANCH  20  21
ENDBRANCH  10  20
BRANCH  19  25
ATOM     25  C   UNL A   1      30.203  22.868  26.744  1.00  0.00     0.430 C 
ATOM     26  F   UNL A   1      30.873  22.594  27.889  1.00  0.00    -0.167 F 
ATOM     27  F   UNL A   1      29.277  23.808  27.055  1.00  0.00    -0.167 F 
ATOM     28  F   UNL A   1      29.533  21.749  26.385  1.00  0.00    -0.167 F 
ENDBRANCH  19  25
ENDBRANCH   7   9
ENDBRANCH   6   7
ENDBRANCH   5   6
ENDBRANCH   4   5
ENDBRANCH   3   4
ENDBRANCH   2   3
ENDBRANCH   1   2
BRANCH   1  29
ATOM     29  O   UNL A   1      32.535  21.552  22.185  1.00  0.00    -0.377 OA
BRANCH  29  30
ATOM     30  C   UNL A   1      33.127  22.678  22.835  1.00  0.00     0.188 C 
BRANCH  30  31
ATOM     31  C   UNL A   1      34.321  23.446  22.225  1.00  0.00     0.188 C 
BRANCH  31  32
ATOM     32  O   UNL A   1      35.263  23.911  23.189  1.00  0.00    -0.376 OA
BRANCH  32  33
ATOM     33  C   UNL A   1      36.320  23.022  23.523  1.00  0.00     0.202 C 
BRANCH  33  34
ATOM     34  C   UNL A   1      36.411  22.725  25.023  1.00  0.00     0.261 C 
BRANCH  34  35
ATOM     35  O   UNL A   1      37.210  23.651  25.775  1.00  0.00    -0.460 OA
BRANCH  35  36
ATOM     36  C   UNL A   1      38.450  23.261  26.146  1.00  0.00     0.338 C 
ATOM     37  O   UNL A   1      39.019  22.223  25.858  1.00  0.00    -0.246 OA
BRANCH  36  38
ATOM     38  C   UNL A   1      39.086  24.417  26.810  1.00  0.00     0.060 A 
ATOM     39  C   UNL A   1      39.852  25.319  26.068  1.00  0.00     0.016 A 
ATOM     40  C   UNL A   1      38.958  24.564  28.197  1.00  0.00     0.016 A 
ATOM     41  C   UNL A   1      40.474  26.387  26.712  1.00  0.00     0.010 A 
ATOM     42  C   UNL A   1      39.590  25.629  28.843  1.00  0.00     0.010 A 
ATOM     43  C   UNL A   1      40.334  26.558  28.100  1.00  0.00    -0.014 A 
BRANCH  43  44
ATOM     44  C   UNL A   1      40.811  27.813  28.725  1.00  0.00     0.031 A 
ATOM     45  C   UNL A   1      42.250  28.039  29.064  1.00  0.00     0.074 A 
ATOM     46  C   UNL A   1      39.897  28.771  28.965  1.00  0.00     0.049 A 
ATOM     47  N   UNL A   1      42.822  29.125  29.522  1.00  0.00    -0.248 NA
ATOM     48  C   UNL A   1      43.168  26.909  28.868  1.00  0.00     0.031 C 
ATOM     49  C   UNL A   1      38.466  28.645  28.685  1.00  0.00     0.029 A 
ATOM     50  N   UNL A   1      40.030  30.033  29.481  1.00  0.00    -0.354 N 
ATOM     51  C   UNL A   1      44.170  28.822  29.646  1.00  0.00     0.074 A 
ATOM     52  C   UNL A   1      44.325  27.434  29.257  1.00  0.00     0.031 C 
ATOM     53  C   UNL A   1      37.854  29.793  29.014  1.00  0.00     0.029 A 
ATOM     54  C   UNL A   1      38.847  30.725  29.542  1.00  0.00     0.049 A 
ATOM     55  H   UNL A   1      40.891  30.407  29.779  1.00  0.00     0.167 HD
ATOM     56  C   UNL A   1      45.180  29.639  30.033  1.00  0.00     0.037 A 
ATOM     57  C   UNL A   1      38.589  31.975  29.968  1.00  0.00     0.037 A 
ATOM     58  C   UNL A   1      45.011  31.015  30.437  1.00  0.00     0.049 A 
ATOM     59  C   UNL A   1      39.722  32.839  30.437  1.00  0.00     0.074 A 
ATOM     60  C   UNL A   1      45.981  31.929  30.812  1.00  0.00     0.029 A 
ATOM     61  N   UNL A   1      43.791  31.670  30.533  1.00  0.00    -0.354 N 
ATOM     62  N   UNL A   1      41.003  32.566  30.484  1.00  0.00    -0.248 NA
ATOM     63  C   UNL A   1      39.376  34.188  30.904  1.00  0.00     0.031 C 
ATOM     64  C   UNL A   1      45.347  33.119  31.183  1.00  0.00     0.029 A 
ATOM     65  C   UNL A   1      43.983  32.966  30.990  1.00  0.00     0.049 A 
ATOM     66  H   UNL A   1      42.918  31.274  30.309  1.00  0.00     0.167 HD
ATOM     67  C   UNL A   1      41.619  33.712  30.965  1.00  0.00     0.074 A 
ATOM     68  C   UNL A   1      40.572  34.690  31.179  1.00  0.00     0.031 C 
ATOM     69  C   UNL A   1      42.934  33.931  31.208  1.00  0.00     0.037 A 
BRANCH  56  70
ATOM     70  C   UNL A   1      46.574  29.084  30.030  1.00  0.00     0.064 A 
ATOM     71  C   UNL A   1      47.119  28.481  31.175  1.00  0.00     0.173 A 
ATOM     72  C   UNL A   1      47.333  29.057  28.851  1.00  0.00     0.173 A 
ATOM     73  F   UNL A   1      46.434  28.482  32.329  1.00  0.00    -0.203 F 
ATOM     74  C   UNL A   1      48.376  27.881  31.140  1.00  0.00     0.198 A 
ATOM     75  C   UNL A   1      48.579  28.435  28.813  1.00  0.00     0.198 A 
ATOM     76  F   UNL A   1      46.853  29.608  27.726  1.00  0.00    -0.203 F 
ATOM     77  F   UNL A   1      48.883  27.328  32.250  1.00  0.00    -0.200 F 
ATOM     78  C   UNL A   1      49.100  27.849  29.957  1.00  0.00     0.200 A 
ATOM     79  F   UNL A   1      49.270  28.390  27.666  1.00  0.00    -0.200 F 
ATOM     80  F   UNL A   1      50.298  27.251  29.920  1.00  0.00    -0.200 F 
ENDBRANCH  56  70
BRANCH  57  81
ATOM     81  C   UNL A   1      37.197  32.485  29.920  1.00  0.00     0.064 A 
ATOM     82  C   UNL A   1      36.349  32.363  31.028  1.00  0.00     0.173 A 
ATOM     83  C   UNL A   1      36.701  33.140  28.784  1.00  0.00     0.173 A 
ATOM     84  F   UNL A   1      36.777  31.730  32.131  1.00  0.00    -0.203 F 
ATOM     85  C   UNL A   1      35.054  32.871  31.000  1.00  0.00     0.198 A 
ATOM     86  C   UNL A   1      35.414  33.671  28.765  1.00  0.00     0.198 A 
ATOM     87  F   UNL A   1      37.478  33.288  27.700  1.00  0.00    -0.203 F 
ATOM     88  F   UNL A   1      34.253  32.717  32.064  1.00  0.00    -0.200 F 
ATOM     89  C   UNL A   1      34.590  33.533  29.872  1.00  0.00     0.200 A 
ATOM     90  F   UNL A   1      34.976  34.324  27.681  1.00  0.00    -0.200 F 
ATOM     91  F   UNL A   1      33.348  34.035  29.852  1.00  0.00    -0.200 F 
ENDBRANCH  57  81
BRANCH  69  92
ATOM     92  C   UNL A   1      43.322  35.285  31.728  1.00  0.00     0.064 A 
ATOM     93  C   UNL A   1      43.387  35.550  33.103  1.00  0.00     0.173 A 
ATOM     94  C   UNL A   1      43.678  36.314  30.842  1.00  0.00     0.173 A 
ATOM     95  F   UNL A   1      43.042  34.604  33.990  1.00  0.00    -0.203 F 
ATOM     96  C   UNL A   1      43.774  36.803  33.573  1.00  0.00     0.198 A 
ATOM     97  C   UNL A   1      44.091  37.555  31.316  1.00  0.00     0.198 A 
ATOM     98  F   UNL A   1      43.637  36.111  29.517  1.00  0.00    -0.203 F 
ATOM     99  F   UNL A   1      43.789  37.046  34.891  1.00  0.00    -0.200 F 
ATOM    100  C   UNL A   1      44.134  37.801  32.680  1.00  0.00     0.200 A 
ATOM    101  F   UNL A   1      44.450  38.516  30.453  1.00  0.00    -0.200 F 
ATOM    102  F   UNL A   1      44.516  39.002  33.135  1.00  0.00    -0.200 F 
ENDBRANCH  69  92
ENDBRANCH  43  44
ENDBRANCH  36  38
ENDBRANCH  35  36
ENDBRANCH  34  35
ENDBRANCH  33  34
ENDBRANCH  32  33
ENDBRANCH  31  32
ENDBRANCH  30  31
ENDBRANCH  29  30
ENDBRANCH   1  29
TORSDOF 24
ENDMDL
