MODEL 1
REMARK VINA RESULT:     -11.6      0.000      0.000
REMARK SMILES Cc1cc(C(=O)OCCOCCOCCOCCOC(=O)c2ccc(-c3c4nc(c(-c5c(F)c(F)c(F)c(F)c5F)c5ccc([nH]5)c(-c5c(F)c(F)c(F)c(F)c5F)c5nc(c(-c6c(F)c(F)c(F)c(F)c6F)c6ccc3[nH]6)C=C5)C=C4)cc2)ccc1NS(=O)(=O)c1c(F)cccc1F
REMARK SMILES IDX 12 1 11 2 10 3 9 4 8 5 7 6 5 7 6 8 4 9 1 10 2 11 3 12 87 13
REMARK SMILES IDX 86 14 85 15 88 16 89 18 90 19 91 20 92 21 93 22 98 23 94 24
REMARK SMILES IDX 95 25 97 26 99 27 96 28 13 29 14 30 15 31 16 32 17 33 18 34
REMARK SMILES IDX 19 35 20 36 21 37 22 38 23 39 84 40 24 41 83 42 25 43 26 44
REMARK SMILES IDX 27 45 77 46 28 47 82 48 76 49 78 50 29 51 81 52 75 53 74 54
REMARK SMILES IDX 30 56 62 57 42 58 61 59 43 60 46 61 60 62 79 63 44 64 45 65
REMARK SMILES IDX 59 67 80 68 47 69 31 70 32 71 40 72 33 73 34 74 38 75 41 76
REMARK SMILES IDX 35 77 36 78 39 79 37 80 63 81 64 82 72 83 65 84 66 85 70 86
REMARK SMILES IDX 73 87 67 88 68 89 71 90 69 91 48 92 49 93 57 94 50 95 51 96
REMARK SMILES IDX 55 97 58 98 52 99 53 100 56 101 54 102
REMARK H PARENT 88 17 78 55 46 66
REMARK Flexibility Score: inf
ROOT
ATOM      1  C   UNL A   1      31.931  30.439  25.742  1.00  0.00     0.188 C 
ENDROOT
BRANCH   1   2
ATOM      2  C   UNL A   1      31.216  29.381  24.886  1.00  0.00     0.188 C 
BRANCH   2   3
ATOM      3  O   UNL A   1      30.259  29.784  23.922  1.00  0.00    -0.376 OA
BRANCH   3   4
ATOM      4  C   UNL A   1      30.255  29.022  22.726  1.00  0.00     0.202 C 
BRANCH   4   5
ATOM      5  C   UNL A   1      31.257  27.893  22.609  1.00  0.00     0.261 C 
BRANCH   5   6
ATOM      6  O   UNL A   1      30.612  26.633  22.730  1.00  0.00    -0.460 OA
BRANCH   6   7
ATOM      7  C   UNL A   1      30.881  25.997  23.878  1.00  0.00     0.338 C 
ATOM      8  O   UNL A   1      30.159  25.892  24.872  1.00  0.00    -0.246 OA
BRANCH   7   9
ATOM      9  C   UNL A   1      31.994  25.106  23.583  1.00  0.00     0.060 A 
ATOM     10  C   UNL A   1      35.272  24.719  25.351  1.00  0.00     0.046 C 
ATOM     11  C   UNL A   1      34.160  24.392  24.397  1.00  0.00    -0.026 A 
ATOM     12  C   UNL A   1      33.130  25.332  24.351  1.00  0.00     0.021 A 
ATOM     13  C   UNL A   1      34.049  23.215  23.632  1.00  0.00     0.052 A 
ATOM     14  C   UNL A   1      32.942  23.060  22.778  1.00  0.00     0.028 A 
ATOM     15  C   UNL A   1      31.887  23.975  22.784  1.00  0.00     0.018 A 
BRANCH  13  16
ATOM     16  N   UNL A   1      34.910  22.118  23.942  1.00  0.00    -0.279 N 
ATOM     17  H   UNL A   1      35.688  21.981  23.354  1.00  0.00     0.180 HD
BRANCH  16  18
ATOM     18  S   UNL A   1      34.721  21.045  25.211  1.00  0.00     0.267 S 
ATOM     19  O   UNL A   1      36.052  20.734  25.687  1.00  0.00    -0.201 OA
ATOM     20  O   UNL A   1      33.738  21.660  26.079  1.00  0.00    -0.201 OA
BRANCH  18  21
ATOM     21  C   UNL A   1      33.999  19.565  24.615  1.00  0.00     0.158 A 
ATOM     22  C   UNL A   1      34.847  18.478  24.436  1.00  0.00     0.146 A 
ATOM     23  C   UNL A   1      32.693  19.488  24.155  1.00  0.00     0.146 A 
ATOM     24  F   UNL A   1      36.088  18.478  24.940  1.00  0.00    -0.205 F 
ATOM     25  C   UNL A   1      34.432  17.358  23.719  1.00  0.00     0.041 A 
ATOM     26  C   UNL A   1      32.276  18.386  23.403  1.00  0.00     0.041 A 
ATOM     27  F   UNL A   1      31.816  20.480  24.354  1.00  0.00    -0.205 F 
ATOM     28  C   UNL A   1      33.154  17.326  23.167  1.00  0.00     0.006 A 
ENDBRANCH  18  21
ENDBRANCH  16  18
ENDBRANCH  13  16
ENDBRANCH   7   9
ENDBRANCH   6   7
ENDBRANCH   5   6
ENDBRANCH   4   5
ENDBRANCH   3   4
ENDBRANCH   2   3
ENDBRANCH   1   2
BRANCH   1  29
ATOM     29  O   UNL A   1      31.205  31.584  26.159  1.00  0.00    -0.377 OA
BRANCH  29  30
ATOM     30  C   UNL A   1      31.848  32.499  27.037  1.00  0.00     0.188 C 
BRANCH  30  31
ATOM     31  C   UNL A   1      33.275  32.283  27.497  1.00  0.00     0.188 C 
BRANCH  31  32
ATOM     32  O   UNL A   1      33.511  33.180  28.577  1.00  0.00    -0.376 OA
BRANCH  32  33
ATOM     33  C   UNL A   1      33.009  34.496  28.386  1.00  0.00     0.202 C 
BRANCH  33  34
ATOM     34  C   UNL A   1      33.467  35.477  29.472  1.00  0.00     0.261 C 
BRANCH  34  35
ATOM     35  O   UNL A   1      33.272  34.874  30.769  1.00  0.00    -0.460 OA
BRANCH  35  36
ATOM     36  C   UNL A   1      34.379  34.787  31.561  1.00  0.00     0.338 C 
ATOM     37  O   UNL A   1      34.809  35.681  32.269  1.00  0.00    -0.246 OA
BRANCH  36  38
ATOM     38  C   UNL A   1      35.157  33.559  31.211  1.00  0.00     0.060 A 
ATOM     39  C   UNL A   1      34.893  32.329  31.839  1.00  0.00     0.016 A 
ATOM     40  C   UNL A   1      36.343  33.710  30.514  1.00  0.00     0.016 A 
ATOM     41  C   UNL A   1      35.903  31.348  31.943  1.00  0.00     0.010 A 
ATOM     42  C   UNL A   1      37.346  32.780  30.699  1.00  0.00     0.010 A 
ATOM     43  C   UNL A   1      37.184  31.619  31.474  1.00  0.00    -0.014 A 
BRANCH  43  44
ATOM     44  C   UNL A   1      38.429  30.876  31.825  1.00  0.00     0.031 A 
ATOM     45  C   UNL A   1      38.772  29.635  31.034  1.00  0.00     0.074 A 
ATOM     46  C   UNL A   1      39.396  31.515  32.550  1.00  0.00     0.049 A 
ATOM     47  N   UNL A   1      39.870  28.965  31.131  1.00  0.00    -0.248 NA
ATOM     48  C   UNL A   1      37.906  29.056  30.004  1.00  0.00     0.031 C 
ATOM     49  C   UNL A   1      40.848  31.307  32.491  1.00  0.00     0.029 A 
ATOM     50  N   UNL A   1      39.303  32.577  33.452  1.00  0.00    -0.354 N 
ATOM     51  C   UNL A   1      40.033  28.196  29.985  1.00  0.00     0.074 A 
ATOM     52  C   UNL A   1      38.730  28.207  29.376  1.00  0.00     0.031 C 
ATOM     53  C   UNL A   1      41.507  32.133  33.318  1.00  0.00     0.029 A 
ATOM     54  C   UNL A   1      40.503  32.691  34.184  1.00  0.00     0.049 A 
ATOM     55  H   UNL A   1      38.516  33.159  33.563  1.00  0.00     0.167 HD
ATOM     56  C   UNL A   1      41.295  27.782  29.633  1.00  0.00     0.037 A 
ATOM     57  C   UNL A   1      40.484  32.452  35.529  1.00  0.00     0.037 A 
ATOM     58  C   UNL A   1      42.272  28.114  30.695  1.00  0.00     0.049 A 
ATOM     59  C   UNL A   1      41.146  31.099  35.784  1.00  0.00     0.074 A 
ATOM     60  C   UNL A   1      43.496  28.757  30.733  1.00  0.00     0.029 A 
ATOM     61  N   UNL A   1      41.928  27.901  32.031  1.00  0.00    -0.354 N 
ATOM     62  N   UNL A   1      41.115  30.105  34.920  1.00  0.00    -0.248 NA
ATOM     63  C   UNL A   1      42.139  30.883  36.837  1.00  0.00     0.031 C 
ATOM     64  C   UNL A   1      43.776  29.099  32.091  1.00  0.00     0.029 A 
ATOM     65  C   UNL A   1      42.781  28.557  32.894  1.00  0.00     0.049 A 
ATOM     66  H   UNL A   1      41.167  27.348  32.323  1.00  0.00     0.167 HD
ATOM     67  C   UNL A   1      42.165  29.260  35.171  1.00  0.00     0.074 A 
ATOM     68  C   UNL A   1      42.733  29.749  36.419  1.00  0.00     0.031 C 
ATOM     69  C   UNL A   1      42.688  28.318  34.326  1.00  0.00     0.037 A 
BRANCH  56  70
ATOM     70  C   UNL A   1      41.748  27.242  28.261  1.00  0.00     0.064 A 
ATOM     71  C   UNL A   1      42.241  25.915  28.140  1.00  0.00     0.173 A 
ATOM     72  C   UNL A   1      41.815  27.976  27.055  1.00  0.00     0.173 A 
ATOM     73  F   UNL A   1      42.205  25.067  29.176  1.00  0.00    -0.203 F 
ATOM     74  C   UNL A   1      42.774  25.394  26.950  1.00  0.00     0.198 A 
ATOM     75  C   UNL A   1      42.292  27.432  25.847  1.00  0.00     0.198 A 
ATOM     76  F   UNL A   1      41.460  29.262  26.990  1.00  0.00    -0.203 F 
ATOM     77  F   UNL A   1      43.269  24.146  26.929  1.00  0.00    -0.200 F 
ATOM     78  C   UNL A   1      42.788  26.147  25.798  1.00  0.00     0.200 A 
ATOM     79  F   UNL A   1      42.277  28.177  24.731  1.00  0.00    -0.200 F 
ATOM     80  F   UNL A   1      43.269  25.642  24.652  1.00  0.00    -0.200 F 
ENDBRANCH  56  70
BRANCH  57  81
ATOM     81  C   UNL A   1      39.314  33.184  36.127  1.00  0.00     0.064 A 
ATOM     82  C   UNL A   1      38.330  32.311  36.666  1.00  0.00     0.173 A 
ATOM     83  C   UNL A   1      39.491  34.411  36.791  1.00  0.00     0.173 A 
ATOM     84  F   UNL A   1      38.087  31.134  36.066  1.00  0.00    -0.203 F 
ATOM     85  C   UNL A   1      37.795  32.515  37.941  1.00  0.00     0.198 A 
ATOM     86  C   UNL A   1      38.904  34.632  38.049  1.00  0.00     0.198 A 
ATOM     87  F   UNL A   1      40.396  35.293  36.347  1.00  0.00    -0.203 F 
ATOM     88  F   UNL A   1      37.079  31.544  38.529  1.00  0.00    -0.200 F 
ATOM     89  C   UNL A   1      38.128  33.650  38.654  1.00  0.00     0.200 A 
ATOM     90  F   UNL A   1      39.206  35.737  38.745  1.00  0.00    -0.200 F 
ATOM     91  F   UNL A   1      37.774  33.763  39.943  1.00  0.00    -0.200 F 
ENDBRANCH  57  81
BRANCH  69  92
ATOM     92  C   UNL A   1      43.145  26.969  34.830  1.00  0.00     0.064 A 
ATOM     93  C   UNL A   1      42.257  25.903  35.029  1.00  0.00     0.173 A 
ATOM     94  C   UNL A   1      44.525  26.637  34.893  1.00  0.00     0.173 A 
ATOM     95  F   UNL A   1      40.933  26.055  34.887  1.00  0.00    -0.203 F 
ATOM     96  C   UNL A   1      42.707  24.618  35.322  1.00  0.00     0.198 A 
ATOM     97  C   UNL A   1      44.968  25.340  35.118  1.00  0.00     0.198 A 
ATOM     98  F   UNL A   1      45.492  27.543  34.691  1.00  0.00    -0.203 F 
ATOM     99  F   UNL A   1      41.812  23.646  35.542  1.00  0.00    -0.200 F 
ATOM    100  C   UNL A   1      44.057  24.333  35.353  1.00  0.00     0.200 A 
ATOM    101  F   UNL A   1      46.280  25.069  35.076  1.00  0.00    -0.200 F 
ATOM    102  F   UNL A   1      44.481  23.085  35.589  1.00  0.00    -0.200 F 
ENDBRANCH  69  92
ENDBRANCH  43  44
ENDBRANCH  36  38
ENDBRANCH  35  36
ENDBRANCH  34  35
ENDBRANCH  33  34
ENDBRANCH  32  33
ENDBRANCH  31  32
ENDBRANCH  30  31
ENDBRANCH  29  30
ENDBRANCH   1  29
TORSDOF 23
ENDMDL
MODEL 2
REMARK VINA RESULT:     -11.5      1.687      2.666
REMARK SMILES Cc1cc(C(=O)OCCOCCOCCOCCOC(=O)c2ccc(-c3c4nc(c(-c5c(F)c(F)c(F)c(F)c5F)c5ccc([nH]5)c(-c5c(F)c(F)c(F)c(F)c5F)c5nc(c(-c6c(F)c(F)c(F)c(F)c6F)c6ccc3[nH]6)C=C5)C=C4)cc2)ccc1NS(=O)(=O)c1c(F)cccc1F
REMARK SMILES IDX 12 1 11 2 10 3 9 4 8 5 7 6 5 7 6 8 4 9 1 10 2 11 3 12 87 13
REMARK SMILES IDX 86 14 85 15 88 16 89 18 90 19 91 20 92 21 93 22 98 23 94 24
REMARK SMILES IDX 95 25 97 26 99 27 96 28 13 29 14 30 15 31 16 32 17 33 18 34
REMARK SMILES IDX 19 35 20 36 21 37 22 38 23 39 84 40 24 41 83 42 25 43 26 44
REMARK SMILES IDX 27 45 77 46 28 47 82 48 76 49 78 50 29 51 81 52 75 53 74 54
REMARK SMILES IDX 30 56 62 57 42 58 61 59 43 60 46 61 60 62 79 63 44 64 45 65
REMARK SMILES IDX 59 67 80 68 47 69 31 70 32 71 40 72 33 73 34 74 38 75 41 76
REMARK SMILES IDX 35 77 36 78 39 79 37 80 63 81 64 82 72 83 65 84 66 85 70 86
REMARK SMILES IDX 73 87 67 88 68 89 71 90 69 91 48 92 49 93 57 94 50 95 51 96
REMARK SMILES IDX 55 97 58 98 52 99 53 100 56 101 54 102
REMARK H PARENT 88 17 78 55 46 66
REMARK Flexibility Score: inf
ROOT
ATOM      1  C   UNL A   1      33.489  28.689  25.047  1.00  0.00     0.188 C 
ENDROOT
BRANCH   1   2
ATOM      2  C   UNL A   1      33.489  27.904  23.726  1.00  0.00     0.188 C 
BRANCH   2   3
ATOM      3  O   UNL A   1      32.281  27.742  23.002  1.00  0.00    -0.376 OA
BRANCH   3   4
ATOM      4  C   UNL A   1      32.222  26.584  22.186  1.00  0.00     0.202 C 
BRANCH   4   5
ATOM      5  C   UNL A   1      32.982  25.359  22.647  1.00  0.00     0.261 C 
BRANCH   5   6
ATOM      6  O   UNL A   1      32.089  24.358  23.115  1.00  0.00    -0.460 OA
BRANCH   6   7
ATOM      7  C   UNL A   1      31.750  24.497  24.403  1.00  0.00     0.338 C 
ATOM      8  O   UNL A   1      30.694  24.936  24.864  1.00  0.00    -0.246 OA
BRANCH   7   9
ATOM      9  C   UNL A   1      32.673  23.652  25.147  1.00  0.00     0.060 A 
ATOM     10  C   UNL A   1      33.620  20.075  24.576  1.00  0.00     0.046 C 
ATOM     11  C   UNL A   1      33.690  21.455  25.161  1.00  0.00    -0.026 A 
ATOM     12  C   UNL A   1      32.672  22.318  24.757  1.00  0.00     0.021 A 
ATOM     13  C   UNL A   1      34.713  21.944  25.996  1.00  0.00     0.052 A 
ATOM     14  C   UNL A   1      34.632  23.267  26.467  1.00  0.00     0.028 A 
ATOM     15  C   UNL A   1      33.645  24.141  26.010  1.00  0.00     0.018 A 
BRANCH  13  16
ATOM     16  N   UNL A   1      35.915  21.182  26.119  1.00  0.00    -0.279 N 
ATOM     17  H   UNL A   1      35.964  20.545  26.868  1.00  0.00     0.180 HD
BRANCH  16  18
ATOM     18  S   UNL A   1      37.245  21.271  25.110  1.00  0.00     0.267 S 
ATOM     19  O   UNL A   1      37.767  19.924  25.001  1.00  0.00    -0.201 OA
ATOM     20  O   UNL A   1      36.783  21.992  23.943  1.00  0.00    -0.201 OA
BRANCH  18  21
ATOM     21  C   UNL A   1      38.474  22.269  25.857  1.00  0.00     0.158 A 
ATOM     22  C   UNL A   1      39.603  21.621  26.345  1.00  0.00     0.146 A 
ATOM     23  C   UNL A   1      38.291  23.615  26.138  1.00  0.00     0.146 A 
ATOM     24  F   UNL A   1      39.860  20.345  26.027  1.00  0.00    -0.205 F 
ATOM     25  C   UNL A   1      40.496  22.278  27.188  1.00  0.00     0.041 A 
ATOM     26  C   UNL A   1      39.161  24.276  27.011  1.00  0.00     0.041 A 
ATOM     27  F   UNL A   1      37.256  24.305  25.643  1.00  0.00    -0.205 F 
ATOM     28  C   UNL A   1      40.255  23.600  27.554  1.00  0.00     0.006 A 
ENDBRANCH  18  21
ENDBRANCH  16  18
ENDBRANCH  13  16
ENDBRANCH   7   9
ENDBRANCH   6   7
ENDBRANCH   5   6
ENDBRANCH   4   5
ENDBRANCH   3   4
ENDBRANCH   2   3
ENDBRANCH   1   2
BRANCH   1  29
ATOM     29  O   UNL A   1      32.408  29.565  25.321  1.00  0.00    -0.377 OA
BRANCH  29  30
ATOM     30  C   UNL A   1      32.555  30.496  26.386  1.00  0.00     0.188 C 
BRANCH  30  31
ATOM     31  C   UNL A   1      33.806  30.528  27.240  1.00  0.00     0.188 C 
BRANCH  31  32
ATOM     32  O   UNL A   1      33.653  31.593  28.172  1.00  0.00    -0.376 OA
BRANCH  32  33
ATOM     33  C   UNL A   1      33.145  32.802  27.626  1.00  0.00     0.202 C 
BRANCH  33  34
ATOM     34  C   UNL A   1      33.650  34.052  28.358  1.00  0.00     0.261 C 
BRANCH  34  35
ATOM     35  O   UNL A   1      33.545  33.841  29.783  1.00  0.00    -0.460 OA
BRANCH  35  36
ATOM     36  C   UNL A   1      34.707  33.945  30.490  1.00  0.00     0.338 C 
ATOM     37  O   UNL A   1      35.190  34.985  30.901  1.00  0.00    -0.246 OA
BRANCH  36  38
ATOM     38  C   UNL A   1      35.453  32.650  30.429  1.00  0.00     0.060 A 
ATOM     39  C   UNL A   1      35.258  31.653  31.400  1.00  0.00     0.016 A 
ATOM     40  C   UNL A   1      36.566  32.573  29.609  1.00  0.00     0.016 A 
ATOM     41  C   UNL A   1      36.277  30.718  31.681  1.00  0.00     0.010 A 
ATOM     42  C   UNL A   1      37.586  31.709  29.954  1.00  0.00     0.010 A 
ATOM     43  C   UNL A   1      37.506  30.817  31.037  1.00  0.00    -0.014 A 
BRANCH  43  44
ATOM     44  C   UNL A   1      38.782  30.174  31.464  1.00  0.00     0.031 A 
ATOM     45  C   UNL A   1      39.246  28.938  30.730  1.00  0.00     0.074 A 
ATOM     46  C   UNL A   1      39.668  30.901  32.209  1.00  0.00     0.049 A 
ATOM     47  N   UNL A   1      40.382  28.351  30.895  1.00  0.00    -0.248 NA
ATOM     48  C   UNL A   1      38.469  28.270  29.682  1.00  0.00     0.031 C 
ATOM     49  C   UNL A   1      41.133  30.795  32.219  1.00  0.00     0.029 A 
ATOM     50  N   UNL A   1      39.461  31.980  33.072  1.00  0.00    -0.354 N 
ATOM     51  C   UNL A   1      40.649  27.563  29.782  1.00  0.00     0.074 A 
ATOM     52  C   UNL A   1      39.377  27.463  29.117  1.00  0.00     0.031 C 
ATOM     53  C   UNL A   1      41.695  31.690  33.046  1.00  0.00     0.029 A 
ATOM     54  C   UNL A   1      40.617  32.200  33.850  1.00  0.00     0.049 A 
ATOM     55  H   UNL A   1      38.632  32.508  33.130  1.00  0.00     0.167 HD
ATOM     56  C   UNL A   1      41.952  27.228  29.498  1.00  0.00     0.037 A 
ATOM     57  C   UNL A   1      40.554  31.999  35.200  1.00  0.00     0.037 A 
ATOM     58  C   UNL A   1      42.855  27.659  30.589  1.00  0.00     0.049 A 
ATOM     59  C   UNL A   1      41.296  30.705  35.527  1.00  0.00     0.074 A 
ATOM     60  C   UNL A   1      44.029  28.389  30.659  1.00  0.00     0.029 A 
ATOM     61  N   UNL A   1      42.466  27.462  31.916  1.00  0.00    -0.354 N 
ATOM     62  N   UNL A   1      41.374  29.686  34.695  1.00  0.00    -0.248 NA
ATOM     63  C   UNL A   1      42.254  30.590  36.628  1.00  0.00     0.031 C 
ATOM     64  C   UNL A   1      44.222  28.789  32.016  1.00  0.00     0.029 A 
ATOM     65  C   UNL A   1      43.232  28.202  32.793  1.00  0.00     0.049 A 
ATOM     66  H   UNL A   1      41.734  26.866  32.193  1.00  0.00     0.167 HD
ATOM     67  C   UNL A   1      42.467  28.925  35.018  1.00  0.00     0.074 A 
ATOM     68  C   UNL A   1      42.943  29.490  36.273  1.00  0.00     0.031 C 
ATOM     69  C   UNL A   1      43.091  27.999  34.226  1.00  0.00     0.037 A 
BRANCH  56  70
ATOM     70  C   UNL A   1      42.503  26.682  28.165  1.00  0.00     0.064 A 
ATOM     71  C   UNL A   1      43.144  25.416  28.119  1.00  0.00     0.173 A 
ATOM     72  C   UNL A   1      42.522  27.365  26.927  1.00  0.00     0.173 A 
ATOM     73  F   UNL A   1      43.173  24.616  29.194  1.00  0.00    -0.203 F 
ATOM     74  C   UNL A   1      43.767  24.905  26.969  1.00  0.00     0.198 A 
ATOM     75  C   UNL A   1      43.093  26.824  25.758  1.00  0.00     0.198 A 
ATOM     76  F   UNL A   1      42.028  28.598  26.792  1.00  0.00    -0.203 F 
ATOM     77  F   UNL A   1      44.398  23.721  27.019  1.00  0.00    -0.200 F 
ATOM     78  C   UNL A   1      43.731  25.603  25.783  1.00  0.00     0.200 A 
ATOM     79  F   UNL A   1      43.028  27.511  24.608  1.00  0.00    -0.200 F 
ATOM     80  F   UNL A   1      44.298  25.104  24.675  1.00  0.00    -0.200 F 
ENDBRANCH  56  70
BRANCH  57  81
ATOM     81  C   UNL A   1      39.310  32.664  35.724  1.00  0.00     0.064 A 
ATOM     82  C   UNL A   1      38.388  31.745  36.294  1.00  0.00     0.173 A 
ATOM     83  C   UNL A   1      39.364  33.940  36.313  1.00  0.00     0.173 A 
ATOM     84  F   UNL A   1      38.262  30.517  35.763  1.00  0.00    -0.203 F 
ATOM     85  C   UNL A   1      37.802  31.979  37.540  1.00  0.00     0.198 A 
ATOM     86  C   UNL A   1      38.726  34.185  37.541  1.00  0.00     0.198 A 
ATOM     87  F   UNL A   1      40.205  34.867  35.835  1.00  0.00    -0.203 F 
ATOM     88  F   UNL A   1      37.153  30.988  38.172  1.00  0.00    -0.200 F 
ATOM     89  C   UNL A   1      38.018  33.180  38.188  1.00  0.00     0.200 A 
ATOM     90  F   UNL A   1      38.915  35.353  38.173  1.00  0.00    -0.200 F 
ATOM     91  F   UNL A   1      37.620  33.341  39.459  1.00  0.00    -0.200 F 
ENDBRANCH  57  81
BRANCH  69  92
ATOM     92  C   UNL A   1      43.618  26.701  34.793  1.00  0.00     0.064 A 
ATOM     93  C   UNL A   1      42.795  25.586  35.004  1.00  0.00     0.173 A 
ATOM     94  C   UNL A   1      45.014  26.463  34.909  1.00  0.00     0.173 A 
ATOM     95  F   UNL A   1      41.469  25.646  34.816  1.00  0.00    -0.203 F 
ATOM     96  C   UNL A   1      43.317  24.344  35.357  1.00  0.00     0.198 A 
ATOM     97  C   UNL A   1      45.532  25.206  35.195  1.00  0.00     0.198 A 
ATOM     98  F   UNL A   1      45.926  27.422  34.704  1.00  0.00    -0.203 F 
ATOM     99  F   UNL A   1      42.480  23.324  35.585  1.00  0.00    -0.200 F 
ATOM    100  C   UNL A   1      44.681  24.150  35.439  1.00  0.00     0.200 A 
ATOM    101  F   UNL A   1      46.860  25.020  35.203  1.00  0.00    -0.200 F 
ATOM    102  F   UNL A   1      45.176  22.941  35.733  1.00  0.00    -0.200 F 
ENDBRANCH  69  92
ENDBRANCH  43  44
ENDBRANCH  36  38
ENDBRANCH  35  36
ENDBRANCH  34  35
ENDBRANCH  33  34
ENDBRANCH  32  33
ENDBRANCH  31  32
ENDBRANCH  30  31
ENDBRANCH  29  30
ENDBRANCH   1  29
TORSDOF 23
ENDMDL
MODEL 3
REMARK VINA RESULT:     -11.4      2.300      3.998
REMARK SMILES Cc1cc(C(=O)OCCOCCOCCOCCOC(=O)c2ccc(-c3c4nc(c(-c5c(F)c(F)c(F)c(F)c5F)c5ccc([nH]5)c(-c5c(F)c(F)c(F)c(F)c5F)c5nc(c(-c6c(F)c(F)c(F)c(F)c6F)c6ccc3[nH]6)C=C5)C=C4)cc2)ccc1NS(=O)(=O)c1c(F)cccc1F
REMARK SMILES IDX 12 1 11 2 10 3 9 4 8 5 7 6 5 7 6 8 4 9 1 10 2 11 3 12 87 13
REMARK SMILES IDX 86 14 85 15 88 16 89 18 90 19 91 20 92 21 93 22 98 23 94 24
REMARK SMILES IDX 95 25 97 26 99 27 96 28 13 29 14 30 15 31 16 32 17 33 18 34
REMARK SMILES IDX 19 35 20 36 21 37 22 38 23 39 84 40 24 41 83 42 25 43 26 44
REMARK SMILES IDX 27 45 77 46 28 47 82 48 76 49 78 50 29 51 81 52 75 53 74 54
REMARK SMILES IDX 30 56 62 57 42 58 61 59 43 60 46 61 60 62 79 63 44 64 45 65
REMARK SMILES IDX 59 67 80 68 47 69 31 70 32 71 40 72 33 73 34 74 38 75 41 76
REMARK SMILES IDX 35 77 36 78 39 79 37 80 63 81 64 82 72 83 65 84 66 85 70 86
REMARK SMILES IDX 73 87 67 88 68 89 71 90 69 91 48 92 49 93 57 94 50 95 51 96
REMARK SMILES IDX 55 97 58 98 52 99 53 100 56 101 54 102
REMARK H PARENT 88 17 78 55 46 66
REMARK Flexibility Score: inf
ROOT
ATOM      1  C   UNL A   1      31.240  27.414  24.140  1.00  0.00     0.188 C 
ENDROOT
BRANCH   1   2
ATOM      2  C   UNL A   1      31.618  26.009  23.644  1.00  0.00     0.188 C 
BRANCH   2   3
ATOM      3  O   UNL A   1      32.908  25.774  23.105  1.00  0.00    -0.376 OA
BRANCH   3   4
ATOM      4  C   UNL A   1      33.047  24.557  22.392  1.00  0.00     0.202 C 
BRANCH   4   5
ATOM      5  C   UNL A   1      34.045  23.546  22.914  1.00  0.00     0.261 C 
BRANCH   5   6
ATOM      6  O   UNL A   1      34.614  23.986  24.140  1.00  0.00    -0.460 OA
BRANCH   6   7
ATOM      7  C   UNL A   1      34.469  23.115  25.146  1.00  0.00     0.338 C 
ATOM      8  O   UNL A   1      33.469  22.455  25.438  1.00  0.00    -0.246 OA
BRANCH   7   9
ATOM      9  C   UNL A   1      35.820  22.774  25.570  1.00  0.00     0.060 A 
ATOM     10  C   UNL A   1      37.795  19.653  24.958  1.00  0.00     0.046 C 
ATOM     11  C   UNL A   1      37.528  21.069  25.378  1.00  0.00    -0.026 A 
ATOM     12  C   UNL A   1      36.191  21.462  25.303  1.00  0.00     0.021 A 
ATOM     13  C   UNL A   1      38.501  22.015  25.754  1.00  0.00     0.052 A 
ATOM     14  C   UNL A   1      38.086  23.306  26.126  1.00  0.00     0.028 A 
ATOM     15  C   UNL A   1      36.757  23.709  25.990  1.00  0.00     0.018 A 
BRANCH  13  16
ATOM     16  N   UNL A   1      39.874  21.719  25.493  1.00  0.00    -0.279 N 
ATOM     17  H   UNL A   1      40.188  21.837  24.568  1.00  0.00     0.180 HD
BRANCH  16  18
ATOM     18  S   UNL A   1      40.998  21.191  26.613  1.00  0.00     0.267 S 
ATOM     19  O   UNL A   1      41.340  22.341  27.424  1.00  0.00    -0.201 OA
ATOM     20  O   UNL A   1      40.412  20.006  27.203  1.00  0.00    -0.201 OA
BRANCH  18  21
ATOM     21  C   UNL A   1      42.445  20.667  25.778  1.00  0.00     0.158 A 
ATOM     22  C   UNL A   1      42.732  19.307  25.806  1.00  0.00     0.146 A 
ATOM     23  C   UNL A   1      43.385  21.547  25.262  1.00  0.00     0.146 A 
ATOM     24  F   UNL A   1      41.819  18.416  26.216  1.00  0.00    -0.205 F 
ATOM     25  C   UNL A   1      43.981  18.832  25.414  1.00  0.00     0.041 A 
ATOM     26  C   UNL A   1      44.655  21.087  24.901  1.00  0.00     0.041 A 
ATOM     27  F   UNL A   1      43.139  22.859  25.154  1.00  0.00    -0.205 F 
ATOM     28  C   UNL A   1      44.961  19.728  24.995  1.00  0.00     0.006 A 
ENDBRANCH  18  21
ENDBRANCH  16  18
ENDBRANCH  13  16
ENDBRANCH   7   9
ENDBRANCH   6   7
ENDBRANCH   5   6
ENDBRANCH   4   5
ENDBRANCH   3   4
ENDBRANCH   2   3
ENDBRANCH   1   2
BRANCH   1  29
ATOM     29  O   UNL A   1      31.301  27.685  25.531  1.00  0.00    -0.377 OA
BRANCH  29  30
ATOM     30  C   UNL A   1      32.553  27.530  26.188  1.00  0.00     0.188 C 
BRANCH  30  31
ATOM     31  C   UNL A   1      33.706  28.477  25.926  1.00  0.00     0.188 C 
BRANCH  31  32
ATOM     32  O   UNL A   1      33.176  29.798  25.932  1.00  0.00    -0.376 OA
BRANCH  32  33
ATOM     33  C   UNL A   1      33.059  30.392  27.217  1.00  0.00     0.202 C 
BRANCH  33  34
ATOM     34  C   UNL A   1      34.302  31.191  27.626  1.00  0.00     0.261 C 
BRANCH  34  35
ATOM     35  O   UNL A   1      33.970  32.050  28.738  1.00  0.00    -0.460 OA
BRANCH  35  36
ATOM     36  C   UNL A   1      34.607  33.256  28.774  1.00  0.00     0.338 C 
ATOM     37  O   UNL A   1      34.456  34.155  27.964  1.00  0.00    -0.246 OA
BRANCH  36  38
ATOM     38  C   UNL A   1      35.729  33.207  29.761  1.00  0.00     0.060 A 
ATOM     39  C   UNL A   1      36.997  33.724  29.444  1.00  0.00     0.016 A 
ATOM     40  C   UNL A   1      35.606  32.365  30.852  1.00  0.00     0.016 A 
ATOM     41  C   UNL A   1      38.153  33.228  30.086  1.00  0.00     0.010 A 
ATOM     42  C   UNL A   1      36.750  31.828  31.408  1.00  0.00     0.010 A 
ATOM     43  C   UNL A   1      38.046  32.182  30.996  1.00  0.00    -0.014 A 
BRANCH  43  44
ATOM     44  C   UNL A   1      39.156  31.307  31.471  1.00  0.00     0.031 A 
ATOM     45  C   UNL A   1      39.426  30.019  30.729  1.00  0.00     0.074 A 
ATOM     46  C   UNL A   1      40.118  31.845  32.280  1.00  0.00     0.049 A 
ATOM     47  N   UNL A   1      40.424  29.229  30.937  1.00  0.00    -0.248 NA
ATOM     48  C   UNL A   1      38.599  29.523  29.626  1.00  0.00     0.031 C 
ATOM     49  C   UNL A   1      41.536  31.470  32.363  1.00  0.00     0.029 A 
ATOM     50  N   UNL A   1      40.066  32.929  33.159  1.00  0.00    -0.354 N 
ATOM     51  C   UNL A   1      40.603  28.424  29.819  1.00  0.00     0.074 A 
ATOM     52  C   UNL A   1      39.373  28.572  29.087  1.00  0.00     0.031 C 
ATOM     53  C   UNL A   1      42.205  32.232  33.241  1.00  0.00     0.029 A 
ATOM     54  C   UNL A   1      41.197  32.919  34.002  1.00  0.00     0.049 A 
ATOM     55  H   UNL A   1      39.346  33.601  33.188  1.00  0.00     0.167 HD
ATOM     56  C   UNL A   1      41.835  27.859  29.594  1.00  0.00     0.037 A 
ATOM     57  C   UNL A   1      41.023  32.711  35.341  1.00  0.00     0.037 A 
ATOM     58  C   UNL A   1      42.741  28.098  30.741  1.00  0.00     0.049 A 
ATOM     59  C   UNL A   1      41.495  31.297  35.671  1.00  0.00     0.074 A 
ATOM     60  C   UNL A   1      44.022  28.597  30.890  1.00  0.00     0.029 A 
ATOM     61  N   UNL A   1      42.249  27.954  32.040  1.00  0.00    -0.354 N 
ATOM     62  N   UNL A   1      41.431  30.295  34.817  1.00  0.00    -0.248 NA
ATOM     63  C   UNL A   1      42.353  30.988  36.816  1.00  0.00     0.031 C 
ATOM     64  C   UNL A   1      44.210  28.932  32.266  1.00  0.00     0.029 A 
ATOM     65  C   UNL A   1      43.087  28.524  32.975  1.00  0.00     0.049 A 
ATOM     66  H   UNL A   1      41.405  27.499  32.263  1.00  0.00     0.167 HD
ATOM     67  C   UNL A   1      42.346  29.340  35.176  1.00  0.00     0.074 A 
ATOM     68  C   UNL A   1      42.847  29.786  36.468  1.00  0.00     0.031 C 
ATOM     69  C   UNL A   1      42.833  28.327  34.393  1.00  0.00     0.037 A 
BRANCH  56  70
ATOM     70  C   UNL A   1      42.350  27.243  28.277  1.00  0.00     0.064 A 
ATOM     71  C   UNL A   1      43.057  26.011  28.290  1.00  0.00     0.173 A 
ATOM     72  C   UNL A   1      42.271  27.830  26.993  1.00  0.00     0.173 A 
ATOM     73  F   UNL A   1      43.182  25.297  29.416  1.00  0.00    -0.203 F 
ATOM     74  C   UNL A   1      43.650  25.447  27.148  1.00  0.00     0.198 A 
ATOM     75  C   UNL A   1      42.813  27.233  25.838  1.00  0.00     0.198 A 
ATOM     76  F   UNL A   1      41.704  29.023  26.795  1.00  0.00    -0.203 F 
ATOM     77  F   UNL A   1      44.347  24.305  27.251  1.00  0.00    -0.200 F 
ATOM     78  C   UNL A   1      43.517  26.051  25.918  1.00  0.00     0.200 A 
ATOM     79  F   UNL A   1      42.654  27.827  24.646  1.00  0.00    -0.200 F 
ATOM     80  F   UNL A   1      44.057  25.500  24.821  1.00  0.00    -0.200 F 
ENDBRANCH  56  70
BRANCH  57  81
ATOM     81  C   UNL A   1      39.896  33.585  35.817  1.00  0.00     0.064 A 
ATOM     82  C   UNL A   1      38.790  32.843  36.314  1.00  0.00     0.173 A 
ATOM     83  C   UNL A   1      40.150  34.819  36.442  1.00  0.00     0.173 A 
ATOM     84  F   UNL A   1      38.470  31.669  35.744  1.00  0.00    -0.203 F 
ATOM     85  C   UNL A   1      38.188  33.161  37.534  1.00  0.00     0.198 A 
ATOM     86  C   UNL A   1      39.501  35.158  37.642  1.00  0.00     0.198 A 
ATOM     87  F   UNL A   1      41.173  35.583  36.034  1.00  0.00    -0.203 F 
ATOM     88  F   UNL A   1      37.333  32.296  38.104  1.00  0.00    -0.200 F 
ATOM     89  C   UNL A   1      38.585  34.290  38.224  1.00  0.00     0.200 A 
ATOM     90  F   UNL A   1      39.865  36.259  38.314  1.00  0.00    -0.200 F 
ATOM     91  F   UNL A   1      38.152  34.500  39.477  1.00  0.00    -0.200 F 
ENDBRANCH  57  81
BRANCH  69  92
ATOM     92  C   UNL A   1      43.080  26.945  34.951  1.00  0.00     0.064 A 
ATOM     93  C   UNL A   1      42.065  25.983  35.048  1.00  0.00     0.173 A 
ATOM     94  C   UNL A   1      44.399  26.469  35.177  1.00  0.00     0.173 A 
ATOM     95  F   UNL A   1      40.790  26.274  34.751  1.00  0.00    -0.203 F 
ATOM     96  C   UNL A   1      42.336  24.662  35.395  1.00  0.00     0.198 A 
ATOM     97  C   UNL A   1      44.670  25.135  35.457  1.00  0.00     0.198 A 
ATOM     98  F   UNL A   1      45.475  27.262  35.087  1.00  0.00    -0.203 F 
ATOM     99  F   UNL A   1      41.322  23.795  35.512  1.00  0.00    -0.200 F 
ATOM    100  C   UNL A   1      43.635  24.235  35.585  1.00  0.00     0.200 A 
ATOM    101  F   UNL A   1      45.941  24.724  35.569  1.00  0.00    -0.200 F 
ATOM    102  F   UNL A   1      43.891  22.953  35.873  1.00  0.00    -0.200 F 
ENDBRANCH  69  92
ENDBRANCH  43  44
ENDBRANCH  36  38
ENDBRANCH  35  36
ENDBRANCH  34  35
ENDBRANCH  33  34
ENDBRANCH  32  33
ENDBRANCH  31  32
ENDBRANCH  30  31
ENDBRANCH  29  30
ENDBRANCH   1  29
TORSDOF 23
ENDMDL
