MODEL 1
REMARK VINA RESULT:     -10.6      0.000      0.000
REMARK SMILES O=C(CNc1nc(-c2ccccc2)c(-c2ccccc2)s1)OCCOCCOCCOCCOC(=O)c1ccc(-c2c3nc(c(-c4c(F)c(F)c(F)c(F)c4F)c4ccc([nH]4)c(-c4c(F)c(F)c(F)c(F)c4F)c4nc(c(-c5c(F)c(F)c(F)c(F)c5F)c5ccc2[nH]5)C=C4)C=C3)cc1
REMARK SMILES IDX 27 1 26 2 25 3 24 4 23 5 22 6 2 7 1 8 3 9 4 10 5 12 6 13
REMARK SMILES IDX 21 14 7 15 14 16 8 17 9 18 13 19 10 20 12 21 11 22 15 23
REMARK SMILES IDX 16 24 20 25 17 26 19 27 18 28 28 29 29 30 30 31 31 32 32 33
REMARK SMILES IDX 33 34 34 35 35 36 36 37 37 38 38 39 99 40 39 41 98 42 40 43
REMARK SMILES IDX 41 44 42 45 92 46 43 47 97 48 91 49 93 50 44 51 96 52 90 53
REMARK SMILES IDX 89 54 45 56 77 57 57 58 76 59 58 60 61 61 75 62 94 63 59 64
REMARK SMILES IDX 60 65 74 67 95 68 62 69 46 70 47 71 55 72 48 73 49 74 53 75
REMARK SMILES IDX 56 76 50 77 51 78 54 79 52 80 78 81 79 82 87 83 80 84 81 85
REMARK SMILES IDX 85 86 88 87 82 88 83 89 86 90 84 91 63 92 64 93 72 94 65 95
REMARK SMILES IDX 66 96 70 97 73 98 67 99 68 100 71 101 69 102
REMARK H PARENT 4 11 93 55 61 66
REMARK Flexibility Score: inf
ROOT
ATOM      1  C   UNL A   1      32.672  17.874  24.247  1.00  0.00     0.188 C 
ENDROOT
BRANCH   1   2
ATOM      2  C   UNL A   1      32.597  18.255  25.725  1.00  0.00     0.188 C 
BRANCH   2   3
ATOM      3  O   UNL A   1      32.906  19.575  26.124  1.00  0.00    -0.376 OA
BRANCH   3   4
ATOM      4  C   UNL A   1      33.052  20.705  25.294  1.00  0.00     0.202 C 
BRANCH   4   5
ATOM      5  C   UNL A   1      32.031  21.829  25.204  1.00  0.00     0.261 C 
BRANCH   5   6
ATOM      6  O   UNL A   1      31.537  22.206  23.916  1.00  0.00    -0.462 OA
BRANCH   6   7
ATOM      7  C   UNL A   1      32.154  22.041  22.723  1.00  0.00     0.325 C 
ATOM      8  O   UNL A   1      31.806  21.103  22.007  1.00  0.00    -0.250 OA
BRANCH   7   9
ATOM      9  C   UNL A   1      33.305  22.958  22.322  1.00  0.00     0.238 C 
BRANCH   9  10
ATOM     10  N   UNL A   1      32.834  24.175  21.696  1.00  0.00    -0.351 N 
ATOM     11  H   UNL A   1      32.903  24.268  20.719  1.00  0.00     0.163 HD
BRANCH  10  12
ATOM     12  C   UNL A   1      32.305  25.182  22.415  1.00  0.00     0.184 A 
ATOM     13  N   UNL A   1      31.317  25.972  22.060  1.00  0.00    -0.220 NA
ATOM     14  S   UNL A   1      33.062  25.579  23.902  1.00  0.00    -0.096 S 
ATOM     15  C   UNL A   1      31.188  27.021  22.969  1.00  0.00     0.091 A 
ATOM     16  C   UNL A   1      32.103  26.993  24.011  1.00  0.00     0.064 A 
BRANCH  15  17
ATOM     17  C   UNL A   1      30.115  28.010  22.885  1.00  0.00     0.002 A 
ATOM     18  C   UNL A   1      28.806  27.715  23.300  1.00  0.00     0.010 A 
ATOM     19  C   UNL A   1      30.359  29.230  22.242  1.00  0.00     0.010 A 
ATOM     20  C   UNL A   1      27.752  28.583  23.000  1.00  0.00     0.001 A 
ATOM     21  C   UNL A   1      29.303  30.096  21.942  1.00  0.00     0.001 A 
ATOM     22  C   UNL A   1      27.998  29.763  22.302  1.00  0.00     0.000 A 
ENDBRANCH  15  17
BRANCH  16  23
ATOM     23  C   UNL A   1      32.286  27.856  25.169  1.00  0.00    -0.006 A 
ATOM     24  C   UNL A   1      33.137  28.967  25.107  1.00  0.00     0.009 A 
ATOM     25  C   UNL A   1      31.627  27.552  26.365  1.00  0.00     0.009 A 
ATOM     26  C   UNL A   1      33.349  29.747  26.245  1.00  0.00     0.001 A 
ATOM     27  C   UNL A   1      31.843  28.329  27.499  1.00  0.00     0.001 A 
ATOM     28  C   UNL A   1      32.710  29.419  27.440  1.00  0.00     0.000 A 
ENDBRANCH  16  23
ENDBRANCH  10  12
ENDBRANCH   9  10
ENDBRANCH   7   9
ENDBRANCH   6   7
ENDBRANCH   5   6
ENDBRANCH   4   5
ENDBRANCH   3   4
ENDBRANCH   2   3
ENDBRANCH   1   2
BRANCH   1  29
ATOM     29  O   UNL A   1      33.976  17.725  23.703  1.00  0.00    -0.377 OA
BRANCH  29  30
ATOM     30  C   UNL A   1      34.918  17.166  24.597  1.00  0.00     0.188 C 
BRANCH  30  31
ATOM     31  C   UNL A   1      36.091  18.096  24.990  1.00  0.00     0.188 C 
BRANCH  31  32
ATOM     32  O   UNL A   1      36.117  19.471  24.647  1.00  0.00    -0.376 OA
BRANCH  32  33
ATOM     33  C   UNL A   1      37.207  20.295  25.023  1.00  0.00     0.202 C 
BRANCH  33  34
ATOM     34  C   UNL A   1      38.624  19.723  25.198  1.00  0.00     0.261 C 
BRANCH  34  35
ATOM     35  O   UNL A   1      39.496  20.441  26.079  1.00  0.00    -0.460 OA
BRANCH  35  36
ATOM     36  C   UNL A   1      40.790  20.049  26.090  1.00  0.00     0.338 C 
ATOM     37  O   UNL A   1      41.261  19.007  25.665  1.00  0.00    -0.246 OA
BRANCH  36  38
ATOM     38  C   UNL A   1      41.609  21.200  26.524  1.00  0.00     0.060 A 
ATOM     39  C   UNL A   1      41.900  21.346  27.891  1.00  0.00     0.016 A 
ATOM     40  C   UNL A   1      42.126  22.096  25.588  1.00  0.00     0.016 A 
ATOM     41  C   UNL A   1      42.708  22.393  28.328  1.00  0.00     0.010 A 
ATOM     42  C   UNL A   1      42.894  23.171  26.030  1.00  0.00     0.010 A 
ATOM     43  C   UNL A   1      43.162  23.338  27.403  1.00  0.00    -0.014 A 
BRANCH  43  44
ATOM     44  C   UNL A   1      43.674  24.644  27.868  1.00  0.00     0.031 A 
ATOM     45  C   UNL A   1      42.658  25.689  28.227  1.00  0.00     0.074 A 
ATOM     46  C   UNL A   1      44.987  24.917  27.914  1.00  0.00     0.049 A 
ATOM     47  N   UNL A   1      42.819  26.961  28.473  1.00  0.00    -0.248 NA
ATOM     48  C   UNL A   1      41.261  25.230  28.293  1.00  0.00     0.031 C 
ATOM     49  C   UNL A   1      46.059  23.968  27.636  1.00  0.00     0.029 A 
ATOM     50  N   UNL A   1      45.633  26.099  28.177  1.00  0.00    -0.354 N 
ATOM     51  C   UNL A   1      41.543  27.460  28.691  1.00  0.00     0.074 A 
ATOM     52  C   UNL A   1      40.618  26.360  28.533  1.00  0.00     0.031 C 
ATOM     53  C   UNL A   1      47.235  24.616  27.697  1.00  0.00     0.029 A 
ATOM     54  C   UNL A   1      46.987  26.032  27.972  1.00  0.00     0.049 A 
ATOM     55  H   UNL A   1      45.172  26.913  28.481  1.00  0.00     0.167 HD
ATOM     56  C   UNL A   1      41.176  28.728  28.990  1.00  0.00     0.037 A 
ATOM     57  C   UNL A   1      47.909  27.015  27.958  1.00  0.00     0.037 A 
ATOM     58  C   UNL A   1      42.107  29.814  29.128  1.00  0.00     0.049 A 
ATOM     59  C   UNL A   1      47.480  28.436  28.227  1.00  0.00     0.074 A 
ATOM     60  C   UNL A   1      41.852  31.131  29.457  1.00  0.00     0.029 A 
ATOM     61  N   UNL A   1      43.476  29.707  28.922  1.00  0.00    -0.354 N 
ATOM     62  N   UNL A   1      46.277  28.907  28.459  1.00  0.00    -0.248 NA
ATOM     63  C   UNL A   1      48.533  29.460  28.231  1.00  0.00     0.031 C 
ATOM     64  C   UNL A   1      43.056  31.838  29.382  1.00  0.00     0.029 A 
ATOM     65  C   UNL A   1      44.075  30.945  29.083  1.00  0.00     0.049 A 
ATOM     66  H   UNL A   1      43.950  28.875  28.695  1.00  0.00     0.167 HD
ATOM     67  C   UNL A   1      46.432  30.271  28.669  1.00  0.00     0.074 A 
ATOM     68  C   UNL A   1      47.846  30.554  28.535  1.00  0.00     0.031 C 
ATOM     69  C   UNL A   1      45.489  31.204  28.956  1.00  0.00     0.037 A 
BRANCH  56  70
ATOM     70  C   UNL A   1      39.705  29.004  29.115  1.00  0.00     0.064 A 
ATOM     71  C   UNL A   1      39.031  28.911  30.343  1.00  0.00     0.173 A 
ATOM     72  C   UNL A   1      38.953  29.339  27.979  1.00  0.00     0.173 A 
ATOM     73  F   UNL A   1      39.698  28.576  31.457  1.00  0.00    -0.203 F 
ATOM     74  C   UNL A   1      37.653  29.096  30.419  1.00  0.00     0.198 A 
ATOM     75  C   UNL A   1      37.583  29.562  28.066  1.00  0.00     0.198 A 
ATOM     76  F   UNL A   1      39.547  29.441  26.780  1.00  0.00    -0.203 F 
ATOM     77  F   UNL A   1      37.019  28.926  31.587  1.00  0.00    -0.200 F 
ATOM     78  C   UNL A   1      36.931  29.426  29.282  1.00  0.00     0.200 A 
ATOM     79  F   UNL A   1      36.889  29.894  26.968  1.00  0.00    -0.200 F 
ATOM     80  F   UNL A   1      35.603  29.599  29.355  1.00  0.00    -0.200 F 
ENDBRANCH  56  70
BRANCH  57  81
ATOM     81  C   UNL A   1      49.324  26.683  27.647  1.00  0.00     0.064 A 
ATOM     82  C   UNL A   1      50.262  26.478  28.666  1.00  0.00     0.173 A 
ATOM     83  C   UNL A   1      49.759  26.532  26.320  1.00  0.00     0.173 A 
ATOM     84  F   UNL A   1      49.901  26.634  29.948  1.00  0.00    -0.203 F 
ATOM     85  C   UNL A   1      51.581  26.136  28.372  1.00  0.00     0.198 A 
ATOM     86  C   UNL A   1      51.071  26.163  26.029  1.00  0.00     0.198 A 
ATOM     87  F   UNL A   1      48.900  26.718  25.307  1.00  0.00    -0.203 F 
ATOM     88  F   UNL A   1      52.465  25.972  29.366  1.00  0.00    -0.200 F 
ATOM     89  C   UNL A   1      51.981  25.968  27.055  1.00  0.00     0.200 A 
ATOM     90  F   UNL A   1      51.447  25.987  24.755  1.00  0.00    -0.200 F 
ATOM     91  F   UNL A   1      53.245  25.620  26.775  1.00  0.00    -0.200 F 
ENDBRANCH  57  81
BRANCH  69  92
ATOM     92  C   UNL A   1      45.949  32.613  29.202  1.00  0.00     0.064 A 
ATOM     93  C   UNL A   1      45.999  33.570  28.178  1.00  0.00     0.173 A 
ATOM     94  C   UNL A   1      46.262  33.032  30.506  1.00  0.00     0.173 A 
ATOM     95  F   UNL A   1      45.721  33.220  26.912  1.00  0.00    -0.203 F 
ATOM     96  C   UNL A   1      46.358  34.889  28.447  1.00  0.00     0.198 A 
ATOM     97  C   UNL A   1      46.587  34.356  30.777  1.00  0.00     0.198 A 
ATOM     98  F   UNL A   1      46.221  32.158  31.524  1.00  0.00    -0.203 F 
ATOM     99  F   UNL A   1      46.433  35.778  27.448  1.00  0.00    -0.200 F 
ATOM    100  C   UNL A   1      46.640  35.283  29.748  1.00  0.00     0.200 A 
ATOM    101  F   UNL A   1      46.840  34.739  32.036  1.00  0.00    -0.200 F 
ATOM    102  F   UNL A   1      46.964  36.557  30.008  1.00  0.00    -0.200 F 
ENDBRANCH  69  92
ENDBRANCH  43  44
ENDBRANCH  36  38
ENDBRANCH  35  36
ENDBRANCH  34  35
ENDBRANCH  33  34
ENDBRANCH  32  33
ENDBRANCH  31  32
ENDBRANCH  30  31
ENDBRANCH  29  30
ENDBRANCH   1  29
TORSDOF 24
ENDMDL
MODEL 2
REMARK VINA RESULT:     -10.5      1.938      7.822
REMARK SMILES O=C(CNc1nc(-c2ccccc2)c(-c2ccccc2)s1)OCCOCCOCCOCCOC(=O)c1ccc(-c2c3nc(c(-c4c(F)c(F)c(F)c(F)c4F)c4ccc([nH]4)c(-c4c(F)c(F)c(F)c(F)c4F)c4nc(c(-c5c(F)c(F)c(F)c(F)c5F)c5ccc2[nH]5)C=C4)C=C3)cc1
REMARK SMILES IDX 27 1 26 2 25 3 24 4 23 5 22 6 2 7 1 8 3 9 4 10 5 12 6 13
REMARK SMILES IDX 21 14 7 15 14 16 8 17 9 18 13 19 10 20 12 21 11 22 15 23
REMARK SMILES IDX 16 24 20 25 17 26 19 27 18 28 28 29 29 30 30 31 31 32 32 33
REMARK SMILES IDX 33 34 34 35 35 36 36 37 37 38 38 39 99 40 39 41 98 42 40 43
REMARK SMILES IDX 41 44 42 45 92 46 43 47 97 48 91 49 93 50 44 51 96 52 90 53
REMARK SMILES IDX 89 54 45 56 77 57 57 58 76 59 58 60 61 61 75 62 94 63 59 64
REMARK SMILES IDX 60 65 74 67 95 68 62 69 46 70 47 71 55 72 48 73 49 74 53 75
REMARK SMILES IDX 56 76 50 77 51 78 54 79 52 80 78 81 79 82 87 83 80 84 81 85
REMARK SMILES IDX 85 86 88 87 82 88 83 89 86 90 84 91 63 92 64 93 72 94 65 95
REMARK SMILES IDX 66 96 70 97 73 98 67 99 68 100 71 101 69 102
REMARK H PARENT 4 11 93 55 61 66
REMARK Flexibility Score: inf
ROOT
ATOM      1  C   UNL A   1      39.203  23.169  26.903  1.00  0.00     0.188 C 
ENDROOT
BRANCH   1   2
ATOM      2  C   UNL A   1      38.251  22.925  25.733  1.00  0.00     0.188 C 
BRANCH   2   3
ATOM      3  O   UNL A   1      37.393  21.802  25.751  1.00  0.00    -0.376 OA
BRANCH   3   4
ATOM      4  C   UNL A   1      36.456  21.428  24.767  1.00  0.00     0.202 C 
BRANCH   4   5
ATOM      5  C   UNL A   1      35.284  20.492  25.024  1.00  0.00     0.261 C 
BRANCH   5   6
ATOM      6  O   UNL A   1      34.002  21.059  25.308  1.00  0.00    -0.462 OA
BRANCH   6   7
ATOM      7  C   UNL A   1      32.849  20.854  24.631  1.00  0.00     0.325 C 
ATOM      8  O   UNL A   1      32.107  19.944  24.998  1.00  0.00    -0.250 OA
BRANCH   7   9
ATOM      9  C   UNL A   1      32.526  21.689  23.396  1.00  0.00     0.238 C 
BRANCH   9  10
ATOM     10  N   UNL A   1      33.422  22.817  23.257  1.00  0.00    -0.351 N 
ATOM     11  H   UNL A   1      34.334  22.666  22.922  1.00  0.00     0.163 HD
BRANCH  10  12
ATOM     12  C   UNL A   1      33.039  24.068  23.574  1.00  0.00     0.184 A 
ATOM     13  N   UNL A   1      33.290  24.712  24.691  1.00  0.00    -0.220 NA
ATOM     14  S   UNL A   1      32.009  24.886  22.474  1.00  0.00    -0.096 S 
ATOM     15  C   UNL A   1      32.559  25.898  24.739  1.00  0.00     0.091 A 
ATOM     16  C   UNL A   1      31.758  26.123  23.630  1.00  0.00     0.064 A 
BRANCH  15  17
ATOM     17  C   UNL A   1      32.701  26.869  25.822  1.00  0.00     0.002 A 
ATOM     18  C   UNL A   1      31.663  27.108  26.738  1.00  0.00     0.010 A 
ATOM     19  C   UNL A   1      33.836  27.688  25.861  1.00  0.00     0.010 A 
ATOM     20  C   UNL A   1      31.725  28.196  27.615  1.00  0.00     0.001 A 
ATOM     21  C   UNL A   1      33.895  28.774  26.739  1.00  0.00     0.001 A 
ATOM     22  C   UNL A   1      32.832  29.041  27.600  1.00  0.00     0.000 A 
ENDBRANCH  15  17
BRANCH  16  23
ATOM     23  C   UNL A   1      30.886  27.231  23.267  1.00  0.00    -0.006 A 
ATOM     24  C   UNL A   1      29.511  27.178  23.535  1.00  0.00     0.009 A 
ATOM     25  C   UNL A   1      31.424  28.346  22.617  1.00  0.00     0.009 A 
ATOM     26  C   UNL A   1      28.681  28.221  23.125  1.00  0.00     0.001 A 
ATOM     27  C   UNL A   1      30.592  29.384  22.206  1.00  0.00     0.001 A 
ATOM     28  C   UNL A   1      29.222  29.316  22.452  1.00  0.00     0.000 A 
ENDBRANCH  16  23
ENDBRANCH  10  12
ENDBRANCH   9  10
ENDBRANCH   7   9
ENDBRANCH   6   7
ENDBRANCH   5   6
ENDBRANCH   4   5
ENDBRANCH   3   4
ENDBRANCH   2   3
ENDBRANCH   1   2
BRANCH   1  29
ATOM     29  O   UNL A   1      40.583  23.269  26.580  1.00  0.00    -0.377 OA
BRANCH  29  30
ATOM     30  C   UNL A   1      41.199  22.033  26.279  1.00  0.00     0.188 C 
BRANCH  30  31
ATOM     31  C   UNL A   1      41.202  20.997  27.428  1.00  0.00     0.188 C 
BRANCH  31  32
ATOM     32  O   UNL A   1      42.284  20.107  27.646  1.00  0.00    -0.376 OA
BRANCH  32  33
ATOM     33  C   UNL A   1      42.263  18.791  27.122  1.00  0.00     0.202 C 
BRANCH  33  34
ATOM     34  C   UNL A   1      43.053  18.419  25.856  1.00  0.00     0.261 C 
BRANCH  34  35
ATOM     35  O   UNL A   1      43.229  19.459  24.886  1.00  0.00    -0.460 OA
BRANCH  35  36
ATOM     36  C   UNL A   1      44.491  19.653  24.440  1.00  0.00     0.338 C 
ATOM     37  O   UNL A   1      45.179  18.888  23.783  1.00  0.00    -0.246 OA
BRANCH  36  38
ATOM     38  C   UNL A   1      44.853  21.062  24.700  1.00  0.00     0.060 A 
ATOM     39  C   UNL A   1      45.320  21.415  25.976  1.00  0.00     0.016 A 
ATOM     40  C   UNL A   1      44.781  22.012  23.682  1.00  0.00     0.016 A 
ATOM     41  C   UNL A   1      45.714  22.725  26.242  1.00  0.00     0.010 A 
ATOM     42  C   UNL A   1      45.129  23.333  23.959  1.00  0.00     0.010 A 
ATOM     43  C   UNL A   1      45.568  23.697  25.247  1.00  0.00    -0.014 A 
BRANCH  43  44
ATOM     44  C   UNL A   1      45.599  25.131  25.602  1.00  0.00     0.031 A 
ATOM     45  C   UNL A   1      46.929  25.822  25.544  1.00  0.00     0.074 A 
ATOM     46  C   UNL A   1      44.503  25.784  26.020  1.00  0.00     0.049 A 
ATOM     47  N   UNL A   1      47.278  27.002  25.981  1.00  0.00    -0.248 NA
ATOM     48  C   UNL A   1      48.022  25.058  24.921  1.00  0.00     0.031 C 
ATOM     49  C   UNL A   1      43.155  25.228  26.071  1.00  0.00     0.029 A 
ATOM     50  N   UNL A   1      44.370  27.055  26.521  1.00  0.00    -0.354 N 
ATOM     51  C   UNL A   1      48.636  27.108  25.716  1.00  0.00     0.074 A 
ATOM     52  C   UNL A   1      49.051  25.870  25.097  1.00  0.00     0.031 C 
ATOM     53  C   UNL A   1      42.334  26.140  26.620  1.00  0.00     0.029 A 
ATOM     54  C   UNL A   1      43.113  27.319  26.999  1.00  0.00     0.049 A 
ATOM     55  H   UNL A   1      45.104  27.710  26.536  1.00  0.00     0.167 HD
ATOM     56  C   UNL A   1      49.464  28.146  25.975  1.00  0.00     0.037 A 
ATOM     57  C   UNL A   1      42.661  28.373  27.709  1.00  0.00     0.037 A 
ATOM     58  C   UNL A   1      49.039  29.365  26.606  1.00  0.00     0.049 A 
ATOM     59  C   UNL A   1      43.610  29.495  28.050  1.00  0.00     0.074 A 
ATOM     60  C   UNL A   1      49.783  30.494  26.891  1.00  0.00     0.029 A 
ATOM     61  N   UNL A   1      47.752  29.602  27.070  1.00  0.00    -0.354 N 
ATOM     62  N   UNL A   1      44.888  29.610  27.778  1.00  0.00    -0.248 NA
ATOM     63  C   UNL A   1      43.053  30.633  28.795  1.00  0.00     0.031 C 
ATOM     64  C   UNL A   1      48.966  31.387  27.590  1.00  0.00     0.029 A 
ATOM     65  C   UNL A   1      47.689  30.848  27.671  1.00  0.00     0.049 A 
ATOM     66  H   UNL A   1      46.996  28.978  26.984  1.00  0.00     0.167 HD
ATOM     67  C   UNL A   1      45.282  30.841  28.288  1.00  0.00     0.074 A 
ATOM     68  C   UNL A   1      44.105  31.437  28.887  1.00  0.00     0.031 C 
ATOM     69  C   UNL A   1      46.504  31.429  28.254  1.00  0.00     0.037 A 
BRANCH  56  70
ATOM     70  C   UNL A   1      50.916  27.967  25.634  1.00  0.00     0.064 A 
ATOM     71  C   UNL A   1      51.409  28.177  24.337  1.00  0.00     0.173 A 
ATOM     72  C   UNL A   1      51.823  27.547  26.619  1.00  0.00     0.173 A 
ATOM     73  F   UNL A   1      50.582  28.560  23.353  1.00  0.00    -0.203 F 
ATOM     74  C   UNL A   1      52.744  27.929  24.029  1.00  0.00     0.198 A 
ATOM     75  C   UNL A   1      53.165  27.338  26.317  1.00  0.00     0.198 A 
ATOM     76  F   UNL A   1      51.405  27.331  27.876  1.00  0.00    -0.203 F 
ATOM     77  F   UNL A   1      53.176  28.062  22.767  1.00  0.00    -0.200 F 
ATOM     78  C   UNL A   1      53.621  27.514  25.019  1.00  0.00     0.200 A 
ATOM     79  F   UNL A   1      54.014  26.950  27.278  1.00  0.00    -0.200 F 
ATOM     80  F   UNL A   1      54.906  27.270  24.721  1.00  0.00    -0.200 F 
ENDBRANCH  56  70
BRANCH  57  81
ATOM     81  C   UNL A   1      41.248  28.392  28.166  1.00  0.00     0.064 A 
ATOM     82  C   UNL A   1      40.890  27.929  29.438  1.00  0.00     0.173 A 
ATOM     83  C   UNL A   1      40.228  28.907  27.349  1.00  0.00     0.173 A 
ATOM     84  F   UNL A   1      41.824  27.407  30.247  1.00  0.00    -0.203 F 
ATOM     85  C   UNL A   1      39.568  27.978  29.876  1.00  0.00     0.198 A 
ATOM     86  C   UNL A   1      38.912  28.981  27.799  1.00  0.00     0.198 A 
ATOM     87  F   UNL A   1      40.518  29.363  26.121  1.00  0.00    -0.203 F 
ATOM     88  F   UNL A   1      39.249  27.503  31.089  1.00  0.00    -0.200 F 
ATOM     89  C   UNL A   1      38.582  28.514  29.062  1.00  0.00     0.200 A 
ATOM     90  F   UNL A   1      37.966  29.513  27.013  1.00  0.00    -0.200 F 
ATOM     91  F   UNL A   1      37.315  28.578  29.492  1.00  0.00    -0.200 F 
ENDBRANCH  57  81
BRANCH  69  92
ATOM     92  C   UNL A   1      46.634  32.810  28.831  1.00  0.00     0.064 A 
ATOM     93  C   UNL A   1      47.034  33.029  30.157  1.00  0.00     0.173 A 
ATOM     94  C   UNL A   1      46.436  33.934  28.012  1.00  0.00     0.173 A 
ATOM     95  F   UNL A   1      47.226  31.991  30.985  1.00  0.00    -0.203 F 
ATOM     96  C   UNL A   1      47.220  34.321  30.645  1.00  0.00     0.198 A 
ATOM     97  C   UNL A   1      46.653  35.221  28.492  1.00  0.00     0.198 A 
ATOM     98  F   UNL A   1      46.060  33.780  26.733  1.00  0.00    -0.203 F 
ATOM     99  F   UNL A   1      47.569  34.508  31.924  1.00  0.00    -0.200 F 
ATOM    100  C   UNL A   1      47.040  35.415  29.809  1.00  0.00     0.200 A 
ATOM    101  F   UNL A   1      46.498  36.274  27.678  1.00  0.00    -0.200 F 
ATOM    102  F   UNL A   1      47.239  36.656  30.274  1.00  0.00    -0.200 F 
ENDBRANCH  69  92
ENDBRANCH  43  44
ENDBRANCH  36  38
ENDBRANCH  35  36
ENDBRANCH  34  35
ENDBRANCH  33  34
ENDBRANCH  32  33
ENDBRANCH  31  32
ENDBRANCH  30  31
ENDBRANCH  29  30
ENDBRANCH   1  29
TORSDOF 24
ENDMDL
MODEL 3
REMARK VINA RESULT:     -10.5      1.874      7.545
REMARK SMILES O=C(CNc1nc(-c2ccccc2)c(-c2ccccc2)s1)OCCOCCOCCOCCOC(=O)c1ccc(-c2c3nc(c(-c4c(F)c(F)c(F)c(F)c4F)c4ccc([nH]4)c(-c4c(F)c(F)c(F)c(F)c4F)c4nc(c(-c5c(F)c(F)c(F)c(F)c5F)c5ccc2[nH]5)C=C4)C=C3)cc1
REMARK SMILES IDX 27 1 26 2 25 3 24 4 23 5 22 6 2 7 1 8 3 9 4 10 5 12 6 13
REMARK SMILES IDX 21 14 7 15 14 16 8 17 9 18 13 19 10 20 12 21 11 22 15 23
REMARK SMILES IDX 16 24 20 25 17 26 19 27 18 28 28 29 29 30 30 31 31 32 32 33
REMARK SMILES IDX 33 34 34 35 35 36 36 37 37 38 38 39 99 40 39 41 98 42 40 43
REMARK SMILES IDX 41 44 42 45 92 46 43 47 97 48 91 49 93 50 44 51 96 52 90 53
REMARK SMILES IDX 89 54 45 56 77 57 57 58 76 59 58 60 61 61 75 62 94 63 59 64
REMARK SMILES IDX 60 65 74 67 95 68 62 69 46 70 47 71 55 72 48 73 49 74 53 75
REMARK SMILES IDX 56 76 50 77 51 78 54 79 52 80 78 81 79 82 87 83 80 84 81 85
REMARK SMILES IDX 85 86 88 87 82 88 83 89 86 90 84 91 63 92 64 93 72 94 65 95
REMARK SMILES IDX 66 96 70 97 73 98 67 99 68 100 71 101 69 102
REMARK H PARENT 4 11 93 55 61 66
REMARK Flexibility Score: inf
ROOT
ATOM      1  C   UNL A   1      39.230  22.800  26.811  1.00  0.00     0.188 C 
ENDROOT
BRANCH   1   2
ATOM      2  C   UNL A   1      38.146  22.756  25.735  1.00  0.00     0.188 C 
BRANCH   2   3
ATOM      3  O   UNL A   1      37.112  21.797  25.822  1.00  0.00    -0.376 OA
BRANCH   3   4
ATOM      4  C   UNL A   1      36.278  21.344  24.780  1.00  0.00     0.202 C 
BRANCH   4   5
ATOM      5  C   UNL A   1      35.047  20.477  24.996  1.00  0.00     0.261 C 
BRANCH   5   6
ATOM      6  O   UNL A   1      33.769  21.113  25.100  1.00  0.00    -0.462 OA
BRANCH   6   7
ATOM      7  C   UNL A   1      32.629  20.767  24.460  1.00  0.00     0.325 C 
ATOM      8  O   UNL A   1      31.932  19.875  24.943  1.00  0.00    -0.250 OA
BRANCH   7   9
ATOM      9  C   UNL A   1      32.268  21.420  23.130  1.00  0.00     0.238 C 
BRANCH   9  10
ATOM     10  N   UNL A   1      32.953  22.682  22.944  1.00  0.00    -0.351 N 
ATOM     11  H   UNL A   1      33.808  22.695  22.458  1.00  0.00     0.163 HD
BRANCH  10  12
ATOM     12  C   UNL A   1      32.450  23.837  23.418  1.00  0.00     0.184 A 
ATOM     13  N   UNL A   1      31.561  24.610  22.835  1.00  0.00    -0.220 NA
ATOM     14  S   UNL A   1      33.112  24.453  24.875  1.00  0.00    -0.096 S 
ATOM     15  C   UNL A   1      31.444  25.815  23.525  1.00  0.00     0.091 A 
ATOM     16  C   UNL A   1      32.266  25.922  24.638  1.00  0.00     0.064 A 
BRANCH  15  17
ATOM     17  C   UNL A   1      30.466  26.840  23.164  1.00  0.00     0.002 A 
ATOM     18  C   UNL A   1      30.844  28.019  22.502  1.00  0.00     0.010 A 
ATOM     19  C   UNL A   1      29.147  26.714  23.617  1.00  0.00     0.010 A 
ATOM     20  C   UNL A   1      29.946  29.083  22.374  1.00  0.00     0.001 A 
ATOM     21  C   UNL A   1      28.250  27.779  23.488  1.00  0.00     0.001 A 
ATOM     22  C   UNL A   1      28.655  28.970  22.887  1.00  0.00     0.000 A 
ENDBRANCH  15  17
BRANCH  16  23
ATOM     23  C   UNL A   1      32.422  26.970  25.635  1.00  0.00    -0.006 A 
ATOM     24  C   UNL A   1      31.424  27.206  26.590  1.00  0.00     0.009 A 
ATOM     25  C   UNL A   1      33.569  27.770  25.618  1.00  0.00     0.009 A 
ATOM     26  C   UNL A   1      31.563  28.255  27.499  1.00  0.00     0.001 A 
ATOM     27  C   UNL A   1      33.703  28.819  26.524  1.00  0.00     0.001 A 
ATOM     28  C   UNL A   1      32.697  29.066  27.456  1.00  0.00     0.000 A 
ENDBRANCH  16  23
ENDBRANCH  10  12
ENDBRANCH   9  10
ENDBRANCH   7   9
ENDBRANCH   6   7
ENDBRANCH   5   6
ENDBRANCH   4   5
ENDBRANCH   3   4
ENDBRANCH   2   3
ENDBRANCH   1   2
BRANCH   1  29
ATOM     29  O   UNL A   1      40.527  23.186  26.380  1.00  0.00    -0.377 OA
BRANCH  29  30
ATOM     30  C   UNL A   1      41.453  22.121  26.299  1.00  0.00     0.188 C 
BRANCH  30  31
ATOM     31  C   UNL A   1      41.337  21.056  27.415  1.00  0.00     0.188 C 
BRANCH  31  32
ATOM     32  O   UNL A   1      42.372  20.126  27.688  1.00  0.00    -0.376 OA
BRANCH  32  33
ATOM     33  C   UNL A   1      42.338  18.818  27.145  1.00  0.00     0.202 C 
BRANCH  33  34
ATOM     34  C   UNL A   1      43.079  18.470  25.843  1.00  0.00     0.261 C 
BRANCH  34  35
ATOM     35  O   UNL A   1      43.280  19.545  24.918  1.00  0.00    -0.460 OA
BRANCH  35  36
ATOM     36  C   UNL A   1      44.549  19.738  24.491  1.00  0.00     0.338 C 
ATOM     37  O   UNL A   1      45.240  18.979  23.832  1.00  0.00    -0.246 OA
BRANCH  36  38
ATOM     38  C   UNL A   1      44.916  21.140  24.778  1.00  0.00     0.060 A 
ATOM     39  C   UNL A   1      45.323  21.480  26.078  1.00  0.00     0.016 A 
ATOM     40  C   UNL A   1      44.908  22.097  23.763  1.00  0.00     0.016 A 
ATOM     41  C   UNL A   1      45.722  22.782  26.371  1.00  0.00     0.010 A 
ATOM     42  C   UNL A   1      45.260  23.411  24.066  1.00  0.00     0.010 A 
ATOM     43  C   UNL A   1      45.638  23.762  25.376  1.00  0.00    -0.014 A 
BRANCH  43  44
ATOM     44  C   UNL A   1      45.671  25.194  25.742  1.00  0.00     0.031 A 
ATOM     45  C   UNL A   1      47.006  25.879  25.707  1.00  0.00     0.074 A 
ATOM     46  C   UNL A   1      44.573  25.849  26.148  1.00  0.00     0.049 A 
ATOM     47  N   UNL A   1      47.354  27.054  26.157  1.00  0.00    -0.248 NA
ATOM     48  C   UNL A   1      48.104  25.113  25.095  1.00  0.00     0.031 C 
ATOM     49  C   UNL A   1      43.222  25.300  26.176  1.00  0.00     0.029 A 
ATOM     50  N   UNL A   1      44.439  27.117  26.656  1.00  0.00    -0.354 N 
ATOM     51  C   UNL A   1      48.716  27.155  25.912  1.00  0.00     0.074 A 
ATOM     52  C   UNL A   1      49.134  25.919  25.291  1.00  0.00     0.031 C 
ATOM     53  C   UNL A   1      42.397  26.212  26.719  1.00  0.00     0.029 A 
ATOM     54  C   UNL A   1      43.176  27.385  27.117  1.00  0.00     0.049 A 
ATOM     55  H   UNL A   1      45.176  27.769  26.685  1.00  0.00     0.167 HD
ATOM     56  C   UNL A   1      49.545  28.187  26.190  1.00  0.00     0.037 A 
ATOM     57  C   UNL A   1      42.719  28.436  27.827  1.00  0.00     0.037 A 
ATOM     58  C   UNL A   1      49.117  29.404  26.823  1.00  0.00     0.049 A 
ATOM     59  C   UNL A   1      43.668  29.551  28.189  1.00  0.00     0.074 A 
ATOM     60  C   UNL A   1      49.863  30.527  27.127  1.00  0.00     0.029 A 
ATOM     61  N   UNL A   1      47.825  29.645  27.270  1.00  0.00    -0.354 N 
ATOM     62  N   UNL A   1      44.951  29.662  27.937  1.00  0.00    -0.248 NA
ATOM     63  C   UNL A   1      43.106  30.687  28.934  1.00  0.00     0.031 C 
ATOM     64  C   UNL A   1      49.039  31.420  27.820  1.00  0.00     0.029 A 
ATOM     65  C   UNL A   1      47.759  30.887  27.879  1.00  0.00     0.049 A 
ATOM     66  H   UNL A   1      47.067  29.025  27.169  1.00  0.00     0.167 HD
ATOM     67  C   UNL A   1      45.343  30.887  28.460  1.00  0.00     0.074 A 
ATOM     68  C   UNL A   1      44.160  31.485  29.047  1.00  0.00     0.031 C 
ATOM     69  C   UNL A   1      46.568  31.470  28.448  1.00  0.00     0.037 A 
BRANCH  56  70
ATOM     70  C   UNL A   1      51.001  28.003  25.869  1.00  0.00     0.064 A 
ATOM     71  C   UNL A   1      51.514  28.218  24.580  1.00  0.00     0.173 A 
ATOM     72  C   UNL A   1      51.892  27.575  26.865  1.00  0.00     0.173 A 
ATOM     73  F   UNL A   1      50.702  28.609  23.587  1.00  0.00    -0.203 F 
ATOM     74  C   UNL A   1      52.852  27.964  24.290  1.00  0.00     0.198 A 
ATOM     75  C   UNL A   1      53.237  27.361  26.581  1.00  0.00     0.198 A 
ATOM     76  F   UNL A   1      51.456  27.354  28.115  1.00  0.00    -0.203 F 
ATOM     77  F   UNL A   1      53.302  28.102  23.036  1.00  0.00    -0.200 F 
ATOM     78  C   UNL A   1      53.713  27.541  25.291  1.00  0.00     0.200 A 
ATOM     79  F   UNL A   1      54.071  26.965  27.553  1.00  0.00    -0.200 F 
ATOM     80  F   UNL A   1      55.000  27.293  25.010  1.00  0.00    -0.200 F 
ENDBRANCH  56  70
BRANCH  57  81
ATOM     81  C   UNL A   1      41.299  28.459  28.264  1.00  0.00     0.064 A 
ATOM     82  C   UNL A   1      40.922  27.995  29.530  1.00  0.00     0.173 A 
ATOM     83  C   UNL A   1      40.293  28.979  27.433  1.00  0.00     0.173 A 
ATOM     84  F   UNL A   1      41.842  27.468  30.351  1.00  0.00    -0.203 F 
ATOM     85  C   UNL A   1      39.594  28.047  29.949  1.00  0.00     0.198 A 
ATOM     86  C   UNL A   1      38.971  29.056  27.865  1.00  0.00     0.198 A 
ATOM     87  F   UNL A   1      40.603  29.436  26.211  1.00  0.00    -0.203 F 
ATOM     88  F   UNL A   1      39.256  27.571  31.156  1.00  0.00    -0.200 F 
ATOM     89  C   UNL A   1      38.622  28.588  29.121  1.00  0.00     0.200 A 
ATOM     90  F   UNL A   1      38.039  29.594  27.066  1.00  0.00    -0.200 F 
ATOM     91  F   UNL A   1      37.348  28.655  29.534  1.00  0.00    -0.200 F 
ENDBRANCH  57  81
BRANCH  69  92
ATOM     92  C   UNL A   1      46.697  32.846  29.036  1.00  0.00     0.064 A 
ATOM     93  C   UNL A   1      46.478  34.004  28.277  1.00  0.00     0.173 A 
ATOM     94  C   UNL A   1      46.960  33.001  30.408  1.00  0.00     0.173 A 
ATOM     95  F   UNL A   1      46.235  33.913  26.960  1.00  0.00    -0.203 F 
ATOM     96  C   UNL A   1      46.531  35.267  28.865  1.00  0.00     0.198 A 
ATOM     97  C   UNL A   1      46.979  34.260  30.998  1.00  0.00     0.198 A 
ATOM     98  F   UNL A   1      47.168  31.925  31.182  1.00  0.00    -0.203 F 
ATOM     99  F   UNL A   1      46.354  36.361  28.113  1.00  0.00    -0.200 F 
ATOM    100  C   UNL A   1      46.769  35.392  30.226  1.00  0.00     0.200 A 
ATOM    101  F   UNL A   1      47.190  34.378  32.316  1.00  0.00    -0.200 F 
ATOM    102  F   UNL A   1      46.798  36.606  30.793  1.00  0.00    -0.200 F 
ENDBRANCH  69  92
ENDBRANCH  43  44
ENDBRANCH  36  38
ENDBRANCH  35  36
ENDBRANCH  34  35
ENDBRANCH  33  34
ENDBRANCH  32  33
ENDBRANCH  31  32
ENDBRANCH  30  31
ENDBRANCH  29  30
ENDBRANCH   1  29
TORSDOF 24
ENDMDL
