MODEL 1
REMARK VINA RESULT:     -10.4      0.000      0.000
REMARK SMILES Cc1cc(C(=O)N[C@H](C(=O)OCCOCCOCCOCCOC(=O)c2ccc(-c3c4nc(c(-c5c(F)c(F)c(F)c(F)c5F)c5ccc([nH]5)c(-c5c(F)c(F)c(F)c(F)c5F)c5nc(c(-c6c(F)c(F)c(F)c(F)c6F)c6ccc3[nH]6)C=C5)C=C4)cc2)c2c(C)n[nH]c2C)c2ccc(C)c(C)c2n1
REMARK SMILES IDX 17 1 16 2 15 3 14 4 13 5 12 6 11 7 9 8 10 9 8 10 7 11 5 12
REMARK SMILES IDX 6 13 4 15 1 16 2 17 3 18 104 19 103 20 96 21 101 22 97 23
REMARK SMILES IDX 99 24 102 25 98 26 100 27 89 28 90 29 94 30 91 31 92 32
REMARK SMILES IDX 93 33 95 34 18 36 19 37 20 38 21 39 22 40 23 41 24 42 25 43
REMARK SMILES IDX 26 44 27 45 88 46 28 47 87 48 29 49 30 50 31 51 81 52 32 53
REMARK SMILES IDX 86 54 80 55 82 56 33 57 85 58 79 59 78 60 34 62 66 63 46 64
REMARK SMILES IDX 65 65 47 66 50 67 64 68 83 69 48 70 49 71 63 73 84 74 51 75
REMARK SMILES IDX 35 76 36 77 44 78 37 79 38 80 42 81 45 82 39 83 40 84 43 85
REMARK SMILES IDX 41 86 67 87 68 88 76 89 69 90 70 91 74 92 77 93 71 94 72 95
REMARK SMILES IDX 75 96 73 97 52 98 53 99 61 100 54 101 55 102 59 103 62 104
REMARK SMILES IDX 56 105 57 106 60 107 58 108
REMARK H PARENT 7 14 93 35 82 61 50 72
REMARK Flexibility Score: inf
ROOT
ATOM      1  O   UNL A   1      41.160  20.232  26.413  1.00  0.00    -0.377 OA
ENDROOT
BRANCH   1   2
ATOM      2  C   UNL A   1      40.592  21.416  25.891  1.00  0.00     0.188 C 
BRANCH   2   3
ATOM      3  C   UNL A   1      40.034  22.382  26.962  1.00  0.00     0.188 C 
BRANCH   3   4
ATOM      4  O   UNL A   1      39.629  23.705  26.638  1.00  0.00    -0.376 OA
BRANCH   4   5
ATOM      5  C   UNL A   1      38.272  24.121  26.656  1.00  0.00     0.202 C 
BRANCH   5   6
ATOM      6  C   UNL A   1      37.240  23.618  25.651  1.00  0.00     0.261 C 
BRANCH   6   7
ATOM      7  O   UNL A   1      36.036  24.379  25.600  1.00  0.00    -0.461 OA
BRANCH   7   8
ATOM      8  C   UNL A   1      34.891  23.721  25.900  1.00  0.00     0.333 C 
ATOM      9  O   UNL A   1      34.844  22.765  26.665  1.00  0.00    -0.249 OA
BRANCH   8  10
ATOM     10  C   UNL A   1      33.656  24.372  25.213  1.00  0.00     0.227 C 
BRANCH  10  11
ATOM     11  N   UNL A   1      33.633  24.649  23.776  1.00  0.00    -0.335 N 
ATOM     12  C   UNL A   1      33.253  25.712  22.997  1.00  0.00     0.252 C 
ATOM     13  O   UNL A   1      33.637  25.672  21.827  1.00  0.00    -0.269 OA
ATOM     14  H   UNL A   1      33.969  23.893  23.243  1.00  0.00     0.165 HD
BRANCH  12  15
ATOM     15  C   UNL A   1      32.405  26.847  23.490  1.00  0.00     0.051 A 
ATOM     16  C   UNL A   1      29.009  28.283  22.724  1.00  0.00     0.067 C 
ATOM     17  C   UNL A   1      30.338  28.060  23.373  1.00  0.00     0.039 A 
ATOM     18  C   UNL A   1      31.069  26.925  23.111  1.00  0.00     0.038 A 
ATOM     19  N   UNL A   1      30.819  29.038  24.142  1.00  0.00    -0.253 NA
ATOM     20  C   UNL A   1      32.026  28.897  24.706  1.00  0.00     0.074 A 
ATOM     21  C   UNL A   1      32.901  27.833  24.380  1.00  0.00     0.013 A 
ATOM     22  C   UNL A   1      32.372  29.828  25.687  1.00  0.00    -0.022 A 
ATOM     23  C   UNL A   1      34.166  27.810  25.003  1.00  0.00     0.011 A 
ATOM     24  C   UNL A   1      33.555  29.673  26.423  1.00  0.00    -0.046 A 
ATOM     25  C   UNL A   1      31.382  30.926  26.004  1.00  0.00     0.047 C 
ATOM     26  C   UNL A   1      34.462  28.684  26.040  1.00  0.00     0.004 A 
ATOM     27  C   UNL A   1      33.845  30.537  27.610  1.00  0.00     0.044 C 
ENDBRANCH  12  15
ENDBRANCH  10  11
BRANCH  10  28
ATOM     28  C   UNL A   1      32.366  23.767  25.704  1.00  0.00     0.029 A 
ATOM     29  C   UNL A   1      31.399  24.493  26.475  1.00  0.00     0.065 A 
ATOM     30  C   UNL A   1      31.807  22.499  25.581  1.00  0.00     0.038 A 
ATOM     31  C   UNL A   1      31.382  25.945  26.803  1.00  0.00     0.069 C 
ATOM     32  N   UNL A   1      30.413  23.704  26.904  1.00  0.00    -0.180 NA
ATOM     33  N   UNL A   1      30.712  22.504  26.404  1.00  0.00    -0.282 N 
ATOM     34  C   UNL A   1      32.152  21.265  24.830  1.00  0.00     0.066 C 
ATOM     35  H   UNL A   1      30.191  21.694  26.607  1.00  0.00     0.190 HD
ENDBRANCH  10  28
ENDBRANCH   8  10
ENDBRANCH   7   8
ENDBRANCH   6   7
ENDBRANCH   5   6
ENDBRANCH   4   5
ENDBRANCH   3   4
ENDBRANCH   2   3
ENDBRANCH   1   2
BRANCH   1  36
ATOM     36  C   UNL A   1      42.529  19.982  26.127  1.00  0.00     0.188 C 
BRANCH  36  37
ATOM     37  C   UNL A   1      42.995  18.521  25.920  1.00  0.00     0.188 C 
BRANCH  37  38
ATOM     38  O   UNL A   1      44.080  18.388  25.018  1.00  0.00    -0.376 OA
BRANCH  38  39
ATOM     39  C   UNL A   1      45.402  18.478  25.520  1.00  0.00     0.202 C 
BRANCH  39  40
ATOM     40  C   UNL A   1      46.285  19.623  25.004  1.00  0.00     0.261 C 
BRANCH  40  41
ATOM     41  O   UNL A   1      46.063  20.919  25.579  1.00  0.00    -0.460 OA
BRANCH  41  42
ATOM     42  C   UNL A   1      45.383  21.826  24.853  1.00  0.00     0.338 C 
ATOM     43  O   UNL A   1      44.629  21.613  23.915  1.00  0.00    -0.246 OA
BRANCH  42  44
ATOM     44  C   UNL A   1      45.582  23.143  25.487  1.00  0.00     0.060 A 
ATOM     45  C   UNL A   1      45.648  23.249  26.884  1.00  0.00     0.016 A 
ATOM     46  C   UNL A   1      45.678  24.280  24.682  1.00  0.00     0.016 A 
ATOM     47  C   UNL A   1      45.769  24.503  27.484  1.00  0.00     0.010 A 
ATOM     48  C   UNL A   1      45.757  25.535  25.283  1.00  0.00     0.010 A 
ATOM     49  C   UNL A   1      45.761  25.653  26.683  1.00  0.00    -0.014 A 
BRANCH  49  50
ATOM     50  C   UNL A   1      45.509  26.980  27.288  1.00  0.00     0.031 A 
ATOM     51  C   UNL A   1      46.687  27.857  27.580  1.00  0.00     0.074 A 
ATOM     52  C   UNL A   1      44.281  27.362  27.669  1.00  0.00     0.049 A 
ATOM     53  N   UNL A   1      46.728  29.001  28.209  1.00  0.00    -0.248 NA
ATOM     54  C   UNL A   1      47.997  27.355  27.138  1.00  0.00     0.031 C 
ATOM     55  C   UNL A   1      43.081  26.561  27.501  1.00  0.00     0.029 A 
ATOM     56  N   UNL A   1      43.853  28.498  28.314  1.00  0.00    -0.354 N 
ATOM     57  C   UNL A   1      48.069  29.348  28.255  1.00  0.00     0.074 A 
ATOM     58  C   UNL A   1      48.810  28.283  27.615  1.00  0.00     0.031 C 
ATOM     59  C   UNL A   1      42.056  27.225  28.057  1.00  0.00     0.029 A 
ATOM     60  C   UNL A   1      42.506  28.505  28.576  1.00  0.00     0.049 A 
ATOM     61  H   UNL A   1      44.455  29.238  28.563  1.00  0.00     0.167 HD
ATOM     62  C   UNL A   1      48.629  30.457  28.791  1.00  0.00     0.037 A 
ATOM     63  C   UNL A   1      41.718  29.427  29.161  1.00  0.00     0.037 A 
ATOM     64  C   UNL A   1      47.889  31.491  29.465  1.00  0.00     0.049 A 
ATOM     65  C   UNL A   1      42.357  30.659  29.732  1.00  0.00     0.074 A 
ATOM     66  C   UNL A   1      48.368  32.650  30.048  1.00  0.00     0.029 A 
ATOM     67  N   UNL A   1      46.514  31.485  29.659  1.00  0.00    -0.354 N 
ATOM     68  N   UNL A   1      43.622  31.000  29.738  1.00  0.00    -0.248 NA
ATOM     69  C   UNL A   1      41.468  31.620  30.398  1.00  0.00     0.031 C 
ATOM     70  C   UNL A   1      47.293  33.319  30.639  1.00  0.00     0.029 A 
ATOM     71  C   UNL A   1      46.131  32.613  30.367  1.00  0.00     0.049 A 
ATOM     72  H   UNL A   1      45.901  30.782  29.341  1.00  0.00     0.167 HD
ATOM     73  C   UNL A   1      43.683  32.211  30.409  1.00  0.00     0.074 A 
ATOM     74  C   UNL A   1      42.323  32.566  30.760  1.00  0.00     0.031 C 
ATOM     75  C   UNL A   1      44.775  32.952  30.720  1.00  0.00     0.037 A 
BRANCH  62  76
ATOM     76  C   UNL A   1      50.119  30.580  28.691  1.00  0.00     0.064 A 
ATOM     77  C   UNL A   1      50.733  31.191  27.587  1.00  0.00     0.173 A 
ATOM     78  C   UNL A   1      50.945  30.094  29.716  1.00  0.00     0.173 A 
ATOM     79  F   UNL A   1      49.988  31.650  26.569  1.00  0.00    -0.203 F 
ATOM     80  C   UNL A   1      52.118  31.285  27.499  1.00  0.00     0.198 A 
ATOM     81  C   UNL A   1      52.328  30.223  29.641  1.00  0.00     0.198 A 
ATOM     82  F   UNL A   1      50.409  29.497  30.791  1.00  0.00    -0.203 F 
ATOM     83  F   UNL A   1      52.683  31.819  26.407  1.00  0.00    -0.200 F 
ATOM     84  C   UNL A   1      52.914  30.810  28.530  1.00  0.00     0.200 A 
ATOM     85  F   UNL A   1      53.096  29.773  30.644  1.00  0.00    -0.200 F 
ATOM     86  F   UNL A   1      54.248  30.910  28.449  1.00  0.00    -0.200 F 
ENDBRANCH  62  76
BRANCH  63  87
ATOM     87  C   UNL A   1      40.236  29.261  29.181  1.00  0.00     0.064 A 
ATOM     88  C   UNL A   1      39.585  28.913  30.376  1.00  0.00     0.173 A 
ATOM     89  C   UNL A   1      39.438  29.482  28.050  1.00  0.00     0.173 A 
ATOM     90  F   UNL A   1      40.302  28.676  31.484  1.00  0.00    -0.203 F 
ATOM     91  C   UNL A   1      38.197  28.800  30.439  1.00  0.00     0.198 A 
ATOM     92  C   UNL A   1      38.046  29.399  28.123  1.00  0.00     0.198 A 
ATOM     93  F   UNL A   1      40.004  29.831  26.886  1.00  0.00    -0.203 F 
ATOM     94  F   UNL A   1      37.606  28.458  31.593  1.00  0.00    -0.200 F 
ATOM     95  C   UNL A   1      37.427  29.058  29.317  1.00  0.00     0.200 A 
ATOM     96  F   UNL A   1      37.304  29.686  27.044  1.00  0.00    -0.200 F 
ATOM     97  F   UNL A   1      36.091  28.994  29.388  1.00  0.00    -0.200 F 
ENDBRANCH  63  87
BRANCH  75  98
ATOM     98  C   UNL A   1      44.545  34.228  31.473  1.00  0.00     0.064 A 
ATOM     99  C   UNL A   1      44.254  35.431  30.812  1.00  0.00     0.173 A 
ATOM    100  C   UNL A   1      44.570  34.239  32.876  1.00  0.00     0.173 A 
ATOM    101  F   UNL A   1      44.236  35.478  29.471  1.00  0.00    -0.203 F 
ATOM    102  C   UNL A   1      44.017  36.601  31.527  1.00  0.00     0.198 A 
ATOM    103  C   UNL A   1      44.297  35.402  33.588  1.00  0.00     0.198 A 
ATOM    104  F   UNL A   1      44.841  33.114  33.556  1.00  0.00    -0.203 F 
ATOM    105  F   UNL A   1      43.788  37.749  30.873  1.00  0.00    -0.200 F 
ATOM    106  C   UNL A   1      44.028  36.583  32.914  1.00  0.00     0.200 A 
ATOM    107  F   UNL A   1      44.294  35.380  34.928  1.00  0.00    -0.200 F 
ATOM    108  F   UNL A   1      43.786  37.708  33.601  1.00  0.00    -0.200 F 
ENDBRANCH  75  98
ENDBRANCH  49  50
ENDBRANCH  42  44
ENDBRANCH  41  42
ENDBRANCH  40  41
ENDBRANCH  39  40
ENDBRANCH  38  39
ENDBRANCH  37  38
ENDBRANCH  36  37
ENDBRANCH   1  36
TORSDOF 23
ENDMDL
MODEL 2
REMARK VINA RESULT:     -10.1      5.053     10.820
REMARK SMILES Cc1cc(C(=O)N[C@H](C(=O)OCCOCCOCCOCCOC(=O)c2ccc(-c3c4nc(c(-c5c(F)c(F)c(F)c(F)c5F)c5ccc([nH]5)c(-c5c(F)c(F)c(F)c(F)c5F)c5nc(c(-c6c(F)c(F)c(F)c(F)c6F)c6ccc3[nH]6)C=C5)C=C4)cc2)c2c(C)n[nH]c2C)c2ccc(C)c(C)c2n1
REMARK SMILES IDX 17 1 16 2 15 3 14 4 13 5 12 6 11 7 9 8 10 9 8 10 7 11 5 12
REMARK SMILES IDX 6 13 4 15 1 16 2 17 3 18 104 19 103 20 96 21 101 22 97 23
REMARK SMILES IDX 99 24 102 25 98 26 100 27 89 28 90 29 94 30 91 31 92 32
REMARK SMILES IDX 93 33 95 34 18 36 19 37 20 38 21 39 22 40 23 41 24 42 25 43
REMARK SMILES IDX 26 44 27 45 88 46 28 47 87 48 29 49 30 50 31 51 81 52 32 53
REMARK SMILES IDX 86 54 80 55 82 56 33 57 85 58 79 59 78 60 34 62 66 63 46 64
REMARK SMILES IDX 65 65 47 66 50 67 64 68 83 69 48 70 49 71 63 73 84 74 51 75
REMARK SMILES IDX 35 76 36 77 44 78 37 79 38 80 42 81 45 82 39 83 40 84 43 85
REMARK SMILES IDX 41 86 67 87 68 88 76 89 69 90 70 91 74 92 77 93 71 94 72 95
REMARK SMILES IDX 75 96 73 97 52 98 53 99 61 100 54 101 55 102 59 103 62 104
REMARK SMILES IDX 56 105 57 106 60 107 58 108
REMARK H PARENT 7 14 93 35 82 61 50 72
REMARK Flexibility Score: inf
ROOT
ATOM      1  O   UNL A   1      33.144  32.025  27.365  1.00  0.00    -0.377 OA
ENDROOT
BRANCH   1   2
ATOM      2  C   UNL A   1      33.094  30.614  27.422  1.00  0.00     0.188 C 
BRANCH   2   3
ATOM      3  C   UNL A   1      34.167  29.903  26.565  1.00  0.00     0.188 C 
BRANCH   3   4
ATOM      4  O   UNL A   1      33.845  28.805  25.721  1.00  0.00    -0.376 OA
BRANCH   4   5
ATOM      5  C   UNL A   1      33.413  27.550  26.222  1.00  0.00     0.202 C 
BRANCH   5   6
ATOM      6  C   UNL A   1      33.923  26.221  25.673  1.00  0.00     0.261 C 
BRANCH   6   7
ATOM      7  O   UNL A   1      34.095  26.186  24.258  1.00  0.00    -0.461 OA
BRANCH   7   8
ATOM      8  C   UNL A   1      33.828  25.009  23.644  1.00  0.00     0.333 C 
ATOM      9  O   UNL A   1      34.692  24.304  23.136  1.00  0.00    -0.249 OA
BRANCH   8  10
ATOM     10  C   UNL A   1      32.318  24.644  23.727  1.00  0.00     0.227 C 
BRANCH  10  11
ATOM     11  N   UNL A   1      31.740  24.031  24.924  1.00  0.00    -0.335 N 
ATOM     12  C   UNL A   1      32.037  22.935  25.694  1.00  0.00     0.252 C 
ATOM     13  O   UNL A   1      31.474  22.893  26.789  1.00  0.00    -0.269 OA
ATOM     14  H   UNL A   1      30.951  24.520  25.253  1.00  0.00     0.165 HD
BRANCH  12  15
ATOM     15  C   UNL A   1      32.952  21.831  25.257  1.00  0.00     0.051 A 
ATOM     16  C   UNL A   1      32.607  18.420  23.699  1.00  0.00     0.067 C 
ATOM     17  C   UNL A   1      33.217  19.664  24.261  1.00  0.00     0.039 A 
ATOM     18  C   UNL A   1      32.454  20.784  24.489  1.00  0.00     0.038 A 
ATOM     19  N   UNL A   1      34.504  19.614  24.609  1.00  0.00    -0.253 NA
ATOM     20  C   UNL A   1      35.079  20.693  25.157  1.00  0.00     0.074 A 
ATOM     21  C   UNL A   1      34.339  21.832  25.555  1.00  0.00     0.013 A 
ATOM     22  C   UNL A   1      36.470  20.672  25.274  1.00  0.00    -0.022 A 
ATOM     23  C   UNL A   1      35.043  22.892  26.164  1.00  0.00     0.011 A 
ATOM     24  C   UNL A   1      37.161  21.811  25.707  1.00  0.00    -0.046 A 
ATOM     25  C   UNL A   1      37.202  19.434  24.808  1.00  0.00     0.047 C 
ATOM     26  C   UNL A   1      36.431  22.899  26.190  1.00  0.00     0.004 A 
ATOM     27  C   UNL A   1      38.654  21.879  25.647  1.00  0.00     0.044 C 
ENDBRANCH  12  15
ENDBRANCH  10  11
BRANCH  10  28
ATOM     28  C   UNL A   1      31.451  25.743  23.167  1.00  0.00     0.029 A 
ATOM     29  C   UNL A   1      31.594  26.256  21.836  1.00  0.00     0.065 A 
ATOM     30  C   UNL A   1      30.405  26.489  23.700  1.00  0.00     0.038 A 
ATOM     31  C   UNL A   1      32.461  25.747  20.738  1.00  0.00     0.069 C 
ATOM     32  N   UNL A   1      30.806  27.312  21.625  1.00  0.00    -0.180 NA
ATOM     33  N   UNL A   1      30.148  27.466  22.775  1.00  0.00    -0.282 N 
ATOM     34  C   UNL A   1      29.617  26.448  24.958  1.00  0.00     0.066 C 
ATOM     35  H   UNL A   1      29.532  28.214  22.943  1.00  0.00     0.190 HD
ENDBRANCH  10  28
ENDBRANCH   8  10
ENDBRANCH   7   8
ENDBRANCH   6   7
ENDBRANCH   5   6
ENDBRANCH   4   5
ENDBRANCH   3   4
ENDBRANCH   2   3
ENDBRANCH   1   2
BRANCH   1  36
ATOM     36  C   UNL A   1      34.062  32.683  28.227  1.00  0.00     0.188 C 
BRANCH  36  37
ATOM     37  C   UNL A   1      34.539  34.109  27.863  1.00  0.00     0.188 C 
BRANCH  37  38
ATOM     38  O   UNL A   1      34.328  35.063  28.889  1.00  0.00    -0.376 OA
BRANCH  38  39
ATOM     39  C   UNL A   1      33.331  36.053  28.708  1.00  0.00     0.202 C 
BRANCH  39  40
ATOM     40  C   UNL A   1      32.609  36.577  29.958  1.00  0.00     0.261 C 
BRANCH  40  41
ATOM     41  O   UNL A   1      33.335  36.517  31.195  1.00  0.00    -0.460 OA
BRANCH  41  42
ATOM     42  C   UNL A   1      33.048  35.517  32.050  1.00  0.00     0.338 C 
ATOM     43  O   UNL A   1      32.003  35.333  32.654  1.00  0.00    -0.246 OA
BRANCH  42  44
ATOM     44  C   UNL A   1      34.178  34.570  32.020  1.00  0.00     0.060 A 
ATOM     45  C   UNL A   1      33.983  33.228  32.379  1.00  0.00     0.016 A 
ATOM     46  C   UNL A   1      35.445  35.031  31.657  1.00  0.00     0.016 A 
ATOM     47  C   UNL A   1      35.066  32.350  32.417  1.00  0.00     0.010 A 
ATOM     48  C   UNL A   1      36.534  34.163  31.733  1.00  0.00     0.010 A 
ATOM     49  C   UNL A   1      36.354  32.835  32.152  1.00  0.00    -0.014 A 
BRANCH  49  50
ATOM     50  C   UNL A   1      37.542  32.043  32.544  1.00  0.00     0.031 A 
ATOM     51  C   UNL A   1      38.221  32.381  33.834  1.00  0.00     0.074 A 
ATOM     52  C   UNL A   1      38.073  31.116  31.733  1.00  0.00     0.049 A 
ATOM     53  N   UNL A   1      39.336  31.912  34.328  1.00  0.00    -0.248 NA
ATOM     54  C   UNL A   1      37.577  33.417  34.656  1.00  0.00     0.031 C 
ATOM     55  C   UNL A   1      37.539  30.760  30.429  1.00  0.00     0.029 A 
ATOM     56  N   UNL A   1      39.202  30.342  31.868  1.00  0.00    -0.354 N 
ATOM     57  C   UNL A   1      39.537  32.608  35.509  1.00  0.00     0.074 A 
ATOM     58  C   UNL A   1      38.446  33.548  35.646  1.00  0.00     0.031 C 
ATOM     59  C   UNL A   1      38.360  29.854  29.876  1.00  0.00     0.029 A 
ATOM     60  C   UNL A   1      39.443  29.532  30.788  1.00  0.00     0.049 A 
ATOM     61  H   UNL A   1      39.781  30.367  32.665  1.00  0.00     0.167 HD
ATOM     62  C   UNL A   1      40.549  32.475  36.397  1.00  0.00     0.037 A 
ATOM     63  C   UNL A   1      40.417  28.631  30.552  1.00  0.00     0.037 A 
ATOM     64  C   UNL A   1      41.654  31.569  36.233  1.00  0.00     0.049 A 
ATOM     65  C   UNL A   1      41.519  28.486  31.559  1.00  0.00     0.074 A 
ATOM     66  C   UNL A   1      42.733  31.367  37.075  1.00  0.00     0.029 A 
ATOM     67  N   UNL A   1      41.832  30.722  35.147  1.00  0.00    -0.354 N 
ATOM     68  N   UNL A   1      41.684  29.119  32.694  1.00  0.00    -0.248 NA
ATOM     69  C   UNL A   1      42.584  27.524  31.244  1.00  0.00     0.031 C 
ATOM     70  C   UNL A   1      43.588  30.438  36.475  1.00  0.00     0.029 A 
ATOM     71  C   UNL A   1      43.011  30.007  35.291  1.00  0.00     0.049 A 
ATOM     72  H   UNL A   1      41.211  30.641  34.386  1.00  0.00     0.167 HD
ATOM     73  C   UNL A   1      42.868  28.637  33.228  1.00  0.00     0.074 A 
ATOM     74  C   UNL A   1      43.361  27.628  32.312  1.00  0.00     0.031 C 
ATOM     75  C   UNL A   1      43.498  29.012  34.368  1.00  0.00     0.037 A 
BRANCH  62  76
ATOM     76  C   UNL A   1      40.512  33.360  37.607  1.00  0.00     0.064 A 
ATOM     77  C   UNL A   1      39.671  33.080  38.694  1.00  0.00     0.173 A 
ATOM     78  C   UNL A   1      41.333  34.494  37.686  1.00  0.00     0.173 A 
ATOM     79  F   UNL A   1      38.847  32.020  38.656  1.00  0.00    -0.203 F 
ATOM     80  C   UNL A   1      39.633  33.918  39.804  1.00  0.00     0.198 A 
ATOM     81  C   UNL A   1      41.319  35.310  38.813  1.00  0.00     0.198 A 
ATOM     82  F   UNL A   1      42.151  34.810  36.671  1.00  0.00    -0.203 F 
ATOM     83  F   UNL A   1      38.779  33.663  40.806  1.00  0.00    -0.200 F 
ATOM     84  C   UNL A   1      40.464  35.026  39.867  1.00  0.00     0.200 A 
ATOM     85  F   UNL A   1      42.131  36.374  38.878  1.00  0.00    -0.200 F 
ATOM     86  F   UNL A   1      40.435  35.826  40.941  1.00  0.00    -0.200 F 
ENDBRANCH  62  76
BRANCH  63  87
ATOM     87  C   UNL A   1      40.364  27.751  29.350  1.00  0.00     0.064 A 
ATOM     88  C   UNL A   1      41.192  28.018  28.247  1.00  0.00     0.173 A 
ATOM     89  C   UNL A   1      39.542  26.617  29.282  1.00  0.00     0.173 A 
ATOM     90  F   UNL A   1      41.987  29.097  28.254  1.00  0.00    -0.203 F 
ATOM     91  C   UNL A   1      41.203  27.184  27.130  1.00  0.00     0.198 A 
ATOM     92  C   UNL A   1      39.578  25.766  28.176  1.00  0.00     0.198 A 
ATOM     93  F   UNL A   1      38.742  26.305  30.312  1.00  0.00    -0.203 F 
ATOM     94  F   UNL A   1      41.998  27.471  26.090  1.00  0.00    -0.200 F 
ATOM     95  C   UNL A   1      40.407  26.050  27.101  1.00  0.00     0.200 A 
ATOM     96  F   UNL A   1      38.834  24.651  28.169  1.00  0.00    -0.200 F 
ATOM     97  F   UNL A   1      40.451  25.224  26.047  1.00  0.00    -0.200 F 
ENDBRANCH  63  87
BRANCH  75  98
ATOM     98  C   UNL A   1      44.788  28.323  34.699  1.00  0.00     0.064 A 
ATOM     99  C   UNL A   1      44.820  27.146  35.462  1.00  0.00     0.173 A 
ATOM    100  C   UNL A   1      46.004  28.819  34.204  1.00  0.00     0.173 A 
ATOM    101  F   UNL A   1      43.687  26.642  35.973  1.00  0.00    -0.203 F 
ATOM    102  C   UNL A   1      46.024  26.504  35.737  1.00  0.00     0.198 A 
ATOM    103  C   UNL A   1      47.201  28.155  34.450  1.00  0.00     0.198 A 
ATOM    104  F   UNL A   1      46.027  29.939  33.465  1.00  0.00    -0.203 F 
ATOM    105  F   UNL A   1      46.036  25.409  36.509  1.00  0.00    -0.200 F 
ATOM    106  C   UNL A   1      47.212  27.003  35.221  1.00  0.00     0.200 A 
ATOM    107  F   UNL A   1      48.345  28.629  33.939  1.00  0.00    -0.200 F 
ATOM    108  F   UNL A   1      48.368  26.376  35.475  1.00  0.00    -0.200 F 
ENDBRANCH  75  98
ENDBRANCH  49  50
ENDBRANCH  42  44
ENDBRANCH  41  42
ENDBRANCH  40  41
ENDBRANCH  39  40
ENDBRANCH  38  39
ENDBRANCH  37  38
ENDBRANCH  36  37
ENDBRANCH   1  36
TORSDOF 23
ENDMDL
MODEL 3
REMARK VINA RESULT:      -9.9      2.493      3.179
REMARK SMILES Cc1cc(C(=O)N[C@H](C(=O)OCCOCCOCCOCCOC(=O)c2ccc(-c3c4nc(c(-c5c(F)c(F)c(F)c(F)c5F)c5ccc([nH]5)c(-c5c(F)c(F)c(F)c(F)c5F)c5nc(c(-c6c(F)c(F)c(F)c(F)c6F)c6ccc3[nH]6)C=C5)C=C4)cc2)c2c(C)n[nH]c2C)c2ccc(C)c(C)c2n1
REMARK SMILES IDX 17 1 16 2 15 3 14 4 13 5 12 6 11 7 9 8 10 9 8 10 7 11 5 12
REMARK SMILES IDX 6 13 4 15 1 16 2 17 3 18 104 19 103 20 96 21 101 22 97 23
REMARK SMILES IDX 99 24 102 25 98 26 100 27 89 28 90 29 94 30 91 31 92 32
REMARK SMILES IDX 93 33 95 34 18 36 19 37 20 38 21 39 22 40 23 41 24 42 25 43
REMARK SMILES IDX 26 44 27 45 88 46 28 47 87 48 29 49 30 50 31 51 81 52 32 53
REMARK SMILES IDX 86 54 80 55 82 56 33 57 85 58 79 59 78 60 34 62 66 63 46 64
REMARK SMILES IDX 65 65 47 66 50 67 64 68 83 69 48 70 49 71 63 73 84 74 51 75
REMARK SMILES IDX 35 76 36 77 44 78 37 79 38 80 42 81 45 82 39 83 40 84 43 85
REMARK SMILES IDX 41 86 67 87 68 88 76 89 69 90 70 91 74 92 77 93 71 94 72 95
REMARK SMILES IDX 75 96 73 97 52 98 53 99 61 100 54 101 55 102 59 103 62 104
REMARK SMILES IDX 56 105 57 106 60 107 58 108
REMARK H PARENT 7 14 93 35 82 61 50 72
REMARK Flexibility Score: inf
ROOT
ATOM      1  O   UNL A   1      40.494  20.452  27.132  1.00  0.00    -0.377 OA
ENDROOT
BRANCH   1   2
ATOM      2  C   UNL A   1      39.770  21.447  26.436  1.00  0.00     0.188 C 
BRANCH   2   3
ATOM      3  C   UNL A   1      40.270  22.890  26.684  1.00  0.00     0.188 C 
BRANCH   3   4
ATOM      4  O   UNL A   1      39.452  24.021  26.416  1.00  0.00    -0.376 OA
BRANCH   4   5
ATOM      5  C   UNL A   1      38.048  24.023  26.621  1.00  0.00     0.202 C 
BRANCH   5   6
ATOM      6  C   UNL A   1      37.046  23.915  25.477  1.00  0.00     0.261 C 
BRANCH   6   7
ATOM      7  O   UNL A   1      35.750  24.433  25.767  1.00  0.00    -0.461 OA
BRANCH   7   8
ATOM      8  C   UNL A   1      34.719  23.556  25.707  1.00  0.00     0.333 C 
ATOM      9  O   UNL A   1      34.782  22.412  26.142  1.00  0.00    -0.249 OA
BRANCH   8  10
ATOM     10  C   UNL A   1      33.447  24.203  25.087  1.00  0.00     0.227 C 
BRANCH  10  11
ATOM     11  N   UNL A   1      33.345  24.476  23.652  1.00  0.00    -0.335 N 
ATOM     12  C   UNL A   1      32.950  25.548  22.893  1.00  0.00     0.252 C 
ATOM     13  O   UNL A   1      33.261  25.493  21.702  1.00  0.00    -0.269 OA
ATOM     14  H   UNL A   1      33.628  23.709  23.103  1.00  0.00     0.165 HD
BRANCH  12  15
ATOM     15  C   UNL A   1      32.165  26.707  23.431  1.00  0.00     0.051 A 
ATOM     16  C   UNL A   1      28.762  28.224  22.882  1.00  0.00     0.067 C 
ATOM     17  C   UNL A   1      30.126  27.972  23.442  1.00  0.00     0.039 A 
ATOM     18  C   UNL A   1      30.809  26.817  23.142  1.00  0.00     0.038 A 
ATOM     19  N   UNL A   1      30.682  28.943  24.167  1.00  0.00    -0.253 NA
ATOM     20  C   UNL A   1      31.920  28.776  24.651  1.00  0.00     0.074 A 
ATOM     21  C   UNL A   1      32.744  27.687  24.277  1.00  0.00     0.013 A 
ATOM     22  C   UNL A   1      32.355  29.705  25.598  1.00  0.00    -0.022 A 
ATOM     23  C   UNL A   1      34.047  27.637  24.814  1.00  0.00     0.011 A 
ATOM     24  C   UNL A   1      33.580  29.525  26.255  1.00  0.00    -0.046 A 
ATOM     25  C   UNL A   1      31.416  30.830  25.970  1.00  0.00     0.047 C 
ATOM     26  C   UNL A   1      34.434  28.510  25.821  1.00  0.00     0.004 A 
ATOM     27  C   UNL A   1      33.971  30.391  27.411  1.00  0.00     0.044 C 
ENDBRANCH  12  15
ENDBRANCH  10  11
BRANCH  10  28
ATOM     28  C   UNL A   1      32.187  23.597  25.649  1.00  0.00     0.029 A 
ATOM     29  C   UNL A   1      31.255  24.328  26.457  1.00  0.00     0.065 A 
ATOM     30  C   UNL A   1      31.632  22.324  25.571  1.00  0.00     0.038 A 
ATOM     31  C   UNL A   1      31.245  25.784  26.767  1.00  0.00     0.069 C 
ATOM     32  N   UNL A   1      30.297  23.538  26.945  1.00  0.00    -0.180 NA
ATOM     33  N   UNL A   1      30.579  22.334  26.446  1.00  0.00    -0.282 N 
ATOM     34  C   UNL A   1      31.947  21.082  24.820  1.00  0.00     0.066 C 
ATOM     35  H   UNL A   1      30.074  21.523  26.686  1.00  0.00     0.190 HD
ENDBRANCH  10  28
ENDBRANCH   8  10
ENDBRANCH   7   8
ENDBRANCH   6   7
ENDBRANCH   5   6
ENDBRANCH   4   5
ENDBRANCH   3   4
ENDBRANCH   2   3
ENDBRANCH   1   2
BRANCH   1  36
ATOM     36  C   UNL A   1      41.856  20.265  26.776  1.00  0.00     0.188 C 
BRANCH  36  37
ATOM     37  C   UNL A   1      42.356  18.836  26.459  1.00  0.00     0.188 C 
BRANCH  37  38
ATOM     38  O   UNL A   1      42.952  18.707  25.179  1.00  0.00    -0.376 OA
BRANCH  38  39
ATOM     39  C   UNL A   1      44.364  18.666  25.082  1.00  0.00     0.202 C 
BRANCH  39  40
ATOM     40  C   UNL A   1      45.056  19.771  24.271  1.00  0.00     0.261 C 
BRANCH  40  41
ATOM     41  O   UNL A   1      45.204  21.046  24.913  1.00  0.00    -0.460 OA
BRANCH  41  42
ATOM     42  C   UNL A   1      44.727  22.134  24.279  1.00  0.00     0.338 C 
ATOM     43  O   UNL A   1      44.430  22.236  23.098  1.00  0.00    -0.246 OA
BRANCH  42  44
ATOM     44  C   UNL A   1      44.470  23.166  25.300  1.00  0.00     0.060 A 
ATOM     45  C   UNL A   1      44.448  24.522  24.942  1.00  0.00     0.016 A 
ATOM     46  C   UNL A   1      44.275  22.779  26.627  1.00  0.00     0.016 A 
ATOM     47  C   UNL A   1      44.273  25.501  25.921  1.00  0.00     0.010 A 
ATOM     48  C   UNL A   1      44.139  23.759  27.611  1.00  0.00     0.010 A 
ATOM     49  C   UNL A   1      44.180  25.120  27.266  1.00  0.00    -0.014 A 
BRANCH  49  50
ATOM     50  C   UNL A   1      44.371  26.122  28.338  1.00  0.00     0.031 A 
ATOM     51  C   UNL A   1      45.754  26.329  28.872  1.00  0.00     0.074 A 
ATOM     52  C   UNL A   1      43.335  26.762  28.902  1.00  0.00     0.049 A 
ATOM     53  N   UNL A   1      46.149  27.058  29.881  1.00  0.00    -0.248 NA
ATOM     54  C   UNL A   1      46.828  25.579  28.203  1.00  0.00     0.031 C 
ATOM     55  C   UNL A   1      41.946  26.583  28.512  1.00  0.00     0.029 A 
ATOM     56  N   UNL A   1      43.290  27.652  29.948  1.00  0.00    -0.354 N 
ATOM     57  C   UNL A   1      47.514  26.842  29.981  1.00  0.00     0.074 A 
ATOM     58  C   UNL A   1      47.875  25.896  28.947  1.00  0.00     0.031 C 
ATOM     59  C   UNL A   1      41.185  27.323  29.331  1.00  0.00     0.029 A 
ATOM     60  C   UNL A   1      42.018  28.058  30.267  1.00  0.00     0.049 A 
ATOM     61  H   UNL A   1      44.093  27.969  30.424  1.00  0.00     0.167 HD
ATOM     62  C   UNL A   1      48.385  27.385  30.862  1.00  0.00     0.037 A 
ATOM     63  C   UNL A   1      41.568  28.921  31.199  1.00  0.00     0.037 A 
ATOM     64  C   UNL A   1      48.012  28.292  31.914  1.00  0.00     0.049 A 
ATOM     65  C   UNL A   1      42.554  29.526  32.154  1.00  0.00     0.074 A 
ATOM     66  C   UNL A   1      48.822  28.889  32.862  1.00  0.00     0.029 A 
ATOM     67  N   UNL A   1      46.716  28.722  32.167  1.00  0.00    -0.354 N 
ATOM     68  N   UNL A   1      43.850  29.348  32.218  1.00  0.00    -0.248 NA
ATOM     69  C   UNL A   1      42.016  30.428  33.181  1.00  0.00     0.031 C 
ATOM     70  C   UNL A   1      48.012  29.639  33.720  1.00  0.00     0.029 A 
ATOM     71  C   UNL A   1      46.704  29.566  33.267  1.00  0.00     0.049 A 
ATOM     72  H   UNL A   1      45.922  28.466  31.643  1.00  0.00     0.167 HD
ATOM     73  C   UNL A   1      44.284  30.111  33.290  1.00  0.00     0.074 A 
ATOM     74  C   UNL A   1      43.118  30.787  33.823  1.00  0.00     0.031 C 
ATOM     75  C   UNL A   1      45.536  30.226  33.796  1.00  0.00     0.037 A 
BRANCH  62  76
ATOM     76  C   UNL A   1      49.822  26.976  30.734  1.00  0.00     0.064 A 
ATOM     77  C   UNL A   1      50.720  27.696  29.931  1.00  0.00     0.173 A 
ATOM     78  C   UNL A   1      50.311  25.861  31.429  1.00  0.00     0.173 A 
ATOM     79  F   UNL A   1      50.296  28.756  29.225  1.00  0.00    -0.203 F 
ATOM     80  C   UNL A   1      52.048  27.297  29.807  1.00  0.00     0.198 A 
ATOM     81  C   UNL A   1      51.648  25.487  31.333  1.00  0.00     0.198 A 
ATOM     82  F   UNL A   1      49.493  25.135  32.206  1.00  0.00    -0.203 F 
ATOM     83  F   UNL A   1      52.873  27.965  28.989  1.00  0.00    -0.200 F 
ATOM     84  C   UNL A   1      52.513  26.200  30.516  1.00  0.00     0.200 A 
ATOM     85  F   UNL A   1      52.098  24.433  32.027  1.00  0.00    -0.200 F 
ATOM     86  F   UNL A   1      53.793  25.823  30.405  1.00  0.00    -0.200 F 
ENDBRANCH  62  76
BRANCH  63  87
ATOM     87  C   UNL A   1      40.131  29.318  31.237  1.00  0.00     0.064 A 
ATOM     88  C   UNL A   1      39.260  28.714  32.158  1.00  0.00     0.173 A 
ATOM     89  C   UNL A   1      39.604  30.319  30.409  1.00  0.00     0.173 A 
ATOM     90  F   UNL A   1      39.708  27.740  32.964  1.00  0.00    -0.203 F 
ATOM     91  C   UNL A   1      37.923  29.100  32.253  1.00  0.00     0.198 A 
ATOM     92  C   UNL A   1      38.274  30.727  30.527  1.00  0.00     0.198 A 
ATOM     93  F   UNL A   1      40.393  30.940  29.521  1.00  0.00    -0.203 F 
ATOM     94  F   UNL A   1      37.115  28.498  33.137  1.00  0.00    -0.200 F 
ATOM     95  C   UNL A   1      37.435  30.116  31.448  1.00  0.00     0.200 A 
ATOM     96  F   UNL A   1      37.816  31.735  29.772  1.00  0.00    -0.200 F 
ATOM     97  F   UNL A   1      36.163  30.519  31.570  1.00  0.00    -0.200 F 
ENDBRANCH  63  87
BRANCH  75  98
ATOM     98  C   UNL A   1      45.717  31.122  34.984  1.00  0.00     0.064 A 
ATOM     99  C   UNL A   1      45.752  30.615  36.292  1.00  0.00     0.173 A 
ATOM    100  C   UNL A   1      45.906  32.502  34.809  1.00  0.00     0.173 A 
ATOM    101  F   UNL A   1      45.559  29.307  36.514  1.00  0.00    -0.203 F 
ATOM    102  C   UNL A   1      45.948  31.459  37.381  1.00  0.00     0.198 A 
ATOM    103  C   UNL A   1      46.137  33.337  35.897  1.00  0.00     0.198 A 
ATOM    104  F   UNL A   1      45.885  33.036  33.578  1.00  0.00    -0.203 F 
ATOM    105  F   UNL A   1      45.929  30.959  38.625  1.00  0.00    -0.200 F 
ATOM    106  C   UNL A   1      46.151  32.817  37.182  1.00  0.00     0.200 A 
ATOM    107  F   UNL A   1      46.348  34.646  35.702  1.00  0.00    -0.200 F 
ATOM    108  F   UNL A   1      46.353  33.625  38.232  1.00  0.00    -0.200 F 
ENDBRANCH  75  98
ENDBRANCH  49  50
ENDBRANCH  42  44
ENDBRANCH  41  42
ENDBRANCH  40  41
ENDBRANCH  39  40
ENDBRANCH  38  39
ENDBRANCH  37  38
ENDBRANCH  36  37
ENDBRANCH   1  36
TORSDOF 23
ENDMDL
