MODEL 1
REMARK VINA RESULT:     -11.0      0.000      0.000
REMARK SMILES O=C(OCCOCCOCCOCCOC(=O)c1nccnc1C(=O)N1CCC(Cc2ccccc2)CC1)c1ccc(-c2c3nc(c(-c4c(F)c(F)c(F)c(F)c4F)c4ccc([nH]4)c(-c4c(F)c(F)c(F)c(F)c4F)c4nc(c(-c5c(F)c(F)c(F)c(F)c5F)c5ccc2[nH]5)C=C4)C=C3)cc1
REMARK SMILES IDX 10 1 9 2 8 3 7 4 6 5 5 6 4 7 3 8 2 9 1 10 39 11 40 12 101 13
REMARK SMILES IDX 41 14 100 15 42 16 43 17 44 18 94 19 45 20 99 21 93 22 95 23
REMARK SMILES IDX 46 24 98 25 92 26 91 27 47 29 79 30 59 31 78 32 60 33 63 34
REMARK SMILES IDX 77 35 96 36 61 37 62 38 76 40 97 41 64 42 48 43 49 44 57 45
REMARK SMILES IDX 50 46 51 47 55 48 58 49 52 50 53 51 56 52 54 53 80 54 81 55
REMARK SMILES IDX 89 56 82 57 83 58 87 59 90 60 84 61 85 62 88 63 86 64 65 65
REMARK SMILES IDX 66 66 74 67 67 68 68 69 72 70 75 71 69 72 70 73 73 74 71 75
REMARK SMILES IDX 11 76 12 77 13 78 14 79 15 80 16 81 17 82 18 83 19 84 23 85
REMARK SMILES IDX 20 86 22 87 21 88 24 89 25 90 26 91 27 92 38 93 28 94 37 95
REMARK SMILES IDX 29 96 30 97 31 98 32 99 36 100 33 101 35 102 34 103
REMARK H PARENT 95 28 63 39
REMARK Flexibility Score: inf
ROOT
ATOM      1  C   UNL A   1      35.925  30.679  27.623  1.00  0.00     0.188 C 
ENDROOT
BRANCH   1   2
ATOM      2  O   UNL A   1      35.721  31.995  28.115  1.00  0.00    -0.377 OA
BRANCH   2   3
ATOM      3  C   UNL A   1      34.451  32.190  28.731  1.00  0.00     0.188 C 
BRANCH   3   4
ATOM      4  C   UNL A   1      33.601  33.235  28.010  1.00  0.00     0.188 C 
BRANCH   4   5
ATOM      5  O   UNL A   1      34.309  34.470  27.817  1.00  0.00    -0.376 OA
BRANCH   5   6
ATOM      6  C   UNL A   1      34.269  35.333  28.956  1.00  0.00     0.202 C 
BRANCH   6   7
ATOM      7  C   UNL A   1      32.903  35.986  29.187  1.00  0.00     0.261 C 
BRANCH   7   8
ATOM      8  O   UNL A   1      32.246  35.435  30.344  1.00  0.00    -0.460 OA
BRANCH   8   9
ATOM      9  C   UNL A   1      32.571  35.686  31.638  1.00  0.00     0.338 C 
ATOM     10  O   UNL A   1      31.827  36.346  32.355  1.00  0.00    -0.246 OA
BRANCH   9  11
ATOM     11  C   UNL A   1      33.782  35.090  32.244  1.00  0.00     0.060 A 
ATOM     12  C   UNL A   1      34.831  35.847  32.764  1.00  0.00     0.016 A 
ATOM     13  C   UNL A   1      33.808  33.701  32.382  1.00  0.00     0.016 A 
ATOM     14  C   UNL A   1      35.970  35.210  33.271  1.00  0.00     0.010 A 
ATOM     15  C   UNL A   1      34.919  33.071  32.955  1.00  0.00     0.010 A 
ATOM     16  C   UNL A   1      36.051  33.812  33.335  1.00  0.00    -0.014 A 
BRANCH  16  17
ATOM     17  C   UNL A   1      37.349  33.117  33.621  1.00  0.00     0.031 A 
ATOM     18  C   UNL A   1      37.901  33.165  35.031  1.00  0.00     0.074 A 
ATOM     19  C   UNL A   1      37.996  32.371  32.701  1.00  0.00     0.049 A 
ATOM     20  N   UNL A   1      39.075  32.808  35.488  1.00  0.00    -0.248 NA
ATOM     21  C   UNL A   1      37.013  33.724  36.064  1.00  0.00     0.031 C 
ATOM     22  C   UNL A   1      37.543  32.124  31.333  1.00  0.00     0.029 A 
ATOM     23  N   UNL A   1      39.141  31.612  32.808  1.00  0.00    -0.354 N 
ATOM     24  C   UNL A   1      39.092  33.183  36.826  1.00  0.00     0.074 A 
ATOM     25  C   UNL A   1      37.819  33.803  37.111  1.00  0.00     0.031 C 
ATOM     26  C   UNL A   1      38.307  31.163  30.786  1.00  0.00     0.029 A 
ATOM     27  C   UNL A   1      39.364  30.793  31.724  1.00  0.00     0.049 A 
ATOM     28  H   UNL A   1      39.742  31.652  33.586  1.00  0.00     0.167 HD
ATOM     29  C   UNL A   1      40.077  33.015  37.740  1.00  0.00     0.037 A 
ATOM     30  C   UNL A   1      40.293  29.832  31.536  1.00  0.00     0.037 A 
ATOM     31  C   UNL A   1      41.274  32.254  37.505  1.00  0.00     0.049 A 
ATOM     32  C   UNL A   1      41.358  29.616  32.588  1.00  0.00     0.074 A 
ATOM     33  C   UNL A   1      42.367  32.075  38.333  1.00  0.00     0.029 A 
ATOM     34  N   UNL A   1      41.497  31.487  36.373  1.00  0.00    -0.354 N 
ATOM     35  N   UNL A   1      41.468  30.137  33.785  1.00  0.00    -0.248 NA
ATOM     36  C   UNL A   1      42.442  28.680  32.247  1.00  0.00     0.031 C 
ATOM     37  C   UNL A   1      43.257  31.203  37.698  1.00  0.00     0.029 A 
ATOM     38  C   UNL A   1      42.701  30.813  36.491  1.00  0.00     0.049 A 
ATOM     39  H   UNL A   1      40.890  31.428  35.599  1.00  0.00     0.167 HD
ATOM     40  C   UNL A   1      42.624  29.600  34.335  1.00  0.00     0.074 A 
ATOM     41  C   UNL A   1      43.148  28.659  33.369  1.00  0.00     0.031 C 
ATOM     42  C   UNL A   1      43.218  29.884  35.520  1.00  0.00     0.037 A 
BRANCH  29  43
ATOM     43  C   UNL A   1      39.923  33.706  39.064  1.00  0.00     0.064 A 
ATOM     44  C   UNL A   1      39.223  33.137  40.136  1.00  0.00     0.173 A 
ATOM     45  C   UNL A   1      40.514  34.966  39.259  1.00  0.00     0.173 A 
ATOM     46  F   UNL A   1      38.623  31.946  39.994  1.00  0.00    -0.203 F 
ATOM     47  C   UNL A   1      39.095  33.818  41.346  1.00  0.00     0.198 A 
ATOM     48  C   UNL A   1      40.411  35.626  40.479  1.00  0.00     0.198 A 
ATOM     49  F   UNL A   1      41.199  35.552  38.266  1.00  0.00    -0.203 F 
ATOM     50  F   UNL A   1      38.373  33.281  42.340  1.00  0.00    -0.200 F 
ATOM     51  C   UNL A   1      39.695  35.056  41.519  1.00  0.00     0.200 A 
ATOM     52  F   UNL A   1      41.004  36.817  40.646  1.00  0.00    -0.200 F 
ATOM     53  F   UNL A   1      39.575  35.705  42.685  1.00  0.00    -0.200 F 
ENDBRANCH  29  43
BRANCH  30  54
ATOM     54  C   UNL A   1      40.238  28.931  30.346  1.00  0.00     0.064 A 
ATOM     55  C   UNL A   1      40.834  29.325  29.135  1.00  0.00     0.173 A 
ATOM     56  C   UNL A   1      39.573  27.697  30.361  1.00  0.00     0.173 A 
ATOM     57  F   UNL A   1      41.463  30.507  29.053  1.00  0.00    -0.203 F 
ATOM     58  C   UNL A   1      40.746  28.537  27.989  1.00  0.00     0.198 A 
ATOM     59  C   UNL A   1      39.522  26.889  29.225  1.00  0.00     0.198 A 
ATOM     60  F   UNL A   1      38.974  27.269  31.481  1.00  0.00    -0.203 F 
ATOM     61  F   UNL A   1      41.267  28.976  26.835  1.00  0.00    -0.200 F 
ATOM     62  C   UNL A   1      40.097  27.315  28.037  1.00  0.00     0.200 A 
ATOM     63  F   UNL A   1      38.909  25.699  29.280  1.00  0.00    -0.200 F 
ATOM     64  F   UNL A   1      40.013  26.554  26.937  1.00  0.00    -0.200 F 
ENDBRANCH  30  54
BRANCH  42  65
ATOM     65  C   UNL A   1      44.522  29.202  35.823  1.00  0.00     0.064 A 
ATOM     66  C   UNL A   1      44.554  27.973  36.501  1.00  0.00     0.173 A 
ATOM     67  C   UNL A   1      45.741  29.743  35.390  1.00  0.00     0.173 A 
ATOM     68  F   UNL A   1      43.416  27.414  36.941  1.00  0.00    -0.203 F 
ATOM     69  C   UNL A   1      45.760  27.329  36.763  1.00  0.00     0.198 A 
ATOM     70  C   UNL A   1      46.943  29.081  35.627  1.00  0.00     0.198 A 
ATOM     71  F   UNL A   1      45.766  30.909  34.726  1.00  0.00    -0.203 F 
ATOM     72  F   UNL A   1      45.767  26.183  37.456  1.00  0.00    -0.200 F 
ATOM     73  C   UNL A   1      46.953  27.880  36.320  1.00  0.00     0.200 A 
ATOM     74  F   UNL A   1      48.095  29.604  35.182  1.00  0.00    -0.200 F 
ATOM     75  F   UNL A   1      48.113  27.254  36.566  1.00  0.00    -0.200 F 
ENDBRANCH  42  65
ENDBRANCH  16  17
ENDBRANCH   9  11
ENDBRANCH   8   9
ENDBRANCH   7   8
ENDBRANCH   6   7
ENDBRANCH   5   6
ENDBRANCH   4   5
ENDBRANCH   3   4
ENDBRANCH   2   3
ENDBRANCH   1   2
BRANCH   1  76
ATOM     76  C   UNL A   1      34.707  29.768  27.767  1.00  0.00     0.188 C 
BRANCH  76  77
ATOM     77  O   UNL A   1      34.466  28.893  26.671  1.00  0.00    -0.376 OA
BRANCH  77  78
ATOM     78  C   UNL A   1      33.481  27.863  26.872  1.00  0.00     0.202 C 
BRANCH  78  79
ATOM     79  C   UNL A   1      33.144  26.915  25.704  1.00  0.00     0.261 C 
BRANCH  79  80
ATOM     80  O   UNL A   1      33.266  25.512  26.014  1.00  0.00    -0.458 OA
BRANCH  80  81
ATOM     81  C   UNL A   1      34.153  24.735  25.328  1.00  0.00     0.359 C 
ATOM     82  O   UNL A   1      35.363  24.754  25.469  1.00  0.00    -0.244 OA
BRANCH  81  83
ATOM     83  C   UNL A   1      33.337  23.679  24.643  1.00  0.00     0.179 A 
ATOM     84  N   UNL A   1      33.259  22.470  25.294  1.00  0.00    -0.245 NA
ATOM     85  C   UNL A   1      33.007  23.795  23.295  1.00  0.00     0.161 A 
ATOM     86  C   UNL A   1      32.813  21.423  24.569  1.00  0.00     0.132 A 
ATOM     87  N   UNL A   1      32.598  22.714  22.557  1.00  0.00    -0.247 NA
ATOM     88  C   UNL A   1      32.506  21.538  23.225  1.00  0.00     0.132 A 
BRANCH  85  89
ATOM     89  C   UNL A   1      32.771  25.110  22.666  1.00  0.00     0.274 C 
ATOM     90  O   UNL A   1      33.732  25.554  22.033  1.00  0.00    -0.267 OA
ATOM     91  N   UNL A   1      31.557  25.802  22.788  1.00  0.00    -0.337 N 
ATOM     92  C   UNL A   1      31.374  26.944  21.898  1.00  0.00     0.120 C 
ATOM     93  C   UNL A   1      30.359  25.334  23.480  1.00  0.00     0.120 C 
ATOM     94  C   UNL A   1      30.611  28.082  22.558  1.00  0.00     0.025 C 
ATOM     95  C   UNL A   1      29.545  26.466  24.119  1.00  0.00     0.025 C 
ATOM     96  C   UNL A   1      29.266  27.593  23.109  1.00  0.00    -0.003 C 
BRANCH  96  97
ATOM     97  C   UNL A   1      28.466  28.758  23.734  1.00  0.00     0.039 C 
BRANCH  97  98
ATOM     98  C   UNL A   1      28.458  30.054  22.944  1.00  0.00    -0.048 A 
ATOM     99  C   UNL A   1      28.061  30.035  21.598  1.00  0.00     0.004 A 
ATOM    100  C   UNL A   1      28.853  31.281  23.496  1.00  0.00     0.004 A 
ATOM    101  C   UNL A   1      28.011  31.213  20.847  1.00  0.00     0.000 A 
ATOM    102  C   UNL A   1      28.765  32.460  22.756  1.00  0.00     0.000 A 
ATOM    103  C   UNL A   1      28.349  32.428  21.431  1.00  0.00     0.000 A 
ENDBRANCH  97  98
ENDBRANCH  96  97
ENDBRANCH  85  89
ENDBRANCH  81  83
ENDBRANCH  80  81
ENDBRANCH  79  80
ENDBRANCH  78  79
ENDBRANCH  77  78
ENDBRANCH  76  77
ENDBRANCH   1  76
TORSDOF 23
ENDMDL
MODEL 2
REMARK VINA RESULT:     -10.8      0.615      6.852
REMARK SMILES O=C(OCCOCCOCCOCCOC(=O)c1nccnc1C(=O)N1CCC(Cc2ccccc2)CC1)c1ccc(-c2c3nc(c(-c4c(F)c(F)c(F)c(F)c4F)c4ccc([nH]4)c(-c4c(F)c(F)c(F)c(F)c4F)c4nc(c(-c5c(F)c(F)c(F)c(F)c5F)c5ccc2[nH]5)C=C4)C=C3)cc1
REMARK SMILES IDX 10 1 9 2 8 3 7 4 6 5 5 6 4 7 3 8 2 9 1 10 39 11 40 12 101 13
REMARK SMILES IDX 41 14 100 15 42 16 43 17 44 18 94 19 45 20 99 21 93 22 95 23
REMARK SMILES IDX 46 24 98 25 92 26 91 27 47 29 79 30 59 31 78 32 60 33 63 34
REMARK SMILES IDX 77 35 96 36 61 37 62 38 76 40 97 41 64 42 48 43 49 44 57 45
REMARK SMILES IDX 50 46 51 47 55 48 58 49 52 50 53 51 56 52 54 53 80 54 81 55
REMARK SMILES IDX 89 56 82 57 83 58 87 59 90 60 84 61 85 62 88 63 86 64 65 65
REMARK SMILES IDX 66 66 74 67 67 68 68 69 72 70 75 71 69 72 70 73 73 74 71 75
REMARK SMILES IDX 11 76 12 77 13 78 14 79 15 80 16 81 17 82 18 83 19 84 23 85
REMARK SMILES IDX 20 86 22 87 21 88 24 89 25 90 26 91 27 92 38 93 28 94 37 95
REMARK SMILES IDX 29 96 30 97 31 98 32 99 36 100 33 101 35 102 34 103
REMARK H PARENT 95 28 63 39
REMARK Flexibility Score: inf
ROOT
ATOM      1  C   UNL A   1      36.274  30.097  27.305  1.00  0.00     0.188 C 
ENDROOT
BRANCH   1   2
ATOM      2  O   UNL A   1      36.282  31.370  27.933  1.00  0.00    -0.377 OA
BRANCH   2   3
ATOM      3  C   UNL A   1      35.131  31.627  28.733  1.00  0.00     0.188 C 
BRANCH   3   4
ATOM      4  C   UNL A   1      34.178  32.632  28.088  1.00  0.00     0.188 C 
BRANCH   4   5
ATOM      5  O   UNL A   1      34.863  33.808  27.626  1.00  0.00    -0.376 OA
BRANCH   5   6
ATOM      6  C   UNL A   1      34.726  34.929  28.503  1.00  0.00     0.202 C 
BRANCH   6   7
ATOM      7  C   UNL A   1      33.277  35.384  28.700  1.00  0.00     0.261 C 
BRANCH   7   8
ATOM      8  O   UNL A   1      32.729  34.877  29.930  1.00  0.00    -0.460 OA
BRANCH   8   9
ATOM      9  C   UNL A   1      33.018  35.330  31.177  1.00  0.00     0.338 C 
ATOM     10  O   UNL A   1      32.324  36.189  31.710  1.00  0.00    -0.246 OA
BRANCH   9  11
ATOM     11  C   UNL A   1      34.119  34.732  31.964  1.00  0.00     0.060 A 
ATOM     12  C   UNL A   1      35.060  35.486  32.663  1.00  0.00     0.016 A 
ATOM     13  C   UNL A   1      34.138  33.340  32.078  1.00  0.00     0.016 A 
ATOM     14  C   UNL A   1      36.107  34.850  33.339  1.00  0.00     0.010 A 
ATOM     15  C   UNL A   1      35.147  32.708  32.815  1.00  0.00     0.010 A 
ATOM     16  C   UNL A   1      36.193  33.451  33.390  1.00  0.00    -0.014 A 
BRANCH  16  17
ATOM     17  C   UNL A   1      37.433  32.762  33.873  1.00  0.00     0.031 A 
ATOM     18  C   UNL A   1      38.212  31.903  32.898  1.00  0.00     0.074 A 
ATOM     19  C   UNL A   1      37.938  32.950  35.110  1.00  0.00     0.049 A 
ATOM     20  N   UNL A   1      39.198  31.068  33.112  1.00  0.00    -0.248 NA
ATOM     21  C   UNL A   1      37.798  31.974  31.486  1.00  0.00     0.031 C 
ATOM     22  C   UNL A   1      37.380  33.834  36.133  1.00  0.00     0.029 A 
ATOM     23  N   UNL A   1      39.091  32.467  35.691  1.00  0.00    -0.354 N 
ATOM     24  C   UNL A   1      39.451  30.457  31.890  1.00  0.00     0.074 A 
ATOM     25  C   UNL A   1      38.515  31.005  30.937  1.00  0.00     0.031 C 
ATOM     26  C   UNL A   1      38.261  33.947  37.141  1.00  0.00     0.029 A 
ATOM     27  C   UNL A   1      39.403  33.071  36.888  1.00  0.00     0.049 A 
ATOM     28  H   UNL A   1      39.639  31.757  35.287  1.00  0.00     0.167 HD
ATOM     29  C   UNL A   1      40.390  29.529  31.586  1.00  0.00     0.037 A 
ATOM     30  C   UNL A   1      40.501  32.954  37.663  1.00  0.00     0.037 A 
ATOM     31  C   UNL A   1      41.426  29.105  32.487  1.00  0.00     0.049 A 
ATOM     32  C   UNL A   1      41.570  31.953  37.285  1.00  0.00     0.074 A 
ATOM     33  C   UNL A   1      42.386  28.124  32.309  1.00  0.00     0.029 A 
ATOM     34  N   UNL A   1      41.677  29.694  33.716  1.00  0.00    -0.354 N 
ATOM     35  N   UNL A   1      41.689  31.228  36.199  1.00  0.00    -0.248 NA
ATOM     36  C   UNL A   1      42.654  31.745  38.258  1.00  0.00     0.031 C 
ATOM     37  C   UNL A   1      43.215  28.115  33.435  1.00  0.00     0.029 A 
ATOM     38  C   UNL A   1      42.791  29.113  34.297  1.00  0.00     0.049 A 
ATOM     39  H   UNL A   1      41.143  30.418  34.117  1.00  0.00     0.167 HD
ATOM     40  C   UNL A   1      42.849  30.482  36.360  1.00  0.00     0.074 A 
ATOM     41  C   UNL A   1      43.437  30.889  37.617  1.00  0.00     0.031 C 
ATOM     42  C   UNL A   1      43.365  29.521  35.554  1.00  0.00     0.037 A 
BRANCH  29  43
ATOM     43  C   UNL A   1      40.310  28.875  30.237  1.00  0.00     0.064 A 
ATOM     44  C   UNL A   1      40.933  29.407  29.101  1.00  0.00     0.173 A 
ATOM     45  C   UNL A   1      39.600  27.670  30.094  1.00  0.00     0.173 A 
ATOM     46  F   UNL A   1      41.604  30.566  29.179  1.00  0.00    -0.203 F 
ATOM     47  C   UNL A   1      40.824  28.773  27.864  1.00  0.00     0.198 A 
ATOM     48  C   UNL A   1      39.523  27.023  28.864  1.00  0.00     0.198 A 
ATOM     49  F   UNL A   1      38.989  27.116  31.151  1.00  0.00    -0.203 F 
ATOM     50  F   UNL A   1      41.381  29.328  26.778  1.00  0.00    -0.200 F 
ATOM     51  C   UNL A   1      40.128  27.580  27.748  1.00  0.00     0.200 A 
ATOM     52  F   UNL A   1      38.858  25.864  28.760  1.00  0.00    -0.200 F 
ATOM     53  F   UNL A   1      40.030  26.969  26.560  1.00  0.00    -0.200 F 
ENDBRANCH  29  43
BRANCH  30  54
ATOM     54  C   UNL A   1      40.714  33.851  38.838  1.00  0.00     0.064 A 
ATOM     55  C   UNL A   1      41.408  35.063  38.683  1.00  0.00     0.173 A 
ATOM     56  C   UNL A   1      40.279  33.522  40.129  1.00  0.00     0.173 A 
ATOM     57  F   UNL A   1      41.871  35.420  37.475  1.00  0.00    -0.203 F 
ATOM     58  C   UNL A   1      41.679  35.892  39.771  1.00  0.00     0.198 A 
ATOM     59  C   UNL A   1      40.512  34.373  41.210  1.00  0.00     0.198 A 
ATOM     60  F   UNL A   1      39.620  32.374  40.346  1.00  0.00    -0.203 F 
ATOM     61  F   UNL A   1      42.403  37.006  39.597  1.00  0.00    -0.200 F 
ATOM     62  C   UNL A   1      41.224  35.550  41.033  1.00  0.00     0.200 A 
ATOM     63  F   UNL A   1      40.054  34.047  42.426  1.00  0.00    -0.200 F 
ATOM     64  F   UNL A   1      41.480  36.346  42.079  1.00  0.00    -0.200 F 
ENDBRANCH  30  54
BRANCH  42  65
ATOM     65  C   UNL A   1      44.605  28.815  36.023  1.00  0.00     0.064 A 
ATOM     66  C   UNL A   1      44.523  27.641  36.789  1.00  0.00     0.173 A 
ATOM     67  C   UNL A   1      45.881  29.275  35.664  1.00  0.00     0.173 A 
ATOM     68  F   UNL A   1      43.327  27.161  37.163  1.00  0.00    -0.203 F 
ATOM     69  C   UNL A   1      45.671  26.974  37.206  1.00  0.00     0.198 A 
ATOM     70  C   UNL A   1      47.027  28.586  36.056  1.00  0.00     0.198 A 
ATOM     71  F   UNL A   1      46.016  30.384  34.921  1.00  0.00    -0.203 F 
ATOM     72  F   UNL A   1      45.566  25.885  37.979  1.00  0.00    -0.200 F 
ATOM     73  C   UNL A   1      46.922  27.443  36.834  1.00  0.00     0.200 A 
ATOM     74  F   UNL A   1      48.235  29.030  35.681  1.00  0.00    -0.200 F 
ATOM     75  F   UNL A   1      48.026  26.795  37.229  1.00  0.00    -0.200 F 
ENDBRANCH  42  65
ENDBRANCH  16  17
ENDBRANCH   9  11
ENDBRANCH   8   9
ENDBRANCH   7   8
ENDBRANCH   6   7
ENDBRANCH   5   6
ENDBRANCH   4   5
ENDBRANCH   3   4
ENDBRANCH   2   3
ENDBRANCH   1   2
BRANCH   1  76
ATOM     76  C   UNL A   1      35.064  29.237  27.666  1.00  0.00     0.188 C 
BRANCH  76  77
ATOM     77  O   UNL A   1      34.368  28.668  26.562  1.00  0.00    -0.376 OA
BRANCH  77  78
ATOM     78  C   UNL A   1      33.265  27.797  26.874  1.00  0.00     0.202 C 
BRANCH  78  79
ATOM     79  C   UNL A   1      32.796  26.780  25.816  1.00  0.00     0.261 C 
BRANCH  79  80
ATOM     80  O   UNL A   1      33.067  25.402  26.144  1.00  0.00    -0.458 OA
BRANCH  80  81
ATOM     81  C   UNL A   1      33.999  24.701  25.436  1.00  0.00     0.359 C 
ATOM     82  O   UNL A   1      35.205  24.760  25.606  1.00  0.00    -0.244 OA
BRANCH  81  83
ATOM     83  C   UNL A   1      33.242  23.655  24.673  1.00  0.00     0.179 A 
ATOM     84  N   UNL A   1      33.145  22.427  25.283  1.00  0.00    -0.245 NA
ATOM     85  C   UNL A   1      32.990  23.807  23.312  1.00  0.00     0.161 A 
ATOM     86  C   UNL A   1      32.758  21.395  24.502  1.00  0.00     0.132 A 
ATOM     87  N   UNL A   1      32.642  22.743  22.520  1.00  0.00    -0.247 NA
ATOM     88  C   UNL A   1      32.529  21.547  23.147  1.00  0.00     0.132 A 
BRANCH  85  89
ATOM     89  C   UNL A   1      32.771  25.138  22.709  1.00  0.00     0.274 C 
ATOM     90  O   UNL A   1      33.755  25.605  22.131  1.00  0.00    -0.267 OA
ATOM     91  N   UNL A   1      31.547  25.817  22.795  1.00  0.00    -0.337 N 
ATOM     92  C   UNL A   1      31.394  26.982  21.929  1.00  0.00     0.120 C 
ATOM     93  C   UNL A   1      30.324  25.321  23.420  1.00  0.00     0.120 C 
ATOM     94  C   UNL A   1      30.593  28.095  22.585  1.00  0.00     0.025 C 
ATOM     95  C   UNL A   1      29.473  26.431  24.053  1.00  0.00     0.025 C 
ATOM     96  C   UNL A   1      29.229  27.582  23.063  1.00  0.00    -0.003 C 
BRANCH  96  97
ATOM     97  C   UNL A   1      28.393  28.724  23.683  1.00  0.00     0.039 C 
BRANCH  97  98
ATOM     98  C   UNL A   1      28.421  30.046  22.937  1.00  0.00    -0.048 A 
ATOM     99  C   UNL A   1      28.044  30.079  21.586  1.00  0.00     0.004 A 
ATOM    100  C   UNL A   1      28.832  31.245  23.535  1.00  0.00     0.004 A 
ATOM    101  C   UNL A   1      28.027  31.283  20.874  1.00  0.00     0.000 A 
ATOM    102  C   UNL A   1      28.778  32.450  22.834  1.00  0.00     0.000 A 
ATOM    103  C   UNL A   1      28.381  32.471  21.503  1.00  0.00     0.000 A 
ENDBRANCH  97  98
ENDBRANCH  96  97
ENDBRANCH  85  89
ENDBRANCH  81  83
ENDBRANCH  80  81
ENDBRANCH  79  80
ENDBRANCH  78  79
ENDBRANCH  77  78
ENDBRANCH  76  77
ENDBRANCH   1  76
TORSDOF 23
ENDMDL
MODEL 3
REMARK VINA RESULT:     -10.5      1.319      8.076
REMARK SMILES O=C(OCCOCCOCCOCCOC(=O)c1nccnc1C(=O)N1CCC(Cc2ccccc2)CC1)c1ccc(-c2c3nc(c(-c4c(F)c(F)c(F)c(F)c4F)c4ccc([nH]4)c(-c4c(F)c(F)c(F)c(F)c4F)c4nc(c(-c5c(F)c(F)c(F)c(F)c5F)c5ccc2[nH]5)C=C4)C=C3)cc1
REMARK SMILES IDX 10 1 9 2 8 3 7 4 6 5 5 6 4 7 3 8 2 9 1 10 39 11 40 12 101 13
REMARK SMILES IDX 41 14 100 15 42 16 43 17 44 18 94 19 45 20 99 21 93 22 95 23
REMARK SMILES IDX 46 24 98 25 92 26 91 27 47 29 79 30 59 31 78 32 60 33 63 34
REMARK SMILES IDX 77 35 96 36 61 37 62 38 76 40 97 41 64 42 48 43 49 44 57 45
REMARK SMILES IDX 50 46 51 47 55 48 58 49 52 50 53 51 56 52 54 53 80 54 81 55
REMARK SMILES IDX 89 56 82 57 83 58 87 59 90 60 84 61 85 62 88 63 86 64 65 65
REMARK SMILES IDX 66 66 74 67 67 68 68 69 72 70 75 71 69 72 70 73 73 74 71 75
REMARK SMILES IDX 11 76 12 77 13 78 14 79 15 80 16 81 17 82 18 83 19 84 23 85
REMARK SMILES IDX 20 86 22 87 21 88 24 89 25 90 26 91 27 92 38 93 28 94 37 95
REMARK SMILES IDX 29 96 30 97 31 98 32 99 36 100 33 101 35 102 34 103
REMARK H PARENT 95 28 63 39
REMARK Flexibility Score: inf
ROOT
ATOM      1  C   UNL A   1      36.486  31.034  28.113  1.00  0.00     0.188 C 
ENDROOT
BRANCH   1   2
ATOM      2  O   UNL A   1      35.919  32.316  28.336  1.00  0.00    -0.377 OA
BRANCH   2   3
ATOM      3  C   UNL A   1      34.551  32.281  28.736  1.00  0.00     0.188 C 
BRANCH   3   4
ATOM      4  C   UNL A   1      33.679  33.247  27.937  1.00  0.00     0.188 C 
BRANCH   4   5
ATOM      5  O   UNL A   1      34.417  34.392  27.481  1.00  0.00    -0.376 OA
BRANCH   5   6
ATOM      6  C   UNL A   1      34.462  35.457  28.434  1.00  0.00     0.202 C 
BRANCH   6   7
ATOM      7  C   UNL A   1      33.101  35.790  29.051  1.00  0.00     0.261 C 
BRANCH   7   8
ATOM      8  O   UNL A   1      32.812  34.941  30.177  1.00  0.00    -0.460 OA
BRANCH   8   9
ATOM      9  C   UNL A   1      32.995  35.262  31.484  1.00  0.00     0.338 C 
ATOM     10  O   UNL A   1      32.167  35.935  32.087  1.00  0.00    -0.246 OA
BRANCH   9  11
ATOM     11  C   UNL A   1      34.149  34.727  32.240  1.00  0.00     0.060 A 
ATOM     12  C   UNL A   1      35.197  35.521  32.703  1.00  0.00     0.016 A 
ATOM     13  C   UNL A   1      34.116  33.373  32.582  1.00  0.00     0.016 A 
ATOM     14  C   UNL A   1      36.283  34.934  33.363  1.00  0.00     0.010 A 
ATOM     15  C   UNL A   1      35.170  32.803  33.304  1.00  0.00     0.010 A 
ATOM     16  C   UNL A   1      36.308  33.559  33.636  1.00  0.00    -0.014 A 
BRANCH  16  17
ATOM     17  C   UNL A   1      37.562  32.876  34.095  1.00  0.00     0.031 A 
ATOM     18  C   UNL A   1      38.326  32.021  33.106  1.00  0.00     0.074 A 
ATOM     19  C   UNL A   1      38.090  33.069  35.322  1.00  0.00     0.049 A 
ATOM     20  N   UNL A   1      39.320  31.192  33.301  1.00  0.00    -0.248 NA
ATOM     21  C   UNL A   1      37.884  32.089  31.702  1.00  0.00     0.031 C 
ATOM     22  C   UNL A   1      37.547  33.950  36.355  1.00  0.00     0.029 A 
ATOM     23  N   UNL A   1      39.256  32.592  35.881  1.00  0.00    -0.354 N 
ATOM     24  C   UNL A   1      39.553  30.581  32.074  1.00  0.00     0.074 A 
ATOM     25  C   UNL A   1      38.595  31.124  31.140  1.00  0.00     0.031 C 
ATOM     26  C   UNL A   1      38.446  34.069  37.346  1.00  0.00     0.029 A 
ATOM     27  C   UNL A   1      39.588  33.199  37.071  1.00  0.00     0.049 A 
ATOM     28  H   UNL A   1      39.801  31.885  35.467  1.00  0.00     0.167 HD
ATOM     29  C   UNL A   1      40.490  29.658  31.753  1.00  0.00     0.037 A 
ATOM     30  C   UNL A   1      40.702  33.089  37.824  1.00  0.00     0.037 A 
ATOM     31  C   UNL A   1      41.547  29.241  32.633  1.00  0.00     0.049 A 
ATOM     32  C   UNL A   1      41.768  32.093  37.426  1.00  0.00     0.074 A 
ATOM     33  C   UNL A   1      42.508  28.265  32.437  1.00  0.00     0.029 A 
ATOM     34  N   UNL A   1      41.818  29.832  33.857  1.00  0.00    -0.354 N 
ATOM     35  N   UNL A   1      41.870  31.367  36.339  1.00  0.00    -0.248 NA
ATOM     36  C   UNL A   1      42.873  31.892  38.378  1.00  0.00     0.031 C 
ATOM     37  C   UNL A   1      43.359  28.261  33.548  1.00  0.00     0.029 A 
ATOM     38  C   UNL A   1      42.947  29.258  34.417  1.00  0.00     0.049 A 
ATOM     39  H   UNL A   1      41.288  30.554  34.268  1.00  0.00     0.167 HD
ATOM     40  C   UNL A   1      43.037  30.628  36.477  1.00  0.00     0.074 A 
ATOM     41  C   UNL A   1      43.648  31.039  37.722  1.00  0.00     0.031 C 
ATOM     42  C   UNL A   1      43.543  29.669  35.662  1.00  0.00     0.037 A 
BRANCH  29  43
ATOM     43  C   UNL A   1      40.388  29.003  30.406  1.00  0.00     0.064 A 
ATOM     44  C   UNL A   1      40.988  29.536  29.258  1.00  0.00     0.173 A 
ATOM     45  C   UNL A   1      39.680  27.796  30.277  1.00  0.00     0.173 A 
ATOM     46  F   UNL A   1      41.657  30.697  29.323  1.00  0.00    -0.203 F 
ATOM     47  C   UNL A   1      40.859  28.900  28.024  1.00  0.00     0.198 A 
ATOM     48  C   UNL A   1      39.582  27.147  29.050  1.00  0.00     0.198 A 
ATOM     49  F   UNL A   1      39.090  27.240  31.346  1.00  0.00    -0.203 F 
ATOM     50  F   UNL A   1      41.394  29.456  26.928  1.00  0.00    -0.200 F 
ATOM     51  C   UNL A   1      40.164  27.705  27.922  1.00  0.00     0.200 A 
ATOM     52  F   UNL A   1      38.920  25.985  28.959  1.00  0.00    -0.200 F 
ATOM     53  F   UNL A   1      40.046  27.093  26.736  1.00  0.00    -0.200 F 
ENDBRANCH  29  43
BRANCH  30  54
ATOM     54  C   UNL A   1      40.932  33.987  38.995  1.00  0.00     0.064 A 
ATOM     55  C   UNL A   1      40.472  33.615  40.270  1.00  0.00     0.173 A 
ATOM     56  C   UNL A   1      41.567  35.231  38.881  1.00  0.00     0.173 A 
ATOM     57  F   UNL A   1      39.835  32.445  40.437  1.00  0.00    -0.203 F 
ATOM     58  C   UNL A   1      40.613  34.458  41.371  1.00  0.00     0.198 A 
ATOM     59  C   UNL A   1      41.747  36.056  39.992  1.00  0.00     0.198 A 
ATOM     60  F   UNL A   1      42.019  35.650  37.690  1.00  0.00    -0.203 F 
ATOM     61  F   UNL A   1      40.101  34.099  42.556  1.00  0.00    -0.200 F 
ATOM     62  C   UNL A   1      41.258  35.675  41.232  1.00  0.00     0.200 A 
ATOM     63  F   UNL A   1      42.387  37.225  39.858  1.00  0.00    -0.200 F 
ATOM     64  F   UNL A   1      41.399  36.486  42.290  1.00  0.00    -0.200 F 
ENDBRANCH  30  54
BRANCH  42  65
ATOM     65  C   UNL A   1      44.796  28.970  36.107  1.00  0.00     0.064 A 
ATOM     66  C   UNL A   1      44.735  27.781  36.850  1.00  0.00     0.173 A 
ATOM     67  C   UNL A   1      46.062  29.454  35.747  1.00  0.00     0.173 A 
ATOM     68  F   UNL A   1      43.548  27.278  37.224  1.00  0.00    -0.203 F 
ATOM     69  C   UNL A   1      45.895  27.121  37.245  1.00  0.00     0.198 A 
ATOM     70  C   UNL A   1      47.220  28.773  36.117  1.00  0.00     0.198 A 
ATOM     71  F   UNL A   1      46.177  30.579  35.025  1.00  0.00    -0.203 F 
ATOM     72  F   UNL A   1      45.811  26.015  37.997  1.00  0.00    -0.200 F 
ATOM     73  C   UNL A   1      47.137  27.613  36.872  1.00  0.00     0.200 A 
ATOM     74  F   UNL A   1      48.420  29.240  35.741  1.00  0.00    -0.200 F 
ATOM     75  F   UNL A   1      48.252  26.972  37.245  1.00  0.00    -0.200 F 
ENDBRANCH  42  65
ENDBRANCH  16  17
ENDBRANCH   9  11
ENDBRANCH   8   9
ENDBRANCH   7   8
ENDBRANCH   6   7
ENDBRANCH   5   6
ENDBRANCH   4   5
ENDBRANCH   3   4
ENDBRANCH   2   3
ENDBRANCH   1   2
BRANCH   1  76
ATOM     76  C   UNL A   1      35.471  29.892  28.158  1.00  0.00     0.188 C 
BRANCH  76  77
ATOM     77  O   UNL A   1      35.430  29.065  27.000  1.00  0.00    -0.376 OA
BRANCH  77  78
ATOM     78  C   UNL A   1      34.194  29.046  26.264  1.00  0.00     0.202 C 
BRANCH  78  79
ATOM     79  C   UNL A   1      33.440  27.711  26.108  1.00  0.00     0.261 C 
BRANCH  79  80
ATOM     80  O   UNL A   1      33.608  27.072  24.826  1.00  0.00    -0.458 OA
BRANCH  80  81
ATOM     81  C   UNL A   1      33.464  27.795  23.678  1.00  0.00     0.359 C 
ATOM     82  O   UNL A   1      34.376  28.161  22.957  1.00  0.00    -0.244 OA
BRANCH  81  83
ATOM     83  C   UNL A   1      32.004  27.755  23.341  1.00  0.00     0.179 A 
ATOM     84  N   UNL A   1      31.320  28.937  23.513  1.00  0.00    -0.245 NA
ATOM     85  C   UNL A   1      31.331  26.542  23.226  1.00  0.00     0.161 A 
ATOM     86  C   UNL A   1      29.973  28.856  23.527  1.00  0.00     0.132 A 
ATOM     87  N   UNL A   1      29.962  26.468  23.287  1.00  0.00    -0.247 NA
ATOM     88  C   UNL A   1      29.309  27.646  23.434  1.00  0.00     0.132 A 
BRANCH  85  89
ATOM     89  C   UNL A   1      32.003  25.327  22.722  1.00  0.00     0.274 C 
ATOM     90  O   UNL A   1      32.340  25.383  21.537  1.00  0.00    -0.267 OA
ATOM     91  N   UNL A   1      32.230  24.199  23.524  1.00  0.00    -0.337 N 
ATOM     92  C   UNL A   1      33.137  23.194  22.980  1.00  0.00     0.120 C 
ATOM     93  C   UNL A   1      31.904  24.065  24.941  1.00  0.00     0.120 C 
ATOM     94  C   UNL A   1      32.721  21.777  23.341  1.00  0.00     0.025 C 
ATOM     95  C   UNL A   1      31.522  22.634  25.343  1.00  0.00     0.025 C 
ATOM     96  C   UNL A   1      32.571  21.618  24.859  1.00  0.00    -0.003 C 
BRANCH  96  97
ATOM     97  C   UNL A   1      32.199  20.165  25.231  1.00  0.00     0.039 C 
BRANCH  97  98
ATOM     98  C   UNL A   1      32.823  19.081  24.370  1.00  0.00    -0.048 A 
ATOM     99  C   UNL A   1      34.045  18.513  24.761  1.00  0.00     0.004 A 
ATOM    100  C   UNL A   1      32.239  18.630  23.178  1.00  0.00     0.004 A 
ATOM    101  C   UNL A   1      34.635  17.491  24.011  1.00  0.00     0.000 A 
ATOM    102  C   UNL A   1      32.809  17.584  22.453  1.00  0.00     0.000 A 
ATOM    103  C   UNL A   1      34.009  17.017  22.864  1.00  0.00     0.000 A 
ENDBRANCH  97  98
ENDBRANCH  96  97
ENDBRANCH  85  89
ENDBRANCH  81  83
ENDBRANCH  80  81
ENDBRANCH  79  80
ENDBRANCH  78  79
ENDBRANCH  77  78
ENDBRANCH  76  77
ENDBRANCH   1  76
TORSDOF 23
ENDMDL
