MODEL 1
REMARK VINA RESULT:      -8.7      0.000      0.000
REMARK SMILES O=C(Cc1c(F)cc(Cl)cc1F)OCCOCCOCCOCCOC(=O)c1ccc(-c2c3nc(c(-c4c(F)c(F)c(F)c(F)c4F)c4ccc([nH]4)c(-c4c(F)c(F)c(F)c(F)c4F)c4nc(c(-c5c(F)c(F)c(F)c(F)c5F)c5ccc2[nH]5)C=C4)C=C3)cc1
REMARK SMILES IDX 20 1 19 2 18 3 17 4 16 5 15 6 14 7 13 8 2 9 1 10 3 11 4 12
REMARK SMILES IDX 5 13 11 14 6 15 7 16 10 17 12 18 8 19 9 20 21 21 22 22 23 23
REMARK SMILES IDX 24 24 25 25 26 26 27 27 28 28 29 29 90 30 30 31 89 32 31 33
REMARK SMILES IDX 32 34 33 35 83 36 34 37 88 38 82 39 84 40 35 41 87 42 81 43
REMARK SMILES IDX 80 44 36 46 68 47 48 48 67 49 49 50 52 51 66 52 85 53 50 54
REMARK SMILES IDX 51 55 65 57 86 58 53 59 37 60 38 61 46 62 39 63 40 64 44 65
REMARK SMILES IDX 47 66 41 67 42 68 45 69 43 70 69 71 70 72 78 73 71 74 72 75
REMARK SMILES IDX 76 76 79 77 73 78 74 79 77 80 75 81 54 82 55 83 63 84 56 85
REMARK SMILES IDX 57 86 61 87 64 88 58 89 59 90 62 91 60 92
REMARK H PARENT 84 45 52 56
REMARK Flexibility Score: inf
ROOT
ATOM      1  C   UNL A   1      46.128  21.587  24.526  1.00  0.00     0.188 C 
ENDROOT
BRANCH   1   2
ATOM      2  O   UNL A   1      45.116  20.692  24.932  1.00  0.00    -0.377 OA
BRANCH   2   3
ATOM      3  C   UNL A   1      45.438  19.329  24.711  1.00  0.00     0.188 C 
BRANCH   3   4
ATOM      4  C   UNL A   1      44.713  18.309  25.589  1.00  0.00     0.188 C 
BRANCH   4   5
ATOM      5  O   UNL A   1      43.318  18.069  25.483  1.00  0.00    -0.376 OA
BRANCH   5   6
ATOM      6  C   UNL A   1      42.304  18.490  26.369  1.00  0.00     0.202 C 
BRANCH   6   7
ATOM      7  C   UNL A   1      41.359  19.644  26.064  1.00  0.00     0.261 C 
BRANCH   7   8
ATOM      8  O   UNL A   1      40.790  20.338  27.174  1.00  0.00    -0.463 OA
BRANCH   8   9
ATOM      9  C   UNL A   1      40.352  21.618  27.176  1.00  0.00     0.310 C 
ATOM     10  O   UNL A   1      39.388  21.910  26.469  1.00  0.00    -0.252 OA
BRANCH   9  11
ATOM     11  C   UNL A   1      41.123  22.688  27.925  1.00  0.00     0.164 C 
BRANCH  11  12
ATOM     12  C   UNL A   1      41.419  23.917  27.127  1.00  0.00     0.035 A 
ATOM     13  C   UNL A   1      42.334  23.904  26.074  1.00  0.00     0.131 A 
ATOM     14  C   UNL A   1      40.807  25.125  27.450  1.00  0.00     0.131 A 
ATOM     15  F   UNL A   1      42.893  22.751  25.686  1.00  0.00    -0.207 F 
ATOM     16  C   UNL A   1      42.723  25.075  25.438  1.00  0.00     0.060 A 
ATOM     17  C   UNL A   1      41.158  26.305  26.811  1.00  0.00     0.060 A 
ATOM     18  F   UNL A   1      39.877  25.159  28.412  1.00  0.00    -0.207 F 
ATOM     19  C   UNL A   1      42.140  26.277  25.826  1.00  0.00     0.046 A 
ATOM     20  Cl  UNL A   1      42.652  27.744  25.093  1.00  0.00    -0.084 Cl
ENDBRANCH  11  12
ENDBRANCH   9  11
ENDBRANCH   8   9
ENDBRANCH   7   8
ENDBRANCH   6   7
ENDBRANCH   5   6
ENDBRANCH   4   5
ENDBRANCH   3   4
ENDBRANCH   2   3
ENDBRANCH   1   2
BRANCH   1  21
ATOM     21  C   UNL A   1      45.613  22.931  23.970  1.00  0.00     0.188 C 
BRANCH  21  22
ATOM     22  O   UNL A   1      46.432  24.087  23.954  1.00  0.00    -0.376 OA
BRANCH  22  23
ATOM     23  C   UNL A   1      46.489  24.966  25.066  1.00  0.00     0.202 C 
BRANCH  23  24
ATOM     24  C   UNL A   1      47.517  24.824  26.206  1.00  0.00     0.261 C 
BRANCH  24  25
ATOM     25  O   UNL A   1      47.014  24.846  27.546  1.00  0.00    -0.460 OA
BRANCH  25  26
ATOM     26  C   UNL A   1      45.815  24.253  27.744  1.00  0.00     0.338 C 
ATOM     27  O   UNL A   1      45.498  23.106  27.473  1.00  0.00    -0.246 OA
BRANCH  26  28
ATOM     28  C   UNL A   1      44.989  25.156  28.576  1.00  0.00     0.060 A 
ATOM     29  C   UNL A   1      45.176  26.540  28.429  1.00  0.00     0.016 A 
ATOM     30  C   UNL A   1      44.002  24.663  29.431  1.00  0.00     0.016 A 
ATOM     31  C   UNL A   1      44.389  27.433  29.149  1.00  0.00     0.010 A 
ATOM     32  C   UNL A   1      43.248  25.559  30.195  1.00  0.00     0.010 A 
ATOM     33  C   UNL A   1      43.465  26.943  30.080  1.00  0.00    -0.014 A 
BRANCH  33  34
ATOM     34  C   UNL A   1      42.973  27.860  31.134  1.00  0.00     0.031 A 
ATOM     35  C   UNL A   1      41.722  28.640  30.829  1.00  0.00     0.074 A 
ATOM     36  C   UNL A   1      43.562  27.956  32.336  1.00  0.00     0.049 A 
ATOM     37  N   UNL A   1      41.095  29.526  31.556  1.00  0.00    -0.248 NA
ATOM     38  C   UNL A   1      41.090  28.374  29.525  1.00  0.00     0.031 C 
ATOM     39  C   UNL A   1      44.726  27.191  32.776  1.00  0.00     0.029 A 
ATOM     40  N   UNL A   1      43.248  28.744  33.416  1.00  0.00    -0.354 N 
ATOM     41  C   UNL A   1      39.992  29.910  30.804  1.00  0.00     0.074 A 
ATOM     42  C   UNL A   1      40.053  29.196  29.550  1.00  0.00     0.031 C 
ATOM     43  C   UNL A   1      45.030  27.550  34.037  1.00  0.00     0.029 A 
ATOM     44  C   UNL A   1      44.105  28.592  34.478  1.00  0.00     0.049 A 
ATOM     45  H   UNL A   1      42.481  29.359  33.428  1.00  0.00     0.167 HD
ATOM     46  C   UNL A   1      39.005  30.771  31.137  1.00  0.00     0.037 A 
ATOM     47  C   UNL A   1      44.138  29.239  35.662  1.00  0.00     0.037 A 
ATOM     48  C   UNL A   1      38.956  31.496  32.375  1.00  0.00     0.049 A 
ATOM     49  C   UNL A   1      43.102  30.299  35.952  1.00  0.00     0.074 A 
ATOM     50  C   UNL A   1      38.020  32.423  32.793  1.00  0.00     0.029 A 
ATOM     51  N   UNL A   1      39.889  31.376  33.395  1.00  0.00    -0.354 N 
ATOM     52  N   UNL A   1      42.068  30.668  35.233  1.00  0.00    -0.248 NA
ATOM     53  C   UNL A   1      43.240  31.034  37.218  1.00  0.00     0.031 C 
ATOM     54  C   UNL A   1      38.410  32.899  34.046  1.00  0.00     0.029 A 
ATOM     55  C   UNL A   1      39.559  32.228  34.435  1.00  0.00     0.049 A 
ATOM     56  H   UNL A   1      40.668  30.775  33.380  1.00  0.00     0.167 HD
ATOM     57  C   UNL A   1      41.419  31.651  35.972  1.00  0.00     0.074 A 
ATOM     58  C   UNL A   1      42.166  31.810  37.201  1.00  0.00     0.031 C 
ATOM     59  C   UNL A   1      40.305  32.359  35.659  1.00  0.00     0.037 A 
BRANCH  46  60
ATOM     60  C   UNL A   1      37.906  30.985  30.142  1.00  0.00     0.064 A 
ATOM     61  C   UNL A   1      37.832  32.159  29.377  1.00  0.00     0.173 A 
ATOM     62  C   UNL A   1      36.949  29.988  29.909  1.00  0.00     0.173 A 
ATOM     63  F   UNL A   1      38.711  33.153  29.580  1.00  0.00    -0.203 F 
ATOM     64  C   UNL A   1      36.836  32.328  28.421  1.00  0.00     0.198 A 
ATOM     65  C   UNL A   1      35.971  30.148  28.931  1.00  0.00     0.198 A 
ATOM     66  F   UNL A   1      36.973  28.849  30.618  1.00  0.00    -0.203 F 
ATOM     67  F   UNL A   1      36.764  33.471  27.724  1.00  0.00    -0.200 F 
ATOM     68  C   UNL A   1      35.914  31.318  28.190  1.00  0.00     0.200 A 
ATOM     69  F   UNL A   1      35.088  29.166  28.703  1.00  0.00    -0.200 F 
ATOM     70  F   UNL A   1      34.968  31.473  27.254  1.00  0.00    -0.200 F 
ENDBRANCH  46  60
BRANCH  47  71
ATOM     71  C   UNL A   1      45.186  28.914  36.667  1.00  0.00     0.064 A 
ATOM     72  C   UNL A   1      46.408  29.601  36.681  1.00  0.00     0.173 A 
ATOM     73  C   UNL A   1      45.004  27.895  37.614  1.00  0.00     0.173 A 
ATOM     74  F   UNL A   1      46.644  30.565  35.777  1.00  0.00    -0.203 F 
ATOM     75  C   UNL A   1      47.411  29.273  37.591  1.00  0.00     0.198 A 
ATOM     76  C   UNL A   1      45.996  27.588  38.544  1.00  0.00     0.198 A 
ATOM     77  F   UNL A   1      43.858  27.199  37.641  1.00  0.00    -0.203 F 
ATOM     78  F   UNL A   1      48.586  29.917  37.549  1.00  0.00    -0.200 F 
ATOM     79  C   UNL A   1      47.202  28.272  38.526  1.00  0.00     0.200 A 
ATOM     80  F   UNL A   1      45.786  26.627  39.452  1.00  0.00    -0.200 F 
ATOM     81  F   UNL A   1      48.164  27.961  39.405  1.00  0.00    -0.200 F 
ENDBRANCH  47  71
BRANCH  59  82
ATOM     82  C   UNL A   1      39.797  33.350  36.669  1.00  0.00     0.064 A 
ATOM     83  C   UNL A   1      38.860  32.987  37.647  1.00  0.00     0.173 A 
ATOM     84  C   UNL A   1      40.320  34.652  36.710  1.00  0.00     0.173 A 
ATOM     85  F   UNL A   1      38.324  31.758  37.644  1.00  0.00    -0.203 F 
ATOM     86  C   UNL A   1      38.453  33.897  38.617  1.00  0.00     0.198 A 
ATOM     87  C   UNL A   1      39.936  35.548  37.703  1.00  0.00     0.198 A 
ATOM     88  F   UNL A   1      41.230  35.045  35.805  1.00  0.00    -0.203 F 
ATOM     89  F   UNL A   1      37.528  33.540  39.520  1.00  0.00    -0.200 F 
ATOM     90  C   UNL A   1      38.998  35.172  38.652  1.00  0.00     0.200 A 
ATOM     91  F   UNL A   1      40.480  36.772  37.748  1.00  0.00    -0.200 F 
ATOM     92  F   UNL A   1      38.619  36.039  39.601  1.00  0.00    -0.200 F 
ENDBRANCH  59  82
ENDBRANCH  33  34
ENDBRANCH  26  28
ENDBRANCH  25  26
ENDBRANCH  24  25
ENDBRANCH  23  24
ENDBRANCH  22  23
ENDBRANCH  21  22
ENDBRANCH   1  21
TORSDOF 21
ENDMDL
MODEL 2
REMARK VINA RESULT:      -8.1      0.586      7.252
REMARK SMILES O=C(Cc1c(F)cc(Cl)cc1F)OCCOCCOCCOCCOC(=O)c1ccc(-c2c3nc(c(-c4c(F)c(F)c(F)c(F)c4F)c4ccc([nH]4)c(-c4c(F)c(F)c(F)c(F)c4F)c4nc(c(-c5c(F)c(F)c(F)c(F)c5F)c5ccc2[nH]5)C=C4)C=C3)cc1
REMARK SMILES IDX 20 1 19 2 18 3 17 4 16 5 15 6 14 7 13 8 2 9 1 10 3 11 4 12
REMARK SMILES IDX 5 13 11 14 6 15 7 16 10 17 12 18 8 19 9 20 21 21 22 22 23 23
REMARK SMILES IDX 24 24 25 25 26 26 27 27 28 28 29 29 90 30 30 31 89 32 31 33
REMARK SMILES IDX 32 34 33 35 83 36 34 37 88 38 82 39 84 40 35 41 87 42 81 43
REMARK SMILES IDX 80 44 36 46 68 47 48 48 67 49 49 50 52 51 66 52 85 53 50 54
REMARK SMILES IDX 51 55 65 57 86 58 53 59 37 60 38 61 46 62 39 63 40 64 44 65
REMARK SMILES IDX 47 66 41 67 42 68 45 69 43 70 69 71 70 72 78 73 71 74 72 75
REMARK SMILES IDX 76 76 79 77 73 78 74 79 77 80 75 81 54 82 55 83 63 84 56 85
REMARK SMILES IDX 57 86 61 87 64 88 58 89 59 90 62 91 60 92
REMARK H PARENT 84 45 52 56
REMARK Flexibility Score: inf
ROOT
ATOM      1  C   UNL A   1      46.096  21.741  24.708  1.00  0.00     0.188 C 
ENDROOT
BRANCH   1   2
ATOM      2  O   UNL A   1      45.302  20.623  24.375  1.00  0.00    -0.377 OA
BRANCH   2   3
ATOM      3  C   UNL A   1      45.916  19.380  24.668  1.00  0.00     0.188 C 
BRANCH   3   4
ATOM      4  C   UNL A   1      45.098  18.399  25.509  1.00  0.00     0.188 C 
BRANCH   4   5
ATOM      5  O   UNL A   1      43.718  18.166  25.277  1.00  0.00    -0.376 OA
BRANCH   5   6
ATOM      6  C   UNL A   1      42.666  18.230  26.215  1.00  0.00     0.202 C 
BRANCH   6   7
ATOM      7  C   UNL A   1      41.525  19.234  26.119  1.00  0.00     0.261 C 
BRANCH   7   8
ATOM      8  O   UNL A   1      41.453  20.243  27.126  1.00  0.00    -0.463 OA
BRANCH   8   9
ATOM      9  C   UNL A   1      40.746  21.394  27.053  1.00  0.00     0.310 C 
ATOM     10  O   UNL A   1      39.922  21.522  26.148  1.00  0.00    -0.252 OA
BRANCH   9  11
ATOM     11  C   UNL A   1      41.068  22.548  27.984  1.00  0.00     0.164 C 
BRANCH  11  12
ATOM     12  C   UNL A   1      41.514  23.798  27.296  1.00  0.00     0.035 A 
ATOM     13  C   UNL A   1      40.848  25.011  27.477  1.00  0.00     0.131 A 
ATOM     14  C   UNL A   1      42.596  23.768  26.422  1.00  0.00     0.131 A 
ATOM     15  F   UNL A   1      39.846  25.100  28.361  1.00  0.00    -0.207 F 
ATOM     16  C   UNL A   1      41.166  26.131  26.721  1.00  0.00     0.060 A 
ATOM     17  C   UNL A   1      42.951  24.881  25.674  1.00  0.00     0.060 A 
ATOM     18  F   UNL A   1      43.297  22.637  26.275  1.00  0.00    -0.207 F 
ATOM     19  C   UNL A   1      42.211  26.052  25.807  1.00  0.00     0.046 A 
ATOM     20  Cl  UNL A   1      42.581  27.409  24.821  1.00  0.00    -0.084 Cl
ENDBRANCH  11  12
ENDBRANCH   9  11
ENDBRANCH   8   9
ENDBRANCH   7   8
ENDBRANCH   6   7
ENDBRANCH   5   6
ENDBRANCH   4   5
ENDBRANCH   3   4
ENDBRANCH   2   3
ENDBRANCH   1   2
BRANCH   1  21
ATOM     21  C   UNL A   1      45.770  23.022  23.912  1.00  0.00     0.188 C 
BRANCH  21  22
ATOM     22  O   UNL A   1      46.668  24.117  23.875  1.00  0.00    -0.376 OA
BRANCH  22  23
ATOM     23  C   UNL A   1      46.731  25.056  24.937  1.00  0.00     0.202 C 
BRANCH  23  24
ATOM     24  C   UNL A   1      47.813  25.022  26.034  1.00  0.00     0.261 C 
BRANCH  24  25
ATOM     25  O   UNL A   1      47.365  25.032  27.393  1.00  0.00    -0.460 OA
BRANCH  25  26
ATOM     26  C   UNL A   1      46.263  24.297  27.665  1.00  0.00     0.338 C 
ATOM     27  O   UNL A   1      46.119  23.093  27.529  1.00  0.00    -0.246 OA
BRANCH  26  28
ATOM     28  C   UNL A   1      45.305  25.160  28.392  1.00  0.00     0.060 A 
ATOM     29  C   UNL A   1      45.311  26.534  28.108  1.00  0.00     0.016 A 
ATOM     30  C   UNL A   1      44.371  24.626  29.283  1.00  0.00     0.016 A 
ATOM     31  C   UNL A   1      44.396  27.382  28.725  1.00  0.00     0.010 A 
ATOM     32  C   UNL A   1      43.488  25.484  29.943  1.00  0.00     0.010 A 
ATOM     33  C   UNL A   1      43.523  26.868  29.691  1.00  0.00    -0.014 A 
BRANCH  33  34
ATOM     34  C   UNL A   1      42.889  27.810  30.641  1.00  0.00     0.031 A 
ATOM     35  C   UNL A   1      43.581  28.016  31.961  1.00  0.00     0.074 A 
ATOM     36  C   UNL A   1      41.784  28.508  30.332  1.00  0.00     0.049 A 
ATOM     37  N   UNL A   1      43.231  28.757  32.979  1.00  0.00    -0.248 NA
ATOM     38  C   UNL A   1      44.848  27.288  32.153  1.00  0.00     0.031 C 
ATOM     39  C   UNL A   1      41.075  28.457  29.056  1.00  0.00     0.029 A 
ATOM     40  N   UNL A   1      41.069  29.411  31.081  1.00  0.00    -0.354 N 
ATOM     41  C   UNL A   1      44.239  28.595  33.920  1.00  0.00     0.074 A 
ATOM     42  C   UNL A   1      45.194  27.657  33.376  1.00  0.00     0.031 C 
ATOM     43  C   UNL A   1      40.021  29.291  29.111  1.00  0.00     0.029 A 
ATOM     44  C   UNL A   1      39.963  29.909  30.436  1.00  0.00     0.049 A 
ATOM     45  H   UNL A   1      41.325  29.676  31.992  1.00  0.00     0.167 HD
ATOM     46  C   UNL A   1      44.367  29.189  35.128  1.00  0.00     0.037 A 
ATOM     47  C   UNL A   1      39.011  30.754  30.881  1.00  0.00     0.037 A 
ATOM     48  C   UNL A   1      43.408  30.106  35.677  1.00  0.00     0.049 A 
ATOM     49  C   UNL A   1      39.105  31.295  32.288  1.00  0.00     0.074 A 
ATOM     50  C   UNL A   1      43.423  30.732  36.909  1.00  0.00     0.029 A 
ATOM     51  N   UNL A   1      42.256  30.523  35.026  1.00  0.00    -0.354 N 
ATOM     52  N   UNL A   1      40.053  31.130  33.180  1.00  0.00    -0.248 NA
ATOM     53  C   UNL A   1      37.993  32.139  32.750  1.00  0.00     0.031 C 
ATOM     54  C   UNL A   1      42.259  31.494  37.023  1.00  0.00     0.029 A 
ATOM     55  C   UNL A   1      41.544  31.386  35.840  1.00  0.00     0.049 A 
ATOM     56  H   UNL A   1      41.987  30.247  34.120  1.00  0.00     0.167 HD
ATOM     57  C   UNL A   1      39.668  31.872  34.291  1.00  0.00     0.074 A 
ATOM     58  C   UNL A   1      38.409  32.501  33.956  1.00  0.00     0.031 C 
ATOM     59  C   UNL A   1      40.300  32.017  35.482  1.00  0.00     0.037 A 
BRANCH  46  60
ATOM     60  C   UNL A   1      45.580  28.855  35.941  1.00  0.00     0.064 A 
ATOM     61  C   UNL A   1      46.748  29.628  35.860  1.00  0.00     0.173 A 
ATOM     62  C   UNL A   1      45.559  27.787  36.849  1.00  0.00     0.173 A 
ATOM     63  F   UNL A   1      46.825  30.646  34.988  1.00  0.00    -0.203 F 
ATOM     64  C   UNL A   1      47.853  29.340  36.656  1.00  0.00     0.198 A 
ATOM     65  C   UNL A   1      46.655  27.520  37.664  1.00  0.00     0.198 A 
ATOM     66  F   UNL A   1      44.468  27.015  36.960  1.00  0.00    -0.203 F 
ATOM     67  F   UNL A   1      48.970  30.071  36.539  1.00  0.00    -0.200 F 
ATOM     68  C   UNL A   1      47.801  28.294  37.565  1.00  0.00     0.200 A 
ATOM     69  F   UNL A   1      46.600  26.515  38.549  1.00  0.00    -0.200 F 
ATOM     70  F   UNL A   1      48.858  28.030  38.346  1.00  0.00    -0.200 F 
ENDBRANCH  46  60
BRANCH  47  71
ATOM     71  C   UNL A   1      37.879  31.145  29.997  1.00  0.00     0.064 A 
ATOM     72  C   UNL A   1      37.789  32.444  29.477  1.00  0.00     0.173 A 
ATOM     73  C   UNL A   1      36.852  30.244  29.677  1.00  0.00     0.173 A 
ATOM     74  F   UNL A   1      38.730  33.352  29.777  1.00  0.00    -0.203 F 
ATOM     75  C   UNL A   1      36.709  32.831  28.684  1.00  0.00     0.198 A 
ATOM     76  C   UNL A   1      35.789  30.624  28.859  1.00  0.00     0.198 A 
ATOM     77  F   UNL A   1      36.883  28.992  30.154  1.00  0.00    -0.203 F 
ATOM     78  F   UNL A   1      36.627  34.092  28.240  1.00  0.00    -0.200 F 
ATOM     79  C   UNL A   1      35.715  31.919  28.370  1.00  0.00     0.200 A 
ATOM     80  F   UNL A   1      34.834  29.736  28.550  1.00  0.00    -0.200 F 
ATOM     81  F   UNL A   1      34.680  32.289  27.604  1.00  0.00    -0.200 F 
ENDBRANCH  47  71
BRANCH  59  82
ATOM     82  C   UNL A   1      39.667  32.915  36.507  1.00  0.00     0.064 A 
ATOM     83  C   UNL A   1      38.641  32.463  37.347  1.00  0.00     0.173 A 
ATOM     84  C   UNL A   1      40.156  34.216  36.709  1.00  0.00     0.173 A 
ATOM     85  F   UNL A   1      38.133  31.231  37.189  1.00  0.00    -0.203 F 
ATOM     86  C   UNL A   1      38.113  33.284  38.339  1.00  0.00     0.198 A 
ATOM     87  C   UNL A   1      39.650  35.023  37.724  1.00  0.00     0.198 A 
ATOM     88  F   UNL A   1      41.148  34.694  35.941  1.00  0.00    -0.203 F 
ATOM     89  F   UNL A   1      37.106  32.843  39.106  1.00  0.00    -0.200 F 
ATOM     90  C   UNL A   1      38.626  34.559  38.534  1.00  0.00     0.200 A 
ATOM     91  F   UNL A   1      40.161  36.246  37.924  1.00  0.00    -0.200 F 
ATOM     92  F   UNL A   1      38.130  35.341  39.503  1.00  0.00    -0.200 F 
ENDBRANCH  59  82
ENDBRANCH  33  34
ENDBRANCH  26  28
ENDBRANCH  25  26
ENDBRANCH  24  25
ENDBRANCH  23  24
ENDBRANCH  22  23
ENDBRANCH  21  22
ENDBRANCH   1  21
TORSDOF 21
ENDMDL
MODEL 3
REMARK VINA RESULT:      -8.1      5.174     11.336
REMARK SMILES O=C(Cc1c(F)cc(Cl)cc1F)OCCOCCOCCOCCOC(=O)c1ccc(-c2c3nc(c(-c4c(F)c(F)c(F)c(F)c4F)c4ccc([nH]4)c(-c4c(F)c(F)c(F)c(F)c4F)c4nc(c(-c5c(F)c(F)c(F)c(F)c5F)c5ccc2[nH]5)C=C4)C=C3)cc1
REMARK SMILES IDX 20 1 19 2 18 3 17 4 16 5 15 6 14 7 13 8 2 9 1 10 3 11 4 12
REMARK SMILES IDX 5 13 11 14 6 15 7 16 10 17 12 18 8 19 9 20 21 21 22 22 23 23
REMARK SMILES IDX 24 24 25 25 26 26 27 27 28 28 29 29 90 30 30 31 89 32 31 33
REMARK SMILES IDX 32 34 33 35 83 36 34 37 88 38 82 39 84 40 35 41 87 42 81 43
REMARK SMILES IDX 80 44 36 46 68 47 48 48 67 49 49 50 52 51 66 52 85 53 50 54
REMARK SMILES IDX 51 55 65 57 86 58 53 59 37 60 38 61 46 62 39 63 40 64 44 65
REMARK SMILES IDX 47 66 41 67 42 68 45 69 43 70 69 71 70 72 78 73 71 74 72 75
REMARK SMILES IDX 76 76 79 77 73 78 74 79 77 80 75 81 54 82 55 83 63 84 56 85
REMARK SMILES IDX 57 86 61 87 64 88 58 89 59 90 62 91 60 92
REMARK H PARENT 84 45 52 56
REMARK Flexibility Score: inf
ROOT
ATOM      1  C   UNL A   1      43.429  34.894  34.801  1.00  0.00     0.188 C 
ENDROOT
BRANCH   1   2
ATOM      2  O   UNL A   1      43.570  35.113  33.414  1.00  0.00    -0.377 OA
BRANCH   2   3
ATOM      3  C   UNL A   1      42.359  35.459  32.765  1.00  0.00     0.188 C 
BRANCH   3   4
ATOM      4  C   UNL A   1      41.712  34.369  31.909  1.00  0.00     0.188 C 
BRANCH   4   5
ATOM      5  O   UNL A   1      40.337  34.035  32.014  1.00  0.00    -0.376 OA
BRANCH   5   6
ATOM      6  C   UNL A   1      39.348  34.697  32.774  1.00  0.00     0.202 C 
BRANCH   6   7
ATOM      7  C   UNL A   1      37.857  34.559  32.498  1.00  0.00     0.261 C 
BRANCH   7   8
ATOM      8  O   UNL A   1      36.962  34.832  33.576  1.00  0.00    -0.463 OA
BRANCH   8   9
ATOM      9  C   UNL A   1      36.127  33.946  34.164  1.00  0.00     0.310 C 
ATOM     10  O   UNL A   1      36.612  33.049  34.853  1.00  0.00    -0.252 OA
BRANCH   9  11
ATOM     11  C   UNL A   1      34.641  33.981  33.863  1.00  0.00     0.164 C 
BRANCH  11  12
ATOM     12  C   UNL A   1      34.278  34.683  32.594  1.00  0.00     0.035 A 
ATOM     13  C   UNL A   1      33.784  35.988  32.595  1.00  0.00     0.131 A 
ATOM     14  C   UNL A   1      34.392  34.025  31.373  1.00  0.00     0.131 A 
ATOM     15  F   UNL A   1      33.724  36.681  33.739  1.00  0.00    -0.207 F 
ATOM     16  C   UNL A   1      33.303  36.580  31.435  1.00  0.00     0.060 A 
ATOM     17  C   UNL A   1      33.942  34.605  30.196  1.00  0.00     0.060 A 
ATOM     18  F   UNL A   1      34.922  32.797  31.331  1.00  0.00    -0.207 F 
ATOM     19  C   UNL A   1      33.370  35.873  30.239  1.00  0.00     0.046 A 
ATOM     20  Cl  UNL A   1      32.726  36.565  28.805  1.00  0.00    -0.084 Cl
ENDBRANCH  11  12
ENDBRANCH   9  11
ENDBRANCH   8   9
ENDBRANCH   7   8
ENDBRANCH   6   7
ENDBRANCH   5   6
ENDBRANCH   4   5
ENDBRANCH   3   4
ENDBRANCH   2   3
ENDBRANCH   1   2
BRANCH   1  21
ATOM     21  C   UNL A   1      41.981  34.986  35.323  1.00  0.00     0.188 C 
BRANCH  21  22
ATOM     22  O   UNL A   1      41.615  35.913  36.331  1.00  0.00    -0.376 OA
BRANCH  22  23
ATOM     23  C   UNL A   1      40.260  36.098  36.706  1.00  0.00     0.202 C 
BRANCH  23  24
ATOM     24  C   UNL A   1      39.708  35.732  38.097  1.00  0.00     0.261 C 
BRANCH  24  25
ATOM     25  O   UNL A   1      39.918  34.391  38.551  1.00  0.00    -0.460 OA
BRANCH  25  26
ATOM     26  C   UNL A   1      38.902  33.524  38.342  1.00  0.00     0.338 C 
ATOM     27  O   UNL A   1      37.739  33.640  38.693  1.00  0.00    -0.246 OA
BRANCH  26  28
ATOM     28  C   UNL A   1      39.371  32.488  37.395  1.00  0.00     0.060 A 
ATOM     29  C   UNL A   1      40.742  32.443  37.096  1.00  0.00     0.016 A 
ATOM     30  C   UNL A   1      38.500  31.535  36.863  1.00  0.00     0.016 A 
ATOM     31  C   UNL A   1      41.243  31.456  36.252  1.00  0.00     0.010 A 
ATOM     32  C   UNL A   1      38.994  30.577  35.973  1.00  0.00     0.010 A 
ATOM     33  C   UNL A   1      40.360  30.559  35.640  1.00  0.00    -0.014 A 
BRANCH  33  34
ATOM     34  C   UNL A   1      40.819  29.830  34.436  1.00  0.00     0.031 A 
ATOM     35  C   UNL A   1      40.052  30.068  33.162  1.00  0.00     0.074 A 
ATOM     36  C   UNL A   1      41.905  29.041  34.442  1.00  0.00     0.049 A 
ATOM     37  N   UNL A   1      40.220  29.542  31.977  1.00  0.00    -0.248 NA
ATOM     38  C   UNL A   1      38.947  31.040  33.238  1.00  0.00     0.031 C 
ATOM     39  C   UNL A   1      42.775  28.802  35.590  1.00  0.00     0.029 A 
ATOM     40  N   UNL A   1      42.466  28.298  33.432  1.00  0.00    -0.354 N 
ATOM     41  C   UNL A   1      39.256  30.130  31.170  1.00  0.00     0.074 A 
ATOM     42  C   UNL A   1      38.479  31.020  32.001  1.00  0.00     0.031 C 
ATOM     43  C   UNL A   1      43.761  27.964  35.222  1.00  0.00     0.029 A 
ATOM     44  C   UNL A   1      43.572  27.583  33.822  1.00  0.00     0.049 A 
ATOM     45  H   UNL A   1      42.109  28.279  32.516  1.00  0.00     0.167 HD
ATOM     46  C   UNL A   1      39.045  29.955  29.846  1.00  0.00     0.037 A 
ATOM     47  C   UNL A   1      44.328  26.711  33.124  1.00  0.00     0.037 A 
ATOM     48  C   UNL A   1      39.805  29.055  29.025  1.00  0.00     0.049 A 
ATOM     49  C   UNL A   1      43.984  26.429  31.680  1.00  0.00     0.074 A 
ATOM     50  C   UNL A   1      39.646  28.774  27.681  1.00  0.00     0.029 A 
ATOM     51  N   UNL A   1      40.867  28.285  29.475  1.00  0.00    -0.354 N 
ATOM     52  N   UNL A   1      43.063  26.977  30.923  1.00  0.00    -0.248 NA
ATOM     53  C   UNL A   1      44.785  25.404  30.996  1.00  0.00     0.031 C 
ATOM     54  C   UNL A   1      40.582  27.801  27.327  1.00  0.00     0.029 A 
ATOM     55  C   UNL A   1      41.362  27.515  28.437  1.00  0.00     0.049 A 
ATOM     56  H   UNL A   1      41.217  28.287  30.396  1.00  0.00     0.167 HD
ATOM     57  C   UNL A   1      43.195  26.388  29.671  1.00  0.00     0.074 A 
ATOM     58  C   UNL A   1      44.294  25.452  29.765  1.00  0.00     0.031 C 
ATOM     59  C   UNL A   1      42.470  26.602  28.546  1.00  0.00     0.037 A 
BRANCH  46  60
ATOM     60  C   UNL A   1      37.943  30.743  29.208  1.00  0.00     0.064 A 
ATOM     61  C   UNL A   1      36.765  30.124  28.766  1.00  0.00     0.173 A 
ATOM     62  C   UNL A   1      38.039  32.137  29.087  1.00  0.00     0.173 A 
ATOM     63  F   UNL A   1      36.635  28.790  28.839  1.00  0.00    -0.203 F 
ATOM     64  C   UNL A   1      35.726  30.871  28.219  1.00  0.00     0.198 A 
ATOM     65  C   UNL A   1      36.987  32.884  28.566  1.00  0.00     0.198 A 
ATOM     66  F   UNL A   1      39.148  32.776  29.490  1.00  0.00    -0.203 F 
ATOM     67  F   UNL A   1      34.622  30.256  27.773  1.00  0.00    -0.200 F 
ATOM     68  C   UNL A   1      35.833  32.251  28.131  1.00  0.00     0.200 A 
ATOM     69  F   UNL A   1      37.088  34.218  28.492  1.00  0.00    -0.200 F 
ATOM     70  F   UNL A   1      34.823  32.972  27.624  1.00  0.00    -0.200 F 
ENDBRANCH  46  60
BRANCH  47  71
ATOM     71  C   UNL A   1      45.484  26.032  33.770  1.00  0.00     0.064 A 
ATOM     72  C   UNL A   1      45.308  24.846  34.497  1.00  0.00     0.173 A 
ATOM     73  C   UNL A   1      46.779  26.566  33.702  1.00  0.00     0.173 A 
ATOM     74  F   UNL A   1      44.083  24.311  34.617  1.00  0.00    -0.203 F 
ATOM     75  C   UNL A   1      46.378  24.228  35.142  1.00  0.00     0.198 A 
ATOM     76  C   UNL A   1      47.855  25.931  34.322  1.00  0.00     0.198 A 
ATOM     77  F   UNL A   1      47.004  27.702  33.028  1.00  0.00    -0.203 F 
ATOM     78  F   UNL A   1      46.170  23.121  35.867  1.00  0.00    -0.200 F 
ATOM     79  C   UNL A   1      47.651  24.767  35.048  1.00  0.00     0.200 A 
ATOM     80  F   UNL A   1      49.086  26.449  34.221  1.00  0.00    -0.200 F 
ATOM     81  F   UNL A   1      48.681  24.170  35.663  1.00  0.00    -0.200 F 
ENDBRANCH  47  71
BRANCH  59  82
ATOM     82  C   UNL A   1      42.854  25.841  27.308  1.00  0.00     0.064 A 
ATOM     83  C   UNL A   1      43.932  26.239  26.505  1.00  0.00     0.173 A 
ATOM     84  C   UNL A   1      42.189  24.651  26.972  1.00  0.00     0.173 A 
ATOM     85  F   UNL A   1      44.594  27.374  26.779  1.00  0.00    -0.203 F 
ATOM     86  C   UNL A   1      44.319  25.485  25.402  1.00  0.00     0.198 A 
ATOM     87  C   UNL A   1      42.601  23.881  25.889  1.00  0.00     0.198 A 
ATOM     88  F   UNL A   1      41.159  24.217  27.716  1.00  0.00    -0.203 F 
ATOM     89  F   UNL A   1      45.329  25.905  24.627  1.00  0.00    -0.200 F 
ATOM     90  C   UNL A   1      43.661  24.301  25.100  1.00  0.00     0.200 A 
ATOM     91  F   UNL A   1      41.977  22.727  25.612  1.00  0.00    -0.200 F 
ATOM     92  F   UNL A   1      44.049  23.566  24.050  1.00  0.00    -0.200 F 
ENDBRANCH  59  82
ENDBRANCH  33  34
ENDBRANCH  26  28
ENDBRANCH  25  26
ENDBRANCH  24  25
ENDBRANCH  23  24
ENDBRANCH  22  23
ENDBRANCH  21  22
ENDBRANCH   1  21
TORSDOF 21
ENDMDL
