MODEL 1
REMARK VINA RESULT:      -8.8      0.000      0.000
REMARK SMILES Cc1cc(C(=O)N[C@@H]2C(=O)N3C(C(=O)OCCOCCOCCOCCOC(=O)c4ccc(-c5c6nc(c(-c7c(F)c(F)c(F)c(F)c7F)c7ccc([nH]7)c(-c7c(F)c(F)c(F)c(F)c7F)c7nc(c(-c8c(F)c(F)c(F)c(F)c8F)c8ccc5[nH]8)C=C7)C=C6)cc4)=C(CSc4nnc(C)s4)CS[C@H]23)n(C)n1
REMARK SMILES IDX 20 1 19 2 18 3 17 4 16 5 15 6 13 7 14 8 12 9 8 10 9 11
REMARK SMILES IDX 104 12 10 13 11 14 103 15 102 16 93 17 7 18 5 19 6 20 4 22
REMARK SMILES IDX 1 23 2 24 3 25 107 26 105 27 106 28 94 29 95 30 96 31 97 32
REMARK SMILES IDX 101 33 98 34 99 35 100 36 21 37 22 38 23 39 24 40 25 41
REMARK SMILES IDX 26 42 27 43 28 44 29 45 30 46 31 47 92 48 32 49 91 50 33 51
REMARK SMILES IDX 34 52 35 53 85 54 36 55 90 56 84 57 86 58 37 59 89 60 83 61
REMARK SMILES IDX 82 62 38 64 70 65 50 66 69 67 51 68 54 69 68 70 87 71 52 72
REMARK SMILES IDX 53 73 67 75 88 76 55 77 39 78 40 79 48 80 41 81 42 82 46 83
REMARK SMILES IDX 49 84 43 85 44 86 47 87 45 88 71 89 72 90 80 91 73 92 74 93
REMARK SMILES IDX 78 94 81 95 75 96 76 97 79 98 77 99 56 100 57 101 65 102
REMARK SMILES IDX 58 103 59 104 63 105 66 106 60 107 61 108 64 109 62 110
REMARK H PARENT 7 21 86 63 54 74
REMARK Flexibility Score: inf
ROOT
ATOM      1  C   UNL A   1      33.368  36.830  32.540  1.00  0.00     0.188 C 
ENDROOT
BRANCH   1   2
ATOM      2  C   UNL A   1      32.897  36.127  31.237  1.00  0.00     0.188 C 
BRANCH   2   3
ATOM      3  O   UNL A   1      33.160  36.849  30.047  1.00  0.00    -0.376 OA
BRANCH   3   4
ATOM      4  C   UNL A   1      33.301  36.172  28.819  1.00  0.00     0.202 C 
BRANCH   4   5
ATOM      5  C   UNL A   1      34.454  35.178  28.632  1.00  0.00     0.261 C 
BRANCH   5   6
ATOM      6  O   UNL A   1      34.283  34.193  27.608  1.00  0.00    -0.459 OA
BRANCH   6   7
ATOM      7  C   UNL A   1      33.187  33.411  27.700  1.00  0.00     0.355 C 
ATOM      8  O   UNL A   1      32.030  33.811  27.743  1.00  0.00    -0.244 OA
BRANCH   7   9
ATOM      9  C   UNL A   1      33.529  31.947  27.700  1.00  0.00     0.132 C 
ATOM     10  C   UNL A   1      36.242  30.879  29.482  1.00  0.00     0.206 C 
ATOM     11  C   UNL A   1      35.005  31.773  29.763  1.00  0.00     0.253 C 
ATOM     12  C   UNL A   1      35.467  30.505  28.181  1.00  0.00     0.181 C 
ATOM     13  O   UNL A   1      34.557  32.350  30.716  1.00  0.00    -0.272 OA
ATOM     14  N   UNL A   1      34.604  31.613  28.472  1.00  0.00    -0.289 N 
ATOM     15  S   UNL A   1      34.445  29.015  28.195  1.00  0.00    -0.129 SA
ATOM     16  C   UNL A   1      33.482  29.585  26.776  1.00  0.00     0.106 C 
ATOM     17  C   UNL A   1      32.930  31.003  26.919  1.00  0.00    -0.019 C 
BRANCH  10  18
ATOM     18  N   UNL A   1      36.634  29.781  30.400  1.00  0.00    -0.336 N 
ATOM     19  C   UNL A   1      37.771  28.992  30.318  1.00  0.00     0.270 C 
ATOM     20  O   UNL A   1      37.930  28.120  31.170  1.00  0.00    -0.268 OA
ATOM     21  H   UNL A   1      36.020  29.594  31.147  1.00  0.00     0.164 HD
BRANCH  19  22
ATOM     22  C   UNL A   1      38.662  29.185  29.190  1.00  0.00     0.126 A 
ATOM     23  C   UNL A   1      40.825  27.892  26.570  1.00  0.00     0.069 C 
ATOM     24  C   UNL A   1      40.071  28.716  27.545  1.00  0.00     0.060 A 
ATOM     25  C   UNL A   1      38.727  28.567  27.949  1.00  0.00     0.059 A 
ATOM     26  N   UNL A   1      40.674  29.671  28.253  1.00  0.00    -0.178 NA
ATOM     27  N   UNL A   1      39.735  30.048  29.153  1.00  0.00    -0.263 N 
ATOM     28  C   UNL A   1      39.979  31.245  29.921  1.00  0.00     0.174 C 
ENDBRANCH  19  22
ENDBRANCH  10  18
BRANCH  17  29
ATOM     29  C   UNL A   1      31.750  31.231  26.004  1.00  0.00     0.111 C 
BRANCH  29  30
ATOM     30  S   UNL A   1      31.238  29.893  24.903  1.00  0.00    -0.089 SA
BRANCH  30  31
ATOM     31  C   UNL A   1      29.968  30.454  23.846  1.00  0.00     0.174 A 
ATOM     32  N   UNL A   1      29.173  31.468  24.091  1.00  0.00    -0.132 NA
ATOM     33  S   UNL A   1      29.677  29.722  22.316  1.00  0.00    -0.091 S 
ATOM     34  N   UNL A   1      28.372  31.797  23.015  1.00  0.00    -0.143 NA
ATOM     35  C   UNL A   1      28.594  31.013  21.982  1.00  0.00     0.115 A 
ATOM     36  C   UNL A   1      27.991  31.190  20.636  1.00  0.00     0.081 C 
ENDBRANCH  30  31
ENDBRANCH  29  30
ENDBRANCH  17  29
ENDBRANCH   7   9
ENDBRANCH   6   7
ENDBRANCH   5   6
ENDBRANCH   4   5
ENDBRANCH   3   4
ENDBRANCH   2   3
ENDBRANCH   1   2
BRANCH   1  37
ATOM     37  O   UNL A   1      34.426  36.340  33.358  1.00  0.00    -0.377 OA
BRANCH  37  38
ATOM     38  C   UNL A   1      35.145  35.203  32.924  1.00  0.00     0.188 C 
BRANCH  38  39
ATOM     39  C   UNL A   1      34.835  33.941  33.747  1.00  0.00     0.188 C 
BRANCH  39  40
ATOM     40  O   UNL A   1      35.478  33.875  35.004  1.00  0.00    -0.376 OA
BRANCH  40  41
ATOM     41  C   UNL A   1      36.882  33.703  35.101  1.00  0.00     0.202 C 
BRANCH  41  42
ATOM     42  C   UNL A   1      37.618  32.415  35.535  1.00  0.00     0.261 C 
BRANCH  42  43
ATOM     43  O   UNL A   1      38.803  32.010  34.842  1.00  0.00    -0.460 OA
BRANCH  43  44
ATOM     44  C   UNL A   1      38.670  31.363  33.669  1.00  0.00     0.338 C 
ATOM     45  O   UNL A   1      37.763  31.460  32.865  1.00  0.00    -0.246 OA
BRANCH  44  46
ATOM     46  C   UNL A   1      39.932  30.622  33.444  1.00  0.00     0.060 A 
ATOM     47  C   UNL A   1      39.913  29.220  33.415  1.00  0.00     0.016 A 
ATOM     48  C   UNL A   1      41.129  31.313  33.237  1.00  0.00     0.016 A 
ATOM     49  C   UNL A   1      41.091  28.507  33.200  1.00  0.00     0.010 A 
ATOM     50  C   UNL A   1      42.312  30.598  33.041  1.00  0.00     0.010 A 
ATOM     51  C   UNL A   1      42.304  29.190  33.059  1.00  0.00    -0.014 A 
BRANCH  51  52
ATOM     52  C   UNL A   1      43.579  28.443  33.166  1.00  0.00     0.031 A 
ATOM     53  C   UNL A   1      44.115  28.156  34.542  1.00  0.00     0.074 A 
ATOM     54  C   UNL A   1      44.231  27.997  32.079  1.00  0.00     0.049 A 
ATOM     55  N   UNL A   1      45.230  27.572  34.899  1.00  0.00    -0.248 NA
ATOM     56  C   UNL A   1      43.278  28.598  35.670  1.00  0.00     0.031 C 
ATOM     57  C   UNL A   1      43.787  28.164  30.698  1.00  0.00     0.029 A 
ATOM     58  N   UNL A   1      45.418  27.315  31.974  1.00  0.00    -0.354 N 
ATOM     59  C   UNL A   1      45.232  27.588  36.287  1.00  0.00     0.074 A 
ATOM     60  C   UNL A   1      44.030  28.272  36.709  1.00  0.00     0.031 C 
ATOM     61  C   UNL A   1      44.697  27.607  29.879  1.00  0.00     0.029 A 
ATOM     62  C   UNL A   1      45.805  27.081  30.677  1.00  0.00     0.049 A 
ATOM     63  H   UNL A   1      45.942  27.022  32.754  1.00  0.00     0.167 HD
ATOM     64  C   UNL A   1      46.149  27.068  37.137  1.00  0.00     0.037 A 
ATOM     65  C   UNL A   1      46.936  26.528  30.196  1.00  0.00     0.037 A 
ATOM     66  C   UNL A   1      47.345  26.388  36.713  1.00  0.00     0.049 A 
ATOM     67  C   UNL A   1      47.987  26.037  31.161  1.00  0.00     0.074 A 
ATOM     68  C   UNL A   1      48.331  25.812  37.493  1.00  0.00     0.029 A 
ATOM     69  N   UNL A   1      47.722  26.207  35.390  1.00  0.00    -0.354 N 
ATOM     70  N   UNL A   1      47.976  26.032  32.472  1.00  0.00    -0.248 NA
ATOM     71  C   UNL A   1      49.211  25.469  30.575  1.00  0.00     0.031 C 
ATOM     72  C   UNL A   1      49.339  25.344  36.644  1.00  0.00     0.029 A 
ATOM     73  C   UNL A   1      48.945  25.558  35.334  1.00  0.00     0.049 A 
ATOM     74  H   UNL A   1      47.200  26.497  34.608  1.00  0.00     0.167 HD
ATOM     75  C   UNL A   1      49.167  25.433  32.866  1.00  0.00     0.074 A 
ATOM     76  C   UNL A   1      49.872  25.074  31.654  1.00  0.00     0.031 C 
ATOM     77  C   UNL A   1      49.633  25.198  34.118  1.00  0.00     0.037 A 
BRANCH  64  78
ATOM     78  C   UNL A   1      45.912  27.251  38.609  1.00  0.00     0.064 A 
ATOM     79  C   UNL A   1      45.123  26.359  39.352  1.00  0.00     0.173 A 
ATOM     80  C   UNL A   1      46.499  28.328  39.291  1.00  0.00     0.173 A 
ATOM     81  F   UNL A   1      44.524  25.321  38.747  1.00  0.00    -0.203 F 
ATOM     82  C   UNL A   1      44.901  26.559  40.712  1.00  0.00     0.198 A 
ATOM     83  C   UNL A   1      46.307  28.502  40.658  1.00  0.00     0.198 A 
ATOM     84  F   UNL A   1      47.266  29.209  38.632  1.00  0.00    -0.203 F 
ATOM     85  F   UNL A   1      44.093  25.730  41.386  1.00  0.00    -0.200 F 
ATOM     86  C   UNL A   1      45.500  27.625  41.365  1.00  0.00     0.200 A 
ATOM     87  F   UNL A   1      46.901  29.525  41.290  1.00  0.00    -0.200 F 
ATOM     88  F   UNL A   1      45.291  27.812  42.676  1.00  0.00    -0.200 F 
ENDBRANCH  64  78
BRANCH  65  89
ATOM     89  C   UNL A   1      47.148  26.422  28.727  1.00  0.00     0.064 A 
ATOM     90  C   UNL A   1      47.687  27.488  27.993  1.00  0.00     0.173 A 
ATOM     91  C   UNL A   1      46.793  25.261  28.022  1.00  0.00     0.173 A 
ATOM     92  F   UNL A   1      48.018  28.628  28.616  1.00  0.00    -0.203 F 
ATOM     93  C   UNL A   1      47.842  27.406  26.610  1.00  0.00     0.198 A 
ATOM     94  C   UNL A   1      46.981  25.168  26.645  1.00  0.00     0.198 A 
ATOM     95  F   UNL A   1      46.270  24.212  28.673  1.00  0.00    -0.203 F 
ATOM     96  F   UNL A   1      48.310  28.461  25.928  1.00  0.00    -0.200 F 
ATOM     97  C   UNL A   1      47.496  26.243  25.939  1.00  0.00     0.200 A 
ATOM     98  F   UNL A   1      46.659  24.037  26.001  1.00  0.00    -0.200 F 
ATOM     99  F   UNL A   1      47.651  26.164  24.609  1.00  0.00    -0.200 F 
ENDBRANCH  65  89
BRANCH  77 100
ATOM    100  C   UNL A   1      50.947  24.478  34.250  1.00  0.00     0.064 A 
ATOM    101  C   UNL A   1      51.033  23.078  34.230  1.00  0.00     0.173 A 
ATOM    102  C   UNL A   1      52.145  25.204  34.350  1.00  0.00     0.173 A 
ATOM    103  F   UNL A   1      49.919  22.334  34.147  1.00  0.00    -0.203 F 
ATOM    104  C   UNL A   1      52.263  22.432  34.337  1.00  0.00     0.198 A 
ATOM    105  C   UNL A   1      53.376  24.557  34.418  1.00  0.00     0.198 A 
ATOM    106  F   UNL A   1      52.124  26.545  34.364  1.00  0.00    -0.203 F 
ATOM    107  F   UNL A   1      52.315  21.094  34.371  1.00  0.00    -0.200 F 
ATOM    108  C   UNL A   1      53.433  23.172  34.421  1.00  0.00     0.200 A 
ATOM    109  F   UNL A   1      54.506  25.274  34.478  1.00  0.00    -0.200 F 
ATOM    110  F   UNL A   1      54.617  22.549  34.512  1.00  0.00    -0.200 F 
ENDBRANCH  77 100
ENDBRANCH  51  52
ENDBRANCH  44  46
ENDBRANCH  43  44
ENDBRANCH  42  43
ENDBRANCH  41  42
ENDBRANCH  40  41
ENDBRANCH  39  40
ENDBRANCH  38  39
ENDBRANCH  37  38
ENDBRANCH   1  37
TORSDOF 25
ENDMDL
MODEL 2
REMARK VINA RESULT:      -8.2      6.639     13.148
REMARK SMILES Cc1cc(C(=O)N[C@@H]2C(=O)N3C(C(=O)OCCOCCOCCOCCOC(=O)c4ccc(-c5c6nc(c(-c7c(F)c(F)c(F)c(F)c7F)c7ccc([nH]7)c(-c7c(F)c(F)c(F)c(F)c7F)c7nc(c(-c8c(F)c(F)c(F)c(F)c8F)c8ccc5[nH]8)C=C7)C=C6)cc4)=C(CSc4nnc(C)s4)CS[C@H]23)n(C)n1
REMARK SMILES IDX 20 1 19 2 18 3 17 4 16 5 15 6 13 7 14 8 12 9 8 10 9 11
REMARK SMILES IDX 104 12 10 13 11 14 103 15 102 16 93 17 7 18 5 19 6 20 4 22
REMARK SMILES IDX 1 23 2 24 3 25 107 26 105 27 106 28 94 29 95 30 96 31 97 32
REMARK SMILES IDX 101 33 98 34 99 35 100 36 21 37 22 38 23 39 24 40 25 41
REMARK SMILES IDX 26 42 27 43 28 44 29 45 30 46 31 47 92 48 32 49 91 50 33 51
REMARK SMILES IDX 34 52 35 53 85 54 36 55 90 56 84 57 86 58 37 59 89 60 83 61
REMARK SMILES IDX 82 62 38 64 70 65 50 66 69 67 51 68 54 69 68 70 87 71 52 72
REMARK SMILES IDX 53 73 67 75 88 76 55 77 39 78 40 79 48 80 41 81 42 82 46 83
REMARK SMILES IDX 49 84 43 85 44 86 47 87 45 88 71 89 72 90 80 91 73 92 74 93
REMARK SMILES IDX 78 94 81 95 75 96 76 97 79 98 77 99 56 100 57 101 65 102
REMARK SMILES IDX 58 103 59 104 63 105 66 106 60 107 61 108 64 109 62 110
REMARK H PARENT 7 21 86 63 54 74
REMARK Flexibility Score: inf
ROOT
ATOM      1  C   UNL A   1      47.689  28.626  28.027  1.00  0.00     0.188 C 
ENDROOT
BRANCH   1   2
ATOM      2  C   UNL A   1      48.195  29.396  26.776  1.00  0.00     0.188 C 
BRANCH   2   3
ATOM      3  O   UNL A   1      48.428  30.777  26.985  1.00  0.00    -0.376 OA
BRANCH   3   4
ATOM      4  C   UNL A   1      47.346  31.665  27.157  1.00  0.00     0.202 C 
BRANCH   4   5
ATOM      5  C   UNL A   1      47.274  32.942  26.310  1.00  0.00     0.261 C 
BRANCH   5   6
ATOM      6  O   UNL A   1      46.766  34.109  26.963  1.00  0.00    -0.459 OA
BRANCH   6   7
ATOM      7  C   UNL A   1      45.450  34.107  27.265  1.00  0.00     0.355 C 
ATOM      8  O   UNL A   1      44.595  33.431  26.708  1.00  0.00    -0.244 OA
BRANCH   7   9
ATOM      9  C   UNL A   1      45.129  35.015  28.420  1.00  0.00     0.132 C 
ATOM     10  C   UNL A   1      43.502  37.959  27.814  1.00  0.00     0.206 C 
ATOM     11  C   UNL A   1      43.296  36.469  27.426  1.00  0.00     0.253 C 
ATOM     12  C   UNL A   1      44.559  37.380  28.805  1.00  0.00     0.181 C 
ATOM     13  O   UNL A   1      42.467  35.842  26.825  1.00  0.00    -0.272 OA
ATOM     14  N   UNL A   1      44.444  36.146  28.083  1.00  0.00    -0.289 N 
ATOM     15  S   UNL A   1      44.043  37.052  30.505  1.00  0.00    -0.129 SA
ATOM     16  C   UNL A   1      45.423  35.916  30.773  1.00  0.00     0.106 C 
ATOM     17  C   UNL A   1      45.566  34.838  29.699  1.00  0.00    -0.019 C 
BRANCH  10  18
ATOM     18  N   UNL A   1      42.399  38.778  28.370  1.00  0.00    -0.336 N 
ATOM     19  C   UNL A   1      42.394  40.152  28.559  1.00  0.00     0.270 C 
ATOM     20  O   UNL A   1      41.386  40.663  29.042  1.00  0.00    -0.268 OA
ATOM     21  H   UNL A   1      41.582  38.294  28.634  1.00  0.00     0.164 HD
BRANCH  19  22
ATOM     22  C   UNL A   1      43.604  40.892  28.255  1.00  0.00     0.126 A 
ATOM     23  C   UNL A   1      46.034  43.489  29.008  1.00  0.00     0.069 C 
ATOM     24  C   UNL A   1      45.210  42.411  28.410  1.00  0.00     0.060 A 
ATOM     25  C   UNL A   1      44.677  41.271  29.049  1.00  0.00     0.059 A 
ATOM     26  N   UNL A   1      44.782  42.488  27.149  1.00  0.00    -0.178 NA
ATOM     27  N   UNL A   1      43.917  41.453  27.037  1.00  0.00    -0.263 N 
ATOM     28  C   UNL A   1      43.457  41.098  25.716  1.00  0.00     0.174 C 
ENDBRANCH  19  22
ENDBRANCH  10  18
BRANCH  17  29
ATOM     29  C   UNL A   1      46.349  33.651  30.210  1.00  0.00     0.111 C 
BRANCH  29  30
ATOM     30  S   UNL A   1      45.660  32.681  31.570  1.00  0.00    -0.089 SA
BRANCH  30  31
ATOM     31  C   UNL A   1      43.920  32.805  31.557  1.00  0.00     0.174 A 
ATOM     32  N   UNL A   1      43.178  33.157  32.580  1.00  0.00    -0.132 NA
ATOM     33  S   UNL A   1      43.003  32.508  30.131  1.00  0.00    -0.091 S 
ATOM     34  N   UNL A   1      41.849  33.335  32.247  1.00  0.00    -0.143 NA
ATOM     35  C   UNL A   1      41.631  33.109  30.970  1.00  0.00     0.115 A 
ATOM     36  C   UNL A   1      40.337  33.340  30.276  1.00  0.00     0.081 C 
ENDBRANCH  30  31
ENDBRANCH  29  30
ENDBRANCH  17  29
ENDBRANCH   7   9
ENDBRANCH   6   7
ENDBRANCH   5   6
ENDBRANCH   4   5
ENDBRANCH   3   4
ENDBRANCH   2   3
ENDBRANCH   1   2
BRANCH   1  37
ATOM     37  O   UNL A   1      47.789  27.213  28.173  1.00  0.00    -0.377 OA
BRANCH  37  38
ATOM     38  C   UNL A   1      46.961  26.391  27.376  1.00  0.00     0.188 C 
BRANCH  38  39
ATOM     39  C   UNL A   1      47.682  25.138  26.848  1.00  0.00     0.188 C 
BRANCH  39  40
ATOM     40  O   UNL A   1      47.048  23.912  27.151  1.00  0.00    -0.376 OA
BRANCH  40  41
ATOM     41  C   UNL A   1      46.291  23.216  26.174  1.00  0.00     0.202 C 
BRANCH  41  42
ATOM     42  C   UNL A   1      45.909  23.739  24.771  1.00  0.00     0.261 C 
BRANCH  42  43
ATOM     43  O   UNL A   1      44.806  24.640  24.629  1.00  0.00    -0.460 OA
BRANCH  43  44
ATOM     44  C   UNL A   1      43.566  24.183  24.886  1.00  0.00     0.338 C 
ATOM     45  O   UNL A   1      43.051  23.162  24.475  1.00  0.00    -0.246 OA
BRANCH  44  46
ATOM     46  C   UNL A   1      42.985  25.077  25.914  1.00  0.00     0.060 A 
ATOM     47  C   UNL A   1      43.526  26.356  26.101  1.00  0.00     0.016 A 
ATOM     48  C   UNL A   1      41.889  24.659  26.674  1.00  0.00     0.016 A 
ATOM     49  C   UNL A   1      42.989  27.213  27.060  1.00  0.00     0.010 A 
ATOM     50  C   UNL A   1      41.363  25.509  27.649  1.00  0.00     0.010 A 
ATOM     51  C   UNL A   1      41.935  26.776  27.871  1.00  0.00    -0.014 A 
BRANCH  51  52
ATOM     52  C   UNL A   1      41.591  27.541  29.093  1.00  0.00     0.031 A 
ATOM     53  C   UNL A   1      40.345  28.383  29.070  1.00  0.00     0.074 A 
ATOM     54  C   UNL A   1      42.338  27.467  30.208  1.00  0.00     0.049 A 
ATOM     55  N   UNL A   1      39.860  29.182  29.985  1.00  0.00    -0.248 NA
ATOM     56  C   UNL A   1      39.541  28.319  27.839  1.00  0.00     0.031 C 
ATOM     57  C   UNL A   1      43.534  26.646  30.372  1.00  0.00     0.029 A 
ATOM     58  N   UNL A   1      42.195  28.106  31.415  1.00  0.00    -0.354 N 
ATOM     59  C   UNL A   1      38.705  29.723  29.436  1.00  0.00     0.074 A 
ATOM     60  C   UNL A   1      38.581  29.194  28.096  1.00  0.00     0.031 C 
ATOM     61  C   UNL A   1      44.026  26.838  31.609  1.00  0.00     0.029 A 
ATOM     62  C   UNL A   1      43.201  27.825  32.307  1.00  0.00     0.049 A 
ATOM     63  H   UNL A   1      41.445  28.708  31.621  1.00  0.00     0.167 HD
ATOM     64  C   UNL A   1      37.819  30.576  30.002  1.00  0.00     0.037 A 
ATOM     65  C   UNL A   1      43.437  28.330  33.534  1.00  0.00     0.037 A 
ATOM     66  C   UNL A   1      37.947  31.101  31.336  1.00  0.00     0.049 A 
ATOM     67  C   UNL A   1      42.485  29.349  34.110  1.00  0.00     0.074 A 
ATOM     68  C   UNL A   1      37.097  31.960  32.008  1.00  0.00     0.029 A 
ATOM     69  N   UNL A   1      39.001  30.826  32.194  1.00  0.00    -0.354 N 
ATOM     70  N   UNL A   1      41.383  29.841  33.598  1.00  0.00    -0.248 NA
ATOM     71  C   UNL A   1      42.811  29.884  35.441  1.00  0.00     0.031 C 
ATOM     72  C   UNL A   1      37.673  32.260  33.247  1.00  0.00     0.029 A 
ATOM     73  C   UNL A   1      38.840  31.527  33.379  1.00  0.00     0.049 A 
ATOM     74  H   UNL A   1      39.753  30.222  31.992  1.00  0.00     0.167 HD
ATOM     75  C   UNL A   1      40.867  30.710  34.553  1.00  0.00     0.074 A 
ATOM     76  C   UNL A   1      41.772  30.669  35.682  1.00  0.00     0.031 C 
ATOM     77  C   UNL A   1      39.745  31.470  34.501  1.00  0.00     0.037 A 
BRANCH  64  78
ATOM     78  C   UNL A   1      36.657  31.024  29.163  1.00  0.00     0.064 A 
ATOM     79  C   UNL A   1      36.553  32.336  28.676  1.00  0.00     0.173 A 
ATOM     80  C   UNL A   1      35.638  30.119  28.825  1.00  0.00     0.173 A 
ATOM     81  F   UNL A   1      37.491  33.246  28.981  1.00  0.00    -0.203 F 
ATOM     82  C   UNL A   1      35.457  32.735  27.916  1.00  0.00     0.198 A 
ATOM     83  C   UNL A   1      34.563  30.511  28.032  1.00  0.00     0.198 A 
ATOM     84  F   UNL A   1      35.687  28.851  29.260  1.00  0.00    -0.203 F 
ATOM     85  F   UNL A   1      35.349  34.009  27.515  1.00  0.00    -0.200 F 
ATOM     86  C   UNL A   1      34.468  31.820  27.587  1.00  0.00     0.200 A 
ATOM     87  F   UNL A   1      33.617  29.620  27.703  1.00  0.00    -0.200 F 
ATOM     88  F   UNL A   1      33.417  32.203  26.849  1.00  0.00    -0.200 F 
ENDBRANCH  64  78
BRANCH  65  89
ATOM     89  C   UNL A   1      44.636  27.895  34.302  1.00  0.00     0.064 A 
ATOM     90  C   UNL A   1      44.600  26.753  35.115  1.00  0.00     0.173 A 
ATOM     91  C   UNL A   1      45.834  28.623  34.257  1.00  0.00     0.173 A 
ATOM     92  F   UNL A   1      43.471  26.036  35.212  1.00  0.00    -0.203 F 
ATOM     93  C   UNL A   1      45.708  26.371  35.870  1.00  0.00     0.198 A 
ATOM     94  C   UNL A   1      46.951  28.220  34.985  1.00  0.00     0.198 A 
ATOM     95  F   UNL A   1      45.923  29.726  33.498  1.00  0.00    -0.203 F 
ATOM     96  F   UNL A   1      45.627  25.306  36.680  1.00  0.00    -0.200 F 
ATOM     97  C   UNL A   1      46.884  27.100  35.798  1.00  0.00     0.200 A 
ATOM     98  F   UNL A   1      48.092  28.920  34.901  1.00  0.00    -0.200 F 
ATOM     99  F   UNL A   1      47.951  26.728  36.520  1.00  0.00    -0.200 F 
ENDBRANCH  65  89
BRANCH  77 100
ATOM    100  C   UNL A   1      39.399  32.287  35.715  1.00  0.00     0.064 A 
ATOM    101  C   UNL A   1      39.882  33.591  35.897  1.00  0.00     0.173 A 
ATOM    102  C   UNL A   1      38.529  31.771  36.690  1.00  0.00     0.173 A 
ATOM    103  F   UNL A   1      40.724  34.131  35.002  1.00  0.00    -0.203 F 
ATOM    104  C   UNL A   1      39.533  34.336  37.022  1.00  0.00     0.198 A 
ATOM    105  C   UNL A   1      38.153  32.531  37.794  1.00  0.00     0.198 A 
ATOM    106  F   UNL A   1      38.029  30.533  36.563  1.00  0.00    -0.203 F 
ATOM    107  F   UNL A   1      40.050  35.558  37.201  1.00  0.00    -0.200 F 
ATOM    108  C   UNL A   1      38.662  33.809  37.963  1.00  0.00     0.200 A 
ATOM    109  F   UNL A   1      37.294  32.027  38.691  1.00  0.00    -0.200 F 
ATOM    110  F   UNL A   1      38.318  34.531  39.039  1.00  0.00    -0.200 F 
ENDBRANCH  77 100
ENDBRANCH  51  52
ENDBRANCH  44  46
ENDBRANCH  43  44
ENDBRANCH  42  43
ENDBRANCH  41  42
ENDBRANCH  40  41
ENDBRANCH  39  40
ENDBRANCH  38  39
ENDBRANCH  37  38
ENDBRANCH   1  37
TORSDOF 25
ENDMDL
MODEL 3
REMARK VINA RESULT:      -7.6      6.916     13.644
REMARK SMILES Cc1cc(C(=O)N[C@@H]2C(=O)N3C(C(=O)OCCOCCOCCOCCOC(=O)c4ccc(-c5c6nc(c(-c7c(F)c(F)c(F)c(F)c7F)c7ccc([nH]7)c(-c7c(F)c(F)c(F)c(F)c7F)c7nc(c(-c8c(F)c(F)c(F)c(F)c8F)c8ccc5[nH]8)C=C7)C=C6)cc4)=C(CSc4nnc(C)s4)CS[C@H]23)n(C)n1
REMARK SMILES IDX 20 1 19 2 18 3 17 4 16 5 15 6 13 7 14 8 12 9 8 10 9 11
REMARK SMILES IDX 104 12 10 13 11 14 103 15 102 16 93 17 7 18 5 19 6 20 4 22
REMARK SMILES IDX 1 23 2 24 3 25 107 26 105 27 106 28 94 29 95 30 96 31 97 32
REMARK SMILES IDX 101 33 98 34 99 35 100 36 21 37 22 38 23 39 24 40 25 41
REMARK SMILES IDX 26 42 27 43 28 44 29 45 30 46 31 47 92 48 32 49 91 50 33 51
REMARK SMILES IDX 34 52 35 53 85 54 36 55 90 56 84 57 86 58 37 59 89 60 83 61
REMARK SMILES IDX 82 62 38 64 70 65 50 66 69 67 51 68 54 69 68 70 87 71 52 72
REMARK SMILES IDX 53 73 67 75 88 76 55 77 39 78 40 79 48 80 41 81 42 82 46 83
REMARK SMILES IDX 49 84 43 85 44 86 47 87 45 88 71 89 72 90 80 91 73 92 74 93
REMARK SMILES IDX 78 94 81 95 75 96 76 97 79 98 77 99 56 100 57 101 65 102
REMARK SMILES IDX 58 103 59 104 63 105 66 106 60 107 61 108 64 109 62 110
REMARK H PARENT 7 21 86 63 54 74
REMARK Flexibility Score: inf
ROOT
ATOM      1  C   UNL A   1      47.641  28.684  28.159  1.00  0.00     0.188 C 
ENDROOT
BRANCH   1   2
ATOM      2  C   UNL A   1      48.227  29.563  27.019  1.00  0.00     0.188 C 
BRANCH   2   3
ATOM      3  O   UNL A   1      48.377  30.933  27.345  1.00  0.00    -0.376 OA
BRANCH   3   4
ATOM      4  C   UNL A   1      47.263  31.797  27.326  1.00  0.00     0.202 C 
BRANCH   4   5
ATOM      5  C   UNL A   1      47.351  33.127  26.566  1.00  0.00     0.261 C 
BRANCH   5   6
ATOM      6  O   UNL A   1      46.753  34.261  27.200  1.00  0.00    -0.459 OA
BRANCH   6   7
ATOM      7  C   UNL A   1      45.405  34.276  27.265  1.00  0.00     0.355 C 
ATOM      8  O   UNL A   1      44.658  33.493  26.693  1.00  0.00    -0.244 OA
BRANCH   7   9
ATOM      9  C   UNL A   1      44.890  35.359  28.173  1.00  0.00     0.132 C 
ATOM     10  C   UNL A   1      43.245  38.025  26.806  1.00  0.00     0.206 C 
ATOM     11  C   UNL A   1      43.156  36.479  26.689  1.00  0.00     0.253 C 
ATOM     12  C   UNL A   1      44.177  37.711  28.018  1.00  0.00     0.181 C 
ATOM     13  O   UNL A   1      42.444  35.698  26.119  1.00  0.00    -0.272 OA
ATOM     14  N   UNL A   1      44.214  36.360  27.539  1.00  0.00    -0.289 N 
ATOM     15  S   UNL A   1      43.443  37.671  29.669  1.00  0.00    -0.129 SA
ATOM     16  C   UNL A   1      44.817  36.698  30.326  1.00  0.00     0.106 C 
ATOM     17  C   UNL A   1      45.152  35.451  29.507  1.00  0.00    -0.019 C 
BRANCH  10  18
ATOM     18  N   UNL A   1      42.043  38.859  27.048  1.00  0.00    -0.336 N 
ATOM     19  C   UNL A   1      41.949  40.238  26.939  1.00  0.00     0.270 C 
ATOM     20  O   UNL A   1      40.865  40.763  27.185  1.00  0.00    -0.268 OA
ATOM     21  H   UNL A   1      41.224  38.381  27.315  1.00  0.00     0.164 HD
BRANCH  19  22
ATOM     22  C   UNL A   1      43.151  40.986  26.623  1.00  0.00     0.126 A 
ATOM     23  C   UNL A   1      46.073  41.610  24.552  1.00  0.00     0.069 C 
ATOM     24  C   UNL A   1      45.025  41.580  25.601  1.00  0.00     0.060 A 
ATOM     25  C   UNL A   1      43.627  41.506  25.428  1.00  0.00     0.059 A 
ATOM     26  N   UNL A   1      45.346  41.508  26.894  1.00  0.00    -0.178 NA
ATOM     27  N   UNL A   1      44.158  41.298  27.509  1.00  0.00    -0.263 N 
ATOM     28  C   UNL A   1      44.114  41.418  28.947  1.00  0.00     0.174 C 
ENDBRANCH  19  22
ENDBRANCH  10  18
BRANCH  17  29
ATOM     29  C   UNL A   1      45.904  34.434  30.334  1.00  0.00     0.111 C 
BRANCH  29  30
ATOM     30  S   UNL A   1      47.458  34.931  31.113  1.00  0.00    -0.089 SA
BRANCH  30  31
ATOM     31  C   UNL A   1      48.777  34.022  30.422  1.00  0.00     0.174 A 
ATOM     32  N   UNL A   1      49.070  32.776  30.708  1.00  0.00    -0.132 NA
ATOM     33  S   UNL A   1      49.815  34.701  29.228  1.00  0.00    -0.091 S 
ATOM     34  N   UNL A   1      50.058  32.253  29.896  1.00  0.00    -0.143 NA
ATOM     35  C   UNL A   1      50.481  33.133  29.014  1.00  0.00     0.115 A 
ATOM     36  C   UNL A   1      51.441  32.841  27.918  1.00  0.00     0.081 C 
ENDBRANCH  30  31
ENDBRANCH  29  30
ENDBRANCH  17  29
ENDBRANCH   7   9
ENDBRANCH   6   7
ENDBRANCH   5   6
ENDBRANCH   4   5
ENDBRANCH   3   4
ENDBRANCH   2   3
ENDBRANCH   1   2
BRANCH   1  37
ATOM     37  O   UNL A   1      47.771  27.267  28.203  1.00  0.00    -0.377 OA
BRANCH  37  38
ATOM     38  C   UNL A   1      46.976  26.488  27.333  1.00  0.00     0.188 C 
BRANCH  38  39
ATOM     39  C   UNL A   1      47.742  25.309  26.708  1.00  0.00     0.188 C 
BRANCH  39  40
ATOM     40  O   UNL A   1      47.181  24.035  26.953  1.00  0.00    -0.376 OA
BRANCH  40  41
ATOM     41  C   UNL A   1      46.373  23.389  25.983  1.00  0.00     0.202 C 
BRANCH  41  42
ATOM     42  C   UNL A   1      45.827  24.021  24.682  1.00  0.00     0.261 C 
BRANCH  42  43
ATOM     43  O   UNL A   1      44.718  24.923  24.745  1.00  0.00    -0.460 OA
BRANCH  43  44
ATOM     44  C   UNL A   1      43.502  24.425  25.038  1.00  0.00     0.338 C 
ATOM     45  O   UNL A   1      43.015  23.380  24.653  1.00  0.00    -0.246 OA
BRANCH  44  46
ATOM     46  C   UNL A   1      42.912  25.312  26.066  1.00  0.00     0.060 A 
ATOM     47  C   UNL A   1      43.475  26.577  26.291  1.00  0.00     0.016 A 
ATOM     48  C   UNL A   1      41.788  24.905  26.790  1.00  0.00     0.016 A 
ATOM     49  C   UNL A   1      42.930  27.427  27.251  1.00  0.00     0.010 A 
ATOM     50  C   UNL A   1      41.255  25.748  27.766  1.00  0.00     0.010 A 
ATOM     51  C   UNL A   1      41.847  26.999  28.026  1.00  0.00    -0.014 A 
BRANCH  51  52
ATOM     52  C   UNL A   1      41.486  27.749  29.253  1.00  0.00     0.031 A 
ATOM     53  C   UNL A   1      40.256  28.613  29.214  1.00  0.00     0.074 A 
ATOM     54  C   UNL A   1      42.204  27.643  30.384  1.00  0.00     0.049 A 
ATOM     55  N   UNL A   1      39.762  29.405  30.131  1.00  0.00    -0.248 NA
ATOM     56  C   UNL A   1      39.481  28.584  27.963  1.00  0.00     0.031 C 
ATOM     57  C   UNL A   1      43.382  26.798  30.562  1.00  0.00     0.029 A 
ATOM     58  N   UNL A   1      42.044  28.264  31.598  1.00  0.00    -0.354 N 
ATOM     59  C   UNL A   1      38.631  29.975  29.564  1.00  0.00     0.074 A 
ATOM     60  C   UNL A   1      38.530  29.471  28.213  1.00  0.00     0.031 C 
ATOM     61  C   UNL A   1      43.847  26.962  31.814  1.00  0.00     0.029 A 
ATOM     62  C   UNL A   1      43.023  27.951  32.509  1.00  0.00     0.049 A 
ATOM     63  H   UNL A   1      41.299  28.876  31.796  1.00  0.00     0.167 HD
ATOM     64  C   UNL A   1      37.746  30.834  30.123  1.00  0.00     0.037 A 
ATOM     65  C   UNL A   1      43.238  28.431  33.750  1.00  0.00     0.037 A 
ATOM     66  C   UNL A   1      37.851  31.334  31.469  1.00  0.00     0.049 A 
ATOM     67  C   UNL A   1      42.290  29.457  34.320  1.00  0.00     0.074 A 
ATOM     68  C   UNL A   1      36.999  32.196  32.136  1.00  0.00     0.029 A 
ATOM     69  N   UNL A   1      38.879  31.026  32.347  1.00  0.00    -0.354 N 
ATOM     70  N   UNL A   1      41.209  29.976  33.790  1.00  0.00    -0.248 NA
ATOM     71  C   UNL A   1      42.593  29.963  35.667  1.00  0.00     0.031 C 
ATOM     72  C   UNL A   1      37.550  32.465  33.393  1.00  0.00     0.029 A 
ATOM     73  C   UNL A   1      38.702  31.710  33.540  1.00  0.00     0.049 A 
ATOM     74  H   UNL A   1      39.625  30.413  32.153  1.00  0.00     0.167 HD
ATOM     75  C   UNL A   1      40.685  30.838  34.748  1.00  0.00     0.074 A 
ATOM     76  C   UNL A   1      41.561  30.762  35.897  1.00  0.00     0.031 C 
ATOM     77  C   UNL A   1      39.578  31.619  34.682  1.00  0.00     0.037 A 
BRANCH  64  78
ATOM     78  C   UNL A   1      36.612  31.316  29.265  1.00  0.00     0.064 A 
ATOM     79  C   UNL A   1      36.557  32.630  28.775  1.00  0.00     0.173 A 
ATOM     80  C   UNL A   1      35.572  30.443  28.911  1.00  0.00     0.173 A 
ATOM     81  F   UNL A   1      37.517  33.512  29.096  1.00  0.00    -0.203 F 
ATOM     82  C   UNL A   1      35.486  33.062  27.996  1.00  0.00     0.198 A 
ATOM     83  C   UNL A   1      34.523  30.867  28.100  1.00  0.00     0.198 A 
ATOM     84  F   UNL A   1      35.575  29.175  29.347  1.00  0.00    -0.203 F 
ATOM     85  F   UNL A   1      35.424  34.338  27.593  1.00  0.00    -0.200 F 
ATOM     86  C   UNL A   1      34.475  32.177  27.652  1.00  0.00     0.200 A 
ATOM     87  F   UNL A   1      33.556  30.004  27.755  1.00  0.00    -0.200 F 
ATOM     88  F   UNL A   1      33.449  32.592  26.896  1.00  0.00    -0.200 F 
ENDBRANCH  64  78
BRANCH  65  89
ATOM     89  C   UNL A   1      44.410  27.962  34.538  1.00  0.00     0.064 A 
ATOM     90  C   UNL A   1      44.308  26.863  35.404  1.00  0.00     0.173 A 
ATOM     91  C   UNL A   1      45.649  28.615  34.460  1.00  0.00     0.173 A 
ATOM     92  F   UNL A   1      43.139  26.220  35.534  1.00  0.00    -0.203 F 
ATOM     93  C   UNL A   1      45.392  26.452  36.177  1.00  0.00     0.198 A 
ATOM     94  C   UNL A   1      46.742  28.181  35.207  1.00  0.00     0.198 A 
ATOM     95  F   UNL A   1      45.802  29.673  33.650  1.00  0.00    -0.203 F 
ATOM     96  F   UNL A   1      45.250  25.433  37.036  1.00  0.00    -0.200 F 
ATOM     97  C   UNL A   1      46.610  27.106  36.072  1.00  0.00     0.200 A 
ATOM     98  F   UNL A   1      47.921  28.807  35.092  1.00  0.00    -0.200 F 
ATOM     99  F   UNL A   1      47.654  26.706  36.812  1.00  0.00    -0.200 F 
ENDBRANCH  65  89
BRANCH  77 100
ATOM    100  C   UNL A   1      39.216  32.421  35.901  1.00  0.00     0.064 A 
ATOM    101  C   UNL A   1      38.421  31.894  36.929  1.00  0.00     0.173 A 
ATOM    102  C   UNL A   1      39.714  33.724  36.064  1.00  0.00     0.173 A 
ATOM    103  F   UNL A   1      37.909  30.658  36.822  1.00  0.00    -0.203 F 
ATOM    104  C   UNL A   1      38.113  32.650  38.058  1.00  0.00     0.198 A 
ATOM    105  C   UNL A   1      39.436  34.463  37.210  1.00  0.00     0.198 A 
ATOM    106  F   UNL A   1      40.488  34.276  35.117  1.00  0.00    -0.203 F 
ATOM    107  F   UNL A   1      37.307  32.145  39.001  1.00  0.00    -0.200 F 
ATOM    108  C   UNL A   1      38.629  33.930  38.202  1.00  0.00     0.200 A 
ATOM    109  F   UNL A   1      39.953  35.691  37.355  1.00  0.00    -0.200 F 
ATOM    110  F   UNL A   1      38.341  34.652  39.294  1.00  0.00    -0.200 F 
ENDBRANCH  77 100
ENDBRANCH  51  52
ENDBRANCH  44  46
ENDBRANCH  43  44
ENDBRANCH  42  43
ENDBRANCH  41  42
ENDBRANCH  40  41
ENDBRANCH  39  40
ENDBRANCH  38  39
ENDBRANCH  37  38
ENDBRANCH   1  37
TORSDOF 25
ENDMDL
