MODEL 1
REMARK VINA RESULT:     -11.3      0.000      0.000
REMARK SMILES C/C(Nc1ccc(C(=O)OCCOCCOCCOCCOC(=O)c2ccc(-c3c4nc(c(-c5c(F)c(F)c(F)c(F)c5F)c5ccc([nH]5)c(-c5c(F)c(F)c(F)c(F)c5F)c5nc(c(-c6c(F)c(F)c(F)c(F)c6F)c6ccc3[nH]6)C=C5)C=C4)cc2)c(O)c1)=C1/C(=O)O[C@H](C)C1=O
REMARK SMILES IDX 16 1 15 2 14 3 13 4 12 5 11 6 10 7 8 8 9 9 7 10 4 11 5 12
REMARK SMILES IDX 90 13 6 14 88 15 3 16 2 18 1 19 91 20 92 21 97 22 93 23
REMARK SMILES IDX 94 24 95 25 98 26 96 27 89 28 17 30 18 31 19 32 20 33 21 34
REMARK SMILES IDX 22 35 23 36 24 37 25 38 26 39 87 40 27 41 86 42 28 43 29 44
REMARK SMILES IDX 30 45 80 46 31 47 85 48 79 49 81 50 32 51 84 52 78 53 77 54
REMARK SMILES IDX 33 56 65 57 45 58 64 59 46 60 49 61 63 62 82 63 47 64 48 65
REMARK SMILES IDX 62 67 83 68 50 69 34 70 35 71 43 72 36 73 37 74 41 75 44 76
REMARK SMILES IDX 38 77 39 78 42 79 40 80 66 81 67 82 75 83 68 84 69 85 73 86
REMARK SMILES IDX 76 87 70 88 71 89 74 90 72 91 51 92 52 93 60 94 53 95 54 96
REMARK SMILES IDX 58 97 61 98 55 99 56 100 59 101 57 102
REMARK H PARENT 3 17 89 29 81 55 49 66
REMARK Flexibility Score: inf
ROOT
ATOM      1  O   UNL A   1      34.519  25.951  25.476  1.00  0.00    -0.377 OA
ENDROOT
BRANCH   1   2
ATOM      2  C   UNL A   1      34.754  24.680  24.880  1.00  0.00     0.188 C 
BRANCH   2   3
ATOM      3  C   UNL A   1      35.830  23.865  25.623  1.00  0.00     0.188 C 
BRANCH   3   4
ATOM      4  O   UNL A   1      36.025  22.569  25.079  1.00  0.00    -0.376 OA
BRANCH   4   5
ATOM      5  C   UNL A   1      35.052  21.550  25.239  1.00  0.00     0.202 C 
BRANCH   5   6
ATOM      6  C   UNL A   1      34.197  21.349  26.506  1.00  0.00     0.261 C 
BRANCH   6   7
ATOM      7  O   UNL A   1      32.845  21.814  26.481  1.00  0.00    -0.460 OA
BRANCH   7   8
ATOM      8  C   UNL A   1      32.103  21.532  25.388  1.00  0.00     0.341 C 
ATOM      9  O   UNL A   1      31.778  20.424  25.002  1.00  0.00    -0.246 OA
BRANCH   8  10
ATOM     10  C   UNL A   1      31.565  22.815  24.863  1.00  0.00     0.101 A 
ATOM     11  C   UNL A   1      30.712  25.366  24.001  1.00  0.00     0.042 A 
ATOM     12  C   UNL A   1      30.863  25.088  25.364  1.00  0.00     0.027 A 
ATOM     13  C   UNL A   1      30.979  24.346  23.076  1.00  0.00     0.073 A 
ATOM     14  C   UNL A   1      31.271  23.820  25.794  1.00  0.00     0.022 A 
ATOM     15  C   UNL A   1      31.434  23.098  23.499  1.00  0.00     0.132 A 
BRANCH  11  16
ATOM     16  N   UNL A   1      30.374  26.636  23.505  1.00  0.00    -0.358 N 
ATOM     17  H   UNL A   1      31.123  27.117  23.085  1.00  0.00     0.166 HD
BRANCH  16  18
ATOM     18  C   UNL A   1      29.176  27.333  23.501  1.00  0.00     0.030 C 
ATOM     19  C   UNL A   1      28.051  26.540  24.158  1.00  0.00     0.065 C 
ATOM     20  C   UNL A   1      28.900  28.541  22.956  1.00  0.00     0.125 C 
ATOM     21  C   UNL A   1      29.767  29.478  22.210  1.00  0.00     0.344 C 
ATOM     22  C   UNL A   1      27.586  29.209  23.030  1.00  0.00     0.212 C 
ATOM     23  O   UNL A   1      30.841  29.267  21.670  1.00  0.00    -0.246 OA
ATOM     24  O   UNL A   1      29.126  30.687  22.148  1.00  0.00    -0.451 OA
ATOM     25  C   UNL A   1      27.764  30.632  22.615  1.00  0.00     0.245 C 
ATOM     26  O   UNL A   1      26.522  28.710  23.363  1.00  0.00    -0.290 OA
ATOM     27  C   UNL A   1      27.550  31.579  23.781  1.00  0.00     0.062 C 
ENDBRANCH  16  18
ENDBRANCH  11  16
BRANCH  15  28
ATOM     28  O   UNL A   1      31.802  22.228  22.508  1.00  0.00    -0.507 OA
ATOM     29  H   UNL A   1      31.961  22.545  21.641  1.00  0.00     0.293 HD
ENDBRANCH  15  28
ENDBRANCH   8  10
ENDBRANCH   7   8
ENDBRANCH   6   7
ENDBRANCH   5   6
ENDBRANCH   4   5
ENDBRANCH   3   4
ENDBRANCH   2   3
ENDBRANCH   1   2
BRANCH   1  30
ATOM     30  C   UNL A   1      33.768  26.907  24.723  1.00  0.00     0.188 C 
BRANCH  30  31
ATOM     31  C   UNL A   1      33.569  28.368  25.202  1.00  0.00     0.188 C 
BRANCH  31  32
ATOM     32  O   UNL A   1      32.477  29.042  24.596  1.00  0.00    -0.376 OA
BRANCH  32  33
ATOM     33  C   UNL A   1      31.422  29.522  25.406  1.00  0.00     0.202 C 
BRANCH  33  34
ATOM     34  C   UNL A   1      31.624  30.884  26.082  1.00  0.00     0.261 C 
BRANCH  34  35
ATOM     35  O   UNL A   1      32.507  30.903  27.212  1.00  0.00    -0.460 OA
BRANCH  35  36
ATOM     36  C   UNL A   1      33.266  32.005  27.388  1.00  0.00     0.338 C 
ATOM     37  O   UNL A   1      32.929  33.166  27.251  1.00  0.00    -0.246 OA
BRANCH  36  38
ATOM     38  C   UNL A   1      34.558  31.565  27.957  1.00  0.00     0.060 A 
ATOM     39  C   UNL A   1      34.730  30.218  28.301  1.00  0.00     0.016 A 
ATOM     40  C   UNL A   1      35.598  32.480  28.140  1.00  0.00     0.016 A 
ATOM     41  C   UNL A   1      35.933  29.789  28.865  1.00  0.00     0.010 A 
ATOM     42  C   UNL A   1      36.794  32.053  28.721  1.00  0.00     0.010 A 
ATOM     43  C   UNL A   1      36.955  30.714  29.118  1.00  0.00    -0.014 A 
BRANCH  43  44
ATOM     44  C   UNL A   1      38.109  30.330  29.967  1.00  0.00     0.031 A 
ATOM     45  C   UNL A   1      39.113  29.358  29.409  1.00  0.00     0.074 A 
ATOM     46  C   UNL A   1      38.275  30.838  31.201  1.00  0.00     0.049 A 
ATOM     47  N   UNL A   1      40.161  28.821  29.979  1.00  0.00    -0.248 NA
ATOM     48  C   UNL A   1      38.897  28.930  28.017  1.00  0.00     0.031 C 
ATOM     49  C   UNL A   1      37.399  31.819  31.835  1.00  0.00     0.029 A 
ATOM     50  N   UNL A   1      39.240  30.585  32.145  1.00  0.00    -0.354 N 
ATOM     51  C   UNL A   1      40.726  27.990  29.019  1.00  0.00     0.074 A 
ATOM     52  C   UNL A   1      39.883  28.064  27.845  1.00  0.00     0.031 C 
ATOM     53  C   UNL A   1      37.861  32.078  33.071  1.00  0.00     0.029 A 
ATOM     54  C   UNL A   1      39.041  31.252  33.328  1.00  0.00     0.049 A 
ATOM     55  H   UNL A   1      40.002  29.981  31.988  1.00  0.00     0.167 HD
ATOM     56  C   UNL A   1      41.850  27.241  29.105  1.00  0.00     0.037 A 
ATOM     57  C   UNL A   1      39.719  31.181  34.490  1.00  0.00     0.037 A 
ATOM     58  C   UNL A   1      42.680  27.164  30.278  1.00  0.00     0.049 A 
ATOM     59  C   UNL A   1      40.917  30.268  34.591  1.00  0.00     0.074 A 
ATOM     60  C   UNL A   1      43.845  26.441  30.465  1.00  0.00     0.029 A 
ATOM     61  N   UNL A   1      42.426  27.827  31.470  1.00  0.00    -0.354 N 
ATOM     62  N   UNL A   1      41.459  29.502  33.675  1.00  0.00    -0.248 NA
ATOM     63  C   UNL A   1      41.600  30.214  35.893  1.00  0.00     0.031 C 
ATOM     64  C   UNL A   1      44.260  26.615  31.789  1.00  0.00     0.029 A 
ATOM     65  C   UNL A   1      43.396  27.506  32.407  1.00  0.00     0.049 A 
ATOM     66  H   UNL A   1      41.667  28.436  31.628  1.00  0.00     0.167 HD
ATOM     67  C   UNL A   1      42.562  28.906  34.275  1.00  0.00     0.074 A 
ATOM     68  C   UNL A   1      42.620  29.409  35.632  1.00  0.00     0.031 C 
ATOM     69  C   UNL A   1      43.449  28.024  33.750  1.00  0.00     0.037 A 
BRANCH  56  70
ATOM     70  C   UNL A   1      42.230  26.420  27.906  1.00  0.00     0.064 A 
ATOM     71  C   UNL A   1      43.188  26.861  26.980  1.00  0.00     0.173 A 
ATOM     72  C   UNL A   1      41.648  25.161  27.696  1.00  0.00     0.173 A 
ATOM     73  F   UNL A   1      43.766  28.063  27.126  1.00  0.00    -0.203 F 
ATOM     74  C   UNL A   1      43.526  26.086  25.873  1.00  0.00     0.198 A 
ATOM     75  C   UNL A   1      42.013  24.373  26.608  1.00  0.00     0.198 A 
ATOM     76  F   UNL A   1      40.728  24.689  28.551  1.00  0.00    -0.203 F 
ATOM     77  F   UNL A   1      44.402  26.552  24.973  1.00  0.00    -0.200 F 
ATOM     78  C   UNL A   1      42.944  24.840  25.692  1.00  0.00     0.200 A 
ATOM     79  F   UNL A   1      41.461  23.163  26.443  1.00  0.00    -0.200 F 
ATOM     80  F   UNL A   1      43.276  24.091  24.632  1.00  0.00    -0.200 F 
ENDBRANCH  56  70
BRANCH  57  81
ATOM     81  C   UNL A   1      39.281  31.987  35.661  1.00  0.00     0.064 A 
ATOM     82  C   UNL A   1      39.819  33.258  35.908  1.00  0.00     0.173 A 
ATOM     83  C   UNL A   1      38.340  31.491  36.577  1.00  0.00     0.173 A 
ATOM     84  F   UNL A   1      40.743  33.766  35.079  1.00  0.00    -0.203 F 
ATOM     85  C   UNL A   1      39.449  33.992  37.033  1.00  0.00     0.198 A 
ATOM     86  C   UNL A   1      37.946  32.239  37.684  1.00  0.00     0.198 A 
ATOM     87  F   UNL A   1      37.798  30.278  36.392  1.00  0.00    -0.203 F 
ATOM     88  F   UNL A   1      40.021  35.180  37.272  1.00  0.00    -0.200 F 
ATOM     89  C   UNL A   1      38.508  33.486  37.917  1.00  0.00     0.200 A 
ATOM     90  F   UNL A   1      37.028  31.750  38.528  1.00  0.00    -0.200 F 
ATOM     91  F   UNL A   1      38.151  34.192  38.998  1.00  0.00    -0.200 F 
ENDBRANCH  57  81
BRANCH  69  92
ATOM     92  C   UNL A   1      44.592  27.582  34.623  1.00  0.00     0.064 A 
ATOM     93  C   UNL A   1      45.773  28.330  34.736  1.00  0.00     0.173 A 
ATOM     94  C   UNL A   1      44.480  26.414  35.395  1.00  0.00     0.173 A 
ATOM     95  F   UNL A   1      45.938  29.447  34.012  1.00  0.00    -0.203 F 
ATOM     96  C   UNL A   1      46.812  27.908  35.564  1.00  0.00     0.198 A 
ATOM     97  C   UNL A   1      45.505  26.016  36.250  1.00  0.00     0.198 A 
ATOM     98  F   UNL A   1      43.368  25.667  35.335  1.00  0.00    -0.203 F 
ATOM     99  F   UNL A   1      47.953  28.608  35.614  1.00  0.00    -0.200 F 
ATOM    100  C   UNL A   1      46.673  26.757  36.325  1.00  0.00     0.200 A 
ATOM    101  F   UNL A   1      45.360  24.915  36.999  1.00  0.00    -0.200 F 
ATOM    102  F   UNL A   1      47.669  26.359  37.129  1.00  0.00    -0.200 F 
ENDBRANCH  69  92
ENDBRANCH  43  44
ENDBRANCH  36  38
ENDBRANCH  35  36
ENDBRANCH  34  35
ENDBRANCH  33  34
ENDBRANCH  32  33
ENDBRANCH  31  32
ENDBRANCH  30  31
ENDBRANCH   1  30
TORSDOF 23
ENDMDL
MODEL 2
REMARK VINA RESULT:     -11.0      2.667      7.702
REMARK SMILES C/C(Nc1ccc(C(=O)OCCOCCOCCOCCOC(=O)c2ccc(-c3c4nc(c(-c5c(F)c(F)c(F)c(F)c5F)c5ccc([nH]5)c(-c5c(F)c(F)c(F)c(F)c5F)c5nc(c(-c6c(F)c(F)c(F)c(F)c6F)c6ccc3[nH]6)C=C5)C=C4)cc2)c(O)c1)=C1/C(=O)O[C@H](C)C1=O
REMARK SMILES IDX 16 1 15 2 14 3 13 4 12 5 11 6 10 7 8 8 9 9 7 10 4 11 5 12
REMARK SMILES IDX 90 13 6 14 88 15 3 16 2 18 1 19 91 20 92 21 97 22 93 23
REMARK SMILES IDX 94 24 95 25 98 26 96 27 89 28 17 30 18 31 19 32 20 33 21 34
REMARK SMILES IDX 22 35 23 36 24 37 25 38 26 39 87 40 27 41 86 42 28 43 29 44
REMARK SMILES IDX 30 45 80 46 31 47 85 48 79 49 81 50 32 51 84 52 78 53 77 54
REMARK SMILES IDX 33 56 65 57 45 58 64 59 46 60 49 61 63 62 82 63 47 64 48 65
REMARK SMILES IDX 62 67 83 68 50 69 34 70 35 71 43 72 36 73 37 74 41 75 44 76
REMARK SMILES IDX 38 77 39 78 42 79 40 80 66 81 67 82 75 83 68 84 69 85 73 86
REMARK SMILES IDX 76 87 70 88 71 89 74 90 72 91 51 92 52 93 60 94 53 95 54 96
REMARK SMILES IDX 58 97 61 98 55 99 56 100 59 101 57 102
REMARK H PARENT 3 17 89 29 81 55 49 66
REMARK Flexibility Score: inf
ROOT
ATOM      1  O   UNL A   1      39.184  22.226  26.573  1.00  0.00    -0.377 OA
ENDROOT
BRANCH   1   2
ATOM      2  C   UNL A   1      38.465  21.817  25.415  1.00  0.00     0.188 C 
BRANCH   2   3
ATOM      3  C   UNL A   1      37.069  21.257  25.749  1.00  0.00     0.188 C 
BRANCH   3   4
ATOM      4  O   UNL A   1      36.025  21.891  25.025  1.00  0.00    -0.376 OA
BRANCH   4   5
ATOM      5  C   UNL A   1      34.821  21.208  24.719  1.00  0.00     0.202 C 
BRANCH   5   6
ATOM      6  C   UNL A   1      33.494  21.901  24.351  1.00  0.00     0.261 C 
BRANCH   6   7
ATOM      7  O   UNL A   1      32.638  22.318  25.417  1.00  0.00    -0.460 OA
BRANCH   7   8
ATOM      8  C   UNL A   1      33.129  23.209  26.307  1.00  0.00     0.341 C 
ATOM      9  O   UNL A   1      33.735  22.948  27.330  1.00  0.00    -0.246 OA
BRANCH   8  10
ATOM     10  C   UNL A   1      32.995  24.565  25.711  1.00  0.00     0.101 A 
ATOM     11  C   UNL A   1      32.634  27.210  24.789  1.00  0.00     0.042 A 
ATOM     12  C   UNL A   1      31.563  26.494  25.337  1.00  0.00     0.027 A 
ATOM     13  C   UNL A   1      33.883  26.580  24.695  1.00  0.00     0.073 A 
ATOM     14  C   UNL A   1      31.736  25.177  25.780  1.00  0.00     0.022 A 
ATOM     15  C   UNL A   1      34.070  25.287  25.183  1.00  0.00     0.132 A 
BRANCH  11  16
ATOM     16  N   UNL A   1      32.540  28.554  24.391  1.00  0.00    -0.358 N 
ATOM     17  H   UNL A   1      33.386  28.937  24.064  1.00  0.00     0.166 HD
BRANCH  16  18
ATOM     18  C   UNL A   1      31.472  29.436  24.377  1.00  0.00     0.030 C 
ATOM     19  C   UNL A   1      31.515  30.405  25.554  1.00  0.00     0.065 C 
ATOM     20  C   UNL A   1      30.426  29.488  23.519  1.00  0.00     0.125 C 
ATOM     21  C   UNL A   1      30.099  28.639  22.353  1.00  0.00     0.344 C 
ATOM     22  C   UNL A   1      29.345  30.491  23.579  1.00  0.00     0.212 C 
ATOM     23  O   UNL A   1      30.533  27.536  22.059  1.00  0.00    -0.246 OA
ATOM     24  O   UNL A   1      29.128  29.276  21.627  1.00  0.00    -0.451 OA
ATOM     25  C   UNL A   1      28.579  30.426  22.299  1.00  0.00     0.245 C 
ATOM     26  O   UNL A   1      29.094  31.250  24.503  1.00  0.00    -0.290 OA
ATOM     27  C   UNL A   1      28.776  31.684  21.475  1.00  0.00     0.062 C 
ENDBRANCH  16  18
ENDBRANCH  11  16
BRANCH  15  28
ATOM     28  O   UNL A   1      35.359  24.825  25.174  1.00  0.00    -0.507 OA
ATOM     29  H   UNL A   1      35.848  24.787  25.972  1.00  0.00     0.293 HD
ENDBRANCH  15  28
ENDBRANCH   8  10
ENDBRANCH   7   8
ENDBRANCH   6   7
ENDBRANCH   5   6
ENDBRANCH   4   5
ENDBRANCH   3   4
ENDBRANCH   2   3
ENDBRANCH   1   2
BRANCH   1  30
ATOM     30  C   UNL A   1      40.251  21.386  27.023  1.00  0.00     0.188 C 
BRANCH  30  31
ATOM     31  C   UNL A   1      40.777  20.194  26.184  1.00  0.00     0.188 C 
BRANCH  31  32
ATOM     32  O   UNL A   1      42.131  19.852  26.434  1.00  0.00    -0.376 OA
BRANCH  32  33
ATOM     33  C   UNL A   1      43.131  20.265  25.524  1.00  0.00     0.202 C 
BRANCH  33  34
ATOM     34  C   UNL A   1      43.743  21.655  25.740  1.00  0.00     0.261 C 
BRANCH  34  35
ATOM     35  O   UNL A   1      42.970  22.765  25.265  1.00  0.00    -0.460 OA
BRANCH  35  36
ATOM     36  C   UNL A   1      43.610  23.942  25.097  1.00  0.00     0.338 C 
ATOM     37  O   UNL A   1      44.444  24.217  24.255  1.00  0.00    -0.246 OA
BRANCH  36  38
ATOM     38  C   UNL A   1      42.990  24.917  26.019  1.00  0.00     0.060 A 
ATOM     39  C   UNL A   1      43.582  26.177  26.181  1.00  0.00     0.016 A 
ATOM     40  C   UNL A   1      41.821  24.590  26.712  1.00  0.00     0.016 A 
ATOM     41  C   UNL A   1      43.025  27.100  27.067  1.00  0.00     0.010 A 
ATOM     42  C   UNL A   1      41.276  25.509  27.612  1.00  0.00     0.010 A 
ATOM     43  C   UNL A   1      41.895  26.754  27.820  1.00  0.00    -0.014 A 
BRANCH  43  44
ATOM     44  C   UNL A   1      41.471  27.607  28.957  1.00  0.00     0.031 A 
ATOM     45  C   UNL A   1      42.238  27.507  30.248  1.00  0.00     0.074 A 
ATOM     46  C   UNL A   1      40.439  28.460  28.851  1.00  0.00     0.049 A 
ATOM     47  N   UNL A   1      42.021  28.095  31.396  1.00  0.00    -0.248 NA
ATOM     48  C   UNL A   1      43.410  26.615  30.239  1.00  0.00     0.031 C 
ATOM     49  C   UNL A   1      39.647  28.682  27.644  1.00  0.00     0.029 A 
ATOM     50  N   UNL A   1      39.874  29.296  29.784  1.00  0.00    -0.354 N 
ATOM     51  C   UNL A   1      43.022  27.641  32.246  1.00  0.00     0.074 A 
ATOM     52  C   UNL A   1      43.824  26.700  31.494  1.00  0.00     0.031 C 
ATOM     53  C   UNL A   1      38.689  29.586  27.913  1.00  0.00     0.029 A 
ATOM     54  C   UNL A   1      38.777  29.978  29.319  1.00  0.00     0.049 A 
ATOM     55  H   UNL A   1      40.223  29.395  30.698  1.00  0.00     0.167 HD
ATOM     56  C   UNL A   1      43.257  27.985  33.534  1.00  0.00     0.037 A 
ATOM     57  C   UNL A   1      37.929  30.802  29.966  1.00  0.00     0.037 A 
ATOM     58  C   UNL A   1      42.452  28.913  34.281  1.00  0.00     0.049 A 
ATOM     59  C   UNL A   1      38.159  31.099  31.428  1.00  0.00     0.074 A 
ATOM     60  C   UNL A   1      42.610  29.336  35.589  1.00  0.00     0.029 A 
ATOM     61  N   UNL A   1      41.326  29.557  33.788  1.00  0.00    -0.354 N 
ATOM     62  N   UNL A   1      39.118  30.684  32.221  1.00  0.00    -0.248 NA
ATOM     63  C   UNL A   1      37.184  31.984  32.085  1.00  0.00     0.031 C 
ATOM     64  C   UNL A   1      41.545  30.185  35.907  1.00  0.00     0.029 A 
ATOM     65  C   UNL A   1      40.764  30.351  34.775  1.00  0.00     0.049 A 
ATOM     66  H   UNL A   1      40.978  29.464  32.871  1.00  0.00     0.167 HD
ATOM     67  C   UNL A   1      38.885  31.283  33.453  1.00  0.00     0.074 A 
ATOM     68  C   UNL A   1      37.700  32.101  33.300  1.00  0.00     0.031 C 
ATOM     69  C   UNL A   1      39.590  31.170  34.607  1.00  0.00     0.037 A 
BRANCH  56  70
ATOM     70  C   UNL A   1      44.416  27.326  34.227  1.00  0.00     0.064 A 
ATOM     71  C   UNL A   1      44.269  26.126  34.938  1.00  0.00     0.173 A 
ATOM     72  C   UNL A   1      45.699  27.890  34.153  1.00  0.00     0.173 A 
ATOM     73  F   UNL A   1      43.062  25.552  35.052  1.00  0.00    -0.203 F 
ATOM     74  C   UNL A   1      45.356  25.531  35.575  1.00  0.00     0.198 A 
ATOM     75  C   UNL A   1      46.790  27.275  34.761  1.00  0.00     0.198 A 
ATOM     76  F   UNL A   1      45.898  29.036  33.483  1.00  0.00    -0.203 F 
ATOM     77  F   UNL A   1      45.180  24.415  36.295  1.00  0.00    -0.200 F 
ATOM     78  C   UNL A   1      46.616  26.102  35.479  1.00  0.00     0.200 A 
ATOM     79  F   UNL A   1      48.010  27.820  34.655  1.00  0.00    -0.200 F 
ATOM     80  F   UNL A   1      47.663  25.525  36.085  1.00  0.00    -0.200 F 
ENDBRANCH  56  70
BRANCH  57  81
ATOM     81  C   UNL A   1      36.773  31.400  29.245  1.00  0.00     0.064 A 
ATOM     82  C   UNL A   1      36.759  32.760  28.902  1.00  0.00     0.173 A 
ATOM     83  C   UNL A   1      35.646  30.634  28.913  1.00  0.00     0.173 A 
ATOM     84  F   UNL A   1      37.800  33.542  29.224  1.00  0.00    -0.203 F 
ATOM     85  C   UNL A   1      35.656  33.333  28.275  1.00  0.00     0.198 A 
ATOM     86  C   UNL A   1      34.556  31.202  28.255  1.00  0.00     0.198 A 
ATOM     87  F   UNL A   1      35.604  29.330  29.223  1.00  0.00    -0.203 F 
ATOM     88  F   UNL A   1      35.647  34.647  28.008  1.00  0.00    -0.200 F 
ATOM     89  C   UNL A   1      34.557  32.554  27.945  1.00  0.00     0.200 A 
ATOM     90  F   UNL A   1      33.502  30.440  27.929  1.00  0.00    -0.200 F 
ATOM     91  F   UNL A   1      33.497  33.105  27.339  1.00  0.00    -0.200 F 
ENDBRANCH  57  81
BRANCH  69  92
ATOM     92  C   UNL A   1      39.134  31.987  35.784  1.00  0.00     0.064 A 
ATOM     93  C   UNL A   1      38.272  31.467  36.761  1.00  0.00     0.173 A 
ATOM     94  C   UNL A   1      39.607  33.298  35.960  1.00  0.00     0.173 A 
ATOM     95  F   UNL A   1      37.781  30.225  36.636  1.00  0.00    -0.203 F 
ATOM     96  C   UNL A   1      37.876  32.238  37.851  1.00  0.00     0.198 A 
ATOM     97  C   UNL A   1      39.239  34.052  37.071  1.00  0.00     0.198 A 
ATOM     98  F   UNL A   1      40.443  33.842  35.063  1.00  0.00    -0.203 F 
ATOM     99  F   UNL A   1      37.009  31.740  38.743  1.00  0.00    -0.200 F 
ATOM    100  C   UNL A   1      38.366  33.526  38.009  1.00  0.00     0.200 A 
ATOM    101  F   UNL A   1      39.730  35.288  37.231  1.00  0.00    -0.200 F 
ATOM    102  F   UNL A   1      37.993  34.262  39.065  1.00  0.00    -0.200 F 
ENDBRANCH  69  92
ENDBRANCH  43  44
ENDBRANCH  36  38
ENDBRANCH  35  36
ENDBRANCH  34  35
ENDBRANCH  33  34
ENDBRANCH  32  33
ENDBRANCH  31  32
ENDBRANCH  30  31
ENDBRANCH   1  30
TORSDOF 23
ENDMDL
MODEL 3
REMARK VINA RESULT:     -10.9      0.826      6.935
REMARK SMILES C/C(Nc1ccc(C(=O)OCCOCCOCCOCCOC(=O)c2ccc(-c3c4nc(c(-c5c(F)c(F)c(F)c(F)c5F)c5ccc([nH]5)c(-c5c(F)c(F)c(F)c(F)c5F)c5nc(c(-c6c(F)c(F)c(F)c(F)c6F)c6ccc3[nH]6)C=C5)C=C4)cc2)c(O)c1)=C1/C(=O)O[C@H](C)C1=O
REMARK SMILES IDX 16 1 15 2 14 3 13 4 12 5 11 6 10 7 8 8 9 9 7 10 4 11 5 12
REMARK SMILES IDX 90 13 6 14 88 15 3 16 2 18 1 19 91 20 92 21 97 22 93 23
REMARK SMILES IDX 94 24 95 25 98 26 96 27 89 28 17 30 18 31 19 32 20 33 21 34
REMARK SMILES IDX 22 35 23 36 24 37 25 38 26 39 87 40 27 41 86 42 28 43 29 44
REMARK SMILES IDX 30 45 80 46 31 47 85 48 79 49 81 50 32 51 84 52 78 53 77 54
REMARK SMILES IDX 33 56 65 57 45 58 64 59 46 60 49 61 63 62 82 63 47 64 48 65
REMARK SMILES IDX 62 67 83 68 50 69 34 70 35 71 43 72 36 73 37 74 41 75 44 76
REMARK SMILES IDX 38 77 39 78 42 79 40 80 66 81 67 82 75 83 68 84 69 85 73 86
REMARK SMILES IDX 76 87 70 88 71 89 74 90 72 91 51 92 52 93 60 94 53 95 54 96
REMARK SMILES IDX 58 97 61 98 55 99 56 100 59 101 57 102
REMARK H PARENT 3 17 89 29 81 55 49 66
REMARK Flexibility Score: inf
ROOT
ATOM      1  O   UNL A   1      33.975  25.158  25.978  1.00  0.00    -0.377 OA
ENDROOT
BRANCH   1   2
ATOM      2  C   UNL A   1      34.729  24.093  25.408  1.00  0.00     0.188 C 
BRANCH   2   3
ATOM      3  C   UNL A   1      35.230  23.088  26.463  1.00  0.00     0.188 C 
BRANCH   3   4
ATOM      4  O   UNL A   1      35.860  21.950  25.896  1.00  0.00    -0.376 OA
BRANCH   4   5
ATOM      5  C   UNL A   1      35.181  21.115  24.974  1.00  0.00     0.202 C 
BRANCH   5   6
ATOM      6  C   UNL A   1      33.896  20.325  25.293  1.00  0.00     0.261 C 
BRANCH   6   7
ATOM      7  O   UNL A   1      32.640  20.964  25.052  1.00  0.00    -0.460 OA
BRANCH   7   8
ATOM      8  C   UNL A   1      32.304  21.229  23.770  1.00  0.00     0.341 C 
ATOM      9  O   UNL A   1      32.258  20.427  22.855  1.00  0.00    -0.246 OA
BRANCH   8  10
ATOM     10  C   UNL A   1      31.787  22.623  23.716  1.00  0.00     0.101 A 
ATOM     11  C   UNL A   1      30.904  25.303  23.833  1.00  0.00     0.042 A 
ATOM     12  C   UNL A   1      30.651  24.422  24.891  1.00  0.00     0.027 A 
ATOM     13  C   UNL A   1      31.592  24.820  22.711  1.00  0.00     0.073 A 
ATOM     14  C   UNL A   1      31.074  23.088  24.828  1.00  0.00     0.022 A 
ATOM     15  C   UNL A   1      32.059  23.507  22.667  1.00  0.00     0.132 A 
BRANCH  11  16
ATOM     16  N   UNL A   1      30.567  26.666  23.867  1.00  0.00    -0.358 N 
ATOM     17  H   UNL A   1      31.318  27.261  24.092  1.00  0.00     0.166 HD
BRANCH  16  18
ATOM     18  C   UNL A   1      29.367  27.322  23.640  1.00  0.00     0.030 C 
ATOM     19  C   UNL A   1      28.169  26.502  24.106  1.00  0.00     0.065 C 
ATOM     20  C   UNL A   1      29.155  28.513  23.032  1.00  0.00     0.125 C 
ATOM     21  C   UNL A   1      30.111  29.468  22.430  1.00  0.00     0.344 C 
ATOM     22  C   UNL A   1      27.829  29.138  22.862  1.00  0.00     0.212 C 
ATOM     23  O   UNL A   1      31.269  29.285  22.090  1.00  0.00    -0.246 OA
ATOM     24  O   UNL A   1      29.454  30.654  22.233  1.00  0.00    -0.451 OA
ATOM     25  C   UNL A   1      28.034  30.560  22.456  1.00  0.00     0.245 C 
ATOM     26  O   UNL A   1      26.738  28.608  23.014  1.00  0.00    -0.290 OA
ATOM     27  C   UNL A   1      27.590  31.515  23.548  1.00  0.00     0.062 C 
ENDBRANCH  16  18
ENDBRANCH  11  16
BRANCH  15  28
ATOM     28  O   UNL A   1      32.841  23.186  21.591  1.00  0.00    -0.507 OA
ATOM     29  H   UNL A   1      32.782  23.688  20.802  1.00  0.00     0.293 HD
ENDBRANCH  15  28
ENDBRANCH   8  10
ENDBRANCH   7   8
ENDBRANCH   6   7
ENDBRANCH   5   6
ENDBRANCH   4   5
ENDBRANCH   3   4
ENDBRANCH   2   3
ENDBRANCH   1   2
BRANCH   1  30
ATOM     30  C   UNL A   1      33.964  26.408  25.283  1.00  0.00     0.188 C 
BRANCH  30  31
ATOM     31  C   UNL A   1      33.545  27.734  25.968  1.00  0.00     0.188 C 
BRANCH  31  32
ATOM     32  O   UNL A   1      32.162  28.034  25.872  1.00  0.00    -0.376 OA
BRANCH  32  33
ATOM     33  C   UNL A   1      31.748  29.384  25.797  1.00  0.00     0.202 C 
BRANCH  33  34
ATOM     34  C   UNL A   1      32.810  30.457  26.073  1.00  0.00     0.261 C 
BRANCH  34  35
ATOM     35  O   UNL A   1      32.880  30.941  27.421  1.00  0.00    -0.460 OA
BRANCH  35  36
ATOM     36  C   UNL A   1      33.703  31.984  27.664  1.00  0.00     0.338 C 
ATOM     37  O   UNL A   1      33.420  33.166  27.661  1.00  0.00    -0.246 OA
BRANCH  36  38
ATOM     38  C   UNL A   1      34.997  31.428  28.117  1.00  0.00     0.060 A 
ATOM     39  C   UNL A   1      35.092  30.059  28.397  1.00  0.00     0.016 A 
ATOM     40  C   UNL A   1      36.112  32.258  28.252  1.00  0.00     0.016 A 
ATOM     41  C   UNL A   1      36.298  29.522  28.852  1.00  0.00     0.010 A 
ATOM     42  C   UNL A   1      37.313  31.723  28.725  1.00  0.00     0.010 A 
ATOM     43  C   UNL A   1      37.402  30.360  29.059  1.00  0.00    -0.014 A 
BRANCH  43  44
ATOM     44  C   UNL A   1      38.584  29.859  29.804  1.00  0.00     0.031 A 
ATOM     45  C   UNL A   1      38.834  30.393  31.188  1.00  0.00     0.074 A 
ATOM     46  C   UNL A   1      39.412  28.943  29.274  1.00  0.00     0.049 A 
ATOM     47  N   UNL A   1      39.829  30.162  32.005  1.00  0.00    -0.248 NA
ATOM     48  C   UNL A   1      37.821  31.321  31.719  1.00  0.00     0.031 C 
ATOM     49  C   UNL A   1      39.253  28.317  27.964  1.00  0.00     0.029 A 
ATOM     50  N   UNL A   1      40.564  28.388  29.777  1.00  0.00    -0.354 N 
ATOM     51  C   UNL A   1      39.565  30.917  33.141  1.00  0.00     0.074 A 
ATOM     52  C   UNL A   1      38.338  31.643  32.894  1.00  0.00     0.031 C 
ATOM     53  C   UNL A   1      40.278  27.470  27.761  1.00  0.00     0.029 A 
ATOM     54  C   UNL A   1      41.183  27.524  28.908  1.00  0.00     0.049 A 
ATOM     55  H   UNL A   1      40.912  28.591  30.675  1.00  0.00     0.167 HD
ATOM     56  C   UNL A   1      40.277  30.991  34.291  1.00  0.00     0.037 A 
ATOM     57  C   UNL A   1      42.358  26.875  29.020  1.00  0.00     0.037 A 
ATOM     58  C   UNL A   1      41.502  30.275  34.529  1.00  0.00     0.049 A 
ATOM     59  C   UNL A   1      43.180  27.045  30.275  1.00  0.00     0.074 A 
ATOM     60  C   UNL A   1      42.295  30.275  35.662  1.00  0.00     0.029 A 
ATOM     61  N   UNL A   1      42.117  29.436  33.611  1.00  0.00    -0.354 N 
ATOM     62  N   UNL A   1      42.917  27.743  31.354  1.00  0.00    -0.248 NA
ATOM     63  C   UNL A   1      44.466  26.331  30.326  1.00  0.00     0.031 C 
ATOM     64  C   UNL A   1      43.423  29.488  35.407  1.00  0.00     0.029 A 
ATOM     65  C   UNL A   1      43.296  28.937  34.141  1.00  0.00     0.049 A 
ATOM     66  H   UNL A   1      41.768  29.227  32.713  1.00  0.00     0.167 HD
ATOM     67  C   UNL A   1      43.979  27.525  32.222  1.00  0.00     0.074 A 
ATOM     68  C   UNL A   1      44.887  26.619  31.549  1.00  0.00     0.031 C 
ATOM     69  C   UNL A   1      44.185  28.026  33.466  1.00  0.00     0.037 A 
BRANCH  56  70
ATOM     70  C   UNL A   1      39.763  31.905  35.366  1.00  0.00     0.064 A 
ATOM     71  C   UNL A   1      40.208  33.230  35.487  1.00  0.00     0.173 A 
ATOM     72  C   UNL A   1      38.790  31.456  36.272  1.00  0.00     0.173 A 
ATOM     73  F   UNL A   1      41.148  33.706  34.656  1.00  0.00    -0.203 F 
ATOM     74  C   UNL A   1      39.720  34.062  36.493  1.00  0.00     0.198 A 
ATOM     75  C   UNL A   1      38.279  32.301  37.254  1.00  0.00     0.198 A 
ATOM     76  F   UNL A   1      38.327  30.199  36.201  1.00  0.00    -0.203 F 
ATOM     77  F   UNL A   1      40.201  35.306  36.622  1.00  0.00    -0.200 F 
ATOM     78  C   UNL A   1      38.751  33.599  37.369  1.00  0.00     0.200 A 
ATOM     79  F   UNL A   1      37.332  31.856  38.091  1.00  0.00    -0.200 F 
ATOM     80  F   UNL A   1      38.276  34.403  38.331  1.00  0.00    -0.200 F 
ENDBRANCH  56  70
BRANCH  57  81
ATOM     81  C   UNL A   1      42.842  26.010  27.910  1.00  0.00     0.064 A 
ATOM     82  C   UNL A   1      43.696  26.515  26.919  1.00  0.00     0.173 A 
ATOM     83  C   UNL A   1      42.438  24.671  27.799  1.00  0.00     0.173 A 
ATOM     84  F   UNL A   1      44.089  27.796  26.963  1.00  0.00    -0.203 F 
ATOM     85  C   UNL A   1      44.108  25.722  25.850  1.00  0.00     0.198 A 
ATOM     86  C   UNL A   1      42.877  23.869  26.748  1.00  0.00     0.198 A 
ATOM     87  F   UNL A   1      41.617  24.139  28.717  1.00  0.00    -0.203 F 
ATOM     88  F   UNL A   1      44.879  26.246  24.888  1.00  0.00    -0.200 F 
ATOM     89  C   UNL A   1      43.704  24.397  25.768  1.00  0.00     0.200 A 
ATOM     90  F   UNL A   1      42.493  22.587  26.680  1.00  0.00    -0.200 F 
ATOM     91  F   UNL A   1      44.102  23.634  24.742  1.00  0.00    -0.200 F 
ENDBRANCH  57  81
BRANCH  69  92
ATOM     92  C   UNL A   1      45.411  27.569  34.207  1.00  0.00     0.064 A 
ATOM     93  C   UNL A   1      46.622  28.275  34.147  1.00  0.00     0.173 A 
ATOM     94  C   UNL A   1      45.357  26.430  35.028  1.00  0.00     0.173 A 
ATOM     95  F   UNL A   1      46.733  29.362  33.370  1.00  0.00    -0.203 F 
ATOM     96  C   UNL A   1      47.740  27.840  34.856  1.00  0.00     0.198 A 
ATOM     97  C   UNL A   1      46.466  26.021  35.763  1.00  0.00     0.198 A 
ATOM     98  F   UNL A   1      44.222  25.724  35.131  1.00  0.00    -0.203 F 
ATOM     99  F   UNL A   1      48.902  28.498  34.740  1.00  0.00    -0.200 F 
ATOM    100  C   UNL A   1      47.659  26.719  35.669  1.00  0.00     0.200 A 
ATOM    101  F   UNL A   1      46.378  24.949  36.563  1.00  0.00    -0.200 F 
ATOM    102  F   UNL A   1      48.733  26.309  36.357  1.00  0.00    -0.200 F 
ENDBRANCH  69  92
ENDBRANCH  43  44
ENDBRANCH  36  38
ENDBRANCH  35  36
ENDBRANCH  34  35
ENDBRANCH  33  34
ENDBRANCH  32  33
ENDBRANCH  31  32
ENDBRANCH  30  31
ENDBRANCH   1  30
TORSDOF 23
ENDMDL
