MODEL 1
REMARK VINA RESULT:      -9.7      0.000      0.000
REMARK SMILES COC(=O)c1ccc(C)c2c1[C@H]1C=CC[C@H]1[C@@H](c1ccc(C(=O)OCCOCCOCCOCCOC(=O)c3ccc(-c4c5nc(c(-c6c(F)c(F)c(F)c(F)c6F)c6ccc([nH]6)c(-c6c(F)c(F)c(F)c(F)c6F)c6nc(c(-c7c(F)c(F)c(F)c(F)c7F)c7ccc4[nH]7)C=C6)C=C5)cc3)cc1)N2
REMARK SMILES IDX 29 1 28 2 27 3 26 4 25 5 24 6 22 7 23 8 21 9 18 10 19 11
REMARK SMILES IDX 103 12 20 13 102 14 17 15 5 16 6 17 11 18 7 19 10 20 12 21
REMARK SMILES IDX 8 22 104 23 13 24 16 25 9 26 14 28 15 29 3 30 4 31 2 32 1 33
REMARK SMILES IDX 30 34 31 35 32 36 33 37 34 38 35 39 36 40 37 41 38 42 39 43
REMARK SMILES IDX 40 44 101 45 41 46 100 47 42 48 43 49 44 50 94 51 45 52
REMARK SMILES IDX 99 53 93 54 95 55 46 56 98 57 92 58 91 59 47 61 79 62 59 63
REMARK SMILES IDX 78 64 60 65 63 66 77 67 96 68 61 69 62 70 76 72 97 73 64 74
REMARK SMILES IDX 48 75 49 76 57 77 50 78 51 79 55 80 58 81 52 82 53 83 56 84
REMARK SMILES IDX 54 85 80 86 81 87 89 88 82 89 83 90 87 91 90 92 84 93 85 94
REMARK SMILES IDX 88 95 86 96 65 97 66 98 74 99 67 100 68 101 72 102 75 103
REMARK SMILES IDX 69 104 70 105 73 106 71 107
REMARK H PARENT 104 27 95 60 63 71
REMARK Flexibility Score: inf
ROOT
ATOM      1  C   UNL A   1      31.075  23.394  23.889  1.00  0.00     0.188 C 
ENDROOT
BRANCH   1   2
ATOM      2  C   UNL A   1      30.965  24.932  23.803  1.00  0.00     0.188 C 
BRANCH   2   3
ATOM      3  O   UNL A   1      32.081  25.627  24.335  1.00  0.00    -0.376 OA
BRANCH   3   4
ATOM      4  C   UNL A   1      32.592  26.729  23.607  1.00  0.00     0.202 C 
BRANCH   4   5
ATOM      5  C   UNL A   1      33.229  27.874  24.409  1.00  0.00     0.261 C 
BRANCH   5   6
ATOM      6  O   UNL A   1      33.491  27.590  25.789  1.00  0.00    -0.460 OA
BRANCH   6   7
ATOM      7  C   UNL A   1      32.851  28.366  26.691  1.00  0.00     0.338 C 
ATOM      8  O   UNL A   1      31.756  28.151  27.184  1.00  0.00    -0.246 OA
BRANCH   7   9
ATOM      9  C   UNL A   1      33.799  29.395  27.175  1.00  0.00     0.060 A 
ATOM     10  C   UNL A   1      35.734  31.297  27.982  1.00  0.00    -0.025 A 
ATOM     11  C   UNL A   1      36.096  29.997  27.585  1.00  0.00     0.007 A 
ATOM     12  C   UNL A   1      34.370  31.635  27.909  1.00  0.00     0.007 A 
ATOM     13  C   UNL A   1      35.146  29.047  27.217  1.00  0.00     0.016 A 
ATOM     14  C   UNL A   1      33.408  30.699  27.494  1.00  0.00     0.016 A 
BRANCH  10  15
ATOM     15  C   UNL A   1      36.749  32.300  28.551  1.00  0.00     0.114 C 
ATOM     16  C   UNL A   1      34.293  34.252  31.437  1.00  0.00     0.065 A 
ATOM     17  C   UNL A   1      33.369  35.199  30.985  1.00  0.00     0.016 A 
ATOM     18  C   UNL A   1      35.279  33.731  30.570  1.00  0.00    -0.003 A 
ATOM     19  C   UNL A   1      33.430  35.653  29.672  1.00  0.00     0.006 A 
ATOM     20  C   UNL A   1      35.354  34.219  29.238  1.00  0.00     0.042 A 
ATOM     21  C   UNL A   1      36.239  32.653  31.040  1.00  0.00     0.050 C 
ATOM     22  C   UNL A   1      34.418  35.181  28.792  1.00  0.00    -0.028 A 
ATOM     23  N   UNL A   1      36.268  33.661  28.350  1.00  0.00    -0.377 N 
ATOM     24  C   UNL A   1      35.628  31.329  31.440  1.00  0.00    -0.023 C 
ATOM     25  C   UNL A   1      37.269  32.188  29.996  1.00  0.00     0.031 C 
ATOM     26  C   UNL A   1      34.355  35.705  27.378  1.00  0.00     0.046 C 
ATOM     27  H   UNL A   1      36.590  34.187  27.582  1.00  0.00     0.161 HD
ATOM     28  C   UNL A   1      36.420  30.300  31.114  1.00  0.00    -0.030 C 
ATOM     29  C   UNL A   1      37.656  30.766  30.419  1.00  0.00     0.034 C 
BRANCH  16  30
ATOM     30  C   UNL A   1      34.215  33.840  32.859  1.00  0.00     0.338 C 
ATOM     31  O   UNL A   1      33.439  33.008  33.297  1.00  0.00    -0.246 OA
BRANCH  30  32
ATOM     32  O   UNL A   1      35.103  34.574  33.578  1.00  0.00    -0.465 OA
ATOM     33  C   UNL A   1      35.900  33.794  34.470  1.00  0.00     0.282 C 
ENDBRANCH  30  32
ENDBRANCH  16  30
ENDBRANCH  10  15
ENDBRANCH   7   9
ENDBRANCH   6   7
ENDBRANCH   5   6
ENDBRANCH   4   5
ENDBRANCH   3   4
ENDBRANCH   2   3
ENDBRANCH   1   2
BRANCH   1  34
ATOM     34  O   UNL A   1      32.345  22.780  23.712  1.00  0.00    -0.377 OA
BRANCH  34  35
ATOM     35  C   UNL A   1      32.495  21.386  23.961  1.00  0.00     0.188 C 
BRANCH  35  36
ATOM     36  C   UNL A   1      33.691  20.833  24.773  1.00  0.00     0.188 C 
BRANCH  36  37
ATOM     37  O   UNL A   1      34.945  21.387  24.418  1.00  0.00    -0.376 OA
BRANCH  37  38
ATOM     38  C   UNL A   1      35.796  21.806  25.467  1.00  0.00     0.202 C 
BRANCH  38  39
ATOM     39  C   UNL A   1      37.269  22.062  25.123  1.00  0.00     0.261 C 
BRANCH  39  40
ATOM     40  O   UNL A   1      38.042  22.782  26.096  1.00  0.00    -0.460 OA
BRANCH  40  41
ATOM     41  C   UNL A   1      39.265  22.307  26.409  1.00  0.00     0.338 C 
ATOM     42  O   UNL A   1      39.712  21.195  26.185  1.00  0.00    -0.246 OA
BRANCH  41  43
ATOM     43  C   UNL A   1      40.046  23.442  26.938  1.00  0.00     0.060 A 
ATOM     44  C   UNL A   1      39.781  24.743  26.484  1.00  0.00     0.016 A 
ATOM     45  C   UNL A   1      41.023  23.215  27.910  1.00  0.00     0.016 A 
ATOM     46  C   UNL A   1      40.502  25.821  26.999  1.00  0.00     0.010 A 
ATOM     47  C   UNL A   1      41.773  24.289  28.393  1.00  0.00     0.010 A 
ATOM     48  C   UNL A   1      41.533  25.591  27.919  1.00  0.00    -0.014 A 
BRANCH  48  49
ATOM     49  C   UNL A   1      42.521  26.660  28.192  1.00  0.00     0.031 A 
ATOM     50  C   UNL A   1      42.165  27.683  29.235  1.00  0.00     0.074 A 
ATOM     51  C   UNL A   1      43.698  26.725  27.548  1.00  0.00     0.049 A 
ATOM     52  N   UNL A   1      42.824  28.745  29.620  1.00  0.00    -0.248 NA
ATOM     53  C   UNL A   1      40.887  27.478  29.940  1.00  0.00     0.031 C 
ATOM     54  C   UNL A   1      44.175  25.762  26.560  1.00  0.00     0.029 A 
ATOM     55  N   UNL A   1      44.705  27.655  27.629  1.00  0.00    -0.354 N 
ATOM     56  C   UNL A   1      42.049  29.323  30.615  1.00  0.00     0.074 A 
ATOM     57  C   UNL A   1      40.854  28.522  30.752  1.00  0.00     0.031 C 
ATOM     58  C   UNL A   1      45.382  26.159  26.116  1.00  0.00     0.029 A 
ATOM     59  C   UNL A   1      45.745  27.419  26.765  1.00  0.00     0.049 A 
ATOM     60  H   UNL A   1      44.683  28.419  28.250  1.00  0.00     0.167 HD
ATOM     61  C   UNL A   1      42.318  30.421  31.358  1.00  0.00     0.037 A 
ATOM     62  C   UNL A   1      46.849  28.152  26.518  1.00  0.00     0.037 A 
ATOM     63  C   UNL A   1      43.497  31.228  31.205  1.00  0.00     0.049 A 
ATOM     64  C   UNL A   1      47.071  29.436  27.281  1.00  0.00     0.074 A 
ATOM     65  C   UNL A   1      43.858  32.364  31.906  1.00  0.00     0.029 A 
ATOM     66  N   UNL A   1      44.501  30.987  30.280  1.00  0.00    -0.354 N 
ATOM     67  N   UNL A   1      46.347  29.969  28.235  1.00  0.00    -0.248 NA
ATOM     68  C   UNL A   1      48.263  30.222  26.930  1.00  0.00     0.031 C 
ATOM     69  C   UNL A   1      45.053  32.845  31.365  1.00  0.00     0.029 A 
ATOM     70  C   UNL A   1      45.470  31.973  30.372  1.00  0.00     0.049 A 
ATOM     71  H   UNL A   1      44.523  30.230  29.652  1.00  0.00     0.167 HD
ATOM     72  C   UNL A   1      47.009  31.129  28.619  1.00  0.00     0.074 A 
ATOM     73  C   UNL A   1      48.201  31.218  27.803  1.00  0.00     0.031 C 
ATOM     74  C   UNL A   1      46.659  32.040  29.562  1.00  0.00     0.037 A 
BRANCH  61  75
ATOM     75  C   UNL A   1      41.312  30.826  32.393  1.00  0.00     0.064 A 
ATOM     76  C   UNL A   1      41.248  30.185  33.640  1.00  0.00     0.173 A 
ATOM     77  C   UNL A   1      40.447  31.906  32.163  1.00  0.00     0.173 A 
ATOM     78  F   UNL A   1      42.040  29.134  33.902  1.00  0.00    -0.203 F 
ATOM     79  C   UNL A   1      40.348  30.607  34.615  1.00  0.00     0.198 A 
ATOM     80  C   UNL A   1      39.572  32.345  33.152  1.00  0.00     0.198 A 
ATOM     81  F   UNL A   1      40.469  32.549  30.987  1.00  0.00    -0.203 F 
ATOM     82  F   UNL A   1      40.282  29.961  35.787  1.00  0.00    -0.200 F 
ATOM     83  C   UNL A   1      39.520  31.694  34.375  1.00  0.00     0.200 A 
ATOM     84  F   UNL A   1      38.781  33.403  32.922  1.00  0.00    -0.200 F 
ATOM     85  F   UNL A   1      38.672  32.113  35.323  1.00  0.00    -0.200 F 
ENDBRANCH  61  75
BRANCH  62  86
ATOM     86  C   UNL A   1      47.836  27.693  25.504  1.00  0.00     0.064 A 
ATOM     87  C   UNL A   1      47.617  27.909  24.136  1.00  0.00     0.173 A 
ATOM     88  C   UNL A   1      49.009  27.018  25.875  1.00  0.00     0.173 A 
ATOM     89  F   UNL A   1      46.497  28.522  23.726  1.00  0.00    -0.203 F 
ATOM     90  C   UNL A   1      48.527  27.461  23.180  1.00  0.00     0.198 A 
ATOM     91  C   UNL A   1      49.932  26.597  24.921  1.00  0.00     0.198 A 
ATOM     92  F   UNL A   1      49.264  26.776  27.170  1.00  0.00    -0.203 F 
ATOM     93  F   UNL A   1      48.271  27.644  21.878  1.00  0.00    -0.200 F 
ATOM     94  C   UNL A   1      49.688  26.813  23.573  1.00  0.00     0.200 A 
ATOM     95  F   UNL A   1      51.058  25.980  25.306  1.00  0.00    -0.200 F 
ATOM     96  F   UNL A   1      50.566  26.390  22.655  1.00  0.00    -0.200 F 
ENDBRANCH  62  86
BRANCH  74  97
ATOM     97  C   UNL A   1      47.582  33.203  29.794  1.00  0.00     0.064 A 
ATOM     98  C   UNL A   1      48.646  33.126  30.703  1.00  0.00     0.173 A 
ATOM     99  C   UNL A   1      47.457  34.372  29.027  1.00  0.00     0.173 A 
ATOM    100  F   UNL A   1      48.805  32.034  31.467  1.00  0.00    -0.203 F 
ATOM    101  C   UNL A   1      49.542  34.184  30.847  1.00  0.00     0.198 A 
ATOM    102  C   UNL A   1      48.374  35.412  29.148  1.00  0.00     0.198 A 
ATOM    103  F   UNL A   1      46.464  34.492  28.133  1.00  0.00    -0.203 F 
ATOM    104  F   UNL A   1      50.532  34.101  31.747  1.00  0.00    -0.200 F 
ATOM    105  C   UNL A   1      49.413  35.319  30.062  1.00  0.00     0.200 A 
ATOM    106  F   UNL A   1      48.259  36.499  28.372  1.00  0.00    -0.200 F 
ATOM    107  F   UNL A   1      50.291  36.324  30.184  1.00  0.00    -0.200 F 
ENDBRANCH  74  97
ENDBRANCH  48  49
ENDBRANCH  41  43
ENDBRANCH  40  41
ENDBRANCH  39  40
ENDBRANCH  38  39
ENDBRANCH  37  38
ENDBRANCH  36  37
ENDBRANCH  35  36
ENDBRANCH  34  35
ENDBRANCH   1  34
TORSDOF 23
ENDMDL
MODEL 2
REMARK VINA RESULT:      -9.5      3.311     10.146
REMARK SMILES COC(=O)c1ccc(C)c2c1[C@H]1C=CC[C@H]1[C@@H](c1ccc(C(=O)OCCOCCOCCOCCOC(=O)c3ccc(-c4c5nc(c(-c6c(F)c(F)c(F)c(F)c6F)c6ccc([nH]6)c(-c6c(F)c(F)c(F)c(F)c6F)c6nc(c(-c7c(F)c(F)c(F)c(F)c7F)c7ccc4[nH]7)C=C6)C=C5)cc3)cc1)N2
REMARK SMILES IDX 29 1 28 2 27 3 26 4 25 5 24 6 22 7 23 8 21 9 18 10 19 11
REMARK SMILES IDX 103 12 20 13 102 14 17 15 5 16 6 17 11 18 7 19 10 20 12 21
REMARK SMILES IDX 8 22 104 23 13 24 16 25 9 26 14 28 15 29 3 30 4 31 2 32 1 33
REMARK SMILES IDX 30 34 31 35 32 36 33 37 34 38 35 39 36 40 37 41 38 42 39 43
REMARK SMILES IDX 40 44 101 45 41 46 100 47 42 48 43 49 44 50 94 51 45 52
REMARK SMILES IDX 99 53 93 54 95 55 46 56 98 57 92 58 91 59 47 61 79 62 59 63
REMARK SMILES IDX 78 64 60 65 63 66 77 67 96 68 61 69 62 70 76 72 97 73 64 74
REMARK SMILES IDX 48 75 49 76 57 77 50 78 51 79 55 80 58 81 52 82 53 83 56 84
REMARK SMILES IDX 54 85 80 86 81 87 89 88 82 89 83 90 87 91 90 92 84 93 85 94
REMARK SMILES IDX 88 95 86 96 65 97 66 98 74 99 67 100 68 101 72 102 75 103
REMARK SMILES IDX 69 104 70 105 73 106 71 107
REMARK H PARENT 104 27 95 60 63 71
REMARK Flexibility Score: inf
ROOT
ATOM      1  C   UNL A   1      34.157  34.450  28.206  1.00  0.00     0.188 C 
ENDROOT
BRANCH   1   2
ATOM      2  C   UNL A   1      34.519  33.014  28.642  1.00  0.00     0.188 C 
BRANCH   2   3
ATOM      3  O   UNL A   1      34.181  32.015  27.693  1.00  0.00    -0.376 OA
BRANCH   3   4
ATOM      4  C   UNL A   1      34.982  30.847  27.638  1.00  0.00     0.202 C 
BRANCH   4   5
ATOM      5  C   UNL A   1      34.261  29.491  27.707  1.00  0.00     0.261 C 
BRANCH   5   6
ATOM      6  O   UNL A   1      32.859  29.521  27.413  1.00  0.00    -0.460 OA
BRANCH   6   7
ATOM      7  C   UNL A   1      32.219  28.332  27.435  1.00  0.00     0.338 C 
ATOM      8  O   UNL A   1      31.278  28.027  28.148  1.00  0.00    -0.246 OA
BRANCH   7   9
ATOM      9  C   UNL A   1      32.681  27.535  26.276  1.00  0.00     0.060 A 
ATOM     10  C   UNL A   1      33.490  25.864  24.138  1.00  0.00    -0.025 A 
ATOM     11  C   UNL A   1      33.441  25.397  25.464  1.00  0.00     0.007 A 
ATOM     12  C   UNL A   1      33.066  27.186  23.906  1.00  0.00     0.007 A 
ATOM     13  C   UNL A   1      33.074  26.223  26.524  1.00  0.00     0.016 A 
ATOM     14  C   UNL A   1      32.649  28.013  24.963  1.00  0.00     0.016 A 
BRANCH  10  15
ATOM     15  C   UNL A   1      34.052  25.020  22.984  1.00  0.00     0.114 C 
ATOM     16  C   UNL A   1      33.889  21.153  24.772  1.00  0.00     0.065 A 
ATOM     17  C   UNL A   1      34.871  20.818  25.709  1.00  0.00     0.016 A 
ATOM     18  C   UNL A   1      34.006  22.322  23.988  1.00  0.00    -0.003 A 
ATOM     19  C   UNL A   1      35.990  21.629  25.859  1.00  0.00     0.006 A 
ATOM     20  C   UNL A   1      35.165  23.134  24.126  1.00  0.00     0.042 A 
ATOM     21  C   UNL A   1      32.908  22.724  23.020  1.00  0.00     0.050 C 
ATOM     22  C   UNL A   1      36.155  22.782  25.073  1.00  0.00    -0.028 A 
ATOM     23  N   UNL A   1      35.259  24.328  23.419  1.00  0.00    -0.377 N 
ATOM     24  C   UNL A   1      31.558  23.041  23.620  1.00  0.00    -0.023 C 
ATOM     25  C   UNL A   1      33.174  24.012  22.220  1.00  0.00     0.031 C 
ATOM     26  C   UNL A   1      37.381  23.613  25.360  1.00  0.00     0.046 C 
ATOM     27  H   UNL A   1      36.144  24.707  23.211  1.00  0.00     0.161 HD
ATOM     28  C   UNL A   1      30.939  24.027  22.957  1.00  0.00    -0.030 C 
ATOM     29  C   UNL A   1      31.786  24.544  21.842  1.00  0.00     0.034 C 
BRANCH  16  30
ATOM     30  C   UNL A   1      32.742  20.227  24.616  1.00  0.00     0.338 C 
ATOM     31  O   UNL A   1      31.743  20.240  25.313  1.00  0.00    -0.246 OA
BRANCH  30  32
ATOM     32  O   UNL A   1      33.020  19.350  23.618  1.00  0.00    -0.465 OA
ATOM     33  C   UNL A   1      32.341  18.101  23.748  1.00  0.00     0.282 C 
ENDBRANCH  30  32
ENDBRANCH  16  30
ENDBRANCH  10  15
ENDBRANCH   7   9
ENDBRANCH   6   7
ENDBRANCH   5   6
ENDBRANCH   4   5
ENDBRANCH   3   4
ENDBRANCH   2   3
ENDBRANCH   1   2
BRANCH   1  34
ATOM     34  O   UNL A   1      34.306  35.514  29.138  1.00  0.00    -0.377 OA
BRANCH  34  35
ATOM     35  C   UNL A   1      33.232  35.839  30.014  1.00  0.00     0.188 C 
BRANCH  35  36
ATOM     36  C   UNL A   1      33.327  35.590  31.539  1.00  0.00     0.188 C 
BRANCH  36  37
ATOM     37  O   UNL A   1      33.425  34.225  31.903  1.00  0.00    -0.376 OA
BRANCH  37  38
ATOM     38  C   UNL A   1      34.642  33.786  32.476  1.00  0.00     0.202 C 
BRANCH  38  39
ATOM     39  C   UNL A   1      35.085  32.347  32.178  1.00  0.00     0.261 C 
BRANCH  39  40
ATOM     40  O   UNL A   1      36.419  31.990  32.571  1.00  0.00    -0.460 OA
BRANCH  40  41
ATOM     41  C   UNL A   1      36.875  30.770  32.222  1.00  0.00     0.338 C 
ATOM     42  O   UNL A   1      36.273  29.710  32.261  1.00  0.00    -0.246 OA
BRANCH  41  43
ATOM     43  C   UNL A   1      38.208  30.964  31.618  1.00  0.00     0.060 A 
ATOM     44  C   UNL A   1      39.340  31.051  32.441  1.00  0.00     0.016 A 
ATOM     45  C   UNL A   1      38.333  31.031  30.228  1.00  0.00     0.016 A 
ATOM     46  C   UNL A   1      40.604  31.212  31.872  1.00  0.00     0.010 A 
ATOM     47  C   UNL A   1      39.593  31.235  29.662  1.00  0.00     0.010 A 
ATOM     48  C   UNL A   1      40.728  31.354  30.484  1.00  0.00    -0.014 A 
BRANCH  48  49
ATOM     49  C   UNL A   1      41.991  31.874  29.912  1.00  0.00     0.031 A 
ATOM     50  C   UNL A   1      43.023  30.870  29.480  1.00  0.00     0.074 A 
ATOM     51  C   UNL A   1      42.219  33.190  29.770  1.00  0.00     0.049 A 
ATOM     52  N   UNL A   1      44.226  31.063  29.005  1.00  0.00    -0.248 NA
ATOM     53  C   UNL A   1      42.644  29.451  29.604  1.00  0.00     0.031 C 
ATOM     54  C   UNL A   1      41.274  34.254  30.100  1.00  0.00     0.029 A 
ATOM     55  N   UNL A   1      43.331  33.855  29.313  1.00  0.00    -0.354 N 
ATOM     56  C   UNL A   1      44.738  29.797  28.763  1.00  0.00     0.074 A 
ATOM     57  C   UNL A   1      43.737  28.840  29.177  1.00  0.00     0.031 C 
ATOM     58  C   UNL A   1      41.852  35.442  29.846  1.00  0.00     0.029 A 
ATOM     59  C   UNL A   1      43.217  35.222  29.366  1.00  0.00     0.049 A 
ATOM     60  H   UNL A   1      44.134  33.393  28.978  1.00  0.00     0.167 HD
ATOM     61  C   UNL A   1      45.935  29.462  28.231  1.00  0.00     0.037 A 
ATOM     62  C   UNL A   1      44.123  36.178  29.078  1.00  0.00     0.037 A 
ATOM     63  C   UNL A   1      46.937  30.415  27.839  1.00  0.00     0.049 A 
ATOM     64  C   UNL A   1      45.495  35.775  28.593  1.00  0.00     0.074 A 
ATOM     65  C   UNL A   1      48.186  30.175  27.296  1.00  0.00     0.029 A 
ATOM     66  N   UNL A   1      46.806  31.790  27.960  1.00  0.00    -0.354 N 
ATOM     67  N   UNL A   1      45.969  34.578  28.346  1.00  0.00    -0.248 NA
ATOM     68  C   UNL A   1      46.459  36.859  28.348  1.00  0.00     0.031 C 
ATOM     69  C   UNL A   1      48.834  31.403  27.142  1.00  0.00     0.029 A 
ATOM     70  C   UNL A   1      47.966  32.412  27.528  1.00  0.00     0.049 A 
ATOM     71  H   UNL A   1      46.009  32.255  28.302  1.00  0.00     0.167 HD
ATOM     72  C   UNL A   1      47.268  34.765  27.889  1.00  0.00     0.074 A 
ATOM     73  C   UNL A   1      47.506  36.193  27.880  1.00  0.00     0.031 C 
ATOM     74  C   UNL A   1      48.183  33.836  27.512  1.00  0.00     0.037 A 
BRANCH  61  75
ATOM     75  C   UNL A   1      46.237  28.004  28.054  1.00  0.00     0.064 A 
ATOM     76  C   UNL A   1      45.932  27.334  26.860  1.00  0.00     0.173 A 
ATOM     77  C   UNL A   1      46.896  27.286  29.063  1.00  0.00     0.173 A 
ATOM     78  F   UNL A   1      45.286  27.972  25.873  1.00  0.00    -0.203 F 
ATOM     79  C   UNL A   1      46.270  25.994  26.686  1.00  0.00     0.198 A 
ATOM     80  C   UNL A   1      47.259  25.956  28.873  1.00  0.00     0.198 A 
ATOM     81  F   UNL A   1      47.207  27.882  30.224  1.00  0.00    -0.203 F 
ATOM     82  F   UNL A   1      45.941  25.365  25.550  1.00  0.00    -0.200 F 
ATOM     83  C   UNL A   1      46.943  25.310  27.687  1.00  0.00     0.200 A 
ATOM     84  F   UNL A   1      47.921  25.300  29.837  1.00  0.00    -0.200 F 
ATOM     85  F   UNL A   1      47.287  24.028  27.510  1.00  0.00    -0.200 F 
ENDBRANCH  61  75
BRANCH  62  86
ATOM     86  C   UNL A   1      43.766  37.614  29.238  1.00  0.00     0.064 A 
ATOM     87  C   UNL A   1      43.998  38.283  30.448  1.00  0.00     0.173 A 
ATOM     88  C   UNL A   1      43.176  38.343  28.194  1.00  0.00     0.173 A 
ATOM     89  F   UNL A   1      44.531  37.623  31.486  1.00  0.00    -0.203 F 
ATOM     90  C   UNL A   1      43.645  39.621  30.611  1.00  0.00     0.198 A 
ATOM     91  C   UNL A   1      42.851  39.689  28.348  1.00  0.00     0.198 A 
ATOM     92  F   UNL A   1      42.924  37.749  27.018  1.00  0.00    -0.203 F 
ATOM     93  F   UNL A   1      43.838  40.224  31.792  1.00  0.00    -0.200 F 
ATOM     94  C   UNL A   1      43.080  40.326  29.559  1.00  0.00     0.200 A 
ATOM     95  F   UNL A   1      42.315  40.369  27.325  1.00  0.00    -0.200 F 
ATOM     96  F   UNL A   1      42.748  41.615  29.712  1.00  0.00    -0.200 F 
ENDBRANCH  62  86
BRANCH  74  97
ATOM     97  C   UNL A   1      49.520  34.320  27.028  1.00  0.00     0.064 A 
ATOM     98  C   UNL A   1      50.658  34.274  27.846  1.00  0.00     0.173 A 
ATOM     99  C   UNL A   1      49.684  34.744  25.700  1.00  0.00     0.173 A 
ATOM    100  F   UNL A   1      50.555  33.886  29.126  1.00  0.00    -0.203 F 
ATOM    101  C   UNL A   1      51.907  34.649  27.355  1.00  0.00     0.198 A 
ATOM    102  C   UNL A   1      50.938  35.084  25.203  1.00  0.00     0.198 A 
ATOM    103  F   UNL A   1      48.629  34.793  24.871  1.00  0.00    -0.203 F 
ATOM    104  F   UNL A   1      52.975  34.630  28.166  1.00  0.00    -0.200 F 
ATOM    105  C   UNL A   1      52.048  35.041  26.033  1.00  0.00     0.200 A 
ATOM    106  F   UNL A   1      51.075  35.441  23.919  1.00  0.00    -0.200 F 
ATOM    107  F   UNL A   1      53.255  35.377  25.557  1.00  0.00    -0.200 F 
ENDBRANCH  74  97
ENDBRANCH  48  49
ENDBRANCH  41  43
ENDBRANCH  40  41
ENDBRANCH  39  40
ENDBRANCH  38  39
ENDBRANCH  37  38
ENDBRANCH  36  37
ENDBRANCH  35  36
ENDBRANCH  34  35
ENDBRANCH   1  34
TORSDOF 23
ENDMDL
MODEL 3
REMARK VINA RESULT:      -9.4      2.747      9.760
REMARK SMILES COC(=O)c1ccc(C)c2c1[C@H]1C=CC[C@H]1[C@@H](c1ccc(C(=O)OCCOCCOCCOCCOC(=O)c3ccc(-c4c5nc(c(-c6c(F)c(F)c(F)c(F)c6F)c6ccc([nH]6)c(-c6c(F)c(F)c(F)c(F)c6F)c6nc(c(-c7c(F)c(F)c(F)c(F)c7F)c7ccc4[nH]7)C=C6)C=C5)cc3)cc1)N2
REMARK SMILES IDX 29 1 28 2 27 3 26 4 25 5 24 6 22 7 23 8 21 9 18 10 19 11
REMARK SMILES IDX 103 12 20 13 102 14 17 15 5 16 6 17 11 18 7 19 10 20 12 21
REMARK SMILES IDX 8 22 104 23 13 24 16 25 9 26 14 28 15 29 3 30 4 31 2 32 1 33
REMARK SMILES IDX 30 34 31 35 32 36 33 37 34 38 35 39 36 40 37 41 38 42 39 43
REMARK SMILES IDX 40 44 101 45 41 46 100 47 42 48 43 49 44 50 94 51 45 52
REMARK SMILES IDX 99 53 93 54 95 55 46 56 98 57 92 58 91 59 47 61 79 62 59 63
REMARK SMILES IDX 78 64 60 65 63 66 77 67 96 68 61 69 62 70 76 72 97 73 64 74
REMARK SMILES IDX 48 75 49 76 57 77 50 78 51 79 55 80 58 81 52 82 53 83 56 84
REMARK SMILES IDX 54 85 80 86 81 87 89 88 82 89 83 90 87 91 90 92 84 93 85 94
REMARK SMILES IDX 88 95 86 96 65 97 66 98 74 99 67 100 68 101 72 102 75 103
REMARK SMILES IDX 69 104 70 105 73 106 71 107
REMARK H PARENT 104 27 95 60 63 71
REMARK Flexibility Score: inf
ROOT
ATOM      1  C   UNL A   1      34.153  34.499  27.895  1.00  0.00     0.188 C 
ENDROOT
BRANCH   1   2
ATOM      2  C   UNL A   1      34.386  33.048  28.368  1.00  0.00     0.188 C 
BRANCH   2   3
ATOM      3  O   UNL A   1      34.522  32.107  27.315  1.00  0.00    -0.376 OA
BRANCH   3   4
ATOM      4  C   UNL A   1      35.073  30.838  27.620  1.00  0.00     0.202 C 
BRANCH   4   5
ATOM      5  C   UNL A   1      34.095  29.713  27.995  1.00  0.00     0.261 C 
BRANCH   5   6
ATOM      6  O   UNL A   1      32.840  29.730  27.304  1.00  0.00    -0.460 OA
BRANCH   6   7
ATOM      7  C   UNL A   1      32.137  28.576  27.316  1.00  0.00     0.338 C 
ATOM      8  O   UNL A   1      31.155  28.333  27.997  1.00  0.00    -0.246 OA
BRANCH   7   9
ATOM      9  C   UNL A   1      32.599  27.739  26.186  1.00  0.00     0.060 A 
ATOM     10  C   UNL A   1      33.425  25.991  24.117  1.00  0.00    -0.025 A 
ATOM     11  C   UNL A   1      33.494  25.618  25.472  1.00  0.00     0.007 A 
ATOM     12  C   UNL A   1      32.874  27.253  23.825  1.00  0.00     0.007 A 
ATOM     13  C   UNL A   1      33.118  26.486  26.495  1.00  0.00     0.016 A 
ATOM     14  C   UNL A   1      32.448  28.117  24.848  1.00  0.00     0.016 A 
BRANCH  10  15
ATOM     15  C   UNL A   1      33.991  25.115  22.989  1.00  0.00     0.114 C 
ATOM     16  C   UNL A   1      33.983  21.326  24.943  1.00  0.00     0.065 A 
ATOM     17  C   UNL A   1      34.993  21.062  25.873  1.00  0.00     0.016 A 
ATOM     18  C   UNL A   1      34.048  22.463  24.107  1.00  0.00    -0.003 A 
ATOM     19  C   UNL A   1      36.089  21.912  25.965  1.00  0.00     0.006 A 
ATOM     20  C   UNL A   1      35.183  23.314  24.187  1.00  0.00     0.042 A 
ATOM     21  C   UNL A   1      32.919  22.789  23.146  1.00  0.00     0.050 C 
ATOM     22  C   UNL A   1      36.202  23.035  25.127  1.00  0.00    -0.028 A 
ATOM     23  N   UNL A   1      35.226  24.479  23.427  1.00  0.00    -0.377 N 
ATOM     24  C   UNL A   1      31.572  23.091  23.761  1.00  0.00    -0.023 C 
ATOM     25  C   UNL A   1      33.129  24.049  22.287  1.00  0.00     0.031 C 
ATOM     26  C   UNL A   1      37.407  23.914  25.353  1.00  0.00     0.046 C 
ATOM     27  H   UNL A   1      36.095  24.875  23.186  1.00  0.00     0.161 HD
ATOM     28  C   UNL A   1      30.910  24.027  23.069  1.00  0.00    -0.030 C 
ATOM     29  C   UNL A   1      31.719  24.522  21.916  1.00  0.00     0.034 C 
BRANCH  16  30
ATOM     30  C   UNL A   1      32.863  20.359  24.851  1.00  0.00     0.338 C 
ATOM     31  O   UNL A   1      31.834  20.429  25.499  1.00  0.00    -0.246 OA
BRANCH  30  32
ATOM     32  O   UNL A   1      33.202  19.378  23.976  1.00  0.00    -0.465 OA
ATOM     33  C   UNL A   1      32.159  19.042  23.060  1.00  0.00     0.282 C 
ENDBRANCH  30  32
ENDBRANCH  16  30
ENDBRANCH  10  15
ENDBRANCH   7   9
ENDBRANCH   6   7
ENDBRANCH   5   6
ENDBRANCH   4   5
ENDBRANCH   3   4
ENDBRANCH   2   3
ENDBRANCH   1   2
BRANCH   1  34
ATOM     34  O   UNL A   1      34.171  35.551  28.851  1.00  0.00    -0.377 OA
BRANCH  34  35
ATOM     35  C   UNL A   1      32.973  35.903  29.536  1.00  0.00     0.188 C 
BRANCH  35  36
ATOM     36  C   UNL A   1      32.887  35.882  31.081  1.00  0.00     0.188 C 
BRANCH  36  37
ATOM     37  O   UNL A   1      33.332  34.676  31.674  1.00  0.00    -0.376 OA
BRANCH  37  38
ATOM     38  C   UNL A   1      34.729  34.470  31.770  1.00  0.00     0.202 C 
BRANCH  38  39
ATOM     39  C   UNL A   1      35.236  33.023  31.714  1.00  0.00     0.261 C 
BRANCH  39  40
ATOM     40  O   UNL A   1      36.657  32.835  31.804  1.00  0.00    -0.460 OA
BRANCH  40  41
ATOM     41  C   UNL A   1      37.110  31.786  32.520  1.00  0.00     0.338 C 
ATOM     42  O   UNL A   1      36.642  31.327  33.548  1.00  0.00    -0.246 OA
BRANCH  41  43
ATOM     43  C   UNL A   1      38.204  31.173  31.741  1.00  0.00     0.060 A 
ATOM     44  C   UNL A   1      39.346  30.694  32.400  1.00  0.00     0.016 A 
ATOM     45  C   UNL A   1      38.080  31.047  30.355  1.00  0.00     0.016 A 
ATOM     46  C   UNL A   1      40.372  30.093  31.669  1.00  0.00     0.010 A 
ATOM     47  C   UNL A   1      39.125  30.485  29.621  1.00  0.00     0.010 A 
ATOM     48  C   UNL A   1      40.285  30.032  30.272  1.00  0.00    -0.014 A 
BRANCH  48  49
ATOM     49  C   UNL A   1      41.498  29.731  29.477  1.00  0.00     0.031 A 
ATOM     50  C   UNL A   1      41.669  28.324  28.978  1.00  0.00     0.074 A 
ATOM     51  C   UNL A   1      42.416  30.671  29.196  1.00  0.00     0.049 A 
ATOM     52  N   UNL A   1      42.661  27.791  28.313  1.00  0.00    -0.248 NA
ATOM     53  C   UNL A   1      40.568  27.389  29.271  1.00  0.00     0.031 C 
ATOM     54  C   UNL A   1      42.331  32.078  29.578  1.00  0.00     0.029 A 
ATOM     55  N   UNL A   1      43.611  30.573  28.526  1.00  0.00    -0.354 N 
ATOM     56  C   UNL A   1      42.298  26.468  28.101  1.00  0.00     0.074 A 
ATOM     57  C   UNL A   1      41.016  26.265  28.736  1.00  0.00     0.031 C 
ATOM     58  C   UNL A   1      43.437  32.712  29.144  1.00  0.00     0.029 A 
ATOM     59  C   UNL A   1      44.318  31.748  28.484  1.00  0.00     0.049 A 
ATOM     60  H   UNL A   1      43.929  29.737  28.113  1.00  0.00     0.167 HD
ATOM     61  C   UNL A   1      42.971  25.511  27.424  1.00  0.00     0.037 A 
ATOM     62  C   UNL A   1      45.545  32.004  27.988  1.00  0.00     0.037 A 
ATOM     63  C   UNL A   1      44.256  25.710  26.811  1.00  0.00     0.049 A 
ATOM     64  C   UNL A   1      46.326  30.888  27.336  1.00  0.00     0.074 A 
ATOM     65  C   UNL A   1      45.022  24.799  26.107  1.00  0.00     0.029 A 
ATOM     66  N   UNL A   1      44.966  26.900  26.838  1.00  0.00    -0.354 N 
ATOM     67  N   UNL A   1      45.972  29.644  27.118  1.00  0.00    -0.248 NA
ATOM     68  C   UNL A   1      47.681  31.211  26.862  1.00  0.00     0.031 C 
ATOM     69  C   UNL A   1      46.223  25.422  25.758  1.00  0.00     0.029 A 
ATOM     70  C   UNL A   1      46.178  26.739  26.188  1.00  0.00     0.049 A 
ATOM     71  H   UNL A   1      44.655  27.735  27.257  1.00  0.00     0.167 HD
ATOM     72  C   UNL A   1      47.040  29.049  26.458  1.00  0.00     0.074 A 
ATOM     73  C   UNL A   1      48.053  30.071  26.298  1.00  0.00     0.031 C 
ATOM     74  C   UNL A   1      47.171  27.770  26.024  1.00  0.00     0.037 A 
BRANCH  61  75
ATOM     75  C   UNL A   1      42.340  24.154  27.323  1.00  0.00     0.064 A 
ATOM     76  C   UNL A   1      42.826  23.065  28.063  1.00  0.00     0.173 A 
ATOM     77  C   UNL A   1      41.201  23.955  26.529  1.00  0.00     0.173 A 
ATOM     78  F   UNL A   1      43.924  23.200  28.822  1.00  0.00    -0.203 F 
ATOM     79  C   UNL A   1      42.197  21.825  28.005  1.00  0.00     0.198 A 
ATOM     80  C   UNL A   1      40.557  22.722  26.499  1.00  0.00     0.198 A 
ATOM     81  F   UNL A   1      40.700  24.964  25.801  1.00  0.00    -0.203 F 
ATOM     82  F   UNL A   1      42.696  20.791  28.696  1.00  0.00    -0.200 F 
ATOM     83  C   UNL A   1      41.057  21.657  27.234  1.00  0.00     0.200 A 
ATOM     84  F   UNL A   1      39.448  22.565  25.762  1.00  0.00    -0.200 F 
ATOM     85  F   UNL A   1      40.440  20.469  27.197  1.00  0.00    -0.200 F 
ENDBRANCH  61  75
BRANCH  62  86
ATOM     86  C   UNL A   1      46.116  33.374  28.082  1.00  0.00     0.064 A 
ATOM     87  C   UNL A   1      45.951  34.297  27.040  1.00  0.00     0.173 A 
ATOM     88  C   UNL A   1      46.850  33.787  29.206  1.00  0.00     0.173 A 
ATOM     89  F   UNL A   1      45.285  33.942  25.932  1.00  0.00    -0.203 F 
ATOM     90  C   UNL A   1      46.504  35.574  27.113  1.00  0.00     0.198 A 
ATOM     91  C   UNL A   1      47.377  35.074  29.291  1.00  0.00     0.198 A 
ATOM     92  F   UNL A   1      47.047  32.941  30.228  1.00  0.00    -0.203 F 
ATOM     93  F   UNL A   1      46.366  36.421  26.084  1.00  0.00    -0.200 F 
ATOM     94  C   UNL A   1      47.209  35.965  28.241  1.00  0.00     0.200 A 
ATOM     95  F   UNL A   1      48.048  35.451  30.388  1.00  0.00    -0.200 F 
ATOM     96  F   UNL A   1      47.733  37.196  28.315  1.00  0.00    -0.200 F 
ENDBRANCH  62  86
BRANCH  74  97
ATOM     97  C   UNL A   1      48.437  27.395  25.308  1.00  0.00     0.064 A 
ATOM     98  C   UNL A   1      48.534  27.450  23.910  1.00  0.00     0.173 A 
ATOM     99  C   UNL A   1      49.594  27.070  26.033  1.00  0.00     0.173 A 
ATOM    100  F   UNL A   1      47.455  27.747  23.169  1.00  0.00    -0.203 F 
ATOM    101  C   UNL A   1      49.739  27.179  23.266  1.00  0.00     0.198 A 
ATOM    102  C   UNL A   1      50.804  26.833  25.388  1.00  0.00     0.198 A 
ATOM    103  F   UNL A   1      49.558  27.016  27.374  1.00  0.00    -0.203 F 
ATOM    104  F   UNL A   1      49.800  27.204  21.927  1.00  0.00    -0.200 F 
ATOM    105  C   UNL A   1      50.875  26.883  24.005  1.00  0.00     0.200 A 
ATOM    106  F   UNL A   1      51.904  26.570  26.107  1.00  0.00    -0.200 F 
ATOM    107  F   UNL A   1      52.037  26.647  23.383  1.00  0.00    -0.200 F 
ENDBRANCH  74  97
ENDBRANCH  48  49
ENDBRANCH  41  43
ENDBRANCH  40  41
ENDBRANCH  39  40
ENDBRANCH  38  39
ENDBRANCH  37  38
ENDBRANCH  36  37
ENDBRANCH  35  36
ENDBRANCH  34  35
ENDBRANCH   1  34
TORSDOF 23
ENDMDL
