MODEL 1
REMARK VINA RESULT:     -10.5      0.000      0.000
REMARK SMILES Cc1ccc(S(=O)(=O)N2CCN(C(=O)[C@H]3CCCC[C@H]3C(=O)OCCOCCOCCOCCOC(=O)c3ccc(-c4c5nc(c(-c6c(F)c(F)c(F)c(F)c6F)c6ccc([nH]6)c(-c6c(F)c(F)c(F)c(F)c6F)c6nc(c(-c7c(F)c(F)c(F)c(F)c7F)c7ccc4[nH]7)C=C6)C=C5)cc3)CC2)cc1C
REMARK SMILES IDX 28 1 27 2 26 3 25 4 24 5 23 6 21 7 22 8 20 9 15 10 16 11
REMARK SMILES IDX 17 12 19 13 18 14 13 15 9 16 10 17 102 18 11 19 101 20 12 21
REMARK SMILES IDX 14 22 6 23 7 24 8 25 5 26 1 27 2 28 3 29 104 30 4 31 103 32
REMARK SMILES IDX 105 33 29 34 30 35 31 36 32 37 33 38 34 39 35 40 36 41 37 42
REMARK SMILES IDX 38 43 39 44 100 45 40 46 99 47 41 48 42 49 43 50 93 51 44 52
REMARK SMILES IDX 98 53 92 54 94 55 45 56 97 57 91 58 90 59 46 61 78 62 58 63
REMARK SMILES IDX 77 64 59 65 62 66 76 67 95 68 60 69 61 70 75 72 96 73 63 74
REMARK SMILES IDX 47 75 48 76 56 77 49 78 50 79 54 80 57 81 51 82 52 83 55 84
REMARK SMILES IDX 53 85 79 86 80 87 88 88 81 89 82 90 86 91 89 92 83 93 84 94
REMARK SMILES IDX 87 95 85 96 64 97 65 98 73 99 66 100 67 101 71 102 74 103
REMARK SMILES IDX 68 104 69 105 72 106 70 107
REMARK H PARENT 94 60 62 71
REMARK Flexibility Score: inf
ROOT
ATOM      1  C   UNL A   1      33.511  34.399  29.178  1.00  0.00     0.188 C 
ENDROOT
BRANCH   1   2
ATOM      2  C   UNL A   1      33.920  33.593  27.936  1.00  0.00     0.188 C 
BRANCH   2   3
ATOM      3  O   UNL A   1      33.619  32.219  27.946  1.00  0.00    -0.376 OA
BRANCH   3   4
ATOM      4  C   UNL A   1      34.575  31.237  27.586  1.00  0.00     0.202 C 
BRANCH   4   5
ATOM      5  C   UNL A   1      34.286  29.887  26.907  1.00  0.00     0.261 C 
BRANCH   5   6
ATOM      6  O   UNL A   1      33.632  29.887  25.634  1.00  0.00    -0.463 OA
BRANCH   6   7
ATOM      7  C   UNL A   1      32.340  29.502  25.675  1.00  0.00     0.309 C 
ATOM      8  O   UNL A   1      31.680  29.457  26.714  1.00  0.00    -0.252 OA
BRANCH   7   9
ATOM      9  C   UNL A   1      31.697  29.158  24.343  1.00  0.00     0.111 C 
ATOM     10  C   UNL A   1      31.704  27.714  23.769  1.00  0.00     0.093 C 
ATOM     11  C   UNL A   1      30.980  27.721  22.401  1.00  0.00     0.014 C 
ATOM     12  C   UNL A   1      29.596  28.362  22.441  1.00  0.00     0.001 C 
ATOM     13  C   UNL A   1      30.298  29.796  24.362  1.00  0.00     0.016 C 
ATOM     14  C   UNL A   1      29.648  29.775  22.992  1.00  0.00     0.001 C 
BRANCH  10  15
ATOM     15  C   UNL A   1      31.147  26.632  24.706  1.00  0.00     0.226 C 
ATOM     16  N   UNL A   1      31.955  22.625  24.245  1.00  0.00    -0.194 NA
ATOM     17  C   UNL A   1      30.927  23.142  25.181  1.00  0.00     0.124 C 
ATOM     18  C   UNL A   1      32.472  23.602  23.259  1.00  0.00     0.124 C 
ATOM     19  C   UNL A   1      31.398  24.451  25.827  1.00  0.00     0.136 C 
ATOM     20  C   UNL A   1      32.910  24.910  23.961  1.00  0.00     0.136 C 
ATOM     21  N   UNL A   1      31.828  25.423  24.816  1.00  0.00    -0.340 N 
ATOM     22  O   UNL A   1      30.114  26.837  25.345  1.00  0.00    -0.275 OA
BRANCH  16  23
ATOM     23  S   UNL A   1      32.483  21.036  24.308  1.00  0.00     0.243 S 
ATOM     24  O   UNL A   1      32.384  20.472  22.971  1.00  0.00    -0.207 OA
ATOM     25  O   UNL A   1      31.862  20.403  25.442  1.00  0.00    -0.207 OA
BRANCH  23  26
ATOM     26  C   UNL A   1      34.228  21.165  24.658  1.00  0.00     0.082 A 
ATOM     27  C   UNL A   1      38.432  21.390  25.601  1.00  0.00     0.044 C 
ATOM     28  C   UNL A   1      36.955  21.351  25.313  1.00  0.00    -0.048 A 
ATOM     29  C   UNL A   1      36.368  20.112  25.009  1.00  0.00     0.005 A 
ATOM     30  C   UNL A   1      36.149  22.508  25.331  1.00  0.00    -0.047 A 
ATOM     31  C   UNL A   1      35.014  20.016  24.695  1.00  0.00     0.022 A 
ATOM     32  C   UNL A   1      34.786  22.406  24.986  1.00  0.00     0.025 A 
ATOM     33  C   UNL A   1      36.667  23.857  25.757  1.00  0.00     0.044 C 
ENDBRANCH  23  26
ENDBRANCH  16  23
ENDBRANCH  10  15
ENDBRANCH   7   9
ENDBRANCH   6   7
ENDBRANCH   5   6
ENDBRANCH   4   5
ENDBRANCH   3   4
ENDBRANCH   2   3
ENDBRANCH   1   2
BRANCH   1  34
ATOM     34  O   UNL A   1      33.802  35.785  29.210  1.00  0.00    -0.377 OA
BRANCH  34  35
ATOM     35  C   UNL A   1      33.233  36.614  30.223  1.00  0.00     0.188 C 
BRANCH  35  36
ATOM     36  C   UNL A   1      32.591  36.009  31.489  1.00  0.00     0.188 C 
BRANCH  36  37
ATOM     37  O   UNL A   1      33.049  36.583  32.703  1.00  0.00    -0.376 OA
BRANCH  37  38
ATOM     38  C   UNL A   1      34.294  36.145  33.226  1.00  0.00     0.202 C 
BRANCH  38  39
ATOM     39  C   UNL A   1      34.385  34.653  33.562  1.00  0.00     0.261 C 
BRANCH  39  40
ATOM     40  O   UNL A   1      35.455  33.956  32.900  1.00  0.00    -0.460 OA
BRANCH  40  41
ATOM     41  C   UNL A   1      35.138  32.852  32.192  1.00  0.00     0.338 C 
ATOM     42  O   UNL A   1      34.020  32.446  31.932  1.00  0.00    -0.246 OA
BRANCH  41  43
ATOM     43  C   UNL A   1      36.378  32.236  31.663  1.00  0.00     0.060 A 
ATOM     44  C   UNL A   1      37.333  31.773  32.572  1.00  0.00     0.016 A 
ATOM     45  C   UNL A   1      36.633  32.180  30.291  1.00  0.00     0.016 A 
ATOM     46  C   UNL A   1      38.593  31.389  32.116  1.00  0.00     0.010 A 
ATOM     47  C   UNL A   1      37.904  31.850  29.835  1.00  0.00     0.010 A 
ATOM     48  C   UNL A   1      38.902  31.509  30.755  1.00  0.00    -0.014 A 
BRANCH  48  49
ATOM     49  C   UNL A   1      40.304  31.416  30.308  1.00  0.00     0.031 A 
ATOM     50  C   UNL A   1      41.136  32.665  30.248  1.00  0.00     0.074 A 
ATOM     51  C   UNL A   1      40.794  30.239  29.892  1.00  0.00     0.049 A 
ATOM     52  N   UNL A   1      42.405  32.810  29.968  1.00  0.00    -0.248 NA
ATOM     53  C   UNL A   1      40.432  33.931  30.507  1.00  0.00     0.031 C 
ATOM     54  C   UNL A   1      40.038  28.991  29.819  1.00  0.00     0.029 A 
ATOM     55  N   UNL A   1      42.044  29.909  29.446  1.00  0.00    -0.354 N 
ATOM     56  C   UNL A   1      42.652  34.177  30.021  1.00  0.00     0.074 A 
ATOM     57  C   UNL A   1      41.390  34.823  30.310  1.00  0.00     0.031 C 
ATOM     58  C   UNL A   1      40.843  28.023  29.352  1.00  0.00     0.029 A 
ATOM     59  C   UNL A   1      42.173  28.584  29.123  1.00  0.00     0.049 A 
ATOM     60  H   UNL A   1      42.778  30.560  29.364  1.00  0.00     0.167 HD
ATOM     61  C   UNL A   1      43.832  34.823  29.860  1.00  0.00     0.037 A 
ATOM     62  C   UNL A   1      43.261  27.898  28.730  1.00  0.00     0.037 A 
ATOM     63  C   UNL A   1      45.074  34.145  29.587  1.00  0.00     0.049 A 
ATOM     64  C   UNL A   1      44.584  28.612  28.678  1.00  0.00     0.074 A 
ATOM     65  C   UNL A   1      46.350  34.672  29.501  1.00  0.00     0.029 A 
ATOM     66  N   UNL A   1      45.188  32.782  29.350  1.00  0.00    -0.354 N 
ATOM     67  N   UNL A   1      44.846  29.884  28.862  1.00  0.00    -0.248 NA
ATOM     68  C   UNL A   1      45.766  27.784  28.414  1.00  0.00     0.031 C 
ATOM     69  C   UNL A   1      47.231  33.634  29.175  1.00  0.00     0.029 A 
ATOM     70  C   UNL A   1      46.512  32.451  29.114  1.00  0.00     0.049 A 
ATOM     71  H   UNL A   1      44.438  32.144  29.349  1.00  0.00     0.167 HD
ATOM     72  C   UNL A   1      46.227  30.005  28.771  1.00  0.00     0.074 A 
ATOM     73  C   UNL A   1      46.743  28.671  28.536  1.00  0.00     0.031 C 
ATOM     74  C   UNL A   1      46.999  31.115  28.877  1.00  0.00     0.037 A 
BRANCH  61  75
ATOM     75  C   UNL A   1      43.848  36.322  29.989  1.00  0.00     0.064 A 
ATOM     76  C   UNL A   1      44.091  36.954  31.219  1.00  0.00     0.173 A 
ATOM     77  C   UNL A   1      43.687  37.140  28.860  1.00  0.00     0.173 A 
ATOM     78  F   UNL A   1      44.247  36.226  32.335  1.00  0.00    -0.203 F 
ATOM     79  C   UNL A   1      44.149  38.343  31.317  1.00  0.00     0.198 A 
ATOM     80  C   UNL A   1      43.778  38.527  28.955  1.00  0.00     0.198 A 
ATOM     81  F   UNL A   1      43.454  36.594  27.657  1.00  0.00    -0.203 F 
ATOM     82  F   UNL A   1      44.338  38.921  32.511  1.00  0.00    -0.200 F 
ATOM     83  C   UNL A   1      44.003  39.128  30.184  1.00  0.00     0.200 A 
ATOM     84  F   UNL A   1      43.653  39.284  27.855  1.00  0.00    -0.200 F 
ATOM     85  F   UNL A   1      44.076  40.463  30.277  1.00  0.00    -0.200 F 
ENDBRANCH  61  75
BRANCH  62  86
ATOM     86  C   UNL A   1      43.149  26.440  28.488  1.00  0.00     0.064 A 
ATOM     87  C   UNL A   1      43.332  25.527  29.535  1.00  0.00     0.173 A 
ATOM     88  C   UNL A   1      42.803  25.933  27.228  1.00  0.00     0.173 A 
ATOM     89  F   UNL A   1      43.666  25.967  30.757  1.00  0.00    -0.203 F 
ATOM     90  C   UNL A   1      43.194  24.157  29.327  1.00  0.00     0.198 A 
ATOM     91  C   UNL A   1      42.641  24.564  27.027  1.00  0.00     0.198 A 
ATOM     92  F   UNL A   1      42.595  26.770  26.202  1.00  0.00    -0.203 F 
ATOM     93  F   UNL A   1      43.405  23.304  30.339  1.00  0.00    -0.200 F 
ATOM     94  C   UNL A   1      42.842  23.677  28.075  1.00  0.00     0.200 A 
ATOM     95  F   UNL A   1      42.280  24.105  25.821  1.00  0.00    -0.200 F 
ATOM     96  F   UNL A   1      42.697  22.360  27.878  1.00  0.00    -0.200 F 
ENDBRANCH  62  86
BRANCH  74  97
ATOM     97  C   UNL A   1      48.484  30.921  28.768  1.00  0.00     0.064 A 
ATOM     98  C   UNL A   1      49.276  30.644  29.891  1.00  0.00     0.173 A 
ATOM     99  C   UNL A   1      49.119  31.011  27.519  1.00  0.00     0.173 A 
ATOM    100  F   UNL A   1      48.717  30.559  31.108  1.00  0.00    -0.203 F 
ATOM    101  C   UNL A   1      50.657  30.509  29.775  1.00  0.00     0.198 A 
ATOM    102  C   UNL A   1      50.496  30.841  27.403  1.00  0.00     0.198 A 
ATOM    103  F   UNL A   1      48.405  31.262  26.412  1.00  0.00    -0.203 F 
ATOM    104  F   UNL A   1      51.402  30.311  30.871  1.00  0.00    -0.200 F 
ATOM    105  C   UNL A   1      51.264  30.604  28.532  1.00  0.00     0.200 A 
ATOM    106  F   UNL A   1      51.079  30.919  26.199  1.00  0.00    -0.200 F 
ATOM    107  F   UNL A   1      52.595  30.479  28.424  1.00  0.00    -0.200 F 
ENDBRANCH  74  97
ENDBRANCH  48  49
ENDBRANCH  41  43
ENDBRANCH  40  41
ENDBRANCH  39  40
ENDBRANCH  38  39
ENDBRANCH  37  38
ENDBRANCH  36  37
ENDBRANCH  35  36
ENDBRANCH  34  35
ENDBRANCH   1  34
TORSDOF 23
ENDMDL
MODEL 2
REMARK VINA RESULT:     -10.4      3.838      9.639
REMARK SMILES Cc1ccc(S(=O)(=O)N2CCN(C(=O)[C@H]3CCCC[C@H]3C(=O)OCCOCCOCCOCCOC(=O)c3ccc(-c4c5nc(c(-c6c(F)c(F)c(F)c(F)c6F)c6ccc([nH]6)c(-c6c(F)c(F)c(F)c(F)c6F)c6nc(c(-c7c(F)c(F)c(F)c(F)c7F)c7ccc4[nH]7)C=C6)C=C5)cc3)CC2)cc1C
REMARK SMILES IDX 28 1 27 2 26 3 25 4 24 5 23 6 21 7 22 8 20 9 15 10 16 11
REMARK SMILES IDX 17 12 19 13 18 14 13 15 9 16 10 17 102 18 11 19 101 20 12 21
REMARK SMILES IDX 14 22 6 23 7 24 8 25 5 26 1 27 2 28 3 29 104 30 4 31 103 32
REMARK SMILES IDX 105 33 29 34 30 35 31 36 32 37 33 38 34 39 35 40 36 41 37 42
REMARK SMILES IDX 38 43 39 44 100 45 40 46 99 47 41 48 42 49 43 50 93 51 44 52
REMARK SMILES IDX 98 53 92 54 94 55 45 56 97 57 91 58 90 59 46 61 78 62 58 63
REMARK SMILES IDX 77 64 59 65 62 66 76 67 95 68 60 69 61 70 75 72 96 73 63 74
REMARK SMILES IDX 47 75 48 76 56 77 49 78 50 79 54 80 57 81 51 82 52 83 55 84
REMARK SMILES IDX 53 85 79 86 80 87 88 88 81 89 82 90 86 91 89 92 83 93 84 94
REMARK SMILES IDX 87 95 85 96 64 97 65 98 73 99 66 100 67 101 71 102 74 103
REMARK SMILES IDX 68 104 69 105 72 106 70 107
REMARK H PARENT 94 60 62 71
REMARK Flexibility Score: inf
ROOT
ATOM      1  C   UNL A   1      41.184  21.864  28.009  1.00  0.00     0.188 C 
ENDROOT
BRANCH   1   2
ATOM      2  C   UNL A   1      40.545  22.884  27.055  1.00  0.00     0.188 C 
BRANCH   2   3
ATOM      3  O   UNL A   1      39.154  22.794  26.873  1.00  0.00    -0.376 OA
BRANCH   3   4
ATOM      4  C   UNL A   1      38.420  23.787  26.177  1.00  0.00     0.202 C 
BRANCH   4   5
ATOM      5  C   UNL A   1      36.947  23.695  25.739  1.00  0.00     0.261 C 
BRANCH   5   6
ATOM      6  O   UNL A   1      36.096  22.749  26.392  1.00  0.00    -0.463 OA
BRANCH   6   7
ATOM      7  C   UNL A   1      35.997  21.562  25.758  1.00  0.00     0.309 C 
ATOM      8  O   UNL A   1      36.972  20.928  25.353  1.00  0.00    -0.252 OA
BRANCH   7   9
ATOM      9  C   UNL A   1      34.595  21.001  25.595  1.00  0.00     0.111 C 
ATOM     10  C   UNL A   1      33.368  21.908  25.302  1.00  0.00     0.093 C 
ATOM     11  C   UNL A   1      32.105  21.019  25.210  1.00  0.00     0.014 C 
ATOM     12  C   UNL A   1      32.248  19.845  24.246  1.00  0.00     0.001 C 
ATOM     13  C   UNL A   1      34.717  19.814  24.626  1.00  0.00     0.016 C 
ATOM     14  C   UNL A   1      33.449  18.982  24.588  1.00  0.00     0.001 C 
BRANCH  10  15
ATOM     15  C   UNL A   1      33.510  22.829  24.082  1.00  0.00     0.226 C 
ATOM     16  N   UNL A   1      31.079  26.084  23.428  1.00  0.00    -0.194 NA
ATOM     17  C   UNL A   1      32.018  25.555  22.409  1.00  0.00     0.124 C 
ATOM     18  C   UNL A   1      30.837  25.200  24.593  1.00  0.00     0.124 C 
ATOM     19  C   UNL A   1      33.314  25.069  23.070  1.00  0.00     0.136 C 
ATOM     20  C   UNL A   1      32.174  24.722  25.206  1.00  0.00     0.136 C 
ATOM     21  N   UNL A   1      33.037  24.136  24.168  1.00  0.00    -0.340 N 
ATOM     22  O   UNL A   1      34.033  22.413  23.047  1.00  0.00    -0.275 OA
BRANCH  16  23
ATOM     23  S   UNL A   1      30.346  27.580  23.257  1.00  0.00     0.243 S 
ATOM     24  O   UNL A   1      28.969  27.465  23.714  1.00  0.00    -0.207 OA
ATOM     25  O   UNL A   1      30.668  28.090  21.950  1.00  0.00    -0.207 OA
BRANCH  23  26
ATOM     26  C   UNL A   1      31.173  28.615  24.452  1.00  0.00     0.082 A 
ATOM     27  C   UNL A   1      33.184  31.212  27.251  1.00  0.00     0.044 C 
ATOM     28  C   UNL A   1      32.535  30.289  26.254  1.00  0.00    -0.048 A 
ATOM     29  C   UNL A   1      31.363  30.720  25.612  1.00  0.00     0.005 A 
ATOM     30  C   UNL A   1      33.054  29.013  25.953  1.00  0.00    -0.047 A 
ATOM     31  C   UNL A   1      30.693  29.897  24.709  1.00  0.00     0.022 A 
ATOM     32  C   UNL A   1      32.356  28.176  25.060  1.00  0.00     0.025 A 
ATOM     33  C   UNL A   1      34.364  28.514  26.504  1.00  0.00     0.044 C 
ENDBRANCH  23  26
ENDBRANCH  16  23
ENDBRANCH  10  15
ENDBRANCH   7   9
ENDBRANCH   6   7
ENDBRANCH   5   6
ENDBRANCH   4   5
ENDBRANCH   3   4
ENDBRANCH   2   3
ENDBRANCH   1   2
BRANCH   1  34
ATOM     34  O   UNL A   1      42.180  20.994  27.501  1.00  0.00    -0.377 OA
BRANCH  34  35
ATOM     35  C   UNL A   1      42.255  20.729  26.102  1.00  0.00     0.188 C 
BRANCH  35  36
ATOM     36  C   UNL A   1      43.434  21.241  25.249  1.00  0.00     0.188 C 
BRANCH  36  37
ATOM     37  O   UNL A   1      44.649  20.538  25.457  1.00  0.00    -0.376 OA
BRANCH  37  38
ATOM     38  C   UNL A   1      45.854  21.126  24.990  1.00  0.00     0.202 C 
BRANCH  38  39
ATOM     39  C   UNL A   1      45.933  22.653  25.096  1.00  0.00     0.261 C 
BRANCH  39  40
ATOM     40  O   UNL A   1      46.474  23.138  26.337  1.00  0.00    -0.460 OA
BRANCH  40  41
ATOM     41  C   UNL A   1      45.607  23.610  27.256  1.00  0.00     0.338 C 
ATOM     42  O   UNL A   1      44.855  22.955  27.955  1.00  0.00    -0.246 OA
BRANCH  41  43
ATOM     43  C   UNL A   1      45.775  25.077  27.381  1.00  0.00     0.060 A 
ATOM     44  C   UNL A   1      46.188  25.599  28.610  1.00  0.00     0.016 A 
ATOM     45  C   UNL A   1      45.459  25.937  26.326  1.00  0.00     0.016 A 
ATOM     46  C   UNL A   1      46.149  26.976  28.825  1.00  0.00     0.010 A 
ATOM     47  C   UNL A   1      45.366  27.305  26.551  1.00  0.00     0.010 A 
ATOM     48  C   UNL A   1      45.656  27.819  27.820  1.00  0.00    -0.014 A 
BRANCH  48  49
ATOM     49  C   UNL A   1      45.310  29.217  28.137  1.00  0.00     0.031 A 
ATOM     50  C   UNL A   1      46.316  30.298  27.863  1.00  0.00     0.074 A 
ATOM     51  C   UNL A   1      44.140  29.496  28.731  1.00  0.00     0.049 A 
ATOM     52  N   UNL A   1      46.201  31.595  27.982  1.00  0.00    -0.248 NA
ATOM     53  C   UNL A   1      47.649  29.854  27.425  1.00  0.00     0.031 C 
ATOM     54  C   UNL A   1      43.141  28.507  29.127  1.00  0.00     0.029 A 
ATOM     55  N   UNL A   1      43.605  30.696  29.110  1.00  0.00    -0.354 N 
ATOM     56  C   UNL A   1      47.439  32.120  27.632  1.00  0.00     0.074 A 
ATOM     57  C   UNL A   1      48.308  31.000  27.344  1.00  0.00     0.031 C 
ATOM     58  C   UNL A   1      42.105  29.143  29.698  1.00  0.00     0.029 A 
ATOM     59  C   UNL A   1      42.364  30.581  29.678  1.00  0.00     0.049 A 
ATOM     60  H   UNL A   1      44.067  31.557  28.987  1.00  0.00     0.167 HD
ATOM     61  C   UNL A   1      47.803  33.422  27.544  1.00  0.00     0.037 A 
ATOM     62  C   UNL A   1      41.517  31.540  30.093  1.00  0.00     0.037 A 
ATOM     63  C   UNL A   1      46.907  34.516  27.825  1.00  0.00     0.049 A 
ATOM     64  C   UNL A   1      41.893  32.979  29.870  1.00  0.00     0.074 A 
ATOM     65  C   UNL A   1      47.121  35.874  27.677  1.00  0.00     0.029 A 
ATOM     66  N   UNL A   1      45.618  34.366  28.318  1.00  0.00    -0.354 N 
ATOM     67  N   UNL A   1      43.014  33.480  29.409  1.00  0.00    -0.248 NA
ATOM     68  C   UNL A   1      40.866  33.981  30.178  1.00  0.00     0.031 C 
ATOM     69  C   UNL A   1      45.976  36.548  28.117  1.00  0.00     0.029 A 
ATOM     70  C   UNL A   1      45.027  35.607  28.485  1.00  0.00     0.049 A 
ATOM     71  H   UNL A   1      45.187  33.504  28.521  1.00  0.00     0.167 HD
ATOM     72  C   UNL A   1      42.816  34.854  29.338  1.00  0.00     0.074 A 
ATOM     73  C   UNL A   1      41.459  35.098  29.786  1.00  0.00     0.031 C 
ATOM     74  C   UNL A   1      43.676  35.823  28.937  1.00  0.00     0.037 A 
BRANCH  61  75
ATOM     75  C   UNL A   1      49.210  33.742  27.115  1.00  0.00     0.064 A 
ATOM     76  C   UNL A   1      50.311  33.490  27.949  1.00  0.00     0.173 A 
ATOM     77  C   UNL A   1      49.470  34.242  25.830  1.00  0.00     0.173 A 
ATOM     78  F   UNL A   1      50.124  33.018  29.191  1.00  0.00    -0.203 F 
ATOM     79  C   UNL A   1      51.612  33.748  27.523  1.00  0.00     0.198 A 
ATOM     80  C   UNL A   1      50.775  34.467  25.395  1.00  0.00     0.198 A 
ATOM     81  F   UNL A   1      48.460  34.500  24.986  1.00  0.00    -0.203 F 
ATOM     82  F   UNL A   1      52.642  33.540  28.356  1.00  0.00    -0.200 F 
ATOM     83  C   UNL A   1      51.844  34.226  26.243  1.00  0.00     0.200 A 
ATOM     84  F   UNL A   1      50.998  34.915  24.150  1.00  0.00    -0.200 F 
ATOM     85  F   UNL A   1      53.097  34.458  25.829  1.00  0.00    -0.200 F 
ENDBRANCH  61  75
BRANCH  62  86
ATOM     86  C   UNL A   1      40.192  31.152  30.632  1.00  0.00     0.064 A 
ATOM     87  C   UNL A   1      39.146  30.796  29.770  1.00  0.00     0.173 A 
ATOM     88  C   UNL A   1      39.960  31.073  32.012  1.00  0.00     0.173 A 
ATOM     89  F   UNL A   1      39.323  30.859  28.442  1.00  0.00    -0.203 F 
ATOM     90  C   UNL A   1      37.909  30.397  30.267  1.00  0.00     0.198 A 
ATOM     91  C   UNL A   1      38.729  30.649  32.508  1.00  0.00     0.198 A 
ATOM     92  F   UNL A   1      40.938  31.381  32.876  1.00  0.00    -0.203 F 
ATOM     93  F   UNL A   1      36.917  30.093  29.419  1.00  0.00    -0.200 F 
ATOM     94  C   UNL A   1      37.704  30.317  31.635  1.00  0.00     0.200 A 
ATOM     95  F   UNL A   1      38.541  30.552  33.831  1.00  0.00    -0.200 F 
ATOM     96  F   UNL A   1      36.517  29.919  32.113  1.00  0.00    -0.200 F 
ENDBRANCH  62  86
BRANCH  74  97
ATOM     97  C   UNL A   1      43.155  37.232  28.937  1.00  0.00     0.064 A 
ATOM     98  C   UNL A   1      42.342  37.718  27.903  1.00  0.00     0.173 A 
ATOM     99  C   UNL A   1      43.473  38.104  29.989  1.00  0.00     0.173 A 
ATOM    100  F   UNL A   1      42.018  36.926  26.869  1.00  0.00    -0.203 F 
ATOM    101  C   UNL A   1      41.904  39.039  27.899  1.00  0.00     0.198 A 
ATOM    102  C   UNL A   1      43.005  39.415  30.000  1.00  0.00     0.198 A 
ATOM    103  F   UNL A   1      44.238  37.685  31.008  1.00  0.00    -0.203 F 
ATOM    104  F   UNL A   1      41.184  39.501  26.868  1.00  0.00    -0.200 F 
ATOM    105  C   UNL A   1      42.233  39.885  28.949  1.00  0.00     0.200 A 
ATOM    106  F   UNL A   1      43.312  40.225  31.021  1.00  0.00    -0.200 F 
ATOM    107  F   UNL A   1      41.814  41.158  28.941  1.00  0.00    -0.200 F 
ENDBRANCH  74  97
ENDBRANCH  48  49
ENDBRANCH  41  43
ENDBRANCH  40  41
ENDBRANCH  39  40
ENDBRANCH  38  39
ENDBRANCH  37  38
ENDBRANCH  36  37
ENDBRANCH  35  36
ENDBRANCH  34  35
ENDBRANCH   1  34
TORSDOF 23
ENDMDL
MODEL 3
REMARK VINA RESULT:     -10.3      3.184      9.838
REMARK SMILES Cc1ccc(S(=O)(=O)N2CCN(C(=O)[C@H]3CCCC[C@H]3C(=O)OCCOCCOCCOCCOC(=O)c3ccc(-c4c5nc(c(-c6c(F)c(F)c(F)c(F)c6F)c6ccc([nH]6)c(-c6c(F)c(F)c(F)c(F)c6F)c6nc(c(-c7c(F)c(F)c(F)c(F)c7F)c7ccc4[nH]7)C=C6)C=C5)cc3)CC2)cc1C
REMARK SMILES IDX 28 1 27 2 26 3 25 4 24 5 23 6 21 7 22 8 20 9 15 10 16 11
REMARK SMILES IDX 17 12 19 13 18 14 13 15 9 16 10 17 102 18 11 19 101 20 12 21
REMARK SMILES IDX 14 22 6 23 7 24 8 25 5 26 1 27 2 28 3 29 104 30 4 31 103 32
REMARK SMILES IDX 105 33 29 34 30 35 31 36 32 37 33 38 34 39 35 40 36 41 37 42
REMARK SMILES IDX 38 43 39 44 100 45 40 46 99 47 41 48 42 49 43 50 93 51 44 52
REMARK SMILES IDX 98 53 92 54 94 55 45 56 97 57 91 58 90 59 46 61 78 62 58 63
REMARK SMILES IDX 77 64 59 65 62 66 76 67 95 68 60 69 61 70 75 72 96 73 63 74
REMARK SMILES IDX 47 75 48 76 56 77 49 78 50 79 54 80 57 81 51 82 52 83 55 84
REMARK SMILES IDX 53 85 79 86 80 87 88 88 81 89 82 90 86 91 89 92 83 93 84 94
REMARK SMILES IDX 87 95 85 96 64 97 65 98 73 99 66 100 67 101 71 102 74 103
REMARK SMILES IDX 68 104 69 105 72 106 70 107
REMARK H PARENT 94 60 62 71
REMARK Flexibility Score: inf
ROOT
ATOM      1  C   UNL A   1      32.742  19.133  24.714  1.00  0.00     0.188 C 
ENDROOT
BRANCH   1   2
ATOM      2  C   UNL A   1      32.095  20.503  24.966  1.00  0.00     0.188 C 
BRANCH   2   3
ATOM      3  O   UNL A   1      32.134  21.426  23.906  1.00  0.00    -0.376 OA
BRANCH   3   4
ATOM      4  C   UNL A   1      31.800  22.792  24.083  1.00  0.00     0.202 C 
BRANCH   4   5
ATOM      5  C   UNL A   1      31.623  23.522  25.426  1.00  0.00     0.261 C 
BRANCH   5   6
ATOM      6  O   UNL A   1      31.857  24.932  25.475  1.00  0.00    -0.463 OA
BRANCH   6   7
ATOM      7  C   UNL A   1      30.745  25.672  25.672  1.00  0.00     0.309 C 
ATOM      8  O   UNL A   1      29.885  25.390  26.508  1.00  0.00    -0.252 OA
BRANCH   7   9
ATOM      9  C   UNL A   1      30.613  26.927  24.828  1.00  0.00     0.111 C 
ATOM     10  C   UNL A   1      31.333  28.254  25.198  1.00  0.00     0.093 C 
ATOM     11  C   UNL A   1      30.973  29.324  24.139  1.00  0.00     0.014 C 
ATOM     12  C   UNL A   1      31.212  28.872  22.702  1.00  0.00     0.001 C 
ATOM     13  C   UNL A   1      30.850  26.493  23.372  1.00  0.00     0.016 C 
ATOM     14  C   UNL A   1      30.473  27.585  22.389  1.00  0.00     0.001 C 
BRANCH  10  15
ATOM     15  C   UNL A   1      32.850  28.141  25.405  1.00  0.00     0.226 C 
ATOM     16  N   UNL A   1      34.992  30.722  27.788  1.00  0.00    -0.194 NA
ATOM     17  C   UNL A   1      35.630  29.744  26.875  1.00  0.00     0.124 C 
ATOM     18  C   UNL A   1      33.540  30.937  27.581  1.00  0.00     0.124 C 
ATOM     19  C   UNL A   1      34.831  28.435  26.844  1.00  0.00     0.136 C 
ATOM     20  C   UNL A   1      32.787  29.586  27.535  1.00  0.00     0.136 C 
ATOM     21  N   UNL A   1      33.413  28.680  26.559  1.00  0.00    -0.340 N 
ATOM     22  O   UNL A   1      33.553  27.583  24.560  1.00  0.00    -0.275 OA
BRANCH  16  23
ATOM     23  S   UNL A   1      35.868  31.527  28.967  1.00  0.00     0.243 S 
ATOM     24  O   UNL A   1      37.202  31.782  28.446  1.00  0.00    -0.207 OA
ATOM     25  O   UNL A   1      35.663  30.847  30.219  1.00  0.00    -0.207 OA
BRANCH  23  26
ATOM     26  C   UNL A   1      35.078  33.122  29.091  1.00  0.00     0.082 A 
ATOM     27  C   UNL A   1      33.280  37.036  29.353  1.00  0.00     0.044 C 
ATOM     28  C   UNL A   1      33.928  35.678  29.316  1.00  0.00    -0.048 A 
ATOM     29  C   UNL A   1      34.514  35.253  28.112  1.00  0.00     0.005 A 
ATOM     30  C   UNL A   1      33.959  34.822  30.436  1.00  0.00    -0.047 A 
ATOM     31  C   UNL A   1      35.095  33.991  28.002  1.00  0.00     0.022 A 
ATOM     32  C   UNL A   1      34.525  33.537  30.308  1.00  0.00     0.025 A 
ATOM     33  C   UNL A   1      33.460  35.238  31.795  1.00  0.00     0.044 C 
ENDBRANCH  23  26
ENDBRANCH  16  23
ENDBRANCH  10  15
ENDBRANCH   7   9
ENDBRANCH   6   7
ENDBRANCH   5   6
ENDBRANCH   4   5
ENDBRANCH   3   4
ENDBRANCH   2   3
ENDBRANCH   1   2
BRANCH   1  34
ATOM     34  O   UNL A   1      33.999  19.088  24.063  1.00  0.00    -0.377 OA
BRANCH  34  35
ATOM     35  C   UNL A   1      35.203  19.072  24.828  1.00  0.00     0.188 C 
BRANCH  35  36
ATOM     36  C   UNL A   1      36.055  20.345  25.013  1.00  0.00     0.188 C 
BRANCH  36  37
ATOM     37  O   UNL A   1      35.296  21.532  25.181  1.00  0.00    -0.376 OA
BRANCH  37  38
ATOM     38  C   UNL A   1      35.932  22.777  24.933  1.00  0.00     0.202 C 
BRANCH  38  39
ATOM     39  C   UNL A   1      37.040  23.164  25.918  1.00  0.00     0.261 C 
BRANCH  39  40
ATOM     40  O   UNL A   1      38.357  22.736  25.534  1.00  0.00    -0.460 OA
BRANCH  40  41
ATOM     41  C   UNL A   1      39.308  22.701  26.492  1.00  0.00     0.338 C 
ATOM     42  O   UNL A   1      39.872  21.713  26.926  1.00  0.00    -0.246 OA
BRANCH  41  43
ATOM     43  C   UNL A   1      39.660  24.086  26.883  1.00  0.00     0.060 A 
ATOM     44  C   UNL A   1      40.000  24.998  25.878  1.00  0.00     0.016 A 
ATOM     45  C   UNL A   1      39.730  24.467  28.225  1.00  0.00     0.016 A 
ATOM     46  C   UNL A   1      40.540  26.235  26.221  1.00  0.00     0.010 A 
ATOM     47  C   UNL A   1      40.318  25.678  28.573  1.00  0.00     0.010 A 
ATOM     48  C   UNL A   1      40.776  26.538  27.569  1.00  0.00    -0.014 A 
BRANCH  48  49
ATOM     49  C   UNL A   1      41.628  27.687  27.926  1.00  0.00     0.031 A 
ATOM     50  C   UNL A   1      43.073  27.682  27.513  1.00  0.00     0.074 A 
ATOM     51  C   UNL A   1      41.127  28.681  28.674  1.00  0.00     0.049 A 
ATOM     52  N   UNL A   1      43.981  28.613  27.643  1.00  0.00    -0.248 NA
ATOM     53  C   UNL A   1      43.570  26.442  26.897  1.00  0.00     0.031 C 
ATOM     54  C   UNL A   1      39.767  28.730  29.207  1.00  0.00     0.029 A 
ATOM     55  N   UNL A   1      41.712  29.834  29.120  1.00  0.00    -0.354 N 
ATOM     56  C   UNL A   1      45.153  28.074  27.124  1.00  0.00     0.074 A 
ATOM     57  C   UNL A   1      44.854  26.718  26.723  1.00  0.00     0.031 C 
ATOM     58  C   UNL A   1      39.620  29.863  29.913  1.00  0.00     0.029 A 
ATOM     59  C   UNL A   1      40.867  30.624  29.854  1.00  0.00     0.049 A 
ATOM     60  H   UNL A   1      42.649  30.073  28.932  1.00  0.00     0.167 HD
ATOM     61  C   UNL A   1      46.360  28.674  26.983  1.00  0.00     0.037 A 
ATOM     62  C   UNL A   1      41.070  31.845  30.378  1.00  0.00     0.037 A 
ATOM     63  C   UNL A   1      46.620  30.035  27.382  1.00  0.00     0.049 A 
ATOM     64  C   UNL A   1      42.376  32.539  30.102  1.00  0.00     0.074 A 
ATOM     65  C   UNL A   1      47.766  30.788  27.203  1.00  0.00     0.029 A 
ATOM     66  N   UNL A   1      45.710  30.844  28.048  1.00  0.00    -0.354 N 
ATOM     67  N   UNL A   1      43.443  32.084  29.490  1.00  0.00    -0.248 NA
ATOM     68  C   UNL A   1      42.484  33.933  30.545  1.00  0.00     0.031 C 
ATOM     69  C   UNL A   1      47.562  32.040  27.793  1.00  0.00     0.029 A 
ATOM     70  C   UNL A   1      46.270  32.087  28.291  1.00  0.00     0.049 A 
ATOM     71  H   UNL A   1      44.800  30.574  28.311  1.00  0.00     0.167 HD
ATOM     72  C   UNL A   1      44.337  33.146  29.442  1.00  0.00     0.074 A 
ATOM     73  C   UNL A   1      43.674  34.271  30.071  1.00  0.00     0.031 C 
ATOM     74  C   UNL A   1      45.590  33.189  28.924  1.00  0.00     0.037 A 
BRANCH  61  75
ATOM     75  C   UNL A   1      47.481  27.883  26.364  1.00  0.00     0.064 A 
ATOM     76  C   UNL A   1      47.634  27.786  24.972  1.00  0.00     0.173 A 
ATOM     77  C   UNL A   1      48.454  27.271  27.169  1.00  0.00     0.173 A 
ATOM     78  F   UNL A   1      46.732  28.345  24.152  1.00  0.00    -0.203 F 
ATOM     79  C   UNL A   1      48.702  27.088  24.411  1.00  0.00     0.198 A 
ATOM     80  C   UNL A   1      49.539  26.603  26.605  1.00  0.00     0.198 A 
ATOM     81  F   UNL A   1      48.363  27.331  28.506  1.00  0.00    -0.203 F 
ATOM     82  F   UNL A   1      48.800  26.974  23.079  1.00  0.00    -0.200 F 
ATOM     83  C   UNL A   1      49.660  26.507  25.227  1.00  0.00     0.200 A 
ATOM     84  F   UNL A   1      50.473  26.055  27.396  1.00  0.00    -0.200 F 
ATOM     85  F   UNL A   1      50.696  25.851  24.686  1.00  0.00    -0.200 F 
ENDBRANCH  61  75
BRANCH  62  86
ATOM     86  C   UNL A   1      39.963  32.519  31.095  1.00  0.00     0.064 A 
ATOM     87  C   UNL A   1      39.757  32.297  32.463  1.00  0.00     0.173 A 
ATOM     88  C   UNL A   1      39.126  33.438  30.447  1.00  0.00     0.173 A 
ATOM     89  F   UNL A   1      40.533  31.425  33.124  1.00  0.00    -0.203 F 
ATOM     90  C   UNL A   1      38.741  32.952  33.154  1.00  0.00     0.198 A 
ATOM     91  C   UNL A   1      38.126  34.111  31.145  1.00  0.00     0.198 A 
ATOM     92  F   UNL A   1      39.299  33.700  29.144  1.00  0.00    -0.203 F 
ATOM     93  F   UNL A   1      38.548  32.697  34.455  1.00  0.00    -0.200 F 
ATOM     94  C   UNL A   1      37.931  33.864  32.495  1.00  0.00     0.200 A 
ATOM     95  F   UNL A   1      37.357  35.007  30.510  1.00  0.00    -0.200 F 
ATOM     96  F   UNL A   1      36.962  34.504  33.164  1.00  0.00    -0.200 F 
ENDBRANCH  62  86
BRANCH  74  97
ATOM     97  C   UNL A   1      46.306  34.506  28.991  1.00  0.00     0.064 A 
ATOM     98  C   UNL A   1      46.213  35.451  27.959  1.00  0.00     0.173 A 
ATOM     99  C   UNL A   1      47.093  34.828  30.108  1.00  0.00     0.173 A 
ATOM    100  F   UNL A   1      45.481  35.186  26.865  1.00  0.00    -0.203 F 
ATOM    101  C   UNL A   1      46.918  36.649  28.020  1.00  0.00     0.198 A 
ATOM    102  C   UNL A   1      47.769  36.043  30.182  1.00  0.00     0.198 A 
ATOM    103  F   UNL A   1      47.206  33.965  31.128  1.00  0.00    -0.203 F 
ATOM    104  F   UNL A   1      46.868  37.507  26.992  1.00  0.00    -0.200 F 
ATOM    105  C   UNL A   1      47.692  36.945  29.133  1.00  0.00     0.200 A 
ATOM    106  F   UNL A   1      48.505  36.333  31.263  1.00  0.00    -0.200 F 
ATOM    107  F   UNL A   1      48.374  38.098  29.187  1.00  0.00    -0.200 F 
ENDBRANCH  74  97
ENDBRANCH  48  49
ENDBRANCH  41  43
ENDBRANCH  40  41
ENDBRANCH  39  40
ENDBRANCH  38  39
ENDBRANCH  37  38
ENDBRANCH  36  37
ENDBRANCH  35  36
ENDBRANCH  34  35
ENDBRANCH   1  34
TORSDOF 23
ENDMDL
