MODEL 1
REMARK VINA RESULT:     -11.0      0.000      0.000
REMARK SMILES CC(C)c1noc(C[N@@H+]2[C@@H](C(=O)OCCOCCOCCOCCOC(=O)c3ccc(-c4c5nc(c(-c6c(F)c(F)c(F)c(F)c6F)c6ccc([nH]6)c(-c6c(F)c(F)c(F)c(F)c6F)c6nc(c(-c7c(F)c(F)c(F)c(F)c7F)c7ccc4[nH]7)C=C6)C=C5)cc3)C[C@H]3CCCC[C@@H]32)n1
REMARK SMILES IDX 18 1 17 2 16 3 15 4 14 5 13 6 11 7 12 8 10 9 9 10 97 11
REMARK SMILES IDX 91 13 92 14 96 15 93 16 95 17 94 18 8 19 7 20 4 21 5 22
REMARK SMILES IDX 98 23 6 24 2 25 1 26 3 27 19 28 20 29 21 30 22 31 23 32
REMARK SMILES IDX 24 33 25 34 26 35 27 36 28 37 29 38 90 39 30 40 89 41 31 42
REMARK SMILES IDX 32 43 33 44 83 45 34 46 88 47 82 48 84 49 35 50 87 51 81 52
REMARK SMILES IDX 80 53 36 55 68 56 48 57 67 58 49 59 52 60 66 61 85 62 50 63
REMARK SMILES IDX 51 64 65 66 86 67 53 68 37 69 38 70 46 71 39 72 40 73 44 74
REMARK SMILES IDX 47 75 41 76 42 77 45 78 43 79 69 80 70 81 78 82 71 83 72 84
REMARK SMILES IDX 76 85 79 86 73 87 74 88 77 89 75 90 54 91 55 92 63 93 56 94
REMARK SMILES IDX 57 95 61 96 64 97 58 98 59 99 62 100 60 101
REMARK H PARENT 9 12 84 54 52 65
REMARK Flexibility Score: inf
ROOT
ATOM      1  C   UNL A   1      32.889  33.769  28.004  1.00  0.00     0.188 C 
ENDROOT
BRANCH   1   2
ATOM      2  C   UNL A   1      33.923  32.629  28.086  1.00  0.00     0.188 C 
BRANCH   2   3
ATOM      3  O   UNL A   1      33.499  31.446  27.436  1.00  0.00    -0.376 OA
BRANCH   3   4
ATOM      4  C   UNL A   1      34.391  30.360  27.288  1.00  0.00     0.202 C 
BRANCH   4   5
ATOM      5  C   UNL A   1      33.891  28.929  27.024  1.00  0.00     0.261 C 
BRANCH   5   6
ATOM      6  O   UNL A   1      33.239  28.688  25.775  1.00  0.00    -0.459 OA
BRANCH   6   7
ATOM      7  C   UNL A   1      33.366  27.442  25.253  1.00  0.00     0.365 C 
ATOM      8  O   UNL A   1      33.980  26.532  25.798  1.00  0.00    -0.245 OA
BRANCH   7   9
ATOM      9  C   UNL A   1      32.611  27.347  23.902  1.00  0.00     0.296 C 
ATOM     10  N   UNL A   1      31.393  26.479  24.038  1.00  0.00    -0.313 N 
ATOM     11  C   UNL A   1      31.908  25.119  23.842  1.00  0.00     0.188 C 
ATOM     12  H   UNL A   1      30.951  26.574  24.952  1.00  0.00     0.349 HD
ATOM     13  C   UNL A   1      33.561  26.648  22.930  1.00  0.00     0.087 C 
ATOM     14  C   UNL A   1      32.954  25.269  22.738  1.00  0.00     0.054 C 
ATOM     15  C   UNL A   1      30.994  23.928  23.554  1.00  0.00     0.065 C 
ATOM     16  C   UNL A   1      33.894  24.082  22.784  1.00  0.00     0.010 C 
ATOM     17  C   UNL A   1      31.836  22.654  23.364  1.00  0.00     0.006 C 
ATOM     18  C   UNL A   1      33.075  22.827  22.467  1.00  0.00     0.001 C 
BRANCH  10  19
ATOM     19  C   UNL A   1      30.235  26.876  23.200  1.00  0.00     0.364 C 
BRANCH  19  20
ATOM     20  C   UNL A   1      30.026  28.325  22.933  1.00  0.00     0.281 A 
ATOM     21  C   UNL A   1      29.387  30.311  22.894  1.00  0.00     0.174 A 
ATOM     22  N   UNL A   1      29.748  30.086  21.624  1.00  0.00    -0.062 NA
ATOM     23  N   UNL A   1      29.601  29.264  23.748  1.00  0.00    -0.191 NA
ATOM     24  O   UNL A   1      30.189  28.759  21.649  1.00  0.00    -0.333 OA
BRANCH  21  25
ATOM     25  C   UNL A   1      28.714  31.563  23.344  1.00  0.00     0.055 C 
ATOM     26  C   UNL A   1      28.714  32.619  22.232  1.00  0.00     0.016 C 
ATOM     27  C   UNL A   1      27.286  31.282  23.806  1.00  0.00     0.016 C 
ENDBRANCH  21  25
ENDBRANCH  19  20
ENDBRANCH  10  19
ENDBRANCH   7   9
ENDBRANCH   6   7
ENDBRANCH   5   6
ENDBRANCH   4   5
ENDBRANCH   3   4
ENDBRANCH   2   3
ENDBRANCH   1   2
BRANCH   1  28
ATOM     28  O   UNL A   1      33.203  35.013  28.607  1.00  0.00    -0.377 OA
BRANCH  28  29
ATOM     29  C   UNL A   1      33.863  35.041  29.865  1.00  0.00     0.188 C 
BRANCH  29  30
ATOM     30  C   UNL A   1      33.177  35.560  31.152  1.00  0.00     0.188 C 
BRANCH  30  31
ATOM     31  O   UNL A   1      34.051  36.138  32.105  1.00  0.00    -0.376 OA
BRANCH  31  32
ATOM     32  C   UNL A   1      34.433  35.363  33.225  1.00  0.00     0.202 C 
BRANCH  32  33
ATOM     33  C   UNL A   1      35.754  34.592  33.113  1.00  0.00     0.261 C 
BRANCH  33  34
ATOM     34  O   UNL A   1      35.673  33.172  33.305  1.00  0.00    -0.460 OA
BRANCH  34  35
ATOM     35  C   UNL A   1      35.489  32.411  32.206  1.00  0.00     0.338 C 
ATOM     36  O   UNL A   1      34.430  32.152  31.655  1.00  0.00    -0.246 OA
BRANCH  35  37
ATOM     37  C   UNL A   1      36.819  32.082  31.660  1.00  0.00     0.060 A 
ATOM     38  C   UNL A   1      37.078  32.313  30.302  1.00  0.00     0.016 A 
ATOM     39  C   UNL A   1      37.813  31.564  32.492  1.00  0.00     0.016 A 
ATOM     40  C   UNL A   1      38.326  31.998  29.765  1.00  0.00     0.010 A 
ATOM     41  C   UNL A   1      39.053  31.223  31.948  1.00  0.00     0.010 A 
ATOM     42  C   UNL A   1      39.303  31.407  30.576  1.00  0.00    -0.014 A 
BRANCH  42  43
ATOM     43  C   UNL A   1      40.497  30.789  29.952  1.00  0.00     0.031 A 
ATOM     44  C   UNL A   1      41.700  31.660  29.716  1.00  0.00     0.074 A 
ATOM     45  C   UNL A   1      40.522  29.488  29.613  1.00  0.00     0.049 A 
ATOM     46  N   UNL A   1      42.833  31.376  29.127  1.00  0.00    -0.248 NA
ATOM     47  C   UNL A   1      41.612  33.045  30.209  1.00  0.00     0.031 C 
ATOM     48  C   UNL A   1      39.437  28.534  29.830  1.00  0.00     0.029 A 
ATOM     49  N   UNL A   1      41.502  28.748  28.996  1.00  0.00    -0.354 N 
ATOM     50  C   UNL A   1      43.578  32.548  29.159  1.00  0.00     0.074 A 
ATOM     51  C   UNL A   1      42.769  33.552  29.812  1.00  0.00     0.031 C 
ATOM     52  C   UNL A   1      39.803  27.338  29.335  1.00  0.00     0.029 A 
ATOM     53  C   UNL A   1      41.129  27.453  28.732  1.00  0.00     0.049 A 
ATOM     54  H   UNL A   1      42.387  29.113  28.765  1.00  0.00     0.167 HD
ATOM     55  C   UNL A   1      44.827  32.763  28.685  1.00  0.00     0.037 A 
ATOM     56  C   UNL A   1      41.778  26.485  28.051  1.00  0.00     0.037 A 
ATOM     57  C   UNL A   1      45.635  31.756  28.054  1.00  0.00     0.049 A 
ATOM     58  C   UNL A   1      43.146  26.777  27.481  1.00  0.00     0.074 A 
ATOM     59  C   UNL A   1      46.933  31.863  27.588  1.00  0.00     0.029 A 
ATOM     60  N   UNL A   1      45.219  30.460  27.790  1.00  0.00    -0.354 N 
ATOM     61  N   UNL A   1      43.866  27.871  27.561  1.00  0.00    -0.248 NA
ATOM     62  C   UNL A   1      43.795  25.695  26.724  1.00  0.00     0.031 C 
ATOM     63  C   UNL A   1      47.276  30.655  26.974  1.00  0.00     0.029 A 
ATOM     64  C   UNL A   1      46.221  29.771  27.128  1.00  0.00     0.049 A 
ATOM     65  H   UNL A   1      44.342  30.086  28.035  1.00  0.00     0.167 HD
ATOM     66  C   UNL A   1      45.060  27.594  26.905  1.00  0.00     0.074 A 
ATOM     67  C   UNL A   1      44.977  26.224  26.446  1.00  0.00     0.031 C 
ATOM     68  C   UNL A   1      46.132  28.399  26.699  1.00  0.00     0.037 A 
BRANCH  55  69
ATOM     69  C   UNL A   1      45.395  34.147  28.794  1.00  0.00     0.064 A 
ATOM     70  C   UNL A   1      46.054  34.593  29.948  1.00  0.00     0.173 A 
ATOM     71  C   UNL A   1      45.346  35.011  27.688  1.00  0.00     0.173 A 
ATOM     72  F   UNL A   1      46.114  33.812  31.037  1.00  0.00    -0.203 F 
ATOM     73  C   UNL A   1      46.638  35.856  29.993  1.00  0.00     0.198 A 
ATOM     74  C   UNL A   1      45.958  36.260  27.726  1.00  0.00     0.198 A 
ATOM     75  F   UNL A   1      44.727  34.631  26.560  1.00  0.00    -0.203 F 
ATOM     76  F   UNL A   1      47.239  36.276  31.115  1.00  0.00    -0.200 F 
ATOM     77  C   UNL A   1      46.601  36.683  28.879  1.00  0.00     0.200 A 
ATOM     78  F   UNL A   1      45.933  37.049  26.645  1.00  0.00    -0.200 F 
ATOM     79  F   UNL A   1      47.185  37.888  28.916  1.00  0.00    -0.200 F 
ENDBRANCH  55  69
BRANCH  56  80
ATOM     80  C   UNL A   1      41.142  25.157  27.827  1.00  0.00     0.064 A 
ATOM     81  C   UNL A   1      41.630  24.001  28.454  1.00  0.00     0.173 A 
ATOM     82  C   UNL A   1      40.081  25.004  26.921  1.00  0.00     0.173 A 
ATOM     83  F   UNL A   1      42.661  24.088  29.308  1.00  0.00    -0.203 F 
ATOM     84  C   UNL A   1      41.115  22.742  28.150  1.00  0.00     0.198 A 
ATOM     85  C   UNL A   1      39.540  23.749  26.647  1.00  0.00     0.198 A 
ATOM     86  F   UNL A   1      39.575  26.074  26.290  1.00  0.00    -0.203 F 
ATOM     87  F   UNL A   1      41.656  21.649  28.703  1.00  0.00    -0.200 F 
ATOM     88  C   UNL A   1      40.069  22.618  27.249  1.00  0.00     0.200 A 
ATOM     89  F   UNL A   1      38.520  23.636  25.786  1.00  0.00    -0.200 F 
ATOM     90  F   UNL A   1      39.581  21.406  26.948  1.00  0.00    -0.200 F 
ENDBRANCH  56  80
BRANCH  68  91
ATOM     91  C   UNL A   1      47.325  27.809  26.001  1.00  0.00     0.064 A 
ATOM     92  C   UNL A   1      47.427  27.776  24.603  1.00  0.00     0.173 A 
ATOM     93  C   UNL A   1      48.404  27.311  26.749  1.00  0.00     0.173 A 
ATOM     94  F   UNL A   1      46.421  28.228  23.841  1.00  0.00    -0.203 F 
ATOM     95  C   UNL A   1      48.551  27.237  23.980  1.00  0.00     0.198 A 
ATOM     96  C   UNL A   1      49.541  26.808  26.123  1.00  0.00     0.198 A 
ATOM     97  F   UNL A   1      48.364  27.329  28.090  1.00  0.00    -0.203 F 
ATOM     98  F   UNL A   1      48.602  27.163  22.643  1.00  0.00    -0.200 F 
ATOM     99  C   UNL A   1      49.610  26.762  24.740  1.00  0.00     0.200 A 
ATOM    100  F   UNL A   1      50.572  26.371  26.860  1.00  0.00    -0.200 F 
ATOM    101  F   UNL A   1      50.694  26.254  24.138  1.00  0.00    -0.200 F 
ENDBRANCH  68  91
ENDBRANCH  42  43
ENDBRANCH  35  37
ENDBRANCH  34  35
ENDBRANCH  33  34
ENDBRANCH  32  33
ENDBRANCH  31  32
ENDBRANCH  30  31
ENDBRANCH  29  30
ENDBRANCH  28  29
ENDBRANCH   1  28
TORSDOF 23
ENDMDL
MODEL 2
REMARK VINA RESULT:      -9.5      7.034      9.347
REMARK SMILES CC(C)c1noc(C[N@@H+]2[C@@H](C(=O)OCCOCCOCCOCCOC(=O)c3ccc(-c4c5nc(c(-c6c(F)c(F)c(F)c(F)c6F)c6ccc([nH]6)c(-c6c(F)c(F)c(F)c(F)c6F)c6nc(c(-c7c(F)c(F)c(F)c(F)c7F)c7ccc4[nH]7)C=C6)C=C5)cc3)C[C@H]3CCCC[C@@H]32)n1
REMARK SMILES IDX 18 1 17 2 16 3 15 4 14 5 13 6 11 7 12 8 10 9 9 10 97 11
REMARK SMILES IDX 91 13 92 14 96 15 93 16 95 17 94 18 8 19 7 20 4 21 5 22
REMARK SMILES IDX 98 23 6 24 2 25 1 26 3 27 19 28 20 29 21 30 22 31 23 32
REMARK SMILES IDX 24 33 25 34 26 35 27 36 28 37 29 38 90 39 30 40 89 41 31 42
REMARK SMILES IDX 32 43 33 44 83 45 34 46 88 47 82 48 84 49 35 50 87 51 81 52
REMARK SMILES IDX 80 53 36 55 68 56 48 57 67 58 49 59 52 60 66 61 85 62 50 63
REMARK SMILES IDX 51 64 65 66 86 67 53 68 37 69 38 70 46 71 39 72 40 73 44 74
REMARK SMILES IDX 47 75 41 76 42 77 45 78 43 79 69 80 70 81 78 82 71 83 72 84
REMARK SMILES IDX 76 85 79 86 73 87 74 88 77 89 75 90 54 91 55 92 63 93 56 94
REMARK SMILES IDX 57 95 61 96 64 97 58 98 59 99 62 100 60 101
REMARK H PARENT 9 12 84 54 52 65
REMARK Flexibility Score: inf
ROOT
ATOM      1  C   UNL A   1      33.796  33.390  28.021  1.00  0.00     0.188 C 
ENDROOT
BRANCH   1   2
ATOM      2  C   UNL A   1      34.772  32.198  28.010  1.00  0.00     0.188 C 
BRANCH   2   3
ATOM      3  O   UNL A   1      34.156  30.977  27.647  1.00  0.00    -0.376 OA
BRANCH   3   4
ATOM      4  C   UNL A   1      34.839  29.755  27.835  1.00  0.00     0.202 C 
BRANCH   4   5
ATOM      5  C   UNL A   1      34.766  28.617  26.802  1.00  0.00     0.261 C 
BRANCH   5   6
ATOM      6  O   UNL A   1      33.766  28.723  25.787  1.00  0.00    -0.459 OA
BRANCH   6   7
ATOM      7  C   UNL A   1      32.803  27.767  25.781  1.00  0.00     0.365 C 
ATOM      8  O   UNL A   1      32.346  27.248  26.793  1.00  0.00    -0.245 OA
BRANCH   7   9
ATOM      9  C   UNL A   1      32.366  27.456  24.326  1.00  0.00     0.296 C 
ATOM     10  N   UNL A   1      31.298  26.401  24.309  1.00  0.00    -0.313 N 
ATOM     11  C   UNL A   1      32.050  25.140  24.349  1.00  0.00     0.188 C 
ATOM     12  H   UNL A   1      30.668  26.476  25.107  1.00  0.00     0.349 HD
ATOM     13  C   UNL A   1      33.593  26.872  23.626  1.00  0.00     0.087 C 
ATOM     14  C   UNL A   1      33.263  25.399  23.457  1.00  0.00     0.054 C 
ATOM     15  C   UNL A   1      31.413  23.793  24.008  1.00  0.00     0.065 C 
ATOM     16  C   UNL A   1      34.349  24.398  23.798  1.00  0.00     0.010 C 
ATOM     17  C   UNL A   1      32.466  22.675  24.109  1.00  0.00     0.006 C 
ATOM     18  C   UNL A   1      33.820  23.002  23.454  1.00  0.00     0.001 C 
BRANCH  10  19
ATOM     19  C   UNL A   1      30.290  26.537  23.229  1.00  0.00     0.364 C 
BRANCH  19  20
ATOM     20  C   UNL A   1      29.883  27.907  22.818  1.00  0.00     0.281 A 
ATOM     21  C   UNL A   1      28.864  29.652  22.297  1.00  0.00     0.174 A 
ATOM     22  N   UNL A   1      29.958  29.700  21.524  1.00  0.00    -0.062 NA
ATOM     23  N   UNL A   1      28.812  28.589  23.155  1.00  0.00    -0.191 NA
ATOM     24  O   UNL A   1      30.649  28.537  21.880  1.00  0.00    -0.333 OA
BRANCH  21  25
ATOM     25  C   UNL A   1      27.736  30.620  22.178  1.00  0.00     0.055 C 
ATOM     26  C   UNL A   1      27.582  31.446  23.460  1.00  0.00     0.016 C 
ATOM     27  C   UNL A   1      27.929  31.540  20.976  1.00  0.00     0.016 C 
ENDBRANCH  21  25
ENDBRANCH  19  20
ENDBRANCH  10  19
ENDBRANCH   7   9
ENDBRANCH   6   7
ENDBRANCH   5   6
ENDBRANCH   4   5
ENDBRANCH   3   4
ENDBRANCH   2   3
ENDBRANCH   1   2
BRANCH   1  28
ATOM     28  O   UNL A   1      34.282  34.669  27.650  1.00  0.00    -0.377 OA
BRANCH  28  29
ATOM     29  C   UNL A   1      34.286  35.726  28.600  1.00  0.00     0.188 C 
BRANCH  29  30
ATOM     30  C   UNL A   1      33.002  36.499  28.988  1.00  0.00     0.188 C 
BRANCH  30  31
ATOM     31  O   UNL A   1      33.068  37.188  30.223  1.00  0.00    -0.376 OA
BRANCH  31  32
ATOM     32  C   UNL A   1      32.827  36.462  31.413  1.00  0.00     0.202 C 
BRANCH  32  33
ATOM     33  C   UNL A   1      34.012  36.300  32.374  1.00  0.00     0.261 C 
BRANCH  33  34
ATOM     34  O   UNL A   1      34.170  35.003  32.967  1.00  0.00    -0.460 OA
BRANCH  34  35
ATOM     35  C   UNL A   1      35.083  34.179  32.414  1.00  0.00     0.338 C 
ATOM     36  O   UNL A   1      35.082  33.729  31.278  1.00  0.00    -0.246 OA
BRANCH  35  37
ATOM     37  C   UNL A   1      36.204  34.050  33.364  1.00  0.00     0.060 A 
ATOM     38  C   UNL A   1      37.501  34.375  32.942  1.00  0.00     0.016 A 
ATOM     39  C   UNL A   1      35.971  33.626  34.674  1.00  0.00     0.016 A 
ATOM     40  C   UNL A   1      38.575  34.248  33.822  1.00  0.00     0.010 A 
ATOM     41  C   UNL A   1      37.051  33.472  35.546  1.00  0.00     0.010 A 
ATOM     42  C   UNL A   1      38.360  33.751  35.114  1.00  0.00    -0.014 A 
BRANCH  42  43
ATOM     43  C   UNL A   1      39.517  33.321  35.935  1.00  0.00     0.031 A 
ATOM     44  C   UNL A   1      40.062  34.291  36.948  1.00  0.00     0.074 A 
ATOM     45  C   UNL A   1      40.065  32.101  35.799  1.00  0.00     0.049 A 
ATOM     46  N   UNL A   1      41.103  34.181  37.733  1.00  0.00    -0.248 NA
ATOM     47  C   UNL A   1      39.335  35.564  37.092  1.00  0.00     0.031 C 
ATOM     48  C   UNL A   1      39.600  31.061  34.884  1.00  0.00     0.029 A 
ATOM     49  N   UNL A   1      41.150  31.538  36.425  1.00  0.00    -0.354 N 
ATOM     50  C   UNL A   1      41.167  35.372  38.443  1.00  0.00     0.074 A 
ATOM     51  C   UNL A   1      40.071  36.199  37.991  1.00  0.00     0.031 C 
ATOM     52  C   UNL A   1      40.408  29.991  34.994  1.00  0.00     0.029 A 
ATOM     53  C   UNL A   1      41.468  30.286  35.956  1.00  0.00     0.049 A 
ATOM     54  H   UNL A   1      41.652  31.989  37.142  1.00  0.00     0.167 HD
ATOM     55  C   UNL A   1      42.061  35.740  39.389  1.00  0.00     0.037 A 
ATOM     56  C   UNL A   1      42.516  29.490  36.251  1.00  0.00     0.037 A 
ATOM     57  C   UNL A   1      43.137  34.905  39.850  1.00  0.00     0.049 A 
ATOM     58  C   UNL A   1      43.533  29.957  37.267  1.00  0.00     0.074 A 
ATOM     59  C   UNL A   1      44.065  35.168  40.841  1.00  0.00     0.029 A 
ATOM     60  N   UNL A   1      43.438  33.651  39.341  1.00  0.00    -0.354 N 
ATOM     61  N   UNL A   1      43.558  31.062  37.973  1.00  0.00    -0.248 NA
ATOM     62  C   UNL A   1      44.669  29.060  37.530  1.00  0.00     0.031 C 
ATOM     63  C   UNL A   1      44.972  34.106  40.882  1.00  0.00     0.029 A 
ATOM     64  C   UNL A   1      44.563  33.147  39.971  1.00  0.00     0.049 A 
ATOM     65  H   UNL A   1      42.928  33.189  38.637  1.00  0.00     0.167 HD
ATOM     66  C   UNL A   1      44.681  30.973  38.787  1.00  0.00     0.074 A 
ATOM     67  C   UNL A   1      45.305  29.700  38.500  1.00  0.00     0.031 C 
ATOM     68  C   UNL A   1      45.158  31.865  39.691  1.00  0.00     0.037 A 
BRANCH  55  69
ATOM     69  C   UNL A   1      41.946  37.116  39.973  1.00  0.00     0.064 A 
ATOM     70  C   UNL A   1      41.208  37.372  41.138  1.00  0.00     0.173 A 
ATOM     71  C   UNL A   1      42.657  38.181  39.397  1.00  0.00     0.173 A 
ATOM     72  F   UNL A   1      40.498  36.392  41.717  1.00  0.00    -0.203 F 
ATOM     73  C   UNL A   1      41.181  38.646  41.700  1.00  0.00     0.198 A 
ATOM     74  C   UNL A   1      42.652  39.445  39.979  1.00  0.00     0.198 A 
ATOM     75  F   UNL A   1      43.378  37.988  38.282  1.00  0.00    -0.203 F 
ATOM     76  F   UNL A   1      40.447  38.877  42.797  1.00  0.00    -0.200 F 
ATOM     77  C   UNL A   1      41.913  39.677  41.128  1.00  0.00     0.200 A 
ATOM     78  F   UNL A   1      43.372  40.434  39.434  1.00  0.00    -0.200 F 
ATOM     79  F   UNL A   1      41.905  40.896  41.685  1.00  0.00    -0.200 F 
ENDBRANCH  55  69
BRANCH  56  80
ATOM     80  C   UNL A   1      42.697  28.184  35.559  1.00  0.00     0.064 A 
ATOM     81  C   UNL A   1      42.079  27.018  36.033  1.00  0.00     0.173 A 
ATOM     82  C   UNL A   1      43.554  28.060  34.454  1.00  0.00     0.173 A 
ATOM     83  F   UNL A   1      41.272  27.075  37.102  1.00  0.00    -0.203 F 
ATOM     84  C   UNL A   1      42.346  25.775  35.459  1.00  0.00     0.198 A 
ATOM     85  C   UNL A   1      43.790  26.823  33.857  1.00  0.00     0.198 A 
ATOM     86  F   UNL A   1      44.175  29.142  33.959  1.00  0.00    -0.203 F 
ATOM     87  F   UNL A   1      41.804  24.668  35.984  1.00  0.00    -0.200 F 
ATOM     88  C   UNL A   1      43.199  25.680  34.370  1.00  0.00     0.200 A 
ATOM     89  F   UNL A   1      44.604  26.739  32.797  1.00  0.00    -0.200 F 
ATOM     90  F   UNL A   1      43.464  24.483  33.827  1.00  0.00    -0.200 F 
ENDBRANCH  56  80
BRANCH  68  91
ATOM     91  C   UNL A   1      46.376  31.476  40.481  1.00  0.00     0.064 A 
ATOM     92  C   UNL A   1      47.671  31.820  40.069  1.00  0.00     0.173 A 
ATOM     93  C   UNL A   1      46.236  30.786  41.697  1.00  0.00     0.173 A 
ATOM     94  F   UNL A   1      47.861  32.468  38.910  1.00  0.00    -0.203 F 
ATOM     95  C   UNL A   1      48.782  31.459  40.827  1.00  0.00     0.198 A 
ATOM     96  C   UNL A   1      47.347  30.462  42.471  1.00  0.00     0.198 A 
ATOM     97  F   UNL A   1      45.019  30.443  42.145  1.00  0.00    -0.203 F 
ATOM     98  F   UNL A   1      50.015  31.749  40.384  1.00  0.00    -0.200 F 
ATOM     99  C   UNL A   1      48.620  30.790  42.030  1.00  0.00     0.200 A 
ATOM    100  F   UNL A   1      47.184  29.834  43.644  1.00  0.00    -0.200 F 
ATOM    101  F   UNL A   1      49.690  30.454  42.763  1.00  0.00    -0.200 F 
ENDBRANCH  68  91
ENDBRANCH  42  43
ENDBRANCH  35  37
ENDBRANCH  34  35
ENDBRANCH  33  34
ENDBRANCH  32  33
ENDBRANCH  31  32
ENDBRANCH  30  31
ENDBRANCH  29  30
ENDBRANCH  28  29
ENDBRANCH   1  28
TORSDOF 23
ENDMDL
MODEL 3
REMARK VINA RESULT:      -9.4      6.821      9.044
REMARK SMILES CC(C)c1noc(C[N@@H+]2[C@@H](C(=O)OCCOCCOCCOCCOC(=O)c3ccc(-c4c5nc(c(-c6c(F)c(F)c(F)c(F)c6F)c6ccc([nH]6)c(-c6c(F)c(F)c(F)c(F)c6F)c6nc(c(-c7c(F)c(F)c(F)c(F)c7F)c7ccc4[nH]7)C=C6)C=C5)cc3)C[C@H]3CCCC[C@@H]32)n1
REMARK SMILES IDX 18 1 17 2 16 3 15 4 14 5 13 6 11 7 12 8 10 9 9 10 97 11
REMARK SMILES IDX 91 13 92 14 96 15 93 16 95 17 94 18 8 19 7 20 4 21 5 22
REMARK SMILES IDX 98 23 6 24 2 25 1 26 3 27 19 28 20 29 21 30 22 31 23 32
REMARK SMILES IDX 24 33 25 34 26 35 27 36 28 37 29 38 90 39 30 40 89 41 31 42
REMARK SMILES IDX 32 43 33 44 83 45 34 46 88 47 82 48 84 49 35 50 87 51 81 52
REMARK SMILES IDX 80 53 36 55 68 56 48 57 67 58 49 59 52 60 66 61 85 62 50 63
REMARK SMILES IDX 51 64 65 66 86 67 53 68 37 69 38 70 46 71 39 72 40 73 44 74
REMARK SMILES IDX 47 75 41 76 42 77 45 78 43 79 69 80 70 81 78 82 71 83 72 84
REMARK SMILES IDX 76 85 79 86 73 87 74 88 77 89 75 90 54 91 55 92 63 93 56 94
REMARK SMILES IDX 57 95 61 96 64 97 58 98 59 99 62 100 60 101
REMARK H PARENT 9 12 84 54 52 65
REMARK Flexibility Score: inf
ROOT
ATOM      1  C   UNL A   1      31.789  29.069  26.168  1.00  0.00     0.188 C 
ENDROOT
BRANCH   1   2
ATOM      2  C   UNL A   1      32.519  29.491  24.877  1.00  0.00     0.188 C 
BRANCH   2   3
ATOM      3  O   UNL A   1      33.272  28.443  24.296  1.00  0.00    -0.376 OA
BRANCH   3   4
ATOM      4  C   UNL A   1      33.760  28.570  22.976  1.00  0.00     0.202 C 
BRANCH   4   5
ATOM      5  C   UNL A   1      33.813  27.372  22.012  1.00  0.00     0.261 C 
BRANCH   5   6
ATOM      6  O   UNL A   1      33.561  26.079  22.567  1.00  0.00    -0.459 OA
BRANCH   6   7
ATOM      7  C   UNL A   1      32.789  25.241  21.830  1.00  0.00     0.365 C 
ATOM      8  O   UNL A   1      33.186  24.635  20.842  1.00  0.00    -0.245 OA
BRANCH   7   9
ATOM      9  C   UNL A   1      31.363  25.156  22.434  1.00  0.00     0.296 C 
ATOM     10  N   UNL A   1      31.269  25.982  23.684  1.00  0.00    -0.313 N 
ATOM     11  C   UNL A   1      31.764  25.085  24.736  1.00  0.00     0.188 C 
ATOM     12  H   UNL A   1      31.835  26.829  23.631  1.00  0.00     0.349 HD
ATOM     13  C   UNL A   1      31.156  23.696  22.837  1.00  0.00     0.087 C 
ATOM     14  C   UNL A   1      31.203  23.716  24.355  1.00  0.00     0.054 C 
ATOM     15  C   UNL A   1      31.542  25.360  26.222  1.00  0.00     0.065 C 
ATOM     16  C   UNL A   1      32.020  22.639  25.041  1.00  0.00     0.010 C 
ATOM     17  C   UNL A   1      32.147  24.222  27.063  1.00  0.00     0.006 C 
ATOM     18  C   UNL A   1      31.833  22.805  26.552  1.00  0.00     0.001 C 
BRANCH  10  19
ATOM     19  C   UNL A   1      29.952  26.621  23.925  1.00  0.00     0.364 C 
BRANCH  19  20
ATOM     20  C   UNL A   1      29.663  27.911  23.242  1.00  0.00     0.281 A 
ATOM     21  C   UNL A   1      28.800  29.621  22.414  1.00  0.00     0.174 A 
ATOM     22  N   UNL A   1      29.807  29.353  21.572  1.00  0.00    -0.062 NA
ATOM     23  N   UNL A   1      28.716  28.786  23.494  1.00  0.00    -0.191 NA
ATOM     24  O   UNL A   1      30.395  28.214  22.131  1.00  0.00    -0.333 OA
BRANCH  21  25
ATOM     25  C   UNL A   1      27.783  30.681  22.162  1.00  0.00     0.055 C 
ATOM     26  C   UNL A   1      27.623  31.593  23.384  1.00  0.00     0.016 C 
ATOM     27  C   UNL A   1      28.145  31.506  20.930  1.00  0.00     0.016 C 
ENDBRANCH  21  25
ENDBRANCH  19  20
ENDBRANCH  10  19
ENDBRANCH   7   9
ENDBRANCH   6   7
ENDBRANCH   5   6
ENDBRANCH   4   5
ENDBRANCH   3   4
ENDBRANCH   2   3
ENDBRANCH   1   2
BRANCH   1  28
ATOM     28  O   UNL A   1      31.778  29.967  27.264  1.00  0.00    -0.377 OA
BRANCH  28  29
ATOM     29  C   UNL A   1      32.451  31.215  27.162  1.00  0.00     0.188 C 
BRANCH  29  30
ATOM     30  C   UNL A   1      33.892  31.428  27.687  1.00  0.00     0.188 C 
BRANCH  30  31
ATOM     31  O   UNL A   1      34.286  32.781  27.823  1.00  0.00    -0.376 OA
BRANCH  31  32
ATOM     32  C   UNL A   1      34.029  33.436  29.050  1.00  0.00     0.202 C 
BRANCH  32  33
ATOM     33  C   UNL A   1      35.136  33.373  30.111  1.00  0.00     0.261 C 
BRANCH  33  34
ATOM     34  O   UNL A   1      35.578  32.059  30.482  1.00  0.00    -0.460 OA
BRANCH  34  35
ATOM     35  C   UNL A   1      36.800  31.677  30.058  1.00  0.00     0.338 C 
ATOM     36  O   UNL A   1      37.172  31.537  28.904  1.00  0.00    -0.246 OA
BRANCH  35  37
ATOM     37  C   UNL A   1      37.688  31.628  31.236  1.00  0.00     0.060 A 
ATOM     38  C   UNL A   1      39.012  32.070  31.113  1.00  0.00     0.016 A 
ATOM     39  C   UNL A   1      37.206  31.163  32.461  1.00  0.00     0.016 A 
ATOM     40  C   UNL A   1      39.870  32.021  32.212  1.00  0.00     0.010 A 
ATOM     41  C   UNL A   1      38.074  31.087  33.553  1.00  0.00     0.010 A 
ATOM     42  C   UNL A   1      39.417  31.485  33.424  1.00  0.00    -0.014 A 
BRANCH  42  43
ATOM     43  C   UNL A   1      40.394  31.141  34.484  1.00  0.00     0.031 A 
ATOM     44  C   UNL A   1      40.636  32.150  35.574  1.00  0.00     0.074 A 
ATOM     45  C   UNL A   1      41.045  29.965  34.491  1.00  0.00     0.049 A 
ATOM     46  N   UNL A   1      41.486  32.117  36.568  1.00  0.00    -0.248 NA
ATOM     47  C   UNL A   1      39.806  33.367  35.535  1.00  0.00     0.031 C 
ATOM     48  C   UNL A   1      40.865  28.892  33.515  1.00  0.00     0.029 A 
ATOM     49  N   UNL A   1      42.005  29.483  35.347  1.00  0.00    -0.354 N 
ATOM     50  C   UNL A   1      41.309  33.311  37.255  1.00  0.00     0.074 A 
ATOM     51  C   UNL A   1      40.282  34.056  36.562  1.00  0.00     0.031 C 
ATOM     52  C   UNL A   1      41.704  27.884  33.816  1.00  0.00     0.029 A 
ATOM     53  C   UNL A   1      42.505  28.258  34.981  1.00  0.00     0.049 A 
ATOM     54  H   UNL A   1      42.305  29.971  36.149  1.00  0.00     0.167 HD
ATOM     55  C   UNL A   1      41.947  33.744  38.366  1.00  0.00     0.037 A 
ATOM     56  C   UNL A   1      43.518  27.541  35.510  1.00  0.00     0.037 A 
ATOM     57  C   UNL A   1      42.953  32.991  39.064  1.00  0.00     0.049 A 
ATOM     58  C   UNL A   1      44.253  28.082  36.714  1.00  0.00     0.074 A 
ATOM     59  C   UNL A   1      43.622  33.323  40.228  1.00  0.00     0.029 A 
ATOM     60  N   UNL A   1      43.446  31.762  38.654  1.00  0.00    -0.354 N 
ATOM     61  N   UNL A   1      44.045  29.187  37.389  1.00  0.00    -0.248 NA
ATOM     62  C   UNL A   1      45.366  27.271  37.232  1.00  0.00     0.031 C 
ATOM     63  C   UNL A   1      44.571  32.329  40.483  1.00  0.00     0.029 A 
ATOM     64  C   UNL A   1      44.440  31.342  39.521  1.00  0.00     0.049 A 
ATOM     65  H   UNL A   1      43.136  31.263  37.864  1.00  0.00     0.167 HD
ATOM     66  C   UNL A   1      44.967  29.181  38.429  1.00  0.00     0.074 A 
ATOM     67  C   UNL A   1      45.728  27.957  38.306  1.00  0.00     0.031 C 
ATOM     68  C   UNL A   1      45.171  30.106  39.400  1.00  0.00     0.037 A 
BRANCH  55  69
ATOM     69  C   UNL A   1      41.610  35.109  38.887  1.00  0.00     0.064 A 
ATOM     70  C   UNL A   1      40.566  35.322  39.799  1.00  0.00     0.173 A 
ATOM     71  C   UNL A   1      42.403  36.210  38.526  1.00  0.00     0.173 A 
ATOM     72  F   UNL A   1      39.770  34.306  40.164  1.00  0.00    -0.203 F 
ATOM     73  C   UNL A   1      40.325  36.589  40.325  1.00  0.00     0.198 A 
ATOM     74  C   UNL A   1      42.177  37.468  39.077  1.00  0.00     0.198 A 
ATOM     75  F   UNL A   1      43.414  36.059  37.657  1.00  0.00    -0.203 F 
ATOM     76  F   UNL A   1      39.304  36.777  41.173  1.00  0.00    -0.200 F 
ATOM     77  C   UNL A   1      41.138  37.657  39.974  1.00  0.00     0.200 A 
ATOM     78  F   UNL A   1      42.973  38.494  38.748  1.00  0.00    -0.200 F 
ATOM     79  F   UNL A   1      40.919  38.870  40.500  1.00  0.00    -0.200 F 
ENDBRANCH  55  69
BRANCH  56  80
ATOM     80  C   UNL A   1      43.937  26.250  34.895  1.00  0.00     0.064 A 
ATOM     81  C   UNL A   1      43.416  25.028  35.343  1.00  0.00     0.173 A 
ATOM     82  C   UNL A   1      44.926  26.208  33.901  1.00  0.00     0.173 A 
ATOM     83  F   UNL A   1      42.488  25.010  36.311  1.00  0.00    -0.203 F 
ATOM     84  C   UNL A   1      43.898  23.815  34.854  1.00  0.00     0.198 A 
ATOM     85  C   UNL A   1      45.381  24.995  33.384  1.00  0.00     0.198 A 
ATOM     86  F   UNL A   1      45.464  27.345  33.436  1.00  0.00    -0.203 F 
ATOM     87  F   UNL A   1      43.439  22.662  35.359  1.00  0.00    -0.200 F 
ATOM     88  C   UNL A   1      44.878  23.800  33.873  1.00  0.00     0.200 A 
ATOM     89  F   UNL A   1      46.318  24.987  32.428  1.00  0.00    -0.200 F 
ATOM     90  F   UNL A   1      45.350  22.633  33.412  1.00  0.00    -0.200 F 
ENDBRANCH  56  80
BRANCH  68  91
ATOM     91  C   UNL A   1      46.212  29.808  40.442  1.00  0.00     0.064 A 
ATOM     92  C   UNL A   1      45.927  29.038  41.578  1.00  0.00     0.173 A 
ATOM     93  C   UNL A   1      47.529  30.265  40.273  1.00  0.00     0.173 A 
ATOM     94  F   UNL A   1      44.683  28.586  41.794  1.00  0.00    -0.203 F 
ATOM     95  C   UNL A   1      46.913  28.763  42.522  1.00  0.00     0.198 A 
ATOM     96  C   UNL A   1      48.521  29.956  41.199  1.00  0.00     0.198 A 
ATOM     97  F   UNL A   1      47.860  30.996  39.198  1.00  0.00    -0.203 F 
ATOM     98  F   UNL A   1      46.604  28.073  43.630  1.00  0.00    -0.200 F 
ATOM     99  C   UNL A   1      48.211  29.214  42.328  1.00  0.00     0.200 A 
ATOM    100  F   UNL A   1      49.778  30.375  40.998  1.00  0.00    -0.200 F 
ATOM    101  F   UNL A   1      49.160  28.939  43.233  1.00  0.00    -0.200 F 
ENDBRANCH  68  91
ENDBRANCH  42  43
ENDBRANCH  35  37
ENDBRANCH  34  35
ENDBRANCH  33  34
ENDBRANCH  32  33
ENDBRANCH  31  32
ENDBRANCH  30  31
ENDBRANCH  29  30
ENDBRANCH  28  29
ENDBRANCH   1  28
TORSDOF 23
ENDMDL
