MODEL 1
REMARK VINA RESULT:     -13.1      0.000      0.000
REMARK SMILES Cc1ccc(N2C(=O)N=C(OCCOCCOCCOCCOC(=O)c3ccc(-c4c5nc(c(-c6c(F)c(F)c(F)c(F)c6F)c6ccc([nH]6)c(-c6c(F)c(F)c(F)c(F)c6F)c6nc(c(-c7c(F)c(F)c(F)c(F)c7F)c7ccc4[nH]7)C=C6)C=C5)cc3)/C(=C\c3ccccc3OCc3cccc(C(=O)[O-])c3)C2=O)cc1
REMARK SMILES IDX 16 1 15 2 14 3 13 4 12 5 11 6 10 7 6 8 7 9 108 10 8 11 9 12
REMARK SMILES IDX 89 13 109 14 90 15 5 16 1 17 2 18 3 19 111 20 4 21 110 22
REMARK SMILES IDX 91 23 92 24 96 25 93 26 95 27 94 28 97 29 98 30 99 31 100 32
REMARK SMILES IDX 107 33 101 34 103 35 102 36 104 37 105 38 106 39 17 40 18 41
REMARK SMILES IDX 19 42 20 43 21 44 22 45 23 46 24 47 25 48 26 49 27 50 88 51
REMARK SMILES IDX 28 52 87 53 29 54 30 55 31 56 81 57 32 58 86 59 80 60 82 61
REMARK SMILES IDX 33 62 85 63 79 64 78 65 34 67 66 68 46 69 65 70 47 71 50 72
REMARK SMILES IDX 64 73 83 74 48 75 49 76 63 78 84 79 51 80 35 81 36 82 44 83
REMARK SMILES IDX 37 84 38 85 42 86 45 87 39 88 40 89 43 90 41 91 67 92 68 93
REMARK SMILES IDX 76 94 69 95 70 96 74 97 77 98 71 99 72 100 75 101 73 102
REMARK SMILES IDX 52 103 53 104 61 105 54 106 55 107 59 108 62 109 56 110
REMARK SMILES IDX 57 111 60 112 58 113
REMARK H PARENT 82 66 50 77
REMARK Flexibility Score: inf
ROOT
ATOM      1  C   UNL A   1      40.462  22.299  26.727  1.00  0.00     0.188 C 
ENDROOT
BRANCH   1   2
ATOM      2  C   UNL A   1      39.189  23.048  26.394  1.00  0.00     0.188 C 
BRANCH   2   3
ATOM      3  O   UNL A   1      38.238  22.381  25.209  1.00  0.00    -0.376 OA
BRANCH   3   4
ATOM      4  C   UNL A   1      37.054  22.787  24.212  1.00  0.00     0.201 C 
BRANCH   4   5
ATOM      5  C   UNL A   1      35.486  21.870  23.933  1.00  0.00     0.260 C 
BRANCH   5   6
ATOM      6  O   UNL A   1      34.149  22.457  22.931  1.00  0.00    -0.475 OA
BRANCH   6   7
ATOM      7  C   UNL A   1      33.305  23.636  22.633  1.00  0.00     0.231 C 
ATOM      8  N   UNL A   1      31.837  26.041  22.877  1.00  0.00    -0.226 N 
ATOM      9  C   UNL A   1      33.029  25.959  22.190  1.00  0.00     0.358 C 
ATOM     10  C   UNL A   1      31.152  24.882  23.115  1.00  0.00     0.272 C 
ATOM     11  O   UNL A   1      33.644  26.983  21.883  1.00  0.00    -0.245 OA
ATOM     12  N   UNL A   1      33.616  24.720  21.964  1.00  0.00    -0.156 NA
ATOM     13  C   UNL A   1      31.983  23.635  23.015  1.00  0.00     0.103 C 
ATOM     14  O   UNL A   1      29.949  24.858  23.368  1.00  0.00    -0.268 OA
ATOM     15  C   UNL A   1      31.575  22.405  22.747  1.00  0.00     0.031 C 
BRANCH   8  16
ATOM     16  C   UNL A   1      31.183  27.315  22.998  1.00  0.00     0.054 A 
ATOM     17  C   UNL A   1      29.431  31.238  23.571  1.00  0.00     0.044 C 
ATOM     18  C   UNL A   1      29.978  29.854  23.366  1.00  0.00    -0.051 A 
ATOM     19  C   UNL A   1      30.821  29.318  24.339  1.00  0.00     0.005 A 
ATOM     20  C   UNL A   1      29.709  29.097  22.217  1.00  0.00     0.005 A 
ATOM     21  C   UNL A   1      31.401  28.063  24.162  1.00  0.00     0.027 A 
ATOM     22  C   UNL A   1      30.322  27.841  22.020  1.00  0.00     0.027 A 
ENDBRANCH   8  16
BRANCH  15  23
ATOM     23  C   UNL A   1      32.045  20.978  22.764  1.00  0.00     0.018 A 
ATOM     24  C   UNL A   1      32.291  20.029  21.682  1.00  0.00     0.012 A 
ATOM     25  C   UNL A   1      32.235  20.542  24.018  1.00  0.00     0.127 A 
ATOM     26  C   UNL A   1      32.529  18.663  21.847  1.00  0.00     0.001 A 
ATOM     27  C   UNL A   1      32.467  19.130  24.155  1.00  0.00     0.047 A 
ATOM     28  C   UNL A   1      32.615  18.202  23.120  1.00  0.00     0.004 A 
BRANCH  25  29
ATOM     29  O   UNL A   1      31.945  21.437  25.046  1.00  0.00    -0.488 OA
BRANCH  29  30
ATOM     30  C   UNL A   1      30.868  22.072  25.855  1.00  0.00     0.265 C 
BRANCH  30  31
ATOM     31  C   UNL A   1      30.896  23.269  26.895  1.00  0.00    -0.010 A 
ATOM     32  C   UNL A   1      29.777  24.125  26.781  1.00  0.00     0.007 A 
ATOM     33  C   UNL A   1      32.113  23.843  27.208  1.00  0.00     0.017 A 
ATOM     34  C   UNL A   1      29.947  25.481  26.592  1.00  0.00     0.001 A 
ATOM     35  C   UNL A   1      32.327  25.095  26.656  1.00  0.00    -0.002 A 
ATOM     36  C   UNL A   1      31.239  25.936  26.384  1.00  0.00     0.010 A 
BRANCH  35  37
ATOM     37  C   UNL A   1      33.616  25.327  25.974  1.00  0.00     0.071 C 
ATOM     38  O   UNL A   1      34.470  24.457  25.780  1.00  0.00    -0.545 OA
ATOM     39  O   UNL A   1      33.885  26.621  25.751  1.00  0.00    -0.545 OA
ENDBRANCH  35  37
ENDBRANCH  30  31
ENDBRANCH  29  30
ENDBRANCH  25  29
ENDBRANCH  15  23
ENDBRANCH   6   7
ENDBRANCH   5   6
ENDBRANCH   4   5
ENDBRANCH   3   4
ENDBRANCH   2   3
ENDBRANCH   1   2
BRANCH   1  40
ATOM     40  O   UNL A   1      40.253  21.134  27.490  1.00  0.00    -0.377 OA
BRANCH  40  41
ATOM     41  C   UNL A   1      40.973  20.005  27.023  1.00  0.00     0.188 C 
BRANCH  41  42
ATOM     42  C   UNL A   1      42.160  20.332  26.135  1.00  0.00     0.188 C 
BRANCH  42  43
ATOM     43  O   UNL A   1      42.676  19.408  25.229  1.00  0.00    -0.376 OA
BRANCH  43  44
ATOM     44  C   UNL A   1      44.066  19.621  25.112  1.00  0.00     0.202 C 
BRANCH  44  45
ATOM     45  C   UNL A   1      44.528  20.708  24.018  1.00  0.00     0.261 C 
BRANCH  45  46
ATOM     46  O   UNL A   1      43.813  22.120  24.122  1.00  0.00    -0.460 OA
BRANCH  46  47
ATOM     47  C   UNL A   1      44.469  23.368  24.431  1.00  0.00     0.338 C 
ATOM     48  O   UNL A   1      45.636  23.592  24.124  1.00  0.00    -0.246 OA
BRANCH  47  49
ATOM     49  C   UNL A   1      43.762  24.207  25.623  1.00  0.00     0.060 A 
ATOM     50  C   UNL A   1      43.302  25.539  25.507  1.00  0.00     0.016 A 
ATOM     51  C   UNL A   1      43.980  23.829  26.945  1.00  0.00     0.016 A 
ATOM     52  C   UNL A   1      43.364  26.474  26.635  1.00  0.00     0.010 A 
ATOM     53  C   UNL A   1      44.276  24.816  27.952  1.00  0.00     0.010 A 
ATOM     54  C   UNL A   1      44.222  26.203  27.724  1.00  0.00    -0.014 A 
BRANCH  54  55
ATOM     55  C   UNL A   1      45.360  27.209  28.631  1.00  0.00     0.031 A 
ATOM     56  C   UNL A   1      46.732  26.813  27.450  1.00  0.00     0.074 A 
ATOM     57  C   UNL A   1      45.127  28.000  30.115  1.00  0.00     0.049 A 
ATOM     58  N   UNL A   1      47.630  25.826  27.570  1.00  0.00    -0.248 NA
ATOM     59  C   UNL A   1      46.968  27.250  26.060  1.00  0.00     0.031 C 
ATOM     60  C   UNL A   1      45.431  29.355  31.011  1.00  0.00     0.029 A 
ATOM     61  N   UNL A   1      44.359  27.663  31.549  1.00  0.00    -0.354 N 
ATOM     62  C   UNL A   1      48.853  25.992  26.841  1.00  0.00     0.074 A 
ATOM     63  C   UNL A   1      48.180  26.698  25.721  1.00  0.00     0.031 C 
ATOM     64  C   UNL A   1      45.569  29.139  32.395  1.00  0.00     0.029 A 
ATOM     65  C   UNL A   1      45.102  27.833  32.763  1.00  0.00     0.049 A 
ATOM     66  H   UNL A   1      43.423  27.358  31.564  1.00  0.00     0.167 HD
ATOM     67  C   UNL A   1      50.298  25.828  27.274  1.00  0.00     0.037 A 
ATOM     68  C   UNL A   1      45.263  26.875  33.784  1.00  0.00     0.037 A 
ATOM     69  C   UNL A   1      50.935  25.610  28.901  1.00  0.00     0.049 A 
ATOM     70  C   UNL A   1      46.768  26.070  34.270  1.00  0.00     0.074 A 
ATOM     71  C   UNL A   1      51.606  26.590  29.685  1.00  0.00     0.029 A 
ATOM     72  N   UNL A   1      50.645  24.661  30.054  1.00  0.00    -0.354 N 
ATOM     73  N   UNL A   1      48.019  26.317  33.896  1.00  0.00    -0.248 NA
ATOM     74  C   UNL A   1      46.924  24.903  35.172  1.00  0.00     0.031 C 
ATOM     75  C   UNL A   1      51.754  26.273  31.100  1.00  0.00     0.029 A 
ATOM     76  C   UNL A   1      50.812  25.292  31.482  1.00  0.00     0.049 A 
ATOM     77  H   UNL A   1      50.373  23.726  29.915  1.00  0.00     0.167 HD
ATOM     78  C   UNL A   1      49.042  25.206  33.992  1.00  0.00     0.074 A 
ATOM     79  C   UNL A   1      48.235  24.484  35.049  1.00  0.00     0.031 C 
ATOM     80  C   UNL A   1      50.259  24.759  33.070  1.00  0.00     0.037 A 
BRANCH  67  81
ATOM     81  C   UNL A   1      51.341  26.523  26.259  1.00  0.00     0.064 A 
ATOM     82  C   UNL A   1      51.544  27.923  26.127  1.00  0.00     0.173 A 
ATOM     83  C   UNL A   1      52.139  25.790  25.359  1.00  0.00     0.173 A 
ATOM     84  F   UNL A   1      51.191  28.798  27.067  1.00  0.00    -0.203 F 
ATOM     85  C   UNL A   1      52.252  28.525  25.074  1.00  0.00     0.198 A 
ATOM     86  C   UNL A   1      52.872  26.387  24.307  1.00  0.00     0.198 A 
ATOM     87  F   UNL A   1      52.295  24.467  25.515  1.00  0.00    -0.203 F 
ATOM     88  F   UNL A   1      52.334  29.865  25.009  1.00  0.00    -0.200 F 
ATOM     89  C   UNL A   1      52.898  27.756  24.144  1.00  0.00     0.200 A 
ATOM     90  F   UNL A   1      53.571  25.617  23.461  1.00  0.00    -0.200 F 
ATOM     91  F   UNL A   1      53.603  28.328  23.157  1.00  0.00    -0.200 F 
ENDBRANCH  67  81
BRANCH  68  92
ATOM     92  C   UNL A   1      43.771  26.364  34.040  1.00  0.00     0.064 A 
ATOM     93  C   UNL A   1      43.602  24.940  33.914  1.00  0.00     0.173 A 
ATOM     94  C   UNL A   1      42.799  26.969  34.864  1.00  0.00     0.173 A 
ATOM     95  F   UNL A   1      44.414  24.254  33.094  1.00  0.00    -0.203 F 
ATOM     96  C   UNL A   1      42.773  24.176  34.759  1.00  0.00     0.198 A 
ATOM     97  C   UNL A   1      41.904  26.193  35.669  1.00  0.00     0.198 A 
ATOM     98  F   UNL A   1      42.809  28.293  35.064  1.00  0.00    -0.203 F 
ATOM     99  F   UNL A   1      42.882  22.838  34.776  1.00  0.00    -0.200 F 
ATOM    100  C   UNL A   1      41.955  24.803  35.674  1.00  0.00     0.200 A 
ATOM    101  F   UNL A   1      41.150  26.801  36.601  1.00  0.00    -0.200 F 
ATOM    102  F   UNL A   1      41.314  24.090  36.615  1.00  0.00    -0.200 F 
ENDBRANCH  68  92
BRANCH  80 103
ATOM    103  C   UNL A   1      51.291  23.696  33.526  1.00  0.00     0.064 A 
ATOM    104  C   UNL A   1      51.070  22.320  33.546  1.00  0.00     0.173 A 
ATOM    105  C   UNL A   1      52.555  24.074  34.087  1.00  0.00     0.173 A 
ATOM    106  F   UNL A   1      49.860  21.798  33.337  1.00  0.00    -0.203 F 
ATOM    107  C   UNL A   1      52.077  21.409  33.891  1.00  0.00     0.198 A 
ATOM    108  C   UNL A   1      53.527  23.174  34.495  1.00  0.00     0.198 A 
ATOM    109  F   UNL A   1      52.932  25.335  34.320  1.00  0.00    -0.203 F 
ATOM    110  F   UNL A   1      51.831  20.096  33.793  1.00  0.00    -0.200 F 
ATOM    111  C   UNL A   1      53.308  21.834  34.353  1.00  0.00     0.200 A 
ATOM    112  F   UNL A   1      54.669  23.635  35.024  1.00  0.00    -0.200 F 
ATOM    113  F   UNL A   1      54.260  20.961  34.696  1.00  0.00    -0.200 F 
ENDBRANCH  80 103
ENDBRANCH  54  55
ENDBRANCH  47  49
ENDBRANCH  46  47
ENDBRANCH  45  46
ENDBRANCH  44  45
ENDBRANCH  43  44
ENDBRANCH  42  43
ENDBRANCH  41  42
ENDBRANCH  40  41
ENDBRANCH   1  40
TORSDOF 25
ENDMDL
MODEL 2
REMARK VINA RESULT:     -12.5      2.883      4.452
REMARK SMILES Cc1ccc(N2C(=O)N=C(OCCOCCOCCOCCOC(=O)c3ccc(-c4c5nc(c(-c6c(F)c(F)c(F)c(F)c6F)c6ccc([nH]6)c(-c6c(F)c(F)c(F)c(F)c6F)c6nc(c(-c7c(F)c(F)c(F)c(F)c7F)c7ccc4[nH]7)C=C6)C=C5)cc3)/C(=C\c3ccccc3OCc3cccc(C(=O)[O-])c3)C2=O)cc1
REMARK SMILES IDX 16 1 15 2 14 3 13 4 12 5 11 6 10 7 6 8 7 9 108 10 8 11 9 12
REMARK SMILES IDX 89 13 109 14 90 15 5 16 1 17 2 18 3 19 111 20 4 21 110 22
REMARK SMILES IDX 91 23 92 24 96 25 93 26 95 27 94 28 97 29 98 30 99 31 100 32
REMARK SMILES IDX 107 33 101 34 103 35 102 36 104 37 105 38 106 39 17 40 18 41
REMARK SMILES IDX 19 42 20 43 21 44 22 45 23 46 24 47 25 48 26 49 27 50 88 51
REMARK SMILES IDX 28 52 87 53 29 54 30 55 31 56 81 57 32 58 86 59 80 60 82 61
REMARK SMILES IDX 33 62 85 63 79 64 78 65 34 67 66 68 46 69 65 70 47 71 50 72
REMARK SMILES IDX 64 73 83 74 48 75 49 76 63 78 84 79 51 80 35 81 36 82 44 83
REMARK SMILES IDX 37 84 38 85 42 86 45 87 39 88 40 89 43 90 41 91 67 92 68 93
REMARK SMILES IDX 76 94 69 95 70 96 74 97 77 98 71 99 72 100 75 101 73 102
REMARK SMILES IDX 52 103 53 104 61 105 54 106 55 107 59 108 62 109 56 110
REMARK SMILES IDX 57 111 60 112 58 113
REMARK H PARENT 82 66 50 77
REMARK Flexibility Score: inf
ROOT
ATOM      1  C   UNL A   1      39.547  22.143  26.501  1.00  0.00     0.188 C 
ENDROOT
BRANCH   1   2
ATOM      2  C   UNL A   1      38.644  21.250  25.677  1.00  0.00     0.188 C 
BRANCH   2   3
ATOM      3  O   UNL A   1      37.013  21.477  25.874  1.00  0.00    -0.376 OA
BRANCH   3   4
ATOM      4  C   UNL A   1      35.676  21.602  25.004  1.00  0.00     0.201 C 
BRANCH   4   5
ATOM      5  C   UNL A   1      35.533  22.257  23.293  1.00  0.00     0.260 C 
BRANCH   5   6
ATOM      6  O   UNL A   1      34.022  22.828  22.565  1.00  0.00    -0.475 OA
BRANCH   6   7
ATOM      7  C   UNL A   1      33.153  24.012  22.386  1.00  0.00     0.231 C 
ATOM      8  N   UNL A   1      31.704  26.397  22.850  1.00  0.00    -0.226 N 
ATOM      9  C   UNL A   1      32.833  26.349  22.061  1.00  0.00     0.358 C 
ATOM     10  C   UNL A   1      31.045  25.225  23.100  1.00  0.00     0.272 C 
ATOM     11  O   UNL A   1      33.417  27.389  21.743  1.00  0.00    -0.245 OA
ATOM     12  N   UNL A   1      33.402  25.124  21.737  1.00  0.00    -0.156 NA
ATOM     13  C   UNL A   1      31.868  23.988  22.880  1.00  0.00     0.103 C 
ATOM     14  O   UNL A   1      29.869  25.184  23.454  1.00  0.00    -0.268 OA
ATOM     15  C   UNL A   1      31.442  22.767  22.600  1.00  0.00     0.031 C 
BRANCH   8  16
ATOM     16  C   UNL A   1      31.060  27.662  23.077  1.00  0.00     0.054 A 
ATOM     17  C   UNL A   1      28.890  31.381  23.571  1.00  0.00     0.044 C 
ATOM     18  C   UNL A   1      29.698  30.126  23.402  1.00  0.00    -0.051 A 
ATOM     19  C   UNL A   1      29.450  29.316  22.294  1.00  0.00     0.005 A 
ATOM     20  C   UNL A   1      30.661  29.715  24.335  1.00  0.00     0.005 A 
ATOM     21  C   UNL A   1      30.132  28.112  22.130  1.00  0.00     0.027 A 
ATOM     22  C   UNL A   1      31.327  28.479  24.188  1.00  0.00     0.027 A 
ENDBRANCH   8  16
BRANCH  15  23
ATOM     23  C   UNL A   1      31.916  21.343  22.521  1.00  0.00     0.018 A 
ATOM     24  C   UNL A   1      32.134  20.460  21.378  1.00  0.00     0.012 A 
ATOM     25  C   UNL A   1      32.142  20.836  23.741  1.00  0.00     0.127 A 
ATOM     26  C   UNL A   1      32.380  19.088  21.457  1.00  0.00     0.001 A 
ATOM     27  C   UNL A   1      32.381  19.419  23.789  1.00  0.00     0.047 A 
ATOM     28  C   UNL A   1      32.502  18.554  22.698  1.00  0.00     0.004 A 
BRANCH  25  29
ATOM     29  O   UNL A   1      31.878  21.669  24.828  1.00  0.00    -0.488 OA
BRANCH  29  30
ATOM     30  C   UNL A   1      32.337  22.119  26.170  1.00  0.00     0.265 C 
BRANCH  30  31
ATOM     31  C   UNL A   1      31.895  23.337  27.083  1.00  0.00    -0.010 A 
ATOM     32  C   UNL A   1      30.535  23.686  26.917  1.00  0.00     0.007 A 
ATOM     33  C   UNL A   1      32.798  24.361  27.301  1.00  0.00     0.017 A 
ATOM     34  C   UNL A   1      30.177  24.977  26.587  1.00  0.00     0.001 A 
ATOM     35  C   UNL A   1      32.524  25.535  26.619  1.00  0.00    -0.002 A 
ATOM     36  C   UNL A   1      31.200  25.865  26.297  1.00  0.00     0.010 A 
BRANCH  35  37
ATOM     37  C   UNL A   1      33.634  26.167  25.879  1.00  0.00     0.071 C 
ATOM     38  O   UNL A   1      34.374  25.575  25.089  1.00  0.00    -0.545 OA
ATOM     39  O   UNL A   1      33.914  27.414  26.284  1.00  0.00    -0.545 OA
ENDBRANCH  35  37
ENDBRANCH  30  31
ENDBRANCH  29  30
ENDBRANCH  25  29
ENDBRANCH  15  23
ENDBRANCH   6   7
ENDBRANCH   5   6
ENDBRANCH   4   5
ENDBRANCH   3   4
ENDBRANCH   2   3
ENDBRANCH   1   2
BRANCH   1  40
ATOM     40  O   UNL A   1      40.399  21.439  27.375  1.00  0.00    -0.377 OA
BRANCH  40  41
ATOM     41  C   UNL A   1      41.276  22.271  28.115  1.00  0.00     0.188 C 
BRANCH  41  42
ATOM     42  C   UNL A   1      42.746  22.099  27.780  1.00  0.00     0.188 C 
BRANCH  42  43
ATOM     43  O   UNL A   1      43.491  23.122  27.195  1.00  0.00    -0.376 OA
BRANCH  43  44
ATOM     44  C   UNL A   1      43.041  23.305  25.870  1.00  0.00     0.202 C 
BRANCH  44  45
ATOM     45  C   UNL A   1      43.561  24.632  25.122  1.00  0.00     0.261 C 
BRANCH  45  46
ATOM     46  O   UNL A   1      42.468  25.759  24.901  1.00  0.00    -0.460 OA
BRANCH  46  47
ATOM     47  C   UNL A   1      41.322  25.988  25.747  1.00  0.00     0.338 C 
ATOM     48  O   UNL A   1      40.354  25.233  25.762  1.00  0.00    -0.246 OA
BRANCH  47  49
ATOM     49  C   UNL A   1      41.173  27.519  26.257  1.00  0.00     0.060 A 
ATOM     50  C   UNL A   1      41.973  28.598  25.814  1.00  0.00     0.016 A 
ATOM     51  C   UNL A   1      40.565  27.772  27.483  1.00  0.00     0.016 A 
ATOM     52  C   UNL A   1      42.344  29.697  26.710  1.00  0.00     0.010 A 
ATOM     53  C   UNL A   1      41.146  28.707  28.413  1.00  0.00     0.010 A 
ATOM     54  C   UNL A   1      42.250  29.523  28.108  1.00  0.00    -0.014 A 
BRANCH  54  55
ATOM     55  C   UNL A   1      43.346  29.919  29.440  1.00  0.00     0.031 A 
ATOM     56  C   UNL A   1      44.713  28.928  28.677  1.00  0.00     0.074 A 
ATOM     57  C   UNL A   1      43.008  30.749  30.882  1.00  0.00     0.049 A 
ATOM     58  N   UNL A   1      45.003  27.644  28.923  1.00  0.00    -0.248 NA
ATOM     59  C   UNL A   1      45.554  29.192  27.492  1.00  0.00     0.031 C 
ATOM     60  C   UNL A   1      43.557  31.832  32.003  1.00  0.00     0.029 A 
ATOM     61  N   UNL A   1      41.748  30.817  31.963  1.00  0.00    -0.354 N 
ATOM     62  C   UNL A   1      46.341  27.228  28.619  1.00  0.00     0.074 A 
ATOM     63  C   UNL A   1      46.445  28.147  27.456  1.00  0.00     0.031 C 
ATOM     64  C   UNL A   1      43.128  31.597  33.323  1.00  0.00     0.029 A 
ATOM     65  C   UNL A   1      42.051  30.649  33.354  1.00  0.00     0.049 A 
ATOM     66  H   UNL A   1      40.825  30.968  31.659  1.00  0.00     0.167 HD
ATOM     67  C   UNL A   1      47.344  26.434  29.435  1.00  0.00     0.037 A 
ATOM     68  C   UNL A   1      41.440  29.735  34.238  1.00  0.00     0.037 A 
ATOM     69  C   UNL A   1      47.255  25.973  31.132  1.00  0.00     0.049 A 
ATOM     70  C   UNL A   1      42.200  28.344  35.033  1.00  0.00     0.074 A 
ATOM     71  C   UNL A   1      47.987  26.554  32.205  1.00  0.00     0.029 A 
ATOM     72  N   UNL A   1      46.226  25.275  32.007  1.00  0.00    -0.354 N 
ATOM     73  N   UNL A   1      43.480  27.992  35.085  1.00  0.00    -0.248 NA
ATOM     74  C   UNL A   1      41.533  27.244  35.774  1.00  0.00     0.031 C 
ATOM     75  C   UNL A   1      47.514  26.225  33.543  1.00  0.00     0.029 A 
ATOM     76  C   UNL A   1      46.173  25.781  33.492  1.00  0.00     0.049 A 
ATOM     77  H   UNL A   1      45.639  24.561  31.667  1.00  0.00     0.167 HD
ATOM     78  C   UNL A   1      43.829  26.541  35.327  1.00  0.00     0.074 A 
ATOM     79  C   UNL A   1      42.494  26.276  35.990  1.00  0.00     0.031 C 
ATOM     80  C   UNL A   1      44.960  25.578  34.757  1.00  0.00     0.037 A 
BRANCH  67  81
ATOM     81  C   UNL A   1      48.852  26.567  28.879  1.00  0.00     0.064 A 
ATOM     82  C   UNL A   1      49.714  27.674  29.108  1.00  0.00     0.173 A 
ATOM     83  C   UNL A   1      49.457  25.593  28.061  1.00  0.00     0.173 A 
ATOM     84  F   UNL A   1      49.529  28.541  30.102  1.00  0.00    -0.203 F 
ATOM     85  C   UNL A   1      50.913  27.902  28.416  1.00  0.00     0.198 A 
ATOM     86  C   UNL A   1      50.675  25.803  27.374  1.00  0.00     0.198 A 
ATOM     87  F   UNL A   1      48.922  24.368  27.958  1.00  0.00    -0.203 F 
ATOM     88  F   UNL A   1      51.625  29.013  28.666  1.00  0.00    -0.200 F 
ATOM     89  C   UNL A   1      51.386  26.975  27.525  1.00  0.00     0.200 A 
ATOM     90  F   UNL A   1      51.165  24.843  26.576  1.00  0.00    -0.200 F 
ATOM     91  F   UNL A   1      52.549  27.173  26.887  1.00  0.00    -0.200 F 
ENDBRANCH  67  81
BRANCH  68  92
ATOM     92  C   UNL A   1      39.880  29.958  33.967  1.00  0.00     0.064 A 
ATOM     93  C   UNL A   1      39.396  31.264  34.329  1.00  0.00     0.173 A 
ATOM     94  C   UNL A   1      39.095  29.327  32.980  1.00  0.00     0.173 A 
ATOM     95  F   UNL A   1      40.009  31.940  35.315  1.00  0.00    -0.203 F 
ATOM     96  C   UNL A   1      38.448  31.981  33.573  1.00  0.00     0.198 A 
ATOM     97  C   UNL A   1      38.078  30.034  32.260  1.00  0.00     0.198 A 
ATOM     98  F   UNL A   1      39.405  28.097  32.551  1.00  0.00    -0.203 F 
ATOM     99  F   UNL A   1      38.258  33.290  33.800  1.00  0.00    -0.200 F 
ATOM    100  C   UNL A   1      37.820  31.378  32.504  1.00  0.00     0.200 A 
ATOM    101  F   UNL A   1      37.509  29.466  31.183  1.00  0.00    -0.200 F 
ATOM    102  F   UNL A   1      37.068  32.104  31.659  1.00  0.00    -0.200 F 
ENDBRANCH  68  92
BRANCH  80 103
ATOM    103  C   UNL A   1      45.220  24.170  35.349  1.00  0.00     0.064 A 
ATOM    104  C   UNL A   1      44.776  22.971  34.793  1.00  0.00     0.173 A 
ATOM    105  C   UNL A   1      45.865  24.000  36.619  1.00  0.00     0.173 A 
ATOM    106  F   UNL A   1      43.917  22.943  33.773  1.00  0.00    -0.203 F 
ATOM    107  C   UNL A   1      45.119  21.725  35.338  1.00  0.00     0.198 A 
ATOM    108  C   UNL A   1      46.143  22.770  37.193  1.00  0.00     0.198 A 
ATOM    109  F   UNL A   1      46.238  25.005  37.418  1.00  0.00    -0.203 F 
ATOM    110  F   UNL A   1      44.745  20.609  34.699  1.00  0.00    -0.200 F 
ATOM    111  C   UNL A   1      45.811  21.624  36.528  1.00  0.00     0.200 A 
ATOM    112  F   UNL A   1      46.733  22.725  38.396  1.00  0.00    -0.200 F 
ATOM    113  F   UNL A   1      46.123  20.434  37.051  1.00  0.00    -0.200 F 
ENDBRANCH  80 103
ENDBRANCH  54  55
ENDBRANCH  47  49
ENDBRANCH  46  47
ENDBRANCH  45  46
ENDBRANCH  44  45
ENDBRANCH  43  44
ENDBRANCH  42  43
ENDBRANCH  41  42
ENDBRANCH  40  41
ENDBRANCH   1  40
TORSDOF 25
ENDMDL
MODEL 3
REMARK VINA RESULT:     -12.0      4.807      9.807
REMARK SMILES Cc1ccc(N2C(=O)N=C(OCCOCCOCCOCCOC(=O)c3ccc(-c4c5nc(c(-c6c(F)c(F)c(F)c(F)c6F)c6ccc([nH]6)c(-c6c(F)c(F)c(F)c(F)c6F)c6nc(c(-c7c(F)c(F)c(F)c(F)c7F)c7ccc4[nH]7)C=C6)C=C5)cc3)/C(=C\c3ccccc3OCc3cccc(C(=O)[O-])c3)C2=O)cc1
REMARK SMILES IDX 16 1 15 2 14 3 13 4 12 5 11 6 10 7 6 8 7 9 108 10 8 11 9 12
REMARK SMILES IDX 89 13 109 14 90 15 5 16 1 17 2 18 3 19 111 20 4 21 110 22
REMARK SMILES IDX 91 23 92 24 96 25 93 26 95 27 94 28 97 29 98 30 99 31 100 32
REMARK SMILES IDX 107 33 101 34 103 35 102 36 104 37 105 38 106 39 17 40 18 41
REMARK SMILES IDX 19 42 20 43 21 44 22 45 23 46 24 47 25 48 26 49 27 50 88 51
REMARK SMILES IDX 28 52 87 53 29 54 30 55 31 56 81 57 32 58 86 59 80 60 82 61
REMARK SMILES IDX 33 62 85 63 79 64 78 65 34 67 66 68 46 69 65 70 47 71 50 72
REMARK SMILES IDX 64 73 83 74 48 75 49 76 63 78 84 79 51 80 35 81 36 82 44 83
REMARK SMILES IDX 37 84 38 85 42 86 45 87 39 88 40 89 43 90 41 91 67 92 68 93
REMARK SMILES IDX 76 94 69 95 70 96 74 97 77 98 71 99 72 100 75 101 73 102
REMARK SMILES IDX 52 103 53 104 61 105 54 106 55 107 59 108 62 109 56 110
REMARK SMILES IDX 57 111 60 112 58 113
REMARK H PARENT 82 66 50 77
REMARK Flexibility Score: inf
ROOT
ATOM      1  C   UNL A   1      37.730  31.718  34.123  1.00  0.00     0.188 C 
ENDROOT
BRANCH   1   2
ATOM      2  C   UNL A   1      36.629  31.716  33.085  1.00  0.00     0.188 C 
BRANCH   2   3
ATOM      3  O   UNL A   1      35.378  32.775  33.343  1.00  0.00    -0.376 OA
BRANCH   3   4
ATOM      4  C   UNL A   1      34.398  33.741  32.527  1.00  0.00     0.201 C 
BRANCH   4   5
ATOM      5  C   UNL A   1      34.398  34.032  30.712  1.00  0.00     0.260 C 
BRANCH   5   6
ATOM      6  O   UNL A   1      34.794  32.799  29.502  1.00  0.00    -0.475 OA
BRANCH   6   7
ATOM      7  C   UNL A   1      34.248  32.009  28.377  1.00  0.00     0.231 C 
ATOM      8  N   UNL A   1      32.954  30.004  26.858  1.00  0.00    -0.226 N 
ATOM      9  C   UNL A   1      32.439  31.273  27.014  1.00  0.00     0.358 C 
ATOM     10  C   UNL A   1      34.285  29.816  27.108  1.00  0.00     0.272 C 
ATOM     11  O   UNL A   1      31.263  31.510  26.725  1.00  0.00    -0.245 OA
ATOM     12  N   UNL A   1      33.200  32.260  27.630  1.00  0.00    -0.156 NA
ATOM     13  C   UNL A   1      34.918  30.883  27.953  1.00  0.00     0.103 C 
ATOM     14  O   UNL A   1      34.919  28.862  26.660  1.00  0.00    -0.268 OA
ATOM     15  C   UNL A   1      36.192  31.236  27.998  1.00  0.00     0.031 C 
BRANCH   8  16
ATOM     16  C   UNL A   1      32.204  29.029  26.114  1.00  0.00     0.054 A 
ATOM     17  C   UNL A   1      29.810  26.004  24.138  1.00  0.00     0.044 C 
ATOM     18  C   UNL A   1      30.688  27.039  24.781  1.00  0.00    -0.051 A 
ATOM     19  C   UNL A   1      30.936  26.949  26.151  1.00  0.00     0.005 A 
ATOM     20  C   UNL A   1      31.234  28.117  24.068  1.00  0.00     0.005 A 
ATOM     21  C   UNL A   1      31.694  27.921  26.800  1.00  0.00     0.027 A 
ATOM     22  C   UNL A   1      31.972  29.121  24.731  1.00  0.00     0.027 A 
ENDBRANCH   8  16
BRANCH  15  23
ATOM     23  C   UNL A   1      37.161  32.053  28.806  1.00  0.00     0.018 A 
ATOM     24  C   UNL A   1      37.361  33.497  28.901  1.00  0.00     0.012 A 
ATOM     25  C   UNL A   1      37.974  31.271  29.530  1.00  0.00     0.127 A 
ATOM     26  C   UNL A   1      38.437  34.120  29.535  1.00  0.00     0.001 A 
ATOM     27  C   UNL A   1      39.078  31.941  30.161  1.00  0.00     0.047 A 
ATOM     28  C   UNL A   1      39.322  33.318  30.179  1.00  0.00     0.004 A 
BRANCH  25  29
ATOM     29  O   UNL A   1      37.812  29.894  29.390  1.00  0.00    -0.488 OA
BRANCH  29  30
ATOM     30  C   UNL A   1      38.473  28.609  29.032  1.00  0.00     0.265 C 
BRANCH  30  31
ATOM     31  C   UNL A   1      39.960  28.271  28.601  1.00  0.00    -0.010 A 
ATOM     32  C   UNL A   1      40.363  28.954  27.430  1.00  0.00     0.007 A 
ATOM     33  C   UNL A   1      40.424  26.982  28.784  1.00  0.00     0.017 A 
ATOM     34  C   UNL A   1      40.851  28.256  26.344  1.00  0.00     0.001 A 
ATOM     35  C   UNL A   1      40.542  26.235  27.623  1.00  0.00    -0.002 A 
ATOM     36  C   UNL A   1      40.798  26.873  26.402  1.00  0.00     0.010 A 
BRANCH  35  37
ATOM     37  C   UNL A   1      39.968  24.874  27.629  1.00  0.00     0.071 C 
ATOM     38  O   UNL A   1      40.590  23.855  27.940  1.00  0.00    -0.545 OA
ATOM     39  O   UNL A   1      38.753  24.797  27.068  1.00  0.00    -0.545 OA
ENDBRANCH  35  37
ENDBRANCH  30  31
ENDBRANCH  29  30
ENDBRANCH  25  29
ENDBRANCH  15  23
ENDBRANCH   6   7
ENDBRANCH   5   6
ENDBRANCH   4   5
ENDBRANCH   3   4
ENDBRANCH   2   3
ENDBRANCH   1   2
BRANCH   1  40
ATOM     40  O   UNL A   1      38.514  30.547  34.123  1.00  0.00    -0.377 OA
BRANCH  40  41
ATOM     41  C   UNL A   1      38.044  29.543  33.240  1.00  0.00     0.188 C 
BRANCH  41  42
ATOM     42  C   UNL A   1      39.126  28.859  32.424  1.00  0.00     0.188 C 
BRANCH  42  43
ATOM     43  O   UNL A   1      39.971  27.901  32.980  1.00  0.00    -0.376 OA
BRANCH  43  44
ATOM     44  C   UNL A   1      41.242  28.018  32.378  1.00  0.00     0.202 C 
BRANCH  44  45
ATOM     45  C   UNL A   1      42.368  28.778  33.241  1.00  0.00     0.261 C 
BRANCH  45  46
ATOM     46  O   UNL A   1      41.819  29.729  34.386  1.00  0.00    -0.460 OA
BRANCH  46  47
ATOM     47  C   UNL A   1      41.350  29.294  35.680  1.00  0.00     0.338 C 
ATOM     48  O   UNL A   1      40.809  30.057  36.474  1.00  0.00    -0.246 OA
BRANCH  47  49
ATOM     49  C   UNL A   1      42.031  27.920  36.201  1.00  0.00     0.060 A 
ATOM     50  C   UNL A   1      43.364  27.803  36.659  1.00  0.00     0.016 A 
ATOM     51  C   UNL A   1      41.495  26.699  35.799  1.00  0.00     0.016 A 
ATOM     52  C   UNL A   1      44.153  26.590  36.427  1.00  0.00     0.010 A 
ATOM     53  C   UNL A   1      42.352  25.631  35.352  1.00  0.00     0.010 A 
ATOM     54  C   UNL A   1      43.756  25.677  35.425  1.00  0.00    -0.014 A 
BRANCH  54  55
ATOM     55  C   UNL A   1      44.652  24.825  34.158  1.00  0.00     0.031 A 
ATOM     56  C   UNL A   1      45.765  24.031  35.408  1.00  0.00     0.074 A 
ATOM     57  C   UNL A   1      44.508  24.975  32.473  1.00  0.00     0.049 A 
ATOM     58  N   UNL A   1      46.951  24.491  35.829  1.00  0.00    -0.248 NA
ATOM     59  C   UNL A   1      45.509  22.955  36.387  1.00  0.00     0.031 C 
ATOM     60  C   UNL A   1      44.523  24.189  31.019  1.00  0.00     0.029 A 
ATOM     61  N   UNL A   1      44.255  26.212  31.393  1.00  0.00    -0.354 N 
ATOM     62  C   UNL A   1      47.839  23.520  36.401  1.00  0.00     0.074 A 
ATOM     63  C   UNL A   1      46.724  22.734  36.989  1.00  0.00     0.031 C 
ATOM     64  C   UNL A   1      45.041  24.933  29.942  1.00  0.00     0.029 A 
ATOM     65  C   UNL A   1      45.152  26.323  30.281  1.00  0.00     0.049 A 
ATOM     66  H   UNL A   1      43.514  26.847  31.514  1.00  0.00     0.167 HD
ATOM     67  C   UNL A   1      49.309  23.248  36.146  1.00  0.00     0.037 A 
ATOM     68  C   UNL A   1      45.865  27.476  29.894  1.00  0.00     0.037 A 
ATOM     69  C   UNL A   1      50.338  23.897  34.874  1.00  0.00     0.049 A 
ATOM     70  C   UNL A   1      47.624  27.707  29.923  1.00  0.00     0.074 A 
ATOM     71  C   UNL A   1      50.791  23.204  33.716  1.00  0.00     0.029 A 
ATOM     72  N   UNL A   1      50.668  25.289  34.359  1.00  0.00    -0.354 N 
ATOM     73  N   UNL A   1      48.591  26.824  30.148  1.00  0.00    -0.248 NA
ATOM     74  C   UNL A   1      48.377  28.973  29.746  1.00  0.00     0.031 C 
ATOM     75  C   UNL A   1      51.360  24.036  32.664  1.00  0.00     0.029 A 
ATOM     76  C   UNL A   1      50.930  25.374  32.814  1.00  0.00     0.049 A 
ATOM     77  H   UNL A   1      50.712  26.076  34.949  1.00  0.00     0.167 HD
ATOM     78  C   UNL A   1      49.927  27.318  30.657  1.00  0.00     0.074 A 
ATOM     79  C   UNL A   1      49.686  28.704  30.096  1.00  0.00     0.031 C 
ATOM     80  C   UNL A   1      50.977  26.746  31.706  1.00  0.00     0.037 A 
BRANCH  67  81
ATOM     81  C   UNL A   1      49.785  21.806  36.690  1.00  0.00     0.064 A 
ATOM     82  C   UNL A   1      50.130  21.514  38.037  1.00  0.00     0.173 A 
ATOM     83  C   UNL A   1      49.946  20.685  35.852  1.00  0.00     0.173 A 
ATOM     84  F   UNL A   1      49.745  22.270  39.064  1.00  0.00    -0.203 F 
ATOM     85  C   UNL A   1      50.785  20.343  38.451  1.00  0.00     0.198 A 
ATOM     86  C   UNL A   1      50.586  19.493  36.264  1.00  0.00     0.198 A 
ATOM     87  F   UNL A   1      49.417  20.680  34.620  1.00  0.00    -0.203 F 
ATOM     88  F   UNL A   1      51.122  20.191  39.743  1.00  0.00    -0.200 F 
ATOM     89  C   UNL A   1      51.039  19.337  37.557  1.00  0.00     0.200 A 
ATOM     90  F   UNL A   1      50.743  18.485  35.393  1.00  0.00    -0.200 F 
ATOM     91  F   UNL A   1      51.634  18.204  37.956  1.00  0.00    -0.200 F 
ENDBRANCH  67  81
BRANCH  68  92
ATOM     92  C   UNL A   1      44.743  28.614  29.900  1.00  0.00     0.064 A 
ATOM     93  C   UNL A   1      44.952  29.648  30.879  1.00  0.00     0.173 A 
ATOM     94  C   UNL A   1      43.959  29.034  28.805  1.00  0.00     0.173 A 
ATOM     95  F   UNL A   1      45.616  29.356  32.009  1.00  0.00    -0.203 F 
ATOM     96  C   UNL A   1      44.690  31.012  30.639  1.00  0.00     0.198 A 
ATOM     97  C   UNL A   1      43.629  30.412  28.598  1.00  0.00     0.198 A 
ATOM     98  F   UNL A   1      43.659  28.179  27.818  1.00  0.00    -0.203 F 
ATOM     99  F   UNL A   1      45.172  31.945  31.475  1.00  0.00    -0.200 F 
ATOM    100  C   UNL A   1      44.069  31.400  29.472  1.00  0.00     0.200 A 
ATOM    101  F   UNL A   1      43.076  30.797  27.435  1.00  0.00    -0.200 F 
ATOM    102  F   UNL A   1      43.994  32.701  29.141  1.00  0.00    -0.200 F 
ENDBRANCH  68  92
BRANCH  80 103
ATOM    103  C   UNL A   1      52.388  27.363  31.881  1.00  0.00     0.064 A 
ATOM    104  C   UNL A   1      52.659  28.585  32.494  1.00  0.00     0.173 A 
ATOM    105  C   UNL A   1      53.549  26.751  31.302  1.00  0.00     0.173 A 
ATOM    106  F   UNL A   1      51.687  29.434  32.835  1.00  0.00    -0.203 F 
ATOM    107  C   UNL A   1      53.969  29.045  32.692  1.00  0.00     0.198 A 
ATOM    108  C   UNL A   1      54.838  27.242  31.438  1.00  0.00     0.198 A 
ATOM    109  F   UNL A   1      53.522  25.659  30.531  1.00  0.00    -0.203 F 
ATOM    110  F   UNL A   1      54.165  30.179  33.377  1.00  0.00    -0.200 F 
ATOM    111  C   UNL A   1      55.057  28.369  32.176  1.00  0.00     0.200 A 
ATOM    112  F   UNL A   1      55.851  26.600  30.838  1.00  0.00    -0.200 F 
ATOM    113  F   UNL A   1      56.303  28.819  32.355  1.00  0.00    -0.200 F 
ENDBRANCH  80 103
ENDBRANCH  54  55
ENDBRANCH  47  49
ENDBRANCH  46  47
ENDBRANCH  45  46
ENDBRANCH  44  45
ENDBRANCH  43  44
ENDBRANCH  42  43
ENDBRANCH  41  42
ENDBRANCH  40  41
ENDBRANCH   1  40
TORSDOF 25
ENDMDL
