MODEL 1
REMARK VINA RESULT:     -10.7      0.000      0.000
REMARK SMILES O=C(OCCOCCOCCOCCOC(=O)c1sccc1S(=O)(=O)Nc1ccc(-c2nc3ccccc3n2C(F)F)cc1)c1ccc(-c2c3nc(c(-c4c(F)c(F)c(F)c(F)c4F)c4ccc([nH]4)c(-c4c(F)c(F)c(F)c(F)c4F)c4nc(c(-c5c(F)c(F)c(F)c(F)c5F)c5ccc2[nH]5)C=C4)C=C3)cc1
REMARK SMILES IDX 10 1 9 2 8 3 7 4 6 5 5 6 4 7 3 8 2 9 1 10 45 11 46 12 107 13
REMARK SMILES IDX 47 14 106 15 48 16 49 17 50 18 100 19 51 20 105 21 99 22
REMARK SMILES IDX 101 23 52 24 104 25 98 26 97 27 53 29 85 30 65 31 84 32
REMARK SMILES IDX 66 33 69 34 83 35 102 36 67 37 68 38 82 40 103 41 70 42
REMARK SMILES IDX 54 43 55 44 63 45 56 46 57 47 61 48 64 49 58 50 59 51 62 52
REMARK SMILES IDX 60 53 86 54 87 55 95 56 88 57 89 58 93 59 96 60 90 61 91 62
REMARK SMILES IDX 94 63 92 64 71 65 72 66 80 67 73 68 74 69 78 70 81 71 75 72
REMARK SMILES IDX 76 73 79 74 77 75 11 76 12 77 13 78 14 79 15 80 16 81 17 82
REMARK SMILES IDX 18 83 19 84 22 85 20 86 21 87 23 88 24 89 25 90 26 91 27 93
REMARK SMILES IDX 28 94 44 95 29 96 43 97 30 98 31 99 32 100 39 101 33 102
REMARK SMILES IDX 38 103 34 104 37 105 35 106 36 107 40 108 41 109 42 110
REMARK H PARENT 101 28 69 39 26 92
REMARK Flexibility Score: inf
ROOT
ATOM      1  C   UNL A   1      33.587  29.351  25.864  1.00  0.00     0.188 C 
ENDROOT
BRANCH   1   2
ATOM      2  O   UNL A   1      34.140  30.493  26.494  1.00  0.00    -0.377 OA
BRANCH   2   3
ATOM      3  C   UNL A   1      33.503  31.011  27.653  1.00  0.00     0.188 C 
BRANCH   3   4
ATOM      4  C   UNL A   1      34.228  32.082  28.481  1.00  0.00     0.188 C 
BRANCH   4   5
ATOM      5  O   UNL A   1      34.924  33.081  27.736  1.00  0.00    -0.376 OA
BRANCH   5   6
ATOM      6  C   UNL A   1      34.641  34.442  27.990  1.00  0.00     0.202 C 
BRANCH   6   7
ATOM      7  C   UNL A   1      33.476  34.715  28.961  1.00  0.00     0.261 C 
BRANCH   7   8
ATOM      8  O   UNL A   1      33.766  35.328  30.235  1.00  0.00    -0.460 OA
BRANCH   8   9
ATOM      9  C   UNL A   1      33.861  34.710  31.443  1.00  0.00     0.338 C 
ATOM     10  O   UNL A   1      33.066  34.934  32.349  1.00  0.00    -0.246 OA
BRANCH   9  11
ATOM     11  C   UNL A   1      35.063  33.915  31.734  1.00  0.00     0.060 A 
ATOM     12  C   UNL A   1      36.332  34.375  31.391  1.00  0.00     0.016 A 
ATOM     13  C   UNL A   1      34.896  32.692  32.409  1.00  0.00     0.016 A 
ATOM     14  C   UNL A   1      37.444  33.644  31.779  1.00  0.00     0.010 A 
ATOM     15  C   UNL A   1      36.012  31.959  32.803  1.00  0.00     0.010 A 
ATOM     16  C   UNL A   1      37.285  32.422  32.452  1.00  0.00    -0.014 A 
BRANCH  16  17
ATOM     17  C   UNL A   1      38.440  31.533  32.401  1.00  0.00     0.031 A 
ATOM     18  C   UNL A   1      39.438  31.447  33.496  1.00  0.00     0.074 A 
ATOM     19  C   UNL A   1      38.714  30.954  31.215  1.00  0.00     0.049 A 
ATOM     20  N   UNL A   1      40.654  31.901  33.492  1.00  0.00    -0.248 NA
ATOM     21  C   UNL A   1      39.082  30.700  34.708  1.00  0.00     0.031 C 
ATOM     22  C   UNL A   1      37.798  30.747  30.088  1.00  0.00     0.029 A 
ATOM     23  N   UNL A   1      39.890  30.414  30.785  1.00  0.00    -0.354 N 
ATOM     24  C   UNL A   1      41.276  31.367  34.616  1.00  0.00     0.074 A 
ATOM     25  C   UNL A   1      40.250  30.673  35.358  1.00  0.00     0.031 C 
ATOM     26  C   UNL A   1      38.406  29.984  29.160  1.00  0.00     0.029 A 
ATOM     27  C   UNL A   1      39.782  29.772  29.569  1.00  0.00     0.049 A 
ATOM     28  H   UNL A   1      40.732  30.476  31.290  1.00  0.00     0.167 HD
ATOM     29  C   UNL A   1      42.628  31.398  34.789  1.00  0.00     0.037 A 
ATOM     30  C   UNL A   1      40.735  29.073  28.923  1.00  0.00     0.037 A 
ATOM     31  C   UNL A   1      43.277  32.367  33.954  1.00  0.00     0.049 A 
ATOM     32  C   UNL A   1      42.061  29.555  29.361  1.00  0.00     0.074 A 
ATOM     33  C   UNL A   1      43.225  33.740  33.822  1.00  0.00     0.029 A 
ATOM     34  N   UNL A   1      44.021  31.923  32.892  1.00  0.00    -0.354 N 
ATOM     35  N   UNL A   1      42.563  30.720  29.055  1.00  0.00    -0.248 NA
ATOM     36  C   UNL A   1      42.754  28.839  30.422  1.00  0.00     0.031 C 
ATOM     37  C   UNL A   1      43.574  34.012  32.467  1.00  0.00     0.029 A 
ATOM     38  C   UNL A   1      43.787  32.780  31.847  1.00  0.00     0.049 A 
ATOM     39  H   UNL A   1      44.611  31.136  32.881  1.00  0.00     0.167 HD
ATOM     40  C   UNL A   1      43.383  31.045  30.124  1.00  0.00     0.074 A 
ATOM     41  C   UNL A   1      43.580  29.797  30.845  1.00  0.00     0.031 C 
ATOM     42  C   UNL A   1      43.591  32.345  30.484  1.00  0.00     0.037 A 
BRANCH  29  43
ATOM     43  C   UNL A   1      43.417  30.373  35.559  1.00  0.00     0.064 A 
ATOM     44  C   UNL A   1      43.410  29.021  35.159  1.00  0.00     0.173 A 
ATOM     45  C   UNL A   1      43.955  30.634  36.835  1.00  0.00     0.173 A 
ATOM     46  F   UNL A   1      42.869  28.660  33.986  1.00  0.00    -0.203 F 
ATOM     47  C   UNL A   1      43.894  28.003  35.986  1.00  0.00     0.198 A 
ATOM     48  C   UNL A   1      44.476  29.621  37.642  1.00  0.00     0.198 A 
ATOM     49  F   UNL A   1      43.902  31.860  37.373  1.00  0.00    -0.203 F 
ATOM     50  F   UNL A   1      43.788  26.724  35.602  1.00  0.00    -0.200 F 
ATOM     51  C   UNL A   1      44.430  28.304  37.225  1.00  0.00     0.200 A 
ATOM     52  F   UNL A   1      44.966  29.924  38.852  1.00  0.00    -0.200 F 
ATOM     53  F   UNL A   1      44.860  27.327  38.034  1.00  0.00    -0.200 F 
ENDBRANCH  29  43
BRANCH  30  54
ATOM     54  C   UNL A   1      40.501  27.884  28.086  1.00  0.00     0.064 A 
ATOM     55  C   UNL A   1      41.124  27.717  26.846  1.00  0.00     0.173 A 
ATOM     56  C   UNL A   1      39.788  26.777  28.596  1.00  0.00     0.173 A 
ATOM     57  F   UNL A   1      41.868  28.703  26.326  1.00  0.00    -0.203 F 
ATOM     58  C   UNL A   1      41.030  26.510  26.148  1.00  0.00     0.198 A 
ATOM     59  C   UNL A   1      39.679  25.583  27.892  1.00  0.00     0.198 A 
ATOM     60  F   UNL A   1      39.249  26.809  29.824  1.00  0.00    -0.203 F 
ATOM     61  F   UNL A   1      41.675  26.363  24.984  1.00  0.00    -0.200 F 
ATOM     62  C   UNL A   1      40.307  25.447  26.669  1.00  0.00     0.200 A 
ATOM     63  F   UNL A   1      39.004  24.555  28.426  1.00  0.00    -0.200 F 
ATOM     64  F   UNL A   1      40.246  24.280  26.013  1.00  0.00    -0.200 F 
ENDBRANCH  30  54
BRANCH  42  65
ATOM     65  C   UNL A   1      43.258  33.400  29.475  1.00  0.00     0.064 A 
ATOM     66  C   UNL A   1      42.027  34.072  29.452  1.00  0.00     0.173 A 
ATOM     67  C   UNL A   1      44.258  33.832  28.592  1.00  0.00     0.173 A 
ATOM     68  F   UNL A   1      41.067  33.775  30.340  1.00  0.00    -0.203 F 
ATOM     69  C   UNL A   1      41.792  35.104  28.546  1.00  0.00     0.198 A 
ATOM     70  C   UNL A   1      44.028  34.883  27.708  1.00  0.00     0.198 A 
ATOM     71  F   UNL A   1      45.474  33.266  28.623  1.00  0.00    -0.203 F 
ATOM     72  F   UNL A   1      40.606  35.733  28.537  1.00  0.00    -0.200 F 
ATOM     73  C   UNL A   1      42.793  35.510  27.678  1.00  0.00     0.200 A 
ATOM     74  F   UNL A   1      45.014  35.306  26.905  1.00  0.00    -0.200 F 
ATOM     75  F   UNL A   1      42.577  36.527  26.831  1.00  0.00    -0.200 F 
ENDBRANCH  42  65
ENDBRANCH  16  17
ENDBRANCH   9  11
ENDBRANCH   8   9
ENDBRANCH   7   8
ENDBRANCH   6   7
ENDBRANCH   5   6
ENDBRANCH   4   5
ENDBRANCH   3   4
ENDBRANCH   2   3
ENDBRANCH   1   2
BRANCH   1  76
ATOM     76  C   UNL A   1      33.417  28.145  26.809  1.00  0.00     0.188 C 
BRANCH  76  77
ATOM     77  O   UNL A   1      32.961  26.903  26.270  1.00  0.00    -0.376 OA
BRANCH  77  78
ATOM     78  C   UNL A   1      33.885  26.018  25.674  1.00  0.00     0.202 C 
BRANCH  78  79
ATOM     79  C   UNL A   1      33.689  25.720  24.176  1.00  0.00     0.261 C 
BRANCH  79  80
ATOM     80  O   UNL A   1      33.423  26.749  23.206  1.00  0.00    -0.459 OA
BRANCH  80  81
ATOM     81  C   UNL A   1      32.314  26.668  22.456  1.00  0.00     0.349 C 
ATOM     82  O   UNL A   1      32.066  25.833  21.568  1.00  0.00    -0.245 OA
BRANCH  81  83
ATOM     83  C   UNL A   1      31.376  27.686  22.753  1.00  0.00     0.133 A 
ATOM     84  S   UNL A   1      31.732  29.292  22.284  1.00  0.00    -0.136 S 
ATOM     85  C   UNL A   1      30.273  27.606  23.573  1.00  0.00     0.113 A 
ATOM     86  C   UNL A   1      30.437  29.909  23.212  1.00  0.00     0.067 A 
ATOM     87  C   UNL A   1      29.722  28.905  23.829  1.00  0.00     0.035 A 
BRANCH  85  88
ATOM     88  S   UNL A   1      29.581  26.154  24.240  1.00  0.00     0.263 S 
ATOM     89  O   UNL A   1      30.071  26.117  25.599  1.00  0.00    -0.201 OA
ATOM     90  O   UNL A   1      28.173  26.362  23.963  1.00  0.00    -0.201 OA
BRANCH  88  91
ATOM     91  N   UNL A   1      29.957  24.741  23.427  1.00  0.00    -0.280 N 
ATOM     92  H   UNL A   1      29.621  24.661  22.505  1.00  0.00     0.180 HD
BRANCH  91  93
ATOM     93  C   UNL A   1      30.717  23.631  23.931  1.00  0.00     0.049 A 
ATOM     94  C   UNL A   1      31.404  22.860  22.982  1.00  0.00     0.027 A 
ATOM     95  C   UNL A   1      31.028  23.433  25.268  1.00  0.00     0.027 A 
ATOM     96  C   UNL A   1      32.488  22.038  23.346  1.00  0.00     0.014 A 
ATOM     97  C   UNL A   1      32.136  22.643  25.620  1.00  0.00     0.014 A 
ATOM     98  C   UNL A   1      32.952  22.015  24.658  1.00  0.00     0.018 A 
BRANCH  98  99
ATOM     99  C   UNL A   1      34.261  21.487  25.122  1.00  0.00     0.145 A 
ATOM    100  N   UNL A   1      35.212  22.312  25.554  1.00  0.00    -0.228 NA
ATOM    101  N   UNL A   1      34.812  20.220  24.973  1.00  0.00    -0.266 N 
ATOM    102  C   UNL A   1      36.400  21.642  25.480  1.00  0.00     0.089 A 
ATOM    103  C   UNL A   1      36.194  20.330  25.093  1.00  0.00     0.074 A 
ATOM    104  C   UNL A   1      37.708  22.101  25.700  1.00  0.00     0.030 A 
ATOM    105  C   UNL A   1      37.250  19.424  24.900  1.00  0.00     0.029 A 
ATOM    106  C   UNL A   1      38.777  21.218  25.507  1.00  0.00     0.002 A 
ATOM    107  C   UNL A   1      38.549  19.900  25.110  1.00  0.00     0.002 A 
BRANCH 101 108
ATOM    108  C   UNL A   1      34.217  18.918  24.731  1.00  0.00     0.451 C 
ATOM    109  F   UNL A   1      33.282  18.511  25.616  1.00  0.00    -0.185 F 
ATOM    110  F   UNL A   1      33.652  18.832  23.494  1.00  0.00    -0.185 F 
ENDBRANCH 101 108
ENDBRANCH  98  99
ENDBRANCH  91  93
ENDBRANCH  88  91
ENDBRANCH  85  88
ENDBRANCH  81  83
ENDBRANCH  80  81
ENDBRANCH  79  80
ENDBRANCH  78  79
ENDBRANCH  77  78
ENDBRANCH  76  77
ENDBRANCH   1  76
TORSDOF 25
ENDMDL
MODEL 2
REMARK VINA RESULT:     -10.3      3.696      8.719
REMARK SMILES O=C(OCCOCCOCCOCCOC(=O)c1sccc1S(=O)(=O)Nc1ccc(-c2nc3ccccc3n2C(F)F)cc1)c1ccc(-c2c3nc(c(-c4c(F)c(F)c(F)c(F)c4F)c4ccc([nH]4)c(-c4c(F)c(F)c(F)c(F)c4F)c4nc(c(-c5c(F)c(F)c(F)c(F)c5F)c5ccc2[nH]5)C=C4)C=C3)cc1
REMARK SMILES IDX 10 1 9 2 8 3 7 4 6 5 5 6 4 7 3 8 2 9 1 10 45 11 46 12 107 13
REMARK SMILES IDX 47 14 106 15 48 16 49 17 50 18 100 19 51 20 105 21 99 22
REMARK SMILES IDX 101 23 52 24 104 25 98 26 97 27 53 29 85 30 65 31 84 32
REMARK SMILES IDX 66 33 69 34 83 35 102 36 67 37 68 38 82 40 103 41 70 42
REMARK SMILES IDX 54 43 55 44 63 45 56 46 57 47 61 48 64 49 58 50 59 51 62 52
REMARK SMILES IDX 60 53 86 54 87 55 95 56 88 57 89 58 93 59 96 60 90 61 91 62
REMARK SMILES IDX 94 63 92 64 71 65 72 66 80 67 73 68 74 69 78 70 81 71 75 72
REMARK SMILES IDX 76 73 79 74 77 75 11 76 12 77 13 78 14 79 15 80 16 81 17 82
REMARK SMILES IDX 18 83 19 84 22 85 20 86 21 87 23 88 24 89 25 90 26 91 27 93
REMARK SMILES IDX 28 94 44 95 29 96 43 97 30 98 31 99 32 100 39 101 33 102
REMARK SMILES IDX 38 103 34 104 37 105 35 106 36 107 40 108 41 109 42 110
REMARK H PARENT 101 28 69 39 26 92
REMARK Flexibility Score: inf
ROOT
ATOM      1  C   UNL A   1      37.013  23.611  24.795  1.00  0.00     0.188 C 
ENDROOT
BRANCH   1   2
ATOM      2  O   UNL A   1      37.788  23.047  25.837  1.00  0.00    -0.377 OA
BRANCH   2   3
ATOM      3  C   UNL A   1      38.380  21.771  25.636  1.00  0.00     0.188 C 
BRANCH   3   4
ATOM      4  C   UNL A   1      39.792  21.515  26.184  1.00  0.00     0.188 C 
BRANCH   4   5
ATOM      5  O   UNL A   1      40.388  20.271  25.819  1.00  0.00    -0.376 OA
BRANCH   5   6
ATOM      6  C   UNL A   1      41.489  19.797  26.566  1.00  0.00     0.202 C 
BRANCH   6   7
ATOM      7  C   UNL A   1      42.585  19.074  25.759  1.00  0.00     0.261 C 
BRANCH   7   8
ATOM      8  O   UNL A   1      43.878  19.702  25.629  1.00  0.00    -0.460 OA
BRANCH   8   9
ATOM      9  C   UNL A   1      44.177  20.831  24.932  1.00  0.00     0.338 C 
ATOM     10  O   UNL A   1      44.855  20.800  23.911  1.00  0.00    -0.246 OA
BRANCH   9  11
ATOM     11  C   UNL A   1      43.854  22.135  25.531  1.00  0.00     0.060 A 
ATOM     12  C   UNL A   1      43.346  23.177  24.759  1.00  0.00     0.016 A 
ATOM     13  C   UNL A   1      44.035  22.284  26.918  1.00  0.00     0.016 A 
ATOM     14  C   UNL A   1      42.955  24.351  25.383  1.00  0.00     0.010 A 
ATOM     15  C   UNL A   1      43.639  23.462  27.546  1.00  0.00     0.010 A 
ATOM     16  C   UNL A   1      43.134  24.508  26.766  1.00  0.00    -0.014 A 
BRANCH  16  17
ATOM     17  C   UNL A   1      43.136  25.889  27.238  1.00  0.00     0.031 A 
ATOM     18  C   UNL A   1      44.300  26.794  27.070  1.00  0.00     0.074 A 
ATOM     19  C   UNL A   1      42.129  26.258  28.053  1.00  0.00     0.049 A 
ATOM     20  N   UNL A   1      45.119  27.203  27.990  1.00  0.00    -0.248 NA
ATOM     21  C   UNL A   1      44.541  27.384  25.748  1.00  0.00     0.031 C 
ATOM     22  C   UNL A   1      40.816  25.620  28.197  1.00  0.00     0.029 A 
ATOM     23  N   UNL A   1      42.078  27.311  28.919  1.00  0.00    -0.354 N 
ATOM     24  C   UNL A   1      45.876  28.221  27.417  1.00  0.00     0.074 A 
ATOM     25  C   UNL A   1      45.514  28.260  26.020  1.00  0.00     0.031 C 
ATOM     26  C   UNL A   1      40.036  26.388  28.981  1.00  0.00     0.029 A 
ATOM     27  C   UNL A   1      40.836  27.485  29.492  1.00  0.00     0.049 A 
ATOM     28  H   UNL A   1      42.850  27.888  29.116  1.00  0.00     0.167 HD
ATOM     29  C   UNL A   1      46.641  29.071  28.158  1.00  0.00     0.037 A 
ATOM     30  C   UNL A   1      40.445  28.476  30.317  1.00  0.00     0.037 A 
ATOM     31  C   UNL A   1      46.918  28.572  29.474  1.00  0.00     0.049 A 
ATOM     32  C   UNL A   1      41.633  29.022  31.005  1.00  0.00     0.074 A 
ATOM     33  C   UNL A   1      47.577  27.473  29.987  1.00  0.00     0.029 A 
ATOM     34  N   UNL A   1      46.289  29.155  30.543  1.00  0.00    -0.354 N 
ATOM     35  N   UNL A   1      42.314  28.388  31.920  1.00  0.00    -0.248 NA
ATOM     36  C   UNL A   1      42.277  30.208  30.461  1.00  0.00     0.031 C 
ATOM     37  C   UNL A   1      46.968  27.210  31.248  1.00  0.00     0.029 A 
ATOM     38  C   UNL A   1      45.950  28.151  31.412  1.00  0.00     0.049 A 
ATOM     39  H   UNL A   1      46.114  30.116  30.664  1.00  0.00     0.167 HD
ATOM     40  C   UNL A   1      43.608  28.867  31.795  1.00  0.00     0.074 A 
ATOM     41  C   UNL A   1      43.490  30.080  31.001  1.00  0.00     0.031 C 
ATOM     42  C   UNL A   1      44.683  28.084  32.102  1.00  0.00     0.037 A 
BRANCH  29  43
ATOM     43  C   UNL A   1      46.957  30.493  27.777  1.00  0.00     0.064 A 
ATOM     44  C   UNL A   1      45.917  31.420  27.558  1.00  0.00     0.173 A 
ATOM     45  C   UNL A   1      48.239  30.896  27.355  1.00  0.00     0.173 A 
ATOM     46  F   UNL A   1      44.650  31.110  27.873  1.00  0.00    -0.203 F 
ATOM     47  C   UNL A   1      46.145  32.655  26.944  1.00  0.00     0.198 A 
ATOM     48  C   UNL A   1      48.472  32.148  26.782  1.00  0.00     0.198 A 
ATOM     49  F   UNL A   1      49.281  30.055  27.399  1.00  0.00    -0.203 F 
ATOM     50  F   UNL A   1      45.114  33.468  26.676  1.00  0.00    -0.200 F 
ATOM     51  C   UNL A   1      47.423  33.019  26.560  1.00  0.00     0.200 A 
ATOM     52  F   UNL A   1      49.710  32.475  26.388  1.00  0.00    -0.200 F 
ATOM     53  F   UNL A   1      47.638  34.186  25.939  1.00  0.00    -0.200 F 
ENDBRANCH  29  43
BRANCH  30  54
ATOM     54  C   UNL A   1      39.095  29.062  30.364  1.00  0.00     0.064 A 
ATOM     55  C   UNL A   1      38.386  29.192  31.562  1.00  0.00     0.173 A 
ATOM     56  C   UNL A   1      38.547  29.695  29.227  1.00  0.00     0.173 A 
ATOM     57  F   UNL A   1      38.874  28.670  32.696  1.00  0.00    -0.203 F 
ATOM     58  C   UNL A   1      37.186  29.908  31.617  1.00  0.00     0.198 A 
ATOM     59  C   UNL A   1      37.344  30.390  29.279  1.00  0.00     0.198 A 
ATOM     60  F   UNL A   1      39.211  29.715  28.061  1.00  0.00    -0.203 F 
ATOM     61  F   UNL A   1      36.552  30.054  32.787  1.00  0.00    -0.200 F 
ATOM     62  C   UNL A   1      36.666  30.502  30.477  1.00  0.00     0.200 A 
ATOM     63  F   UNL A   1      36.873  30.987  28.174  1.00  0.00    -0.200 F 
ATOM     64  F   UNL A   1      35.534  31.216  30.539  1.00  0.00    -0.200 F 
ENDBRANCH  30  54
BRANCH  42  65
ATOM     65  C   UNL A   1      44.433  26.874  32.949  1.00  0.00     0.064 A 
ATOM     66  C   UNL A   1      44.249  26.941  34.338  1.00  0.00     0.173 A 
ATOM     67  C   UNL A   1      44.245  25.635  32.321  1.00  0.00     0.173 A 
ATOM     68  F   UNL A   1      44.312  28.116  34.983  1.00  0.00    -0.203 F 
ATOM     69  C   UNL A   1      43.937  25.801  35.075  1.00  0.00     0.198 A 
ATOM     70  C   UNL A   1      43.906  24.503  33.058  1.00  0.00     0.198 A 
ATOM     71  F   UNL A   1      44.343  25.534  30.987  1.00  0.00    -0.203 F 
ATOM     72  F   UNL A   1      43.768  25.884  36.403  1.00  0.00    -0.200 F 
ATOM     73  C   UNL A   1      43.763  24.584  34.433  1.00  0.00     0.200 A 
ATOM     74  F   UNL A   1      43.688  23.339  32.430  1.00  0.00    -0.200 F 
ATOM     75  F   UNL A   1      43.428  23.494  35.139  1.00  0.00    -0.200 F 
ENDBRANCH  42  65
ENDBRANCH  16  17
ENDBRANCH   9  11
ENDBRANCH   8   9
ENDBRANCH   7   8
ENDBRANCH   6   7
ENDBRANCH   5   6
ENDBRANCH   4   5
ENDBRANCH   3   4
ENDBRANCH   2   3
ENDBRANCH   1   2
BRANCH   1  76
ATOM     76  C   UNL A   1      36.328  22.562  23.896  1.00  0.00     0.188 C 
BRANCH  76  77
ATOM     77  O   UNL A   1      35.463  23.007  22.850  1.00  0.00    -0.376 OA
BRANCH  77  78
ATOM     78  C   UNL A   1      34.658  24.150  23.045  1.00  0.00     0.202 C 
BRANCH  78  79
ATOM     79  C   UNL A   1      33.340  24.211  22.253  1.00  0.00     0.261 C 
BRANCH  79  80
ATOM     80  O   UNL A   1      32.255  25.085  22.614  1.00  0.00    -0.459 OA
BRANCH  80  81
ATOM     81  C   UNL A   1      32.020  26.176  21.871  1.00  0.00     0.349 C 
ATOM     82  O   UNL A   1      31.372  26.237  20.810  1.00  0.00    -0.245 OA
BRANCH  81  83
ATOM     83  C   UNL A   1      32.619  27.342  22.403  1.00  0.00     0.133 A 
ATOM     84  S   UNL A   1      34.205  27.749  21.910  1.00  0.00    -0.136 S 
ATOM     85  C   UNL A   1      32.176  28.116  23.453  1.00  0.00     0.113 A 
ATOM     86  C   UNL A   1      34.339  28.940  23.128  1.00  0.00     0.067 A 
ATOM     87  C   UNL A   1      33.180  29.055  23.865  1.00  0.00     0.035 A 
BRANCH  85  88
ATOM     88  S   UNL A   1      30.616  28.025  24.221  1.00  0.00     0.263 S 
ATOM     89  O   UNL A   1      30.201  29.404  24.350  1.00  0.00    -0.201 OA
ATOM     90  O   UNL A   1      29.919  27.119  23.331  1.00  0.00    -0.201 OA
BRANCH  88  91
ATOM     91  N   UNL A   1      30.590  27.250  25.703  1.00  0.00    -0.280 N 
ATOM     92  H   UNL A   1      30.211  27.756  26.458  1.00  0.00     0.180 HD
BRANCH  91  93
ATOM     93  C   UNL A   1      31.061  25.924  25.993  1.00  0.00     0.049 A 
ATOM     94  C   UNL A   1      30.143  24.880  25.812  1.00  0.00     0.027 A 
ATOM     95  C   UNL A   1      32.393  25.586  26.175  1.00  0.00     0.027 A 
ATOM     96  C   UNL A   1      30.567  23.546  25.648  1.00  0.00     0.014 A 
ATOM     97  C   UNL A   1      32.814  24.260  25.970  1.00  0.00     0.014 A 
ATOM     98  C   UNL A   1      31.923  23.234  25.599  1.00  0.00     0.018 A 
BRANCH  98  99
ATOM     99  C   UNL A   1      32.519  21.968  25.099  1.00  0.00     0.145 A 
ATOM    100  N   UNL A   1      32.186  21.485  23.905  1.00  0.00    -0.228 NA
ATOM    101  N   UNL A   1      33.243  20.997  25.781  1.00  0.00    -0.266 N 
ATOM    102  C   UNL A   1      32.503  20.156  23.898  1.00  0.00     0.089 A 
ATOM    103  C   UNL A   1      33.146  19.804  25.071  1.00  0.00     0.074 A 
ATOM    104  C   UNL A   1      32.243  19.174  22.930  1.00  0.00     0.030 A 
ATOM    105  C   UNL A   1      33.550  18.487  25.346  1.00  0.00     0.029 A 
ATOM    106  C   UNL A   1      32.630  17.852  23.185  1.00  0.00     0.002 A 
ATOM    107  C   UNL A   1      33.272  17.516  24.377  1.00  0.00     0.002 A 
BRANCH 101 108
ATOM    108  C   UNL A   1      34.013  21.036  27.011  1.00  0.00     0.451 C 
ATOM    109  F   UNL A   1      35.212  21.655  26.949  1.00  0.00    -0.185 F 
ATOM    110  F   UNL A   1      33.323  21.615  28.033  1.00  0.00    -0.185 F 
ENDBRANCH 101 108
ENDBRANCH  98  99
ENDBRANCH  91  93
ENDBRANCH  88  91
ENDBRANCH  85  88
ENDBRANCH  81  83
ENDBRANCH  80  81
ENDBRANCH  79  80
ENDBRANCH  78  79
ENDBRANCH  77  78
ENDBRANCH  76  77
ENDBRANCH   1  76
TORSDOF 25
ENDMDL
MODEL 3
REMARK VINA RESULT:     -10.0      3.093      7.190
REMARK SMILES O=C(OCCOCCOCCOCCOC(=O)c1sccc1S(=O)(=O)Nc1ccc(-c2nc3ccccc3n2C(F)F)cc1)c1ccc(-c2c3nc(c(-c4c(F)c(F)c(F)c(F)c4F)c4ccc([nH]4)c(-c4c(F)c(F)c(F)c(F)c4F)c4nc(c(-c5c(F)c(F)c(F)c(F)c5F)c5ccc2[nH]5)C=C4)C=C3)cc1
REMARK SMILES IDX 10 1 9 2 8 3 7 4 6 5 5 6 4 7 3 8 2 9 1 10 45 11 46 12 107 13
REMARK SMILES IDX 47 14 106 15 48 16 49 17 50 18 100 19 51 20 105 21 99 22
REMARK SMILES IDX 101 23 52 24 104 25 98 26 97 27 53 29 85 30 65 31 84 32
REMARK SMILES IDX 66 33 69 34 83 35 102 36 67 37 68 38 82 40 103 41 70 42
REMARK SMILES IDX 54 43 55 44 63 45 56 46 57 47 61 48 64 49 58 50 59 51 62 52
REMARK SMILES IDX 60 53 86 54 87 55 95 56 88 57 89 58 93 59 96 60 90 61 91 62
REMARK SMILES IDX 94 63 92 64 71 65 72 66 80 67 73 68 74 69 78 70 81 71 75 72
REMARK SMILES IDX 76 73 79 74 77 75 11 76 12 77 13 78 14 79 15 80 16 81 17 82
REMARK SMILES IDX 18 83 19 84 22 85 20 86 21 87 23 88 24 89 25 90 26 91 27 93
REMARK SMILES IDX 28 94 44 95 29 96 43 97 30 98 31 99 32 100 39 101 33 102
REMARK SMILES IDX 38 103 34 104 37 105 35 106 36 107 40 108 41 109 42 110
REMARK H PARENT 101 28 69 39 26 92
REMARK Flexibility Score: inf
ROOT
ATOM      1  C   UNL A   1      34.427  22.235  27.265  1.00  0.00     0.188 C 
ENDROOT
BRANCH   1   2
ATOM      2  O   UNL A   1      35.285  21.618  26.322  1.00  0.00    -0.377 OA
BRANCH   2   3
ATOM      3  C   UNL A   1      36.379  22.361  25.804  1.00  0.00     0.188 C 
BRANCH   3   4
ATOM      4  C   UNL A   1      37.592  21.600  25.247  1.00  0.00     0.188 C 
BRANCH   4   5
ATOM      5  O   UNL A   1      38.811  21.754  25.971  1.00  0.00    -0.376 OA
BRANCH   5   6
ATOM      6  C   UNL A   1      39.659  20.634  26.125  1.00  0.00     0.202 C 
BRANCH   6   7
ATOM      7  C   UNL A   1      40.955  20.879  26.922  1.00  0.00     0.261 C 
BRANCH   7   8
ATOM      8  O   UNL A   1      42.184  21.094  26.196  1.00  0.00    -0.460 OA
BRANCH   8   9
ATOM      9  C   UNL A   1      42.688  22.282  25.765  1.00  0.00     0.338 C 
ATOM     10  O   UNL A   1      43.042  22.450  24.604  1.00  0.00    -0.246 OA
BRANCH   9  11
ATOM     11  C   UNL A   1      43.005  23.315  26.762  1.00  0.00     0.060 A 
ATOM     12  C   UNL A   1      42.063  24.273  27.132  1.00  0.00     0.016 A 
ATOM     13  C   UNL A   1      44.276  23.282  27.363  1.00  0.00     0.016 A 
ATOM     14  C   UNL A   1      42.367  25.161  28.151  1.00  0.00     0.010 A 
ATOM     15  C   UNL A   1      44.581  24.171  28.389  1.00  0.00     0.010 A 
ATOM     16  C   UNL A   1      43.635  25.134  28.755  1.00  0.00    -0.014 A 
BRANCH  16  17
ATOM     17  C   UNL A   1      44.013  26.357  29.454  1.00  0.00     0.031 A 
ATOM     18  C   UNL A   1      44.056  26.457  30.935  1.00  0.00     0.074 A 
ATOM     19  C   UNL A   1      44.095  27.482  28.718  1.00  0.00     0.049 A 
ATOM     20  N   UNL A   1      43.225  27.090  31.706  1.00  0.00    -0.248 NA
ATOM     21  C   UNL A   1      45.193  25.857  31.642  1.00  0.00     0.031 C 
ATOM     22  C   UNL A   1      44.277  27.589  27.266  1.00  0.00     0.029 A 
ATOM     23  N   UNL A   1      44.046  28.779  29.137  1.00  0.00    -0.354 N 
ATOM     24  C   UNL A   1      43.808  27.117  32.970  1.00  0.00     0.074 A 
ATOM     25  C   UNL A   1      44.996  26.301  32.888  1.00  0.00     0.031 C 
ATOM     26  C   UNL A   1      44.482  28.879  26.940  1.00  0.00     0.029 A 
ATOM     27  C   UNL A   1      44.310  29.688  28.133  1.00  0.00     0.049 A 
ATOM     28  H   UNL A   1      43.842  29.042  30.063  1.00  0.00     0.167 HD
ATOM     29  C   UNL A   1      43.360  27.933  33.965  1.00  0.00     0.037 A 
ATOM     30  C   UNL A   1      44.417  31.025  28.245  1.00  0.00     0.037 A 
ATOM     31  C   UNL A   1      42.030  28.419  33.734  1.00  0.00     0.049 A 
ATOM     32  C   UNL A   1      43.651  31.469  29.428  1.00  0.00     0.074 A 
ATOM     33  C   UNL A   1      40.784  27.841  33.597  1.00  0.00     0.029 A 
ATOM     34  N   UNL A   1      41.864  29.736  33.392  1.00  0.00    -0.354 N 
ATOM     35  N   UNL A   1      42.349  31.464  29.510  1.00  0.00    -0.248 NA
ATOM     36  C   UNL A   1      44.353  31.662  30.688  1.00  0.00     0.031 C 
ATOM     37  C   UNL A   1      40.033  28.731  32.776  1.00  0.00     0.029 A 
ATOM     38  C   UNL A   1      40.882  29.786  32.437  1.00  0.00     0.049 A 
ATOM     39  H   UNL A   1      42.358  30.502  33.762  1.00  0.00     0.167 HD
ATOM     40  C   UNL A   1      42.079  31.272  30.855  1.00  0.00     0.074 A 
ATOM     41  C   UNL A   1      43.331  31.557  31.539  1.00  0.00     0.031 C 
ATOM     42  C   UNL A   1      40.949  30.624  31.263  1.00  0.00     0.037 A 
BRANCH  29  43
ATOM     43  C   UNL A   1      44.221  28.497  35.064  1.00  0.00     0.064 A 
ATOM     44  C   UNL A   1      45.272  29.386  34.759  1.00  0.00     0.173 A 
ATOM     45  C   UNL A   1      44.216  27.976  36.373  1.00  0.00     0.173 A 
ATOM     46  F   UNL A   1      45.399  29.894  33.524  1.00  0.00    -0.203 F 
ATOM     47  C   UNL A   1      46.256  29.715  35.696  1.00  0.00     0.198 A 
ATOM     48  C   UNL A   1      45.175  28.339  37.320  1.00  0.00     0.198 A 
ATOM     49  F   UNL A   1      43.340  27.030  36.740  1.00  0.00    -0.203 F 
ATOM     50  F   UNL A   1      47.285  30.494  35.337  1.00  0.00    -0.200 F 
ATOM     51  C   UNL A   1      46.205  29.194  36.977  1.00  0.00     0.200 A 
ATOM     52  F   UNL A   1      45.129  27.804  38.548  1.00  0.00    -0.200 F 
ATOM     53  F   UNL A   1      47.166  29.479  37.864  1.00  0.00    -0.200 F 
ENDBRANCH  29  43
BRANCH  30  54
ATOM     54  C   UNL A   1      45.322  31.877  27.454  1.00  0.00     0.064 A 
ATOM     55  C   UNL A   1      44.840  32.847  26.570  1.00  0.00     0.173 A 
ATOM     56  C   UNL A   1      46.711  31.877  27.706  1.00  0.00     0.173 A 
ATOM     57  F   UNL A   1      43.526  32.947  26.328  1.00  0.00    -0.203 F 
ATOM     58  C   UNL A   1      45.705  33.762  25.962  1.00  0.00     0.198 A 
ATOM     59  C   UNL A   1      47.572  32.774  27.085  1.00  0.00     0.198 A 
ATOM     60  F   UNL A   1      47.247  31.053  28.620  1.00  0.00    -0.203 F 
ATOM     61  F   UNL A   1      45.210  34.709  25.155  1.00  0.00    -0.200 F 
ATOM     62  C   UNL A   1      47.067  33.723  26.217  1.00  0.00     0.200 A 
ATOM     63  F   UNL A   1      48.882  32.745  27.370  1.00  0.00    -0.200 F 
ATOM     64  F   UNL A   1      47.889  34.623  25.659  1.00  0.00    -0.200 F 
ENDBRANCH  30  54
BRANCH  42  65
ATOM     65  C   UNL A   1      39.834  30.497  30.271  1.00  0.00     0.064 A 
ATOM     66  C   UNL A   1      38.837  31.472  30.115  1.00  0.00     0.173 A 
ATOM     67  C   UNL A   1      39.850  29.425  29.369  1.00  0.00     0.173 A 
ATOM     68  F   UNL A   1      38.830  32.574  30.880  1.00  0.00    -0.203 F 
ATOM     69  C   UNL A   1      37.867  31.351  29.124  1.00  0.00     0.198 A 
ATOM     70  C   UNL A   1      38.894  29.322  28.361  1.00  0.00     0.198 A 
ATOM     71  F   UNL A   1      40.823  28.503  29.434  1.00  0.00    -0.203 F 
ATOM     72  F   UNL A   1      36.919  32.292  28.992  1.00  0.00    -0.200 F 
ATOM     73  C   UNL A   1      37.898  30.278  28.246  1.00  0.00     0.200 A 
ATOM     74  F   UNL A   1      38.956  28.311  27.483  1.00  0.00    -0.200 F 
ATOM     75  F   UNL A   1      36.983  30.181  27.270  1.00  0.00    -0.200 F 
ENDBRANCH  42  65
ENDBRANCH  16  17
ENDBRANCH   9  11
ENDBRANCH   8   9
ENDBRANCH   7   8
ENDBRANCH   6   7
ENDBRANCH   5   6
ENDBRANCH   4   5
ENDBRANCH   3   4
ENDBRANCH   2   3
ENDBRANCH   1   2
BRANCH   1  76
ATOM     76  C   UNL A   1      33.505  23.308  26.652  1.00  0.00     0.188 C 
BRANCH  76  77
ATOM     77  O   UNL A   1      32.225  23.540  27.244  1.00  0.00    -0.376 OA
BRANCH  77  78
ATOM     78  C   UNL A   1      31.133  23.903  26.427  1.00  0.00     0.202 C 
BRANCH  78  79
ATOM     79  C   UNL A   1      30.825  25.407  26.312  1.00  0.00     0.261 C 
BRANCH  79  80
ATOM     80  O   UNL A   1      31.560  26.410  27.036  1.00  0.00    -0.459 OA
BRANCH  80  81
ATOM     81  C   UNL A   1      32.577  27.039  26.430  1.00  0.00     0.349 C 
ATOM     82  O   UNL A   1      33.717  26.591  26.214  1.00  0.00    -0.245 OA
BRANCH  81  83
ATOM     83  C   UNL A   1      32.248  28.358  26.035  1.00  0.00     0.133 A 
ATOM     84  S   UNL A   1      32.140  29.571  27.237  1.00  0.00    -0.136 S 
ATOM     85  C   UNL A   1      31.786  28.784  24.809  1.00  0.00     0.113 A 
ATOM     86  C   UNL A   1      31.428  30.672  26.140  1.00  0.00     0.067 A 
ATOM     87  C   UNL A   1      31.319  30.139  24.874  1.00  0.00     0.035 A 
BRANCH  85  88
ATOM     88  S   UNL A   1      31.751  27.856  23.336  1.00  0.00     0.263 S 
ATOM     89  O   UNL A   1      30.428  27.274  23.313  1.00  0.00    -0.201 OA
ATOM     90  O   UNL A   1      32.140  28.859  22.365  1.00  0.00    -0.201 OA
BRANCH  88  91
ATOM     91  N   UNL A   1      32.929  26.675  23.204  1.00  0.00    -0.280 N 
ATOM     92  H   UNL A   1      33.854  26.953  23.394  1.00  0.00     0.180 HD
BRANCH  91  93
ATOM     93  C   UNL A   1      32.734  25.299  22.843  1.00  0.00     0.049 A 
ATOM     94  C   UNL A   1      33.875  24.483  22.848  1.00  0.00     0.027 A 
ATOM     95  C   UNL A   1      31.499  24.677  22.752  1.00  0.00     0.027 A 
ATOM     96  C   UNL A   1      33.778  23.080  22.931  1.00  0.00     0.014 A 
ATOM     97  C   UNL A   1      31.407  23.278  22.875  1.00  0.00     0.014 A 
ATOM     98  C   UNL A   1      32.538  22.462  23.074  1.00  0.00     0.018 A 
BRANCH  98  99
ATOM     99  C   UNL A   1      32.294  21.064  23.511  1.00  0.00     0.145 A 
ATOM    100  N   UNL A   1      32.436  20.716  24.788  1.00  0.00    -0.228 NA
ATOM    101  N   UNL A   1      32.154  19.907  22.754  1.00  0.00    -0.266 N 
ATOM    102  C   UNL A   1      32.598  19.361  24.828  1.00  0.00     0.089 A 
ATOM    103  C   UNL A   1      32.454  18.817  23.565  1.00  0.00     0.074 A 
ATOM    104  C   UNL A   1      32.904  18.523  25.911  1.00  0.00     0.030 A 
ATOM    105  C   UNL A   1      32.609  17.444  23.310  1.00  0.00     0.029 A 
ATOM    106  C   UNL A   1      33.071  17.151  25.680  1.00  0.00     0.002 A 
ATOM    107  C   UNL A   1      32.928  16.623  24.397  1.00  0.00     0.002 A 
BRANCH 101 108
ATOM    108  C   UNL A   1      31.777  19.686  21.369  1.00  0.00     0.451 C 
ATOM    109  F   UNL A   1      31.800  20.767  20.560  1.00  0.00    -0.185 F 
ATOM    110  F   UNL A   1      32.544  18.732  20.772  1.00  0.00    -0.185 F 
ENDBRANCH 101 108
ENDBRANCH  98  99
ENDBRANCH  91  93
ENDBRANCH  88  91
ENDBRANCH  85  88
ENDBRANCH  81  83
ENDBRANCH  80  81
ENDBRANCH  79  80
ENDBRANCH  78  79
ENDBRANCH  77  78
ENDBRANCH  76  77
ENDBRANCH   1  76
TORSDOF 25
ENDMDL
