MODEL 1
REMARK VINA RESULT:      -9.8      0.000      0.000
REMARK SMILES O=C(C[C@@H]1C=CS(=O)(=O)C1)OCCOCCOCCOCCOC(=O)c1ccc(-c2c3nc(c(-c4c(F)c(F)c(F)c(F)c4F)c4ccc([nH]4)c(-c4c(F)c(F)c(F)c(F)c4F)c4nc(c(-c5c(F)c(F)c(F)c(F)c5F)c5ccc2[nH]5)C=C4)C=C3)cc1
REMARK SMILES IDX 18 1 17 2 16 3 15 4 14 5 13 6 12 7 11 8 2 9 1 10 3 11 4 12
REMARK SMILES IDX 5 13 10 14 6 15 7 16 8 17 9 18 19 19 20 20 21 21 22 22 23 23
REMARK SMILES IDX 24 24 25 25 26 26 27 27 88 28 28 29 87 30 29 31 30 32 31 33
REMARK SMILES IDX 81 34 32 35 86 36 80 37 82 38 33 39 85 40 79 41 78 42 34 44
REMARK SMILES IDX 66 45 46 46 65 47 47 48 50 49 64 50 83 51 48 52 49 53 63 55
REMARK SMILES IDX 84 56 51 57 35 58 36 59 44 60 37 61 38 62 42 63 45 64 39 65
REMARK SMILES IDX 40 66 43 67 41 68 67 69 68 70 76 71 69 72 70 73 74 74 77 75
REMARK SMILES IDX 71 76 72 77 75 78 73 79 52 80 53 81 61 82 54 83 55 84 59 85
REMARK SMILES IDX 62 86 56 87 57 88 60 89 58 90
REMARK H PARENT 82 43 50 54
REMARK Flexibility Score: inf
ROOT
ATOM      1  C   UNL A   1      36.345  23.406  25.991  1.00  0.00     0.188 C 
ENDROOT
BRANCH   1   2
ATOM      2  O   UNL A   1      35.032  23.496  26.516  1.00  0.00    -0.377 OA
BRANCH   2   3
ATOM      3  C   UNL A   1      34.443  22.248  26.858  1.00  0.00     0.188 C 
BRANCH   3   4
ATOM      4  C   UNL A   1      33.275  22.297  27.850  1.00  0.00     0.188 C 
BRANCH   4   5
ATOM      5  O   UNL A   1      32.295  23.297  27.635  1.00  0.00    -0.376 OA
BRANCH   5   6
ATOM      6  C   UNL A   1      31.139  23.222  26.832  1.00  0.00     0.202 C 
BRANCH   6   7
ATOM      7  C   UNL A   1      31.004  22.252  25.667  1.00  0.00     0.261 C 
BRANCH   7   8
ATOM      8  O   UNL A   1      31.767  22.526  24.490  1.00  0.00    -0.463 OA
BRANCH   8   9
ATOM      9  C   UNL A   1      32.651  21.711  23.891  1.00  0.00     0.306 C 
ATOM     10  O   UNL A   1      33.641  22.194  23.350  1.00  0.00    -0.252 OA
BRANCH   9  11
ATOM     11  C   UNL A   1      32.370  20.229  23.804  1.00  0.00     0.131 C 
BRANCH  11  12
ATOM     12  C   UNL A   1      32.903  19.349  24.930  1.00  0.00     0.039 C 
ATOM     13  C   UNL A   1      34.395  19.186  24.865  1.00  0.00    -0.010 C 
ATOM     14  C   UNL A   1      32.310  17.941  24.792  1.00  0.00     0.150 C 
ATOM     15  C   UNL A   1      34.824  18.079  24.246  1.00  0.00     0.102 C 
ATOM     16  S   UNL A   1      33.497  17.071  23.761  1.00  0.00     0.171 S 
ATOM     17  O   UNL A   1      33.675  15.734  24.288  1.00  0.00    -0.224 OA
ATOM     18  O   UNL A   1      33.170  17.320  22.376  1.00  0.00    -0.224 OA
ENDBRANCH  11  12
ENDBRANCH   9  11
ENDBRANCH   8   9
ENDBRANCH   7   8
ENDBRANCH   6   7
ENDBRANCH   5   6
ENDBRANCH   4   5
ENDBRANCH   3   4
ENDBRANCH   2   3
ENDBRANCH   1   2
BRANCH   1  19
ATOM     19  C   UNL A   1      36.635  22.088  25.241  1.00  0.00     0.188 C 
BRANCH  19  20
ATOM     20  O   UNL A   1      37.960  21.703  24.935  1.00  0.00    -0.376 OA
BRANCH  20  21
ATOM     21  C   UNL A   1      38.983  21.658  25.914  1.00  0.00     0.202 C 
BRANCH  21  22
ATOM     22  C   UNL A   1      39.615  20.379  26.500  1.00  0.00     0.261 C 
BRANCH  22  23
ATOM     23  O   UNL A   1      40.450  19.587  25.655  1.00  0.00    -0.460 OA
BRANCH  23  24
ATOM     24  C   UNL A   1      41.703  19.368  26.103  1.00  0.00     0.338 C 
ATOM     25  O   UNL A   1      42.304  18.310  26.139  1.00  0.00    -0.246 OA
BRANCH  24  26
ATOM     26  C   UNL A   1      42.338  20.685  26.330  1.00  0.00     0.060 A 
ATOM     27  C   UNL A   1      42.552  21.086  27.657  1.00  0.00     0.016 A 
ATOM     28  C   UNL A   1      42.748  21.495  25.269  1.00  0.00     0.016 A 
ATOM     29  C   UNL A   1      43.148  22.310  27.927  1.00  0.00     0.010 A 
ATOM     30  C   UNL A   1      43.307  22.747  25.541  1.00  0.00     0.010 A 
ATOM     31  C   UNL A   1      43.472  23.171  26.872  1.00  0.00    -0.014 A 
BRANCH  31  32
ATOM     32  C   UNL A   1      43.746  24.590  27.194  1.00  0.00     0.031 A 
ATOM     33  C   UNL A   1      45.129  25.116  26.924  1.00  0.00     0.074 A 
ATOM     34  C   UNL A   1      42.771  25.411  27.618  1.00  0.00     0.049 A 
ATOM     35  N   UNL A   1      45.607  26.322  27.088  1.00  0.00    -0.248 NA
ATOM     36  C   UNL A   1      46.104  24.150  26.389  1.00  0.00     0.031 C 
ATOM     37  C   UNL A   1      41.383  25.022  27.860  1.00  0.00     0.029 A 
ATOM     38  N   UNL A   1      42.806  26.750  27.915  1.00  0.00    -0.354 N 
ATOM     39  C   UNL A   1      46.930  26.260  26.668  1.00  0.00     0.074 A 
ATOM     40  C   UNL A   1      47.193  24.892  26.283  1.00  0.00     0.031 C 
ATOM     41  C   UNL A   1      40.699  26.100  28.284  1.00  0.00     0.029 A 
ATOM     42  C   UNL A   1      41.606  27.244  28.366  1.00  0.00     0.049 A 
ATOM     43  H   UNL A   1      43.612  27.304  27.813  1.00  0.00     0.167 HD
ATOM     44  C   UNL A   1      47.839  27.259  26.598  1.00  0.00     0.037 A 
ATOM     45  C   UNL A   1      41.293  28.475  28.814  1.00  0.00     0.037 A 
ATOM     46  C   UNL A   1      47.576  28.617  26.995  1.00  0.00     0.049 A 
ATOM     47  C   UNL A   1      42.353  29.550  28.806  1.00  0.00     0.074 A 
ATOM     48  C   UNL A   1      48.433  29.703  26.976  1.00  0.00     0.029 A 
ATOM     49  N   UNL A   1      46.364  29.071  27.492  1.00  0.00    -0.354 N 
ATOM     50  N   UNL A   1      43.597  29.489  28.393  1.00  0.00    -0.248 NA
ATOM     51  C   UNL A   1      41.959  30.869  29.319  1.00  0.00     0.031 C 
ATOM     52  C   UNL A   1      47.755  30.802  27.511  1.00  0.00     0.029 A 
ATOM     53  C   UNL A   1      46.456  30.419  27.803  1.00  0.00     0.049 A 
ATOM     54  H   UNL A   1      45.557  28.519  27.606  1.00  0.00     0.167 HD
ATOM     55  C   UNL A   1      44.123  30.763  28.570  1.00  0.00     0.074 A 
ATOM     56  C   UNL A   1      43.052  31.583  29.098  1.00  0.00     0.031 C 
ATOM     57  C   UNL A   1      45.378  31.217  28.326  1.00  0.00     0.037 A 
BRANCH  44  58
ATOM     58  C   UNL A   1      49.210  26.918  26.090  1.00  0.00     0.064 A 
ATOM     59  C   UNL A   1      50.199  26.395  26.935  1.00  0.00     0.173 A 
ATOM     60  C   UNL A   1      49.521  27.070  24.731  1.00  0.00     0.173 A 
ATOM     61  F   UNL A   1      49.960  26.249  28.248  1.00  0.00    -0.203 F 
ATOM     62  C   UNL A   1      51.455  26.050  26.441  1.00  0.00     0.198 A 
ATOM     63  C   UNL A   1      50.765  26.695  24.234  1.00  0.00     0.198 A 
ATOM     64  F   UNL A   1      48.610  27.567  23.880  1.00  0.00    -0.203 F 
ATOM     65  F   UNL A   1      52.399  25.589  27.274  1.00  0.00    -0.200 F 
ATOM     66  C   UNL A   1      51.733  26.190  25.089  1.00  0.00     0.200 A 
ATOM     67  F   UNL A   1      51.027  26.819  22.926  1.00  0.00    -0.200 F 
ATOM     68  F   UNL A   1      52.935  25.842  24.611  1.00  0.00    -0.200 F 
ENDBRANCH  44  58
BRANCH  45  69
ATOM     69  C   UNL A   1      39.931  28.761  29.341  1.00  0.00     0.064 A 
ATOM     70  C   UNL A   1      39.616  28.572  30.695  1.00  0.00     0.173 A 
ATOM     71  C   UNL A   1      38.898  29.173  28.485  1.00  0.00     0.173 A 
ATOM     72  F   UNL A   1      40.560  28.155  31.551  1.00  0.00    -0.203 F 
ATOM     73  C   UNL A   1      38.314  28.749  31.164  1.00  0.00     0.198 A 
ATOM     74  C   UNL A   1      37.606  29.387  28.963  1.00  0.00     0.198 A 
ATOM     75  F   UNL A   1      39.142  29.370  27.182  1.00  0.00    -0.203 F 
ATOM     76  F   UNL A   1      38.028  28.494  32.448  1.00  0.00    -0.200 F 
ATOM     77  C   UNL A   1      37.312  29.160  30.298  1.00  0.00     0.200 A 
ATOM     78  F   UNL A   1      36.646  29.800  28.125  1.00  0.00    -0.200 F 
ATOM     79  F   UNL A   1      36.062  29.327  30.748  1.00  0.00    -0.200 F 
ENDBRANCH  45  69
BRANCH  57  80
ATOM     80  C   UNL A   1      45.646  32.673  28.596  1.00  0.00     0.064 A 
ATOM     81  C   UNL A   1      46.126  33.118  29.837  1.00  0.00     0.173 A 
ATOM     82  C   UNL A   1      45.427  33.633  27.596  1.00  0.00     0.173 A 
ATOM     83  F   UNL A   1      46.343  32.244  30.831  1.00  0.00    -0.203 F 
ATOM     84  C   UNL A   1      46.329  34.474  30.081  1.00  0.00     0.198 A 
ATOM     85  C   UNL A   1      45.669  34.983  27.831  1.00  0.00     0.198 A 
ATOM     86  F   UNL A   1      44.981  33.262  26.387  1.00  0.00    -0.203 F 
ATOM     87  F   UNL A   1      46.716  34.882  31.298  1.00  0.00    -0.200 F 
ATOM     88  C   UNL A   1      46.105  35.405  29.078  1.00  0.00     0.200 A 
ATOM     89  F   UNL A   1      45.470  35.879  26.854  1.00  0.00    -0.200 F 
ATOM     90  F   UNL A   1      46.298  36.710  29.317  1.00  0.00    -0.200 F 
ENDBRANCH  57  80
ENDBRANCH  31  32
ENDBRANCH  24  26
ENDBRANCH  23  24
ENDBRANCH  22  23
ENDBRANCH  21  22
ENDBRANCH  20  21
ENDBRANCH  19  20
ENDBRANCH   1  19
TORSDOF 21
ENDMDL
MODEL 2
REMARK VINA RESULT:      -9.7      2.040      3.727
REMARK SMILES O=C(C[C@@H]1C=CS(=O)(=O)C1)OCCOCCOCCOCCOC(=O)c1ccc(-c2c3nc(c(-c4c(F)c(F)c(F)c(F)c4F)c4ccc([nH]4)c(-c4c(F)c(F)c(F)c(F)c4F)c4nc(c(-c5c(F)c(F)c(F)c(F)c5F)c5ccc2[nH]5)C=C4)C=C3)cc1
REMARK SMILES IDX 18 1 17 2 16 3 15 4 14 5 13 6 12 7 11 8 2 9 1 10 3 11 4 12
REMARK SMILES IDX 5 13 10 14 6 15 7 16 8 17 9 18 19 19 20 20 21 21 22 22 23 23
REMARK SMILES IDX 24 24 25 25 26 26 27 27 88 28 28 29 87 30 29 31 30 32 31 33
REMARK SMILES IDX 81 34 32 35 86 36 80 37 82 38 33 39 85 40 79 41 78 42 34 44
REMARK SMILES IDX 66 45 46 46 65 47 47 48 50 49 64 50 83 51 48 52 49 53 63 55
REMARK SMILES IDX 84 56 51 57 35 58 36 59 44 60 37 61 38 62 42 63 45 64 39 65
REMARK SMILES IDX 40 66 43 67 41 68 67 69 68 70 76 71 69 72 70 73 74 74 77 75
REMARK SMILES IDX 71 76 72 77 75 78 73 79 52 80 53 81 61 82 54 83 55 84 59 85
REMARK SMILES IDX 62 86 56 87 57 88 60 89 58 90
REMARK H PARENT 82 43 50 54
REMARK Flexibility Score: inf
ROOT
ATOM      1  C   UNL A   1      35.833  22.276  25.826  1.00  0.00     0.188 C 
ENDROOT
BRANCH   1   2
ATOM      2  O   UNL A   1      34.724  21.401  25.937  1.00  0.00    -0.377 OA
BRANCH   2   3
ATOM      3  C   UNL A   1      34.698  20.352  24.977  1.00  0.00     0.188 C 
BRANCH   3   4
ATOM      4  C   UNL A   1      33.393  19.552  24.881  1.00  0.00     0.188 C 
BRANCH   4   5
ATOM      5  O   UNL A   1      32.296  20.192  24.253  1.00  0.00    -0.376 OA
BRANCH   5   6
ATOM      6  C   UNL A   1      32.269  21.452  23.623  1.00  0.00     0.202 C 
BRANCH   6   7
ATOM      7  C   UNL A   1      31.857  22.728  24.343  1.00  0.00     0.261 C 
BRANCH   7   8
ATOM      8  O   UNL A   1      31.164  22.590  25.585  1.00  0.00    -0.463 OA
BRANCH   8   9
ATOM      9  C   UNL A   1      30.877  23.564  26.465  1.00  0.00     0.306 C 
ATOM     10  O   UNL A   1      30.002  23.375  27.304  1.00  0.00    -0.252 OA
BRANCH   9  11
ATOM     11  C   UNL A   1      31.558  24.907  26.347  1.00  0.00     0.131 C 
BRANCH  11  12
ATOM     12  C   UNL A   1      30.666  26.128  26.146  1.00  0.00     0.039 C 
ATOM     13  C   UNL A   1      29.842  26.029  24.894  1.00  0.00    -0.010 C 
ATOM     14  C   UNL A   1      31.547  27.373  25.984  1.00  0.00     0.150 C 
ATOM     15  C   UNL A   1      30.356  26.641  23.819  1.00  0.00     0.102 C 
ATOM     16  S   UNL A   1      31.825  27.479  24.212  1.00  0.00     0.171 S 
ATOM     17  O   UNL A   1      31.723  28.866  23.809  1.00  0.00    -0.224 OA
ATOM     18  O   UNL A   1      32.965  26.657  23.877  1.00  0.00    -0.224 OA
ENDBRANCH  11  12
ENDBRANCH   9  11
ENDBRANCH   8   9
ENDBRANCH   7   8
ENDBRANCH   6   7
ENDBRANCH   5   6
ENDBRANCH   4   5
ENDBRANCH   3   4
ENDBRANCH   2   3
ENDBRANCH   1   2
BRANCH   1  19
ATOM     19  C   UNL A   1      36.832  21.889  24.715  1.00  0.00     0.188 C 
BRANCH  19  20
ATOM     20  O   UNL A   1      38.104  21.360  25.034  1.00  0.00    -0.376 OA
BRANCH  20  21
ATOM     21  C   UNL A   1      38.363  19.967  25.056  1.00  0.00     0.202 C 
BRANCH  21  22
ATOM     22  C   UNL A   1      39.539  19.279  25.778  1.00  0.00     0.261 C 
BRANCH  22  23
ATOM     23  O   UNL A   1      40.869  19.632  25.396  1.00  0.00    -0.460 OA
BRANCH  23  24
ATOM     24  C   UNL A   1      41.765  19.722  26.399  1.00  0.00     0.338 C 
ATOM     25  O   UNL A   1      42.551  18.870  26.771  1.00  0.00    -0.246 OA
BRANCH  24  26
ATOM     26  C   UNL A   1      41.813  21.134  26.838  1.00  0.00     0.060 A 
ATOM     27  C   UNL A   1      41.567  22.125  25.876  1.00  0.00     0.016 A 
ATOM     28  C   UNL A   1      42.057  21.481  28.169  1.00  0.00     0.016 A 
ATOM     29  C   UNL A   1      41.593  23.466  26.235  1.00  0.00     0.010 A 
ATOM     30  C   UNL A   1      42.129  22.832  28.520  1.00  0.00     0.010 A 
ATOM     31  C   UNL A   1      41.934  23.826  27.544  1.00  0.00    -0.014 A 
BRANCH  31  32
ATOM     32  C   UNL A   1      42.321  25.232  27.798  1.00  0.00     0.031 A 
ATOM     33  C   UNL A   1      43.675  25.684  27.323  1.00  0.00     0.074 A 
ATOM     34  C   UNL A   1      41.459  26.107  28.343  1.00  0.00     0.049 A 
ATOM     35  N   UNL A   1      44.231  26.865  27.395  1.00  0.00    -0.248 NA
ATOM     36  C   UNL A   1      44.513  24.663  26.671  1.00  0.00     0.031 C 
ATOM     37  C   UNL A   1      40.104  25.793  28.789  1.00  0.00     0.029 A 
ATOM     38  N   UNL A   1      41.603  27.445  28.608  1.00  0.00    -0.354 N 
ATOM     39  C   UNL A   1      45.475  26.731  26.790  1.00  0.00     0.074 A 
ATOM     40  C   UNL A   1      45.611  25.347  26.395  1.00  0.00     0.031 C 
ATOM     41  C   UNL A   1      39.542  26.909  29.288  1.00  0.00     0.029 A 
ATOM     42  C   UNL A   1      40.508  28.005  29.218  1.00  0.00     0.049 A 
ATOM     43  H   UNL A   1      42.413  27.956  28.381  1.00  0.00     0.167 HD
ATOM     44  C   UNL A   1      46.413  27.681  26.573  1.00  0.00     0.037 A 
ATOM     45  C   UNL A   1      40.324  29.255  29.685  1.00  0.00     0.037 A 
ATOM     46  C   UNL A   1      46.277  29.054  26.979  1.00  0.00     0.049 A 
ATOM     47  C   UNL A   1      41.423  30.274  29.505  1.00  0.00     0.074 A 
ATOM     48  C   UNL A   1      47.174  30.095  26.817  1.00  0.00     0.029 A 
ATOM     49  N   UNL A   1      45.173  29.575  27.636  1.00  0.00    -0.354 N 
ATOM     50  N   UNL A   1      42.590  30.145  28.919  1.00  0.00    -0.248 NA
ATOM     51  C   UNL A   1      41.173  31.617  30.045  1.00  0.00     0.031 C 
ATOM     52  C   UNL A   1      46.636  31.233  27.425  1.00  0.00     0.029 A 
ATOM     53  C   UNL A   1      45.375  30.920  27.907  1.00  0.00     0.049 A 
ATOM     54  H   UNL A   1      44.365  29.067  27.875  1.00  0.00     0.167 HD
ATOM     55  C   UNL A   1      43.198  31.392  28.996  1.00  0.00     0.074 A 
ATOM     56  C   UNL A   1      42.257  32.272  29.657  1.00  0.00     0.031 C 
ATOM     57  C   UNL A   1      44.425  31.778  28.566  1.00  0.00     0.037 A 
BRANCH  44  58
ATOM     58  C   UNL A   1      47.676  27.264  25.879  1.00  0.00     0.064 A 
ATOM     59  C   UNL A   1      47.823  27.372  24.488  1.00  0.00     0.173 A 
ATOM     60  C   UNL A   1      48.772  26.797  26.620  1.00  0.00     0.173 A 
ATOM     61  F   UNL A   1      46.799  27.793  23.731  1.00  0.00    -0.203 F 
ATOM     62  C   UNL A   1      49.015  27.013  23.864  1.00  0.00     0.198 A 
ATOM     63  C   UNL A   1      49.972  26.469  25.997  1.00  0.00     0.198 A 
ATOM     64  F   UNL A   1      48.684  26.673  27.954  1.00  0.00    -0.203 F 
ATOM     65  F   UNL A   1      49.120  27.087  22.529  1.00  0.00    -0.200 F 
ATOM     66  C   UNL A   1      50.092  26.572  24.619  1.00  0.00     0.200 A 
ATOM     67  F   UNL A   1      51.015  26.056  26.730  1.00  0.00    -0.200 F 
ATOM     68  F   UNL A   1      51.244  26.244  24.019  1.00  0.00    -0.200 F 
ENDBRANCH  44  58
BRANCH  45  69
ATOM     69  C   UNL A   1      39.068  29.616  30.397  1.00  0.00     0.064 A 
ATOM     70  C   UNL A   1      38.003  30.240  29.730  1.00  0.00     0.173 A 
ATOM     71  C   UNL A   1      38.931  29.396  31.776  1.00  0.00     0.173 A 
ATOM     72  F   UNL A   1      38.092  30.496  28.417  1.00  0.00    -0.203 F 
ATOM     73  C   UNL A   1      36.867  30.662  30.422  1.00  0.00     0.198 A 
ATOM     74  C   UNL A   1      37.779  29.784  32.459  1.00  0.00     0.198 A 
ATOM     75  F   UNL A   1      39.916  28.803  32.464  1.00  0.00    -0.203 F 
ATOM     76  F   UNL A   1      35.896  31.318  29.772  1.00  0.00    -0.200 F 
ATOM     77  C   UNL A   1      36.755  30.430  31.784  1.00  0.00     0.200 A 
ATOM     78  F   UNL A   1      37.669  29.543  33.772  1.00  0.00    -0.200 F 
ATOM     79  F   UNL A   1      35.666  30.839  32.448  1.00  0.00    -0.200 F 
ENDBRANCH  45  69
BRANCH  57  80
ATOM     80  C   UNL A   1      44.801  33.221  28.768  1.00  0.00     0.064 A 
ATOM     81  C   UNL A   1      45.474  33.655  29.921  1.00  0.00     0.173 A 
ATOM     82  C   UNL A   1      44.492  34.180  27.791  1.00  0.00     0.173 A 
ATOM     83  F   UNL A   1      45.784  32.781  30.891  1.00  0.00    -0.203 F 
ATOM     84  C   UNL A   1      45.776  35.001  30.110  1.00  0.00     0.198 A 
ATOM     85  C   UNL A   1      44.832  35.518  27.965  1.00  0.00     0.198 A 
ATOM     86  F   UNL A   1      43.861  33.819  26.664  1.00  0.00    -0.203 F 
ATOM     87  F   UNL A   1      46.351  35.402  31.252  1.00  0.00    -0.200 F 
ATOM     88  C   UNL A   1      45.460  35.930  29.130  1.00  0.00     0.200 A 
ATOM     89  F   UNL A   1      44.542  36.412  27.009  1.00  0.00    -0.200 F 
ATOM     90  F   UNL A   1      45.749  37.226  29.315  1.00  0.00    -0.200 F 
ENDBRANCH  57  80
ENDBRANCH  31  32
ENDBRANCH  24  26
ENDBRANCH  23  24
ENDBRANCH  22  23
ENDBRANCH  21  22
ENDBRANCH  20  21
ENDBRANCH  19  20
ENDBRANCH   1  19
TORSDOF 21
ENDMDL
MODEL 3
REMARK VINA RESULT:      -9.3      2.280      3.701
REMARK SMILES O=C(C[C@@H]1C=CS(=O)(=O)C1)OCCOCCOCCOCCOC(=O)c1ccc(-c2c3nc(c(-c4c(F)c(F)c(F)c(F)c4F)c4ccc([nH]4)c(-c4c(F)c(F)c(F)c(F)c4F)c4nc(c(-c5c(F)c(F)c(F)c(F)c5F)c5ccc2[nH]5)C=C4)C=C3)cc1
REMARK SMILES IDX 18 1 17 2 16 3 15 4 14 5 13 6 12 7 11 8 2 9 1 10 3 11 4 12
REMARK SMILES IDX 5 13 10 14 6 15 7 16 8 17 9 18 19 19 20 20 21 21 22 22 23 23
REMARK SMILES IDX 24 24 25 25 26 26 27 27 88 28 28 29 87 30 29 31 30 32 31 33
REMARK SMILES IDX 81 34 32 35 86 36 80 37 82 38 33 39 85 40 79 41 78 42 34 44
REMARK SMILES IDX 66 45 46 46 65 47 47 48 50 49 64 50 83 51 48 52 49 53 63 55
REMARK SMILES IDX 84 56 51 57 35 58 36 59 44 60 37 61 38 62 42 63 45 64 39 65
REMARK SMILES IDX 40 66 43 67 41 68 67 69 68 70 76 71 69 72 70 73 74 74 77 75
REMARK SMILES IDX 71 76 72 77 75 78 73 79 52 80 53 81 61 82 54 83 55 84 59 85
REMARK SMILES IDX 62 86 56 87 57 88 60 89 58 90
REMARK H PARENT 82 43 50 54
REMARK Flexibility Score: inf
ROOT
ATOM      1  C   UNL A   1      36.959  23.533  25.675  1.00  0.00     0.188 C 
ENDROOT
BRANCH   1   2
ATOM      2  O   UNL A   1      35.760  24.279  25.564  1.00  0.00    -0.377 OA
BRANCH   2   3
ATOM      3  C   UNL A   1      34.715  23.622  24.858  1.00  0.00     0.188 C 
BRANCH   3   4
ATOM      4  C   UNL A   1      34.311  24.238  23.514  1.00  0.00     0.188 C 
BRANCH   4   5
ATOM      5  O   UNL A   1      33.037  23.884  23.005  1.00  0.00    -0.376 OA
BRANCH   5   6
ATOM      6  C   UNL A   1      32.008  24.741  22.563  1.00  0.00     0.202 C 
BRANCH   6   7
ATOM      7  C   UNL A   1      32.265  25.947  21.671  1.00  0.00     0.261 C 
BRANCH   7   8
ATOM      8  O   UNL A   1      32.410  27.219  22.306  1.00  0.00    -0.463 OA
BRANCH   8   9
ATOM      9  C   UNL A   1      33.557  27.868  22.565  1.00  0.00     0.306 C 
ATOM     10  O   UNL A   1      34.266  28.230  21.631  1.00  0.00    -0.252 OA
BRANCH   9  11
ATOM     11  C   UNL A   1      34.009  28.054  23.995  1.00  0.00     0.131 C 
BRANCH  11  12
ATOM     12  C   UNL A   1      33.218  29.035  24.855  1.00  0.00     0.039 C 
ATOM     13  C   UNL A   1      33.893  29.311  26.168  1.00  0.00    -0.010 C 
ATOM     14  C   UNL A   1      31.854  28.420  25.193  1.00  0.00     0.150 C 
ATOM     15  C   UNL A   1      33.463  28.574  27.200  1.00  0.00     0.102 C 
ATOM     16  S   UNL A   1      32.145  27.545  26.735  1.00  0.00     0.171 S 
ATOM     17  O   UNL A   1      31.014  27.765  27.614  1.00  0.00    -0.224 OA
ATOM     18  O   UNL A   1      32.637  26.222  26.426  1.00  0.00    -0.224 OA
ENDBRANCH  11  12
ENDBRANCH   9  11
ENDBRANCH   8   9
ENDBRANCH   7   8
ENDBRANCH   6   7
ENDBRANCH   5   6
ENDBRANCH   4   5
ENDBRANCH   3   4
ENDBRANCH   2   3
ENDBRANCH   1   2
BRANCH   1  19
ATOM     19  C   UNL A   1      36.828  22.061  25.231  1.00  0.00     0.188 C 
BRANCH  19  20
ATOM     20  O   UNL A   1      37.972  21.248  25.061  1.00  0.00    -0.376 OA
BRANCH  20  21
ATOM     21  C   UNL A   1      39.159  21.442  25.811  1.00  0.00     0.202 C 
BRANCH  21  22
ATOM     22  C   UNL A   1      39.989  20.333  26.489  1.00  0.00     0.261 C 
BRANCH  22  23
ATOM     23  O   UNL A   1      40.728  19.437  25.659  1.00  0.00    -0.460 OA
BRANCH  23  24
ATOM     24  C   UNL A   1      42.013  19.233  26.011  1.00  0.00     0.338 C 
ATOM     25  O   UNL A   1      42.642  18.192  25.953  1.00  0.00    -0.246 OA
BRANCH  24  26
ATOM     26  C   UNL A   1      42.628  20.554  26.264  1.00  0.00     0.060 A 
ATOM     27  C   UNL A   1      42.662  21.016  27.588  1.00  0.00     0.016 A 
ATOM     28  C   UNL A   1      43.191  21.311  25.234  1.00  0.00     0.016 A 
ATOM     29  C   UNL A   1      43.232  22.247  27.882  1.00  0.00     0.010 A 
ATOM     30  C   UNL A   1      43.723  22.571  25.524  1.00  0.00     0.010 A 
ATOM     31  C   UNL A   1      43.709  23.055  26.844  1.00  0.00    -0.014 A 
BRANCH  31  32
ATOM     32  C   UNL A   1      43.954  24.486  27.135  1.00  0.00     0.031 A 
ATOM     33  C   UNL A   1      45.335  25.027  26.882  1.00  0.00     0.074 A 
ATOM     34  C   UNL A   1      42.958  25.302  27.518  1.00  0.00     0.049 A 
ATOM     35  N   UNL A   1      45.791  26.244  27.026  1.00  0.00    -0.248 NA
ATOM     36  C   UNL A   1      46.335  24.062  26.393  1.00  0.00     0.031 C 
ATOM     37  C   UNL A   1      41.572  24.898  27.740  1.00  0.00     0.029 A 
ATOM     38  N   UNL A   1      42.966  26.648  27.781  1.00  0.00    -0.354 N 
ATOM     39  C   UNL A   1      47.124  26.192  26.637  1.00  0.00     0.074 A 
ATOM     40  C   UNL A   1      47.416  24.818  26.291  1.00  0.00     0.031 C 
ATOM     41  C   UNL A   1      40.862  25.975  28.122  1.00  0.00     0.029 A 
ATOM     42  C   UNL A   1      41.750  27.134  28.195  1.00  0.00     0.049 A 
ATOM     43  H   UNL A   1      43.766  27.212  27.683  1.00  0.00     0.167 HD
ATOM     44  C   UNL A   1      48.019  27.203  26.561  1.00  0.00     0.037 A 
ATOM     45  C   UNL A   1      41.409  28.372  28.605  1.00  0.00     0.037 A 
ATOM     46  C   UNL A   1      47.727  28.565  26.918  1.00  0.00     0.049 A 
ATOM     47  C   UNL A   1      42.453  29.462  28.592  1.00  0.00     0.074 A 
ATOM     48  C   UNL A   1      48.567  29.664  26.890  1.00  0.00     0.029 A 
ATOM     49  N   UNL A   1      46.497  29.013  27.376  1.00  0.00    -0.354 N 
ATOM     50  N   UNL A   1      43.706  29.411  28.208  1.00  0.00    -0.248 NA
ATOM     51  C   UNL A   1      42.028  30.787  29.062  1.00  0.00     0.031 C 
ATOM     52  C   UNL A   1      47.862  30.766  27.382  1.00  0.00     0.029 A 
ATOM     53  C   UNL A   1      46.562  30.369  27.656  1.00  0.00     0.049 A 
ATOM     54  H   UNL A   1      45.697  28.451  27.487  1.00  0.00     0.167 HD
ATOM     55  C   UNL A   1      44.208  30.697  28.364  1.00  0.00     0.074 A 
ATOM     56  C   UNL A   1      43.114  31.513  28.847  1.00  0.00     0.031 C 
ATOM     57  C   UNL A   1      45.462  31.164  28.135  1.00  0.00     0.037 A 
BRANCH  44  58
ATOM     58  C   UNL A   1      49.405  26.870  26.091  1.00  0.00     0.064 A 
ATOM     59  C   UNL A   1      50.382  26.376  26.968  1.00  0.00     0.173 A 
ATOM     60  C   UNL A   1      49.746  27.001  24.737  1.00  0.00     0.173 A 
ATOM     61  F   UNL A   1      50.114  26.251  28.278  1.00  0.00    -0.203 F 
ATOM     62  C   UNL A   1      51.652  26.039  26.510  1.00  0.00     0.198 A 
ATOM     63  C   UNL A   1      51.006  26.633  24.276  1.00  0.00     0.198 A 
ATOM     64  F   UNL A   1      48.849  27.470  23.855  1.00  0.00    -0.203 F 
ATOM     65  F   UNL A   1      52.583  25.606  27.373  1.00  0.00    -0.200 F 
ATOM     66  C   UNL A   1      51.961  26.158  25.162  1.00  0.00     0.200 A 
ATOM     67  F   UNL A   1      51.298  26.737  22.972  1.00  0.00    -0.200 F 
ATOM     68  F   UNL A   1      53.178  25.816  24.719  1.00  0.00    -0.200 F 
ENDBRANCH  44  58
BRANCH  45  69
ATOM     69  C   UNL A   1      40.031  28.649  29.095  1.00  0.00     0.064 A 
ATOM     70  C   UNL A   1      39.669  28.416  30.430  1.00  0.00     0.173 A 
ATOM     71  C   UNL A   1      39.031  29.098  28.219  1.00  0.00     0.173 A 
ATOM     72  F   UNL A   1      40.581  27.963  31.302  1.00  0.00    -0.203 F 
ATOM     73  C   UNL A   1      38.353  28.587  30.860  1.00  0.00     0.198 A 
ATOM     74  C   UNL A   1      37.724  29.305  28.660  1.00  0.00     0.198 A 
ATOM     75  F   UNL A   1      39.320  29.337  26.933  1.00  0.00    -0.203 F 
ATOM     76  F   UNL A   1      38.022  28.290  32.124  1.00  0.00    -0.200 F 
ATOM     77  C   UNL A   1      37.384  29.034  29.976  1.00  0.00     0.200 A 
ATOM     78  F   UNL A   1      36.796  29.753  27.805  1.00  0.00    -0.200 F 
ATOM     79  F   UNL A   1      36.120  29.195  30.390  1.00  0.00    -0.200 F 
ENDBRANCH  45  69
BRANCH  57  80
ATOM     80  C   UNL A   1      45.702  32.629  28.374  1.00  0.00     0.064 A 
ATOM     81  C   UNL A   1      45.492  33.586  27.368  1.00  0.00     0.173 A 
ATOM     82  C   UNL A   1      46.140  33.083  29.627  1.00  0.00     0.173 A 
ATOM     83  F   UNL A   1      45.084  33.206  26.148  1.00  0.00    -0.203 F 
ATOM     84  C   UNL A   1      45.761  34.934  27.595  1.00  0.00     0.198 A 
ATOM     85  C   UNL A   1      46.368  34.436  29.862  1.00  0.00     0.198 A 
ATOM     86  F   UNL A   1      46.344  32.214  30.628  1.00  0.00    -0.203 F 
ATOM     87  F   UNL A   1      45.624  35.818  26.596  1.00  0.00    -0.200 F 
ATOM     88  C   UNL A   1      46.193  35.359  28.842  1.00  0.00     0.200 A 
ATOM     89  F   UNL A   1      46.768  34.846  31.074  1.00  0.00    -0.200 F 
ATOM     90  F   UNL A   1      46.453  36.656  29.057  1.00  0.00    -0.200 F 
ENDBRANCH  57  80
ENDBRANCH  31  32
ENDBRANCH  24  26
ENDBRANCH  23  24
ENDBRANCH  22  23
ENDBRANCH  21  22
ENDBRANCH  20  21
ENDBRANCH  19  20
ENDBRANCH   1  19
TORSDOF 21
ENDMDL
