MODEL 1
REMARK VINA RESULT:     -11.3      0.000      0.000
REMARK SMILES O=C(OCCOCCOCCOCCOC(=O)c1ccccc1-c1ccccc1C(=O)NCCc1ccccc1)c1ccc(-c2c3nc(c(-c4c(F)c(F)c(F)c(F)c4F)c4ccc([nH]4)c(-c4c(F)c(F)c(F)c(F)c4F)c4nc(c(-c5c(F)c(F)c(F)c(F)c5F)c5ccc2[nH]5)C=C4)C=C3)cc1
REMARK SMILES IDX 10 1 9 2 8 3 7 4 6 5 5 6 4 7 3 8 2 9 1 10 41 11 42 12 103 13
REMARK SMILES IDX 43 14 102 15 44 16 45 17 46 18 96 19 47 20 101 21 95 22
REMARK SMILES IDX 97 23 48 24 100 25 94 26 93 27 49 29 81 30 61 31 80 32 62 33
REMARK SMILES IDX 65 34 79 35 98 36 63 37 64 38 78 40 99 41 66 42 50 43 51 44
REMARK SMILES IDX 59 45 52 46 53 47 57 48 60 49 54 50 55 51 58 52 56 53 82 54
REMARK SMILES IDX 83 55 91 56 84 57 85 58 89 59 92 60 86 61 87 62 90 63 88 64
REMARK SMILES IDX 67 65 68 66 76 67 69 68 70 69 74 70 77 71 71 72 72 73 75 74
REMARK SMILES IDX 73 75 11 76 12 77 13 78 14 79 15 80 16 81 17 82 18 83 19 84
REMARK SMILES IDX 23 85 20 86 22 87 21 88 24 89 25 90 29 91 26 92 28 93 27 94
REMARK SMILES IDX 30 95 31 96 32 97 33 99 34 100 35 101 36 102 40 103 37 104
REMARK SMILES IDX 39 105 38 106
REMARK H PARENT 97 28 65 39 32 98
REMARK Flexibility Score: inf
ROOT
ATOM      1  C   UNL A   1      36.238  21.074  25.522  1.00  0.00     0.188 C 
ENDROOT
BRANCH   1   2
ATOM      2  O   UNL A   1      37.074  22.076  24.963  1.00  0.00    -0.377 OA
BRANCH   2   3
ATOM      3  C   UNL A   1      38.092  22.579  25.817  1.00  0.00     0.188 C 
BRANCH   3   4
ATOM      4  C   UNL A   1      39.236  21.595  26.044  1.00  0.00     0.188 C 
BRANCH   4   5
ATOM      5  O   UNL A   1      40.061  22.043  27.125  1.00  0.00    -0.376 OA
BRANCH   5   6
ATOM      6  C   UNL A   1      41.429  21.643  27.065  1.00  0.00     0.202 C 
BRANCH   6   7
ATOM      7  C   UNL A   1      42.172  22.195  25.851  1.00  0.00     0.261 C 
BRANCH   7   8
ATOM      8  O   UNL A   1      42.984  23.332  26.176  1.00  0.00    -0.460 OA
BRANCH   8   9
ATOM      9  C   UNL A   1      42.816  24.623  25.793  1.00  0.00     0.338 C 
ATOM     10  O   UNL A   1      43.079  24.912  24.626  1.00  0.00    -0.246 OA
BRANCH   9  11
ATOM     11  C   UNL A   1      42.306  25.723  26.678  1.00  0.00     0.060 A 
ATOM     12  C   UNL A   1      42.870  26.991  26.825  1.00  0.00     0.016 A 
ATOM     13  C   UNL A   1      41.130  25.449  27.403  1.00  0.00     0.016 A 
ATOM     14  C   UNL A   1      42.353  27.925  27.707  1.00  0.00     0.010 A 
ATOM     15  C   UNL A   1      40.597  26.380  28.301  1.00  0.00     0.010 A 
ATOM     16  C   UNL A   1      41.246  27.603  28.484  1.00  0.00    -0.014 A 
BRANCH  16  17
ATOM     17  C   UNL A   1      41.005  28.459  29.656  1.00  0.00     0.031 A 
ATOM     18  C   UNL A   1      39.839  29.402  29.577  1.00  0.00     0.074 A 
ATOM     19  C   UNL A   1      41.645  28.217  30.812  1.00  0.00     0.049 A 
ATOM     20  N   UNL A   1      39.398  30.260  30.455  1.00  0.00    -0.248 NA
ATOM     21  C   UNL A   1      39.034  29.341  28.341  1.00  0.00     0.031 C 
ATOM     22  C   UNL A   1      42.653  27.174  31.012  1.00  0.00     0.029 A 
ATOM     23  N   UNL A   1      41.506  28.792  32.045  1.00  0.00    -0.354 N 
ATOM     24  C   UNL A   1      38.285  30.848  29.872  1.00  0.00     0.074 A 
ATOM     25  C   UNL A   1      38.109  30.258  28.568  1.00  0.00     0.031 C 
ATOM     26  C   UNL A   1      43.030  27.174  32.301  1.00  0.00     0.029 A 
ATOM     27  C   UNL A   1      42.345  28.261  32.993  1.00  0.00     0.049 A 
ATOM     28  H   UNL A   1      40.867  29.516  32.234  1.00  0.00     0.167 HD
ATOM     29  C   UNL A   1      37.486  31.809  30.389  1.00  0.00     0.037 A 
ATOM     30  C   UNL A   1      42.554  28.654  34.263  1.00  0.00     0.037 A 
ATOM     31  C   UNL A   1      37.705  32.383  31.686  1.00  0.00     0.049 A 
ATOM     32  C   UNL A   1      41.747  29.821  34.769  1.00  0.00     0.074 A 
ATOM     33  C   UNL A   1      37.083  33.461  32.282  1.00  0.00     0.029 A 
ATOM     34  N   UNL A   1      38.641  31.899  32.595  1.00  0.00    -0.354 N 
ATOM     35  N   UNL A   1      40.783  30.483  34.169  1.00  0.00    -0.248 NA
ATOM     36  C   UNL A   1      42.065  30.314  36.114  1.00  0.00     0.031 C 
ATOM     37  C   UNL A   1      37.666  33.650  33.541  1.00  0.00     0.029 A 
ATOM     38  C   UNL A   1      38.617  32.660  33.747  1.00  0.00     0.049 A 
ATOM     39  H   UNL A   1      39.232  31.128  32.439  1.00  0.00     0.167 HD
ATOM     40  C   UNL A   1      40.374  31.463  35.061  1.00  0.00     0.074 A 
ATOM     41  C   UNL A   1      41.177  31.288  36.257  1.00  0.00     0.031 C 
ATOM     42  C   UNL A   1      39.435  32.431  34.911  1.00  0.00     0.037 A 
BRANCH  29  43
ATOM     43  C   UNL A   1      36.392  32.328  29.507  1.00  0.00     0.064 A 
ATOM     44  C   UNL A   1      36.338  33.671  29.103  1.00  0.00     0.173 A 
ATOM     45  C   UNL A   1      35.338  31.485  29.123  1.00  0.00     0.173 A 
ATOM     46  F   UNL A   1      37.300  34.529  29.480  1.00  0.00    -0.203 F 
ATOM     47  C   UNL A   1      35.257  34.156  28.370  1.00  0.00     0.198 A 
ATOM     48  C   UNL A   1      34.270  31.968  28.371  1.00  0.00     0.198 A 
ATOM     49  F   UNL A   1      35.332  30.199  29.499  1.00  0.00    -0.203 F 
ATOM     50  F   UNL A   1      35.194  35.457  28.051  1.00  0.00    -0.200 F 
ATOM     51  C   UNL A   1      34.225  33.305  28.004  1.00  0.00     0.200 A 
ATOM     52  F   UNL A   1      33.272  31.146  28.024  1.00  0.00    -0.200 F 
ATOM     53  F   UNL A   1      33.176  33.777  27.315  1.00  0.00    -0.200 F 
ENDBRANCH  29  43
BRANCH  30  54
ATOM     54  C   UNL A   1      43.610  28.010  35.093  1.00  0.00     0.064 A 
ATOM     55  C   UNL A   1      43.305  27.026  36.044  1.00  0.00     0.173 A 
ATOM     56  C   UNL A   1      44.956  28.397  34.974  1.00  0.00     0.173 A 
ATOM     57  F   UNL A   1      42.034  26.636  36.220  1.00  0.00    -0.203 F 
ATOM     58  C   UNL A   1      44.297  26.474  36.856  1.00  0.00     0.198 A 
ATOM     59  C   UNL A   1      45.951  27.819  35.760  1.00  0.00     0.198 A 
ATOM     60  F   UNL A   1      45.309  29.340  34.089  1.00  0.00    -0.203 F 
ATOM     61  F   UNL A   1      43.967  25.580  37.798  1.00  0.00    -0.200 F 
ATOM     62  C   UNL A   1      45.619  26.867  36.710  1.00  0.00     0.200 A 
ATOM     63  F   UNL A   1      47.228  28.196  35.605  1.00  0.00    -0.200 F 
ATOM     64  F   UNL A   1      46.570  26.339  37.493  1.00  0.00    -0.200 F 
ENDBRANCH  30  54
BRANCH  42  65
ATOM     65  C   UNL A   1      39.221  33.343  36.079  1.00  0.00     0.064 A 
ATOM     66  C   UNL A   1      38.420  32.964  37.164  1.00  0.00     0.173 A 
ATOM     67  C   UNL A   1      39.864  34.588  36.128  1.00  0.00     0.173 A 
ATOM     68  F   UNL A   1      37.776  31.787  37.150  1.00  0.00    -0.203 F 
ATOM     69  C   UNL A   1      38.249  33.814  38.251  1.00  0.00     0.198 A 
ATOM     70  C   UNL A   1      39.714  35.422  37.229  1.00  0.00     0.198 A 
ATOM     71  F   UNL A   1      40.647  34.985  35.113  1.00  0.00    -0.203 F 
ATOM     72  F   UNL A   1      37.443  33.455  39.259  1.00  0.00    -0.200 F 
ATOM     73  C   UNL A   1      38.902  35.038  38.285  1.00  0.00     0.200 A 
ATOM     74  F   UNL A   1      40.356  36.598  37.268  1.00  0.00    -0.200 F 
ATOM     75  F   UNL A   1      38.743  35.852  39.338  1.00  0.00    -0.200 F 
ENDBRANCH  42  65
ENDBRANCH  16  17
ENDBRANCH   9  11
ENDBRANCH   8   9
ENDBRANCH   7   8
ENDBRANCH   6   7
ENDBRANCH   5   6
ENDBRANCH   4   5
ENDBRANCH   3   4
ENDBRANCH   2   3
ENDBRANCH   1   2
BRANCH   1  76
ATOM     76  C   UNL A   1      35.181  20.392  24.625  1.00  0.00     0.188 C 
BRANCH  76  77
ATOM     77  O   UNL A   1      34.059  19.884  25.330  1.00  0.00    -0.376 OA
BRANCH  77  78
ATOM     78  C   UNL A   1      32.807  20.474  25.002  1.00  0.00     0.202 C 
BRANCH  78  79
ATOM     79  C   UNL A   1      32.280  21.537  25.979  1.00  0.00     0.261 C 
BRANCH  79  80
ATOM     80  O   UNL A   1      32.111  22.871  25.466  1.00  0.00    -0.460 OA
BRANCH  80  81
ATOM     81  C   UNL A   1      33.203  23.623  25.263  1.00  0.00     0.338 C 
ATOM     82  O   UNL A   1      34.208  23.671  25.972  1.00  0.00    -0.246 OA
BRANCH  81  83
ATOM     83  C   UNL A   1      33.079  24.306  23.952  1.00  0.00     0.067 A 
ATOM     84  C   UNL A   1      33.382  23.601  22.768  1.00  0.00     0.016 A 
ATOM     85  C   UNL A   1      32.795  25.677  23.896  1.00  0.00    -0.003 A 
ATOM     86  C   UNL A   1      33.279  24.218  21.524  1.00  0.00     0.001 A 
ATOM     87  C   UNL A   1      32.656  26.274  22.625  1.00  0.00     0.009 A 
ATOM     88  C   UNL A   1      32.890  25.551  21.452  1.00  0.00     0.001 A 
BRANCH  85  89
ATOM     89  C   UNL A   1      32.613  26.460  25.118  1.00  0.00    -0.005 A 
ATOM     90  C   UNL A   1      33.773  27.193  25.512  1.00  0.00     0.009 A 
ATOM     91  C   UNL A   1      31.388  26.662  25.806  1.00  0.00     0.047 A 
ATOM     92  C   UNL A   1      33.744  28.154  26.513  1.00  0.00     0.001 A 
ATOM     93  C   UNL A   1      31.406  27.675  26.808  1.00  0.00     0.014 A 
ATOM     94  C   UNL A   1      32.548  28.412  27.149  1.00  0.00     0.001 A 
BRANCH  91  95
ATOM     95  C   UNL A   1      29.994  26.048  25.627  1.00  0.00     0.251 C 
ATOM     96  O   UNL A   1      29.626  25.241  26.495  1.00  0.00    -0.269 OA
ATOM     97  N   UNL A   1      29.058  26.215  24.626  1.00  0.00    -0.352 N 
ATOM     98  H   UNL A   1      28.330  25.554  24.671  1.00  0.00     0.163 HD
BRANCH  97  99
ATOM     99  C   UNL A   1      28.905  27.143  23.530  1.00  0.00     0.121 C 
BRANCH  99 100
ATOM    100  C   UNL A   1      29.869  28.330  23.417  1.00  0.00     0.057 C 
BRANCH 100 101
ATOM    101  C   UNL A   1      29.270  29.658  22.981  1.00  0.00    -0.046 A 
ATOM    102  C   UNL A   1      29.064  30.720  23.881  1.00  0.00     0.004 A 
ATOM    103  C   UNL A   1      29.016  29.889  21.625  1.00  0.00     0.004 A 
ATOM    104  C   UNL A   1      28.595  31.964  23.441  1.00  0.00     0.000 A 
ATOM    105  C   UNL A   1      28.560  31.135  21.182  1.00  0.00     0.000 A 
ATOM    106  C   UNL A   1      28.346  32.171  22.089  1.00  0.00     0.000 A 
ENDBRANCH 100 101
ENDBRANCH  99 100
ENDBRANCH  97  99
ENDBRANCH  91  95
ENDBRANCH  85  89
ENDBRANCH  81  83
ENDBRANCH  80  81
ENDBRANCH  79  80
ENDBRANCH  78  79
ENDBRANCH  77  78
ENDBRANCH  76  77
ENDBRANCH   1  76
TORSDOF 25
ENDMDL
MODEL 2
REMARK VINA RESULT:     -10.8      1.398      7.150
REMARK SMILES O=C(OCCOCCOCCOCCOC(=O)c1ccccc1-c1ccccc1C(=O)NCCc1ccccc1)c1ccc(-c2c3nc(c(-c4c(F)c(F)c(F)c(F)c4F)c4ccc([nH]4)c(-c4c(F)c(F)c(F)c(F)c4F)c4nc(c(-c5c(F)c(F)c(F)c(F)c5F)c5ccc2[nH]5)C=C4)C=C3)cc1
REMARK SMILES IDX 10 1 9 2 8 3 7 4 6 5 5 6 4 7 3 8 2 9 1 10 41 11 42 12 103 13
REMARK SMILES IDX 43 14 102 15 44 16 45 17 46 18 96 19 47 20 101 21 95 22
REMARK SMILES IDX 97 23 48 24 100 25 94 26 93 27 49 29 81 30 61 31 80 32 62 33
REMARK SMILES IDX 65 34 79 35 98 36 63 37 64 38 78 40 99 41 66 42 50 43 51 44
REMARK SMILES IDX 59 45 52 46 53 47 57 48 60 49 54 50 55 51 58 52 56 53 82 54
REMARK SMILES IDX 83 55 91 56 84 57 85 58 89 59 92 60 86 61 87 62 90 63 88 64
REMARK SMILES IDX 67 65 68 66 76 67 69 68 70 69 74 70 77 71 71 72 72 73 75 74
REMARK SMILES IDX 73 75 11 76 12 77 13 78 14 79 15 80 16 81 17 82 18 83 19 84
REMARK SMILES IDX 23 85 20 86 22 87 21 88 24 89 25 90 29 91 26 92 28 93 27 94
REMARK SMILES IDX 30 95 31 96 32 97 33 99 34 100 35 101 36 102 40 103 37 104
REMARK SMILES IDX 39 105 38 106
REMARK H PARENT 97 28 65 39 32 98
REMARK Flexibility Score: inf
ROOT
ATOM      1  C   UNL A   1      36.544  21.367  25.719  1.00  0.00     0.188 C 
ENDROOT
BRANCH   1   2
ATOM      2  O   UNL A   1      37.487  22.322  25.257  1.00  0.00    -0.377 OA
BRANCH   2   3
ATOM      3  C   UNL A   1      38.603  22.550  26.107  1.00  0.00     0.188 C 
BRANCH   3   4
ATOM      4  C   UNL A   1      39.572  21.373  26.166  1.00  0.00     0.188 C 
BRANCH   4   5
ATOM      5  O   UNL A   1      40.581  21.617  27.152  1.00  0.00    -0.376 OA
BRANCH   5   6
ATOM      6  C   UNL A   1      41.747  20.802  27.058  1.00  0.00     0.202 C 
BRANCH   6   7
ATOM      7  C   UNL A   1      42.555  21.040  25.785  1.00  0.00     0.261 C 
BRANCH   7   8
ATOM      8  O   UNL A   1      43.586  22.021  25.965  1.00  0.00    -0.460 OA
BRANCH   8   9
ATOM      9  C   UNL A   1      43.489  23.371  25.867  1.00  0.00     0.338 C 
ATOM     10  O   UNL A   1      43.451  23.861  24.738  1.00  0.00    -0.246 OA
BRANCH   9  11
ATOM     11  C   UNL A   1      43.396  24.313  27.031  1.00  0.00     0.060 A 
ATOM     12  C   UNL A   1      43.064  23.972  28.343  1.00  0.00     0.016 A 
ATOM     13  C   UNL A   1      43.699  25.664  26.770  1.00  0.00     0.016 A 
ATOM     14  C   UNL A   1      42.954  24.924  29.343  1.00  0.00     0.010 A 
ATOM     15  C   UNL A   1      43.589  26.638  27.768  1.00  0.00     0.010 A 
ATOM     16  C   UNL A   1      43.166  26.265  29.046  1.00  0.00    -0.014 A 
BRANCH  16  17
ATOM     17  C   UNL A   1      42.650  27.235  30.024  1.00  0.00     0.031 A 
ATOM     18  C   UNL A   1      43.536  27.556  31.192  1.00  0.00     0.074 A 
ATOM     19  C   UNL A   1      41.561  27.968  29.737  1.00  0.00     0.049 A 
ATOM     20  N   UNL A   1      43.337  28.369  32.193  1.00  0.00    -0.248 NA
ATOM     21  C   UNL A   1      44.852  26.888  31.215  1.00  0.00     0.031 C 
ATOM     22  C   UNL A   1      40.763  27.845  28.515  1.00  0.00     0.029 A 
ATOM     23  N   UNL A   1      40.970  28.993  30.423  1.00  0.00    -0.354 N 
ATOM     24  C   UNL A   1      44.487  28.294  32.967  1.00  0.00     0.074 A 
ATOM     25  C   UNL A   1      45.383  27.360  32.329  1.00  0.00     0.031 C 
ATOM     26  C   UNL A   1      39.793  28.775  28.532  1.00  0.00     0.029 A 
ATOM     27  C   UNL A   1      39.861  29.503  29.795  1.00  0.00     0.049 A 
ATOM     28  H   UNL A   1      41.307  29.332  31.283  1.00  0.00     0.167 HD
ATOM     29  C   UNL A   1      44.757  28.948  34.118  1.00  0.00     0.037 A 
ATOM     30  C   UNL A   1      38.983  30.425  30.230  1.00  0.00     0.037 A 
ATOM     31  C   UNL A   1      43.830  29.858  34.729  1.00  0.00     0.049 A 
ATOM     32  C   UNL A   1      39.236  31.038  31.584  1.00  0.00     0.074 A 
ATOM     33  C   UNL A   1      43.894  30.475  35.961  1.00  0.00     0.029 A 
ATOM     34  N   UNL A   1      42.652  30.279  34.122  1.00  0.00    -0.354 N 
ATOM     35  N   UNL A   1      40.256  30.864  32.393  1.00  0.00    -0.248 NA
ATOM     36  C   UNL A   1      38.212  31.955  32.097  1.00  0.00     0.031 C 
ATOM     37  C   UNL A   1      42.735  31.246  36.114  1.00  0.00     0.029 A 
ATOM     38  C   UNL A   1      41.975  31.146  34.957  1.00  0.00     0.049 A 
ATOM     39  H   UNL A   1      42.346  30.001  33.229  1.00  0.00     0.167 HD
ATOM     40  C   UNL A   1      40.003  31.652  33.506  1.00  0.00     0.074 A 
ATOM     41  C   UNL A   1      38.745  32.329  33.252  1.00  0.00     0.031 C 
ATOM     42  C   UNL A   1      40.728  31.798  34.644  1.00  0.00     0.037 A 
BRANCH  29  43
ATOM     43  C   UNL A   1      46.052  28.619  34.796  1.00  0.00     0.064 A 
ATOM     44  C   UNL A   1      46.151  27.594  35.751  1.00  0.00     0.173 A 
ATOM     45  C   UNL A   1      47.196  29.391  34.544  1.00  0.00     0.173 A 
ATOM     46  F   UNL A   1      45.075  26.854  36.060  1.00  0.00    -0.203 F 
ATOM     47  C   UNL A   1      47.339  27.374  36.446  1.00  0.00     0.198 A 
ATOM     48  C   UNL A   1      48.388  29.153  35.223  1.00  0.00     0.198 A 
ATOM     49  F   UNL A   1      47.150  30.395  33.656  1.00  0.00    -0.203 F 
ATOM     50  F   UNL A   1      47.392  26.433  37.399  1.00  0.00    -0.200 F 
ATOM     51  C   UNL A   1      48.456  28.153  36.181  1.00  0.00     0.200 A 
ATOM     52  F   UNL A   1      49.464  29.911  34.971  1.00  0.00    -0.200 F 
ATOM     53  F   UNL A   1      49.592  27.951  36.863  1.00  0.00    -0.200 F 
ENDBRANCH  29  43
BRANCH  30  54
ATOM     54  C   UNL A   1      37.766  30.751  29.435  1.00  0.00     0.064 A 
ATOM     55  C   UNL A   1      37.600  31.997  28.816  1.00  0.00     0.173 A 
ATOM     56  C   UNL A   1      36.719  29.822  29.307  1.00  0.00     0.173 A 
ATOM     57  F   UNL A   1      38.554  32.933  28.926  1.00  0.00    -0.203 F 
ATOM     58  C   UNL A   1      36.429  32.309  28.124  1.00  0.00     0.198 A 
ATOM     59  C   UNL A   1      35.565  30.121  28.585  1.00  0.00     0.198 A 
ATOM     60  F   UNL A   1      36.816  28.616  29.885  1.00  0.00    -0.203 F 
ATOM     61  F   UNL A   1      36.271  33.530  27.594  1.00  0.00    -0.200 F 
ATOM     62  C   UNL A   1      35.415  31.369  28.004  1.00  0.00     0.200 A 
ATOM     63  F   UNL A   1      34.596  29.204  28.466  1.00  0.00    -0.200 F 
ATOM     64  F   UNL A   1      34.289  31.672  27.343  1.00  0.00    -0.200 F 
ENDBRANCH  30  54
BRANCH  42  65
ATOM     65  C   UNL A   1      40.182  32.742  35.669  1.00  0.00     0.064 A 
ATOM     66  C   UNL A   1      40.617  34.072  35.742  1.00  0.00     0.173 A 
ATOM     67  C   UNL A   1      39.181  32.319  36.555  1.00  0.00     0.173 A 
ATOM     68  F   UNL A   1      41.584  34.513  34.923  1.00  0.00    -0.203 F 
ATOM     69  C   UNL A   1      40.084  34.942  36.687  1.00  0.00     0.198 A 
ATOM     70  C   UNL A   1      38.630  33.200  37.477  1.00  0.00     0.198 A 
ATOM     71  F   UNL A   1      38.731  31.056  36.512  1.00  0.00    -0.203 F 
ATOM     72  F   UNL A   1      40.544  36.197  36.773  1.00  0.00    -0.200 F 
ATOM     73  C   UNL A   1      39.086  34.507  37.547  1.00  0.00     0.200 A 
ATOM     74  F   UNL A   1      37.656  32.783  38.299  1.00  0.00    -0.200 F 
ATOM     75  F   UNL A   1      38.568  35.350  38.451  1.00  0.00    -0.200 F 
ENDBRANCH  42  65
ENDBRANCH  16  17
ENDBRANCH   9  11
ENDBRANCH   8   9
ENDBRANCH   7   8
ENDBRANCH   6   7
ENDBRANCH   5   6
ENDBRANCH   4   5
ENDBRANCH   3   4
ENDBRANCH   2   3
ENDBRANCH   1   2
BRANCH   1  76
ATOM     76  C   UNL A   1      35.450  20.864  24.751  1.00  0.00     0.188 C 
BRANCH  76  77
ATOM     77  O   UNL A   1      34.286  20.368  25.394  1.00  0.00    -0.376 OA
BRANCH  77  78
ATOM     78  C   UNL A   1      33.098  21.121  25.183  1.00  0.00     0.202 C 
BRANCH  78  79
ATOM     79  C   UNL A   1      32.919  22.368  26.064  1.00  0.00     0.261 C 
BRANCH  79  80
ATOM     80  O   UNL A   1      32.616  23.604  25.394  1.00  0.00    -0.460 OA
BRANCH  80  81
ATOM     81  C   UNL A   1      33.623  24.291  24.831  1.00  0.00     0.338 C 
ATOM     82  O   UNL A   1      34.759  24.437  25.281  1.00  0.00    -0.246 OA
BRANCH  81  83
ATOM     83  C   UNL A   1      33.198  24.749  23.485  1.00  0.00     0.067 A 
ATOM     84  C   UNL A   1      33.424  23.922  22.366  1.00  0.00     0.016 A 
ATOM     85  C   UNL A   1      32.701  26.047  23.308  1.00  0.00    -0.003 A 
ATOM     86  C   UNL A   1      33.040  24.328  21.089  1.00  0.00     0.001 A 
ATOM     87  C   UNL A   1      32.282  26.425  22.014  1.00  0.00     0.009 A 
ATOM     88  C   UNL A   1      32.445  25.573  20.919  1.00  0.00     0.001 A 
BRANCH  85  89
ATOM     89  C   UNL A   1      32.588  26.973  24.435  1.00  0.00    -0.005 A 
ATOM     90  C   UNL A   1      33.543  28.034  24.409  1.00  0.00     0.009 A 
ATOM     91  C   UNL A   1      31.553  26.984  25.405  1.00  0.00     0.047 A 
ATOM     92  C   UNL A   1      33.469  29.126  25.262  1.00  0.00     0.001 A 
ATOM     93  C   UNL A   1      31.507  28.137  26.241  1.00  0.00     0.014 A 
ATOM     94  C   UNL A   1      32.431  29.188  26.169  1.00  0.00     0.001 A 
BRANCH  91  95
ATOM     95  C   UNL A   1      30.396  26.017  25.687  1.00  0.00     0.251 C 
ATOM     96  O   UNL A   1      30.419  25.426  26.777  1.00  0.00    -0.269 OA
ATOM     97  N   UNL A   1      29.315  25.654  24.908  1.00  0.00    -0.352 N 
ATOM     98  H   UNL A   1      28.834  24.873  25.265  1.00  0.00     0.163 HD
BRANCH  97  99
ATOM     99  C   UNL A   1      28.731  26.163  23.689  1.00  0.00     0.121 C 
BRANCH  99 100
ATOM    100  C   UNL A   1      27.906  27.454  23.739  1.00  0.00     0.057 C 
BRANCH 100 101
ATOM    101  C   UNL A   1      28.468  28.653  22.992  1.00  0.00    -0.046 A 
ATOM    102  C   UNL A   1      29.840  28.967  22.998  1.00  0.00     0.004 A 
ATOM    103  C   UNL A   1      27.626  29.415  22.175  1.00  0.00     0.004 A 
ATOM    104  C   UNL A   1      30.348  30.022  22.232  1.00  0.00     0.000 A 
ATOM    105  C   UNL A   1      28.133  30.461  21.399  1.00  0.00     0.000 A 
ATOM    106  C   UNL A   1      29.492  30.768  21.428  1.00  0.00     0.000 A 
ENDBRANCH 100 101
ENDBRANCH  99 100
ENDBRANCH  97  99
ENDBRANCH  91  95
ENDBRANCH  85  89
ENDBRANCH  81  83
ENDBRANCH  80  81
ENDBRANCH  79  80
ENDBRANCH  78  79
ENDBRANCH  77  78
ENDBRANCH  76  77
ENDBRANCH   1  76
TORSDOF 25
ENDMDL
MODEL 3
REMARK VINA RESULT:     -10.5      3.283      9.659
REMARK SMILES O=C(OCCOCCOCCOCCOC(=O)c1ccccc1-c1ccccc1C(=O)NCCc1ccccc1)c1ccc(-c2c3nc(c(-c4c(F)c(F)c(F)c(F)c4F)c4ccc([nH]4)c(-c4c(F)c(F)c(F)c(F)c4F)c4nc(c(-c5c(F)c(F)c(F)c(F)c5F)c5ccc2[nH]5)C=C4)C=C3)cc1
REMARK SMILES IDX 10 1 9 2 8 3 7 4 6 5 5 6 4 7 3 8 2 9 1 10 41 11 42 12 103 13
REMARK SMILES IDX 43 14 102 15 44 16 45 17 46 18 96 19 47 20 101 21 95 22
REMARK SMILES IDX 97 23 48 24 100 25 94 26 93 27 49 29 81 30 61 31 80 32 62 33
REMARK SMILES IDX 65 34 79 35 98 36 63 37 64 38 78 40 99 41 66 42 50 43 51 44
REMARK SMILES IDX 59 45 52 46 53 47 57 48 60 49 54 50 55 51 58 52 56 53 82 54
REMARK SMILES IDX 83 55 91 56 84 57 85 58 89 59 92 60 86 61 87 62 90 63 88 64
REMARK SMILES IDX 67 65 68 66 76 67 69 68 70 69 74 70 77 71 71 72 72 73 75 74
REMARK SMILES IDX 73 75 11 76 12 77 13 78 14 79 15 80 16 81 17 82 18 83 19 84
REMARK SMILES IDX 23 85 20 86 22 87 21 88 24 89 25 90 29 91 26 92 28 93 27 94
REMARK SMILES IDX 30 95 31 96 32 97 33 99 34 100 35 101 36 102 40 103 37 104
REMARK SMILES IDX 39 105 38 106
REMARK H PARENT 97 28 65 39 32 98
REMARK Flexibility Score: inf
ROOT
ATOM      1  C   UNL A   1      33.005  31.683  27.653  1.00  0.00     0.188 C 
ENDROOT
BRANCH   1   2
ATOM      2  O   UNL A   1      34.415  31.813  27.761  1.00  0.00    -0.377 OA
BRANCH   2   3
ATOM      3  C   UNL A   1      34.889  32.449  28.940  1.00  0.00     0.188 C 
BRANCH   3   4
ATOM      4  C   UNL A   1      35.736  33.687  28.664  1.00  0.00     0.188 C 
BRANCH   4   5
ATOM      5  O   UNL A   1      35.065  34.857  29.145  1.00  0.00    -0.376 OA
BRANCH   5   6
ATOM      6  C   UNL A   1      33.992  35.331  28.334  1.00  0.00     0.202 C 
BRANCH   6   7
ATOM      7  C   UNL A   1      32.896  36.037  29.128  1.00  0.00     0.261 C 
BRANCH   7   8
ATOM      8  O   UNL A   1      32.526  35.319  30.313  1.00  0.00    -0.460 OA
BRANCH   8   9
ATOM      9  C   UNL A   1      32.878  35.576  31.598  1.00  0.00     0.338 C 
ATOM     10  O   UNL A   1      32.147  36.320  32.253  1.00  0.00    -0.246 OA
BRANCH   9  11
ATOM     11  C   UNL A   1      34.076  35.000  32.294  1.00  0.00     0.060 A 
ATOM     12  C   UNL A   1      35.297  35.643  32.501  1.00  0.00     0.016 A 
ATOM     13  C   UNL A   1      33.935  33.695  32.806  1.00  0.00     0.016 A 
ATOM     14  C   UNL A   1      36.365  35.007  33.113  1.00  0.00     0.010 A 
ATOM     15  C   UNL A   1      35.005  33.038  33.424  1.00  0.00     0.010 A 
ATOM     16  C   UNL A   1      36.238  33.687  33.528  1.00  0.00    -0.014 A 
BRANCH  16  17
ATOM     17  C   UNL A   1      37.493  32.966  33.789  1.00  0.00     0.031 A 
ATOM     18  C   UNL A   1      38.110  33.148  35.145  1.00  0.00     0.074 A 
ATOM     19  C   UNL A   1      37.909  32.009  32.942  1.00  0.00     0.049 A 
ATOM     20  N   UNL A   1      39.202  32.634  35.641  1.00  0.00    -0.248 NA
ATOM     21  C   UNL A   1      37.368  34.006  36.089  1.00  0.00     0.031 C 
ATOM     22  C   UNL A   1      37.237  31.640  31.695  1.00  0.00     0.029 A 
ATOM     23  N   UNL A   1      38.961  31.139  33.028  1.00  0.00    -0.354 N 
ATOM     24  C   UNL A   1      39.284  33.121  36.939  1.00  0.00     0.074 A 
ATOM     25  C   UNL A   1      38.139  33.970  37.162  1.00  0.00     0.031 C 
ATOM     26  C   UNL A   1      37.887  30.605  31.138  1.00  0.00     0.029 A 
ATOM     27  C   UNL A   1      39.057  30.291  31.952  1.00  0.00     0.049 A 
ATOM     28  H   UNL A   1      39.588  31.123  33.786  1.00  0.00     0.167 HD
ATOM     29  C   UNL A   1      40.247  32.879  37.857  1.00  0.00     0.037 A 
ATOM     30  C   UNL A   1      40.018  29.398  31.654  1.00  0.00     0.037 A 
ATOM     31  C   UNL A   1      41.380  32.040  37.589  1.00  0.00     0.049 A 
ATOM     32  C   UNL A   1      41.155  29.251  32.633  1.00  0.00     0.074 A 
ATOM     33  C   UNL A   1      42.506  31.822  38.355  1.00  0.00     0.029 A 
ATOM     34  N   UNL A   1      41.513  31.270  36.439  1.00  0.00    -0.354 N 
ATOM     35  N   UNL A   1      41.315  29.819  33.807  1.00  0.00    -0.248 NA
ATOM     36  C   UNL A   1      42.254  28.360  32.243  1.00  0.00     0.031 C 
ATOM     37  C   UNL A   1      43.339  30.943  37.651  1.00  0.00     0.029 A 
ATOM     38  C   UNL A   1      42.708  30.577  36.470  1.00  0.00     0.049 A 
ATOM     39  H   UNL A   1      40.853  31.225  35.710  1.00  0.00     0.167 HD
ATOM     40  C   UNL A   1      42.525  29.352  34.299  1.00  0.00     0.074 A 
ATOM     41  C   UNL A   1      43.043  28.429  33.307  1.00  0.00     0.031 C 
ATOM     42  C   UNL A   1      43.165  29.663  35.455  1.00  0.00     0.037 A 
BRANCH  29  43
ATOM     43  C   UNL A   1      40.133  33.603  39.164  1.00  0.00     0.064 A 
ATOM     44  C   UNL A   1      40.893  34.748  39.448  1.00  0.00     0.173 A 
ATOM     45  C   UNL A   1      39.305  33.097  40.179  1.00  0.00     0.173 A 
ATOM     46  F   UNL A   1      41.732  35.246  38.526  1.00  0.00    -0.203 F 
ATOM     47  C   UNL A   1      40.850  35.343  40.707  1.00  0.00     0.198 A 
ATOM     48  C   UNL A   1      39.247  33.709  41.428  1.00  0.00     0.198 A 
ATOM     49  F   UNL A   1      38.573  31.995  39.965  1.00  0.00    -0.203 F 
ATOM     50  F   UNL A   1      41.634  36.396  40.976  1.00  0.00    -0.200 F 
ATOM     51  C   UNL A   1      40.027  34.824  41.695  1.00  0.00     0.200 A 
ATOM     52  F   UNL A   1      38.456  33.202  42.384  1.00  0.00    -0.200 F 
ATOM     53  F   UNL A   1      40.000  35.387  42.912  1.00  0.00    -0.200 F 
ENDBRANCH  29  43
BRANCH  30  54
ATOM     54  C   UNL A   1      39.994  28.658  30.362  1.00  0.00     0.064 A 
ATOM     55  C   UNL A   1      39.360  27.414  30.235  1.00  0.00     0.173 A 
ATOM     56  C   UNL A   1      40.641  29.171  29.225  1.00  0.00     0.173 A 
ATOM     57  F   UNL A   1      38.749  26.862  31.293  1.00  0.00    -0.203 F 
ATOM     58  C   UNL A   1      39.396  26.705  29.033  1.00  0.00     0.198 A 
ATOM     59  C   UNL A   1      40.645  28.479  28.015  1.00  0.00     0.198 A 
ATOM     60  F   UNL A   1      41.273  30.352  29.287  1.00  0.00    -0.203 F 
ATOM     61  F   UNL A   1      38.834  25.490  28.958  1.00  0.00    -0.200 F 
ATOM     62  C   UNL A   1      40.033  27.240  27.923  1.00  0.00     0.200 A 
ATOM     63  F   UNL A   1      41.253  29.009  26.945  1.00  0.00    -0.200 F 
ATOM     64  F   UNL A   1      40.070  26.556  26.772  1.00  0.00    -0.200 F 
ENDBRANCH  30  54
BRANCH  42  65
ATOM     65  C   UNL A   1      44.471  28.974  35.703  1.00  0.00     0.064 A 
ATOM     66  C   UNL A   1      45.684  29.538  35.288  1.00  0.00     0.173 A 
ATOM     67  C   UNL A   1      44.505  27.761  36.404  1.00  0.00     0.173 A 
ATOM     68  F   UNL A   1      45.694  30.691  34.601  1.00  0.00    -0.203 F 
ATOM     69  C   UNL A   1      46.891  28.896  35.546  1.00  0.00     0.198 A 
ATOM     70  C   UNL A   1      45.715  27.137  36.686  1.00  0.00     0.198 A 
ATOM     71  F   UNL A   1      43.366  27.191  36.827  1.00  0.00    -0.203 F 
ATOM     72  F   UNL A   1      48.038  29.427  35.101  1.00  0.00    -0.200 F 
ATOM     73  C   UNL A   1      46.905  27.701  36.251  1.00  0.00     0.200 A 
ATOM     74  F   UNL A   1      45.729  25.990  37.379  1.00  0.00    -0.200 F 
ATOM     75  F   UNL A   1      48.069  27.089  36.506  1.00  0.00    -0.200 F 
ENDBRANCH  42  65
ENDBRANCH  16  17
ENDBRANCH   9  11
ENDBRANCH   8   9
ENDBRANCH   7   8
ENDBRANCH   6   7
ENDBRANCH   5   6
ENDBRANCH   4   5
ENDBRANCH   3   4
ENDBRANCH   2   3
ENDBRANCH   1   2
BRANCH   1  76
ATOM     76  C   UNL A   1      32.420  30.482  26.880  1.00  0.00     0.188 C 
BRANCH  76  77
ATOM     77  O   UNL A   1      33.187  30.083  25.754  1.00  0.00    -0.376 OA
BRANCH  77  78
ATOM     78  C   UNL A   1      34.187  29.103  26.006  1.00  0.00     0.202 C 
BRANCH  78  79
ATOM     79  C   UNL A   1      33.753  27.891  26.847  1.00  0.00     0.261 C 
BRANCH  79  80
ATOM     80  O   UNL A   1      32.755  27.024  26.279  1.00  0.00    -0.460 OA
BRANCH  80  81
ATOM     81  C   UNL A   1      32.833  26.726  24.973  1.00  0.00     0.338 C 
ATOM     82  O   UNL A   1      33.773  26.180  24.396  1.00  0.00    -0.246 OA
BRANCH  81  83
ATOM     83  C   UNL A   1      31.532  27.037  24.331  1.00  0.00     0.067 A 
ATOM     84  C   UNL A   1      31.346  28.289  23.708  1.00  0.00     0.016 A 
ATOM     85  C   UNL A   1      30.454  26.152  24.459  1.00  0.00    -0.003 A 
ATOM     86  C   UNL A   1      30.134  28.611  23.101  1.00  0.00     0.001 A 
ATOM     87  C   UNL A   1      29.246  26.479  23.804  1.00  0.00     0.009 A 
ATOM     88  C   UNL A   1      29.091  27.692  23.128  1.00  0.00     0.001 A 
BRANCH  85  89
ATOM     89  C   UNL A   1      30.583  24.910  25.221  1.00  0.00    -0.005 A 
ATOM     90  C   UNL A   1      29.851  24.904  26.446  1.00  0.00     0.009 A 
ATOM     91  C   UNL A   1      31.213  23.719  24.775  1.00  0.00     0.047 A 
ATOM     92  C   UNL A   1      29.671  23.756  27.203  1.00  0.00     0.001 A 
ATOM     93  C   UNL A   1      30.980  22.564  25.575  1.00  0.00     0.014 A 
ATOM     94  C   UNL A   1      30.221  22.574  26.753  1.00  0.00     0.001 A 
BRANCH  91  95
ATOM     95  C   UNL A   1      32.050  23.403  23.529  1.00  0.00     0.251 C 
ATOM     96  O   UNL A   1      31.578  23.756  22.438  1.00  0.00    -0.269 OA
ATOM     97  N   UNL A   1      33.260  22.750  23.398  1.00  0.00    -0.352 N 
ATOM     98  H   UNL A   1      33.472  22.523  22.464  1.00  0.00     0.163 HD
BRANCH  97  99
ATOM     99  C   UNL A   1      34.285  22.327  24.323  1.00  0.00     0.121 C 
BRANCH  99 100
ATOM    100  C   UNL A   1      34.018  21.119  25.230  1.00  0.00     0.057 C 
BRANCH 100 101
ATOM    101  C   UNL A   1      33.677  19.808  24.541  1.00  0.00    -0.046 A 
ATOM    102  C   UNL A   1      32.543  19.664  23.720  1.00  0.00     0.004 A 
ATOM    103  C   UNL A   1      34.569  18.733  24.622  1.00  0.00     0.004 A 
ATOM    104  C   UNL A   1      32.297  18.475  23.024  1.00  0.00     0.000 A 
ATOM    105  C   UNL A   1      34.331  17.549  23.916  1.00  0.00     0.000 A 
ATOM    106  C   UNL A   1      33.194  17.417  23.120  1.00  0.00     0.000 A 
ENDBRANCH 100 101
ENDBRANCH  99 100
ENDBRANCH  97  99
ENDBRANCH  91  95
ENDBRANCH  85  89
ENDBRANCH  81  83
ENDBRANCH  80  81
ENDBRANCH  79  80
ENDBRANCH  78  79
ENDBRANCH  77  78
ENDBRANCH  76  77
ENDBRANCH   1  76
TORSDOF 25
ENDMDL
