MODEL 1
REMARK VINA RESULT:     -10.9      0.000      0.000
REMARK SMILES CC(=O)Nc1cc(NC(C)=O)cc(C(=O)Nc2ccc(Br)cc2C(=O)OCCOCCOCCOCCOC(=O)c2ccc(-c3c4nc(c(-c5c(F)c(F)c(F)c(F)c5F)c5ccc([nH]5)c(-c5c(F)c(F)c(F)c(F)c5F)c5nc(c(-c6c(F)c(F)c(F)c(F)c6F)c6ccc3[nH]6)C=C5)C=C4)cc2)c1
REMARK SMILES IDX 31 1 30 2 29 3 28 4 27 5 26 6 24 7 25 8 23 9 17 10 18 11
REMARK SMILES IDX 19 12 22 13 20 14 21 15 16 16 14 17 15 18 13 20 5 21 6 22
REMARK SMILES IDX 104 23 7 24 12 25 4 26 1 27 2 28 3 29 8 31 9 32 10 34 11 35
REMARK SMILES IDX 32 36 33 37 34 38 35 39 36 40 37 41 38 42 39 43 40 44 41 45
REMARK SMILES IDX 42 46 103 47 43 48 102 49 44 50 45 51 46 52 96 53 47 54
REMARK SMILES IDX 101 55 95 56 97 57 48 58 100 59 94 60 93 61 49 63 81 64
REMARK SMILES IDX 61 65 80 66 62 67 65 68 79 69 98 70 63 71 64 72 78 74 99 75
REMARK SMILES IDX 66 76 50 77 51 78 59 79 52 80 53 81 57 82 60 83 54 84 55 85
REMARK SMILES IDX 58 86 56 87 82 88 83 89 91 90 84 91 85 92 89 93 92 94 86 95
REMARK SMILES IDX 87 96 90 97 88 98 67 99 68 100 76 101 69 102 70 103 74 104
REMARK SMILES IDX 77 105 71 106 72 107 75 108 73 109
REMARK H PARENT 16 19 4 30 8 33 97 62 65 73
REMARK Flexibility Score: inf
ROOT
ATOM      1  C   UNL A   1      33.644  31.584  27.601  1.00  0.00     0.188 C 
ENDROOT
BRANCH   1   2
ATOM      2  C   UNL A   1      34.934  30.886  28.073  1.00  0.00     0.188 C 
BRANCH   2   3
ATOM      3  O   UNL A   1      35.197  29.525  27.759  1.00  0.00    -0.376 OA
BRANCH   3   4
ATOM      4  C   UNL A   1      34.751  28.922  26.556  1.00  0.00     0.202 C 
BRANCH   4   5
ATOM      5  C   UNL A   1      33.622  27.893  26.507  1.00  0.00     0.261 C 
BRANCH   5   6
ATOM      6  O   UNL A   1      33.961  26.572  26.068  1.00  0.00    -0.460 OA
BRANCH   6   7
ATOM      7  C   UNL A   1      33.997  26.430  24.728  1.00  0.00     0.340 C 
ATOM      8  O   UNL A   1      33.954  27.344  23.917  1.00  0.00    -0.246 OA
BRANCH   7   9
ATOM      9  C   UNL A   1      34.258  25.030  24.310  1.00  0.00     0.084 A 
ATOM     10  C   UNL A   1      34.039  24.446  23.046  1.00  0.00     0.056 A 
ATOM     11  C   UNL A   1      34.201  23.047  22.938  1.00  0.00     0.028 A 
ATOM     12  C   UNL A   1      34.654  22.266  24.007  1.00  0.00     0.018 A 
ATOM     13  C   UNL A   1      34.722  24.229  25.382  1.00  0.00     0.033 A 
ATOM     14  C   UNL A   1      34.928  22.867  25.225  1.00  0.00     0.018 A 
ATOM     15  Br  UNL A   1      35.571  21.838  26.670  1.00  0.00    -0.051 Br
BRANCH  10  16
ATOM     16  N   UNL A   1      33.705  25.060  21.812  1.00  0.00    -0.321 N 
ATOM     17  C   UNL A   1      32.579  25.657  21.288  1.00  0.00     0.255 C 
ATOM     18  O   UNL A   1      32.561  25.948  20.090  1.00  0.00    -0.269 OA
ATOM     19  H   UNL A   1      34.457  25.059  21.178  1.00  0.00     0.170 HD
BRANCH  17  20
ATOM     20  C   UNL A   1      31.402  26.013  22.111  1.00  0.00     0.044 A 
ATOM     21  C   UNL A   1      30.106  27.725  23.187  1.00  0.00     0.044 A 
ATOM     22  C   UNL A   1      29.700  26.773  24.142  1.00  0.00     0.052 A 
ATOM     23  C   UNL A   1      30.876  27.308  22.108  1.00  0.00     0.040 A 
ATOM     24  C   UNL A   1      30.096  25.433  24.058  1.00  0.00     0.044 A 
ATOM     25  C   UNL A   1      30.938  25.052  23.015  1.00  0.00     0.040 A 
BRANCH  21  26
ATOM     26  N   UNL A   1      29.922  29.080  23.542  1.00  0.00    -0.326 N 
ATOM     27  C   UNL A   1      27.562  29.590  22.896  1.00  0.00     0.114 C 
ATOM     28  C   UNL A   1      28.955  30.001  23.271  1.00  0.00     0.221 C 
ATOM     29  O   UNL A   1      29.231  31.200  23.371  1.00  0.00    -0.275 OA
ATOM     30  H   UNL A   1      30.648  29.434  24.105  1.00  0.00     0.169 HD
ENDBRANCH  21  26
BRANCH  24  31
ATOM     31  N   UNL A   1      29.813  24.456  25.038  1.00  0.00    -0.326 N 
ATOM     32  C   UNL A   1      30.485  24.255  26.230  1.00  0.00     0.221 C 
ATOM     33  H   UNL A   1      29.056  23.854  24.853  1.00  0.00     0.169 HD
ATOM     34  C   UNL A   1      29.932  23.109  27.041  1.00  0.00     0.114 C 
ATOM     35  O   UNL A   1      31.450  24.892  26.639  1.00  0.00    -0.275 OA
ENDBRANCH  24  31
ENDBRANCH  17  20
ENDBRANCH  10  16
ENDBRANCH   7   9
ENDBRANCH   6   7
ENDBRANCH   5   6
ENDBRANCH   4   5
ENDBRANCH   3   4
ENDBRANCH   2   3
ENDBRANCH   1   2
BRANCH   1  36
ATOM     36  O   UNL A   1      33.456  32.882  28.132  1.00  0.00    -0.377 OA
BRANCH  36  37
ATOM     37  C   UNL A   1      34.435  33.341  29.057  1.00  0.00     0.188 C 
BRANCH  37  38
ATOM     38  C   UNL A   1      35.070  34.727  28.819  1.00  0.00     0.188 C 
BRANCH  38  39
ATOM     39  O   UNL A   1      34.228  35.621  28.100  1.00  0.00    -0.376 OA
BRANCH  39  40
ATOM     40  C   UNL A   1      33.637  36.686  28.832  1.00  0.00     0.202 C 
BRANCH  40  41
ATOM     41  C   UNL A   1      32.624  36.249  29.898  1.00  0.00     0.261 C 
BRANCH  41  42
ATOM     42  O   UNL A   1      32.717  36.929  31.162  1.00  0.00    -0.460 OA
BRANCH  42  43
ATOM     43  C   UNL A   1      32.495  36.218  32.289  1.00  0.00     0.338 C 
ATOM     44  O   UNL A   1      31.486  36.185  32.963  1.00  0.00    -0.246 OA
BRANCH  43  45
ATOM     45  C   UNL A   1      33.648  35.311  32.463  1.00  0.00     0.060 A 
ATOM     46  C   UNL A   1      33.418  33.968  32.792  1.00  0.00     0.016 A 
ATOM     47  C   UNL A   1      34.948  35.788  32.280  1.00  0.00     0.016 A 
ATOM     48  C   UNL A   1      34.496  33.098  32.958  1.00  0.00     0.010 A 
ATOM     49  C   UNL A   1      36.024  34.924  32.473  1.00  0.00     0.010 A 
ATOM     50  C   UNL A   1      35.805  33.584  32.835  1.00  0.00    -0.014 A 
BRANCH  50  51
ATOM     51  C   UNL A   1      36.958  32.757  33.256  1.00  0.00     0.031 A 
ATOM     52  C   UNL A   1      37.620  33.078  34.565  1.00  0.00     0.074 A 
ATOM     53  C   UNL A   1      37.436  31.776  32.471  1.00  0.00     0.049 A 
ATOM     54  N   UNL A   1      38.720  32.597  35.081  1.00  0.00    -0.248 NA
ATOM     55  C   UNL A   1      36.949  34.087  35.401  1.00  0.00     0.031 C 
ATOM     56  C   UNL A   1      36.853  31.350  31.202  1.00  0.00     0.029 A 
ATOM     57  N   UNL A   1      38.543  30.980  32.622  1.00  0.00    -0.354 N 
ATOM     58  C   UNL A   1      38.877  33.247  36.297  1.00  0.00     0.074 A 
ATOM     59  C   UNL A   1      37.772  34.171  36.435  1.00  0.00     0.031 C 
ATOM     60  C   UNL A   1      37.626  30.385  30.673  1.00  0.00     0.029 A 
ATOM     61  C   UNL A   1      38.776  30.159  31.547  1.00  0.00     0.049 A 
ATOM     62  H   UNL A   1      39.114  30.996  33.423  1.00  0.00     0.167 HD
ATOM     63  C   UNL A   1      39.857  33.086  37.216  1.00  0.00     0.037 A 
ATOM     64  C   UNL A   1      39.823  29.351  31.285  1.00  0.00     0.037 A 
ATOM     65  C   UNL A   1      40.960  32.177  37.067  1.00  0.00     0.049 A 
ATOM     66  C   UNL A   1      40.957  29.266  32.277  1.00  0.00     0.074 A 
ATOM     67  C   UNL A   1      41.990  31.915  37.953  1.00  0.00     0.029 A 
ATOM     68  N   UNL A   1      41.185  31.391  35.946  1.00  0.00    -0.354 N 
ATOM     69  N   UNL A   1      41.086  29.857  33.440  1.00  0.00    -0.248 NA
ATOM     70  C   UNL A   1      42.097  28.412  31.911  1.00  0.00     0.031 C 
ATOM     71  C   UNL A   1      42.868  31.012  37.345  1.00  0.00     0.029 A 
ATOM     72  C   UNL A   1      42.359  30.674  36.101  1.00  0.00     0.049 A 
ATOM     73  H   UNL A   1      40.596  31.349  35.158  1.00  0.00     0.167 HD
ATOM     74  C   UNL A   1      42.310  29.436  33.951  1.00  0.00     0.074 A 
ATOM     75  C   UNL A   1      42.876  28.526  32.978  1.00  0.00     0.031 C 
ATOM     76  C   UNL A   1      42.910  29.775  35.118  1.00  0.00     0.037 A 
BRANCH  63  77
ATOM     77  C   UNL A   1      39.796  33.937  38.448  1.00  0.00     0.064 A 
ATOM     78  C   UNL A   1      39.073  33.538  39.582  1.00  0.00     0.173 A 
ATOM     79  C   UNL A   1      40.489  35.154  38.504  1.00  0.00     0.173 A 
ATOM     80  F   UNL A   1      38.378  32.392  39.572  1.00  0.00    -0.203 F 
ATOM     81  C   UNL A   1      39.030  34.340  40.720  1.00  0.00     0.198 A 
ATOM     82  C   UNL A   1      40.467  35.940  39.653  1.00  0.00     0.198 A 
ATOM     83  F   UNL A   1      41.194  35.580  37.444  1.00  0.00    -0.203 F 
ATOM     84  F   UNL A   1      38.299  33.961  41.777  1.00  0.00    -0.200 F 
ATOM     85  C   UNL A   1      39.733  35.535  40.757  1.00  0.00     0.200 A 
ATOM     86  F   UNL A   1      41.152  37.091  39.688  1.00  0.00    -0.200 F 
ATOM     87  F   UNL A   1      39.695  36.303  41.855  1.00  0.00    -0.200 F 
ENDBRANCH  63  77
BRANCH  64  88
ATOM     88  C   UNL A   1      39.873  28.586  30.012  1.00  0.00     0.064 A 
ATOM     89  C   UNL A   1      39.344  27.292  29.927  1.00  0.00     0.173 A 
ATOM     90  C   UNL A   1      40.471  29.124  28.862  1.00  0.00     0.173 A 
ATOM     91  F   UNL A   1      38.791  26.723  31.008  1.00  0.00    -0.203 F 
ATOM     92  C   UNL A   1      39.422  26.559  28.744  1.00  0.00     0.198 A 
ATOM     93  C   UNL A   1      40.526  28.400  27.672  1.00  0.00     0.198 A 
ATOM     94  F   UNL A   1      41.003  30.354  28.895  1.00  0.00    -0.203 F 
ATOM     95  F   UNL A   1      38.949  25.306  28.702  1.00  0.00    -0.200 F 
ATOM     96  C   UNL A   1      40.007  27.116  27.616  1.00  0.00     0.200 A 
ATOM     97  F   UNL A   1      41.090  28.943  26.585  1.00  0.00    -0.200 F 
ATOM     98  F   UNL A   1      40.083  26.410  26.480  1.00  0.00    -0.200 F 
ENDBRANCH  64  88
BRANCH  76  99
ATOM     99  C   UNL A   1      44.244  29.156  35.418  1.00  0.00     0.064 A 
ATOM    100  C   UNL A   1      45.439  29.761  35.001  1.00  0.00     0.173 A 
ATOM    101  C   UNL A   1      44.331  27.987  36.188  1.00  0.00     0.173 A 
ATOM    102  F   UNL A   1      45.408  30.872  34.250  1.00  0.00    -0.203 F 
ATOM    103  C   UNL A   1      46.673  29.208  35.335  1.00  0.00     0.198 A 
ATOM    104  C   UNL A   1      45.566  27.454  36.543  1.00  0.00     0.198 A 
ATOM    105  F   UNL A   1      43.216  27.376  36.617  1.00  0.00    -0.203 F 
ATOM    106  F   UNL A   1      47.802  29.783  34.899  1.00  0.00    -0.200 F 
ATOM    107  C   UNL A   1      46.736  28.062  36.113  1.00  0.00     0.200 A 
ATOM    108  F   UNL A   1      45.625  26.354  37.307  1.00  0.00    -0.200 F 
ATOM    109  F   UNL A   1      47.924  27.541  36.445  1.00  0.00    -0.200 F 
ENDBRANCH  76  99
ENDBRANCH  50  51
ENDBRANCH  43  45
ENDBRANCH  42  43
ENDBRANCH  41  42
ENDBRANCH  40  41
ENDBRANCH  39  40
ENDBRANCH  38  39
ENDBRANCH  37  38
ENDBRANCH  36  37
ENDBRANCH   1  36
TORSDOF 24
ENDMDL
MODEL 2
REMARK VINA RESULT:     -10.8      1.539      3.765
REMARK SMILES CC(=O)Nc1cc(NC(C)=O)cc(C(=O)Nc2ccc(Br)cc2C(=O)OCCOCCOCCOCCOC(=O)c2ccc(-c3c4nc(c(-c5c(F)c(F)c(F)c(F)c5F)c5ccc([nH]5)c(-c5c(F)c(F)c(F)c(F)c5F)c5nc(c(-c6c(F)c(F)c(F)c(F)c6F)c6ccc3[nH]6)C=C5)C=C4)cc2)c1
REMARK SMILES IDX 31 1 30 2 29 3 28 4 27 5 26 6 24 7 25 8 23 9 17 10 18 11
REMARK SMILES IDX 19 12 22 13 20 14 21 15 16 16 14 17 15 18 13 20 5 21 6 22
REMARK SMILES IDX 104 23 7 24 12 25 4 26 1 27 2 28 3 29 8 31 9 32 10 34 11 35
REMARK SMILES IDX 32 36 33 37 34 38 35 39 36 40 37 41 38 42 39 43 40 44 41 45
REMARK SMILES IDX 42 46 103 47 43 48 102 49 44 50 45 51 46 52 96 53 47 54
REMARK SMILES IDX 101 55 95 56 97 57 48 58 100 59 94 60 93 61 49 63 81 64
REMARK SMILES IDX 61 65 80 66 62 67 65 68 79 69 98 70 63 71 64 72 78 74 99 75
REMARK SMILES IDX 66 76 50 77 51 78 59 79 52 80 53 81 57 82 60 83 54 84 55 85
REMARK SMILES IDX 58 86 56 87 82 88 83 89 91 90 84 91 85 92 89 93 92 94 86 95
REMARK SMILES IDX 87 96 90 97 88 98 67 99 68 100 76 101 69 102 70 103 74 104
REMARK SMILES IDX 77 105 71 106 72 107 75 108 73 109
REMARK H PARENT 16 19 4 30 8 33 97 62 65 73
REMARK Flexibility Score: inf
ROOT
ATOM      1  C   UNL A   1      33.764  31.984  27.683  1.00  0.00     0.188 C 
ENDROOT
BRANCH   1   2
ATOM      2  C   UNL A   1      35.034  31.155  27.955  1.00  0.00     0.188 C 
BRANCH   2   3
ATOM      3  O   UNL A   1      35.242  29.892  27.336  1.00  0.00    -0.376 OA
BRANCH   3   4
ATOM      4  C   UNL A   1      34.395  29.400  26.311  1.00  0.00     0.202 C 
BRANCH   4   5
ATOM      5  C   UNL A   1      34.379  27.936  25.873  1.00  0.00     0.261 C 
BRANCH   5   6
ATOM      6  O   UNL A   1      33.250  27.495  25.109  1.00  0.00    -0.460 OA
BRANCH   6   7
ATOM      7  C   UNL A   1      32.314  26.849  25.832  1.00  0.00     0.340 C 
ATOM      8  O   UNL A   1      32.474  26.399  26.958  1.00  0.00    -0.246 OA
BRANCH   7   9
ATOM      9  C   UNL A   1      30.979  26.869  25.184  1.00  0.00     0.084 A 
ATOM     10  C   UNL A   1      29.922  25.950  25.345  1.00  0.00     0.056 A 
ATOM     11  C   UNL A   1      28.809  26.082  24.486  1.00  0.00     0.028 A 
ATOM     12  C   UNL A   1      28.696  27.134  23.569  1.00  0.00     0.018 A 
ATOM     13  C   UNL A   1      30.850  27.932  24.257  1.00  0.00     0.033 A 
ATOM     14  C   UNL A   1      29.715  28.066  23.470  1.00  0.00     0.018 A 
ATOM     15  Br  UNL A   1      29.570  29.511  22.265  1.00  0.00    -0.051 Br
BRANCH  10  16
ATOM     16  N   UNL A   1      29.773  24.900  26.285  1.00  0.00    -0.321 N 
ATOM     17  C   UNL A   1      30.156  23.577  26.347  1.00  0.00     0.255 C 
ATOM     18  O   UNL A   1      29.711  22.869  27.252  1.00  0.00    -0.269 OA
ATOM     19  H   UNL A   1      29.276  25.182  27.087  1.00  0.00     0.170 HD
BRANCH  17  20
ATOM     20  C   UNL A   1      31.120  22.976  25.399  1.00  0.00     0.044 A 
ATOM     21  C   UNL A   1      33.250  21.924  25.047  1.00  0.00     0.044 A 
ATOM     22  C   UNL A   1      33.265  22.460  23.745  1.00  0.00     0.052 A 
ATOM     23  C   UNL A   1      32.118  22.100  25.834  1.00  0.00     0.040 A 
ATOM     24  C   UNL A   1      32.190  23.206  23.247  1.00  0.00     0.044 A 
ATOM     25  C   UNL A   1      31.099  23.444  24.081  1.00  0.00     0.040 A 
BRANCH  21  26
ATOM     26  N   UNL A   1      34.493  21.478  25.550  1.00  0.00    -0.326 N 
ATOM     27  C   UNL A   1      35.775  23.573  26.014  1.00  0.00     0.114 C 
ATOM     28  C   UNL A   1      35.686  22.093  25.789  1.00  0.00     0.221 C 
ATOM     29  O   UNL A   1      36.708  21.402  25.853  1.00  0.00    -0.275 OA
ATOM     30  H   UNL A   1      34.499  20.520  25.775  1.00  0.00     0.169 HD
ENDBRANCH  21  26
BRANCH  24  31
ATOM     31  N   UNL A   1      32.188  23.859  21.993  1.00  0.00    -0.326 N 
ATOM     32  C   UNL A   1      32.694  25.115  21.709  1.00  0.00     0.221 C 
ATOM     33  H   UNL A   1      31.782  23.368  21.243  1.00  0.00     0.169 HD
ATOM     34  C   UNL A   1      32.512  25.518  20.267  1.00  0.00     0.114 C 
ATOM     35  O   UNL A   1      33.231  25.881  22.502  1.00  0.00    -0.275 OA
ENDBRANCH  24  31
ENDBRANCH  17  20
ENDBRANCH  10  16
ENDBRANCH   7   9
ENDBRANCH   6   7
ENDBRANCH   5   6
ENDBRANCH   4   5
ENDBRANCH   3   4
ENDBRANCH   2   3
ENDBRANCH   1   2
BRANCH   1  36
ATOM     36  O   UNL A   1      33.576  33.071  28.571  1.00  0.00    -0.377 OA
BRANCH  36  37
ATOM     37  C   UNL A   1      34.743  33.596  29.191  1.00  0.00     0.188 C 
BRANCH  37  38
ATOM     38  C   UNL A   1      35.234  34.993  28.758  1.00  0.00     0.188 C 
BRANCH  38  39
ATOM     39  O   UNL A   1      34.234  35.770  28.109  1.00  0.00    -0.376 OA
BRANCH  39  40
ATOM     40  C   UNL A   1      33.622  36.804  28.868  1.00  0.00     0.202 C 
BRANCH  40  41
ATOM     41  C   UNL A   1      32.578  36.326  29.885  1.00  0.00     0.261 C 
BRANCH  41  42
ATOM     42  O   UNL A   1      32.645  36.942  31.183  1.00  0.00    -0.460 OA
BRANCH  42  43
ATOM     43  C   UNL A   1      32.387  36.178  32.267  1.00  0.00     0.338 C 
ATOM     44  O   UNL A   1      31.349  36.095  32.891  1.00  0.00    -0.246 OA
BRANCH  43  45
ATOM     45  C   UNL A   1      33.551  35.288  32.457  1.00  0.00     0.060 A 
ATOM     46  C   UNL A   1      33.336  33.948  32.807  1.00  0.00     0.016 A 
ATOM     47  C   UNL A   1      34.845  35.778  32.269  1.00  0.00     0.016 A 
ATOM     48  C   UNL A   1      34.425  33.094  32.989  1.00  0.00     0.010 A 
ATOM     49  C   UNL A   1      35.931  34.930  32.477  1.00  0.00     0.010 A 
ATOM     50  C   UNL A   1      35.728  33.593  32.860  1.00  0.00    -0.014 A 
BRANCH  50  51
ATOM     51  C   UNL A   1      36.890  32.787  33.296  1.00  0.00     0.031 A 
ATOM     52  C   UNL A   1      37.535  33.126  34.609  1.00  0.00     0.074 A 
ATOM     53  C   UNL A   1      37.391  31.811  32.521  1.00  0.00     0.049 A 
ATOM     54  N   UNL A   1      38.637  32.665  35.138  1.00  0.00    -0.248 NA
ATOM     55  C   UNL A   1      36.840  34.128  35.434  1.00  0.00     0.031 C 
ATOM     56  C   UNL A   1      36.826  31.368  31.249  1.00  0.00     0.029 A 
ATOM     57  N   UNL A   1      38.509  31.033  32.686  1.00  0.00    -0.354 N 
ATOM     58  C   UNL A   1      38.773  33.323  36.351  1.00  0.00     0.074 A 
ATOM     59  C   UNL A   1      37.652  34.230  36.475  1.00  0.00     0.031 C 
ATOM     60  C   UNL A   1      37.620  30.413  30.731  1.00  0.00     0.029 A 
ATOM     61  C   UNL A   1      38.765  30.211  31.617  1.00  0.00     0.049 A 
ATOM     62  H   UNL A   1      39.073  31.062  33.492  1.00  0.00     0.167 HD
ATOM     63  C   UNL A   1      39.747  33.183  37.280  1.00  0.00     0.037 A 
ATOM     64  C   UNL A   1      39.827  29.418  31.369  1.00  0.00     0.037 A 
ATOM     65  C   UNL A   1      40.866  32.291  37.146  1.00  0.00     0.049 A 
ATOM     66  C   UNL A   1      40.953  29.356  32.372  1.00  0.00     0.074 A 
ATOM     67  C   UNL A   1      41.892  32.050  38.042  1.00  0.00     0.029 A 
ATOM     68  N   UNL A   1      41.113  31.503  36.031  1.00  0.00    -0.354 N 
ATOM     69  N   UNL A   1      41.062  29.955  33.533  1.00  0.00    -0.248 NA
ATOM     70  C   UNL A   1      42.110  28.519  32.020  1.00  0.00     0.031 C 
ATOM     71  C   UNL A   1      42.789  31.159  37.447  1.00  0.00     0.029 A 
ATOM     72  C   UNL A   1      42.297  30.806  36.200  1.00  0.00     0.049 A 
ATOM     73  H   UNL A   1      40.533  31.447  35.238  1.00  0.00     0.167 HD
ATOM     74  C   UNL A   1      42.287  29.557  34.057  1.00  0.00     0.074 A 
ATOM     75  C   UNL A   1      42.877  28.651  33.094  1.00  0.00     0.031 C 
ATOM     76  C   UNL A   1      42.872  29.911  35.228  1.00  0.00     0.037 A 
BRANCH  63  77
ATOM     77  C   UNL A   1      39.661  34.039  38.507  1.00  0.00     0.064 A 
ATOM     78  C   UNL A   1      40.244  35.313  38.557  1.00  0.00     0.173 A 
ATOM     79  C   UNL A   1      38.965  33.588  39.638  1.00  0.00     0.173 A 
ATOM     80  F   UNL A   1      40.935  35.781  37.508  1.00  0.00    -0.203 F 
ATOM     81  C   UNL A   1      40.151  36.098  39.704  1.00  0.00     0.198 A 
ATOM     82  C   UNL A   1      38.851  34.386  40.774  1.00  0.00     0.198 A 
ATOM     83  F   UNL A   1      38.391  32.375  39.642  1.00  0.00    -0.203 F 
ATOM     84  F   UNL A   1      40.751  37.294  39.746  1.00  0.00    -0.200 F 
ATOM     85  C   UNL A   1      39.449  35.636  40.808  1.00  0.00     0.200 A 
ATOM     86  F   UNL A   1      38.167  33.941  41.837  1.00  0.00    -0.200 F 
ATOM     87  F   UNL A   1      39.356  36.394  41.909  1.00  0.00    -0.200 F 
ENDBRANCH  63  77
BRANCH  64  88
ATOM     88  C   UNL A   1      39.901  28.647  30.100  1.00  0.00     0.064 A 
ATOM     89  C   UNL A   1      40.475  29.204  28.950  1.00  0.00     0.173 A 
ATOM     90  C   UNL A   1      39.378  27.348  30.006  1.00  0.00     0.173 A 
ATOM     91  F   UNL A   1      40.960  30.454  28.982  1.00  0.00    -0.203 F 
ATOM     92  C   UNL A   1      40.512  28.496  27.750  1.00  0.00     0.198 A 
ATOM     93  C   UNL A   1      39.439  26.632  28.813  1.00  0.00     0.198 A 
ATOM     94  F   UNL A   1      38.807  26.776  31.076  1.00  0.00    -0.203 F 
ATOM     95  F   UNL A   1      41.026  29.069  26.653  1.00  0.00    -0.200 F 
ATOM     96  C   UNL A   1      40.001  27.209  27.684  1.00  0.00     0.200 A 
ATOM     97  F   UNL A   1      38.945  25.387  28.754  1.00  0.00    -0.200 F 
ATOM     98  F   UNL A   1      40.036  26.530  26.529  1.00  0.00    -0.200 F 
ENDBRANCH  64  88
BRANCH  76  99
ATOM     99  C   UNL A   1      44.212  29.315  35.543  1.00  0.00     0.064 A 
ATOM    100  C   UNL A   1      45.403  29.972  35.197  1.00  0.00     0.173 A 
ATOM    101  C   UNL A   1      44.308  28.112  36.257  1.00  0.00     0.173 A 
ATOM    102  F   UNL A   1      45.363  31.118  34.501  1.00  0.00    -0.203 F 
ATOM    103  C   UNL A   1      46.641  29.438  35.546  1.00  0.00     0.198 A 
ATOM    104  C   UNL A   1      45.546  27.596  36.628  1.00  0.00     0.198 A 
ATOM    105  F   UNL A   1      43.198  27.450  36.617  1.00  0.00    -0.203 F 
ATOM    106  F   UNL A   1      47.766  30.065  35.178  1.00  0.00    -0.200 F 
ATOM    107  C   UNL A   1      46.711  28.257  36.269  1.00  0.00     0.200 A 
ATOM    108  F   UNL A   1      45.612  26.461  37.340  1.00  0.00    -0.200 F 
ATOM    109  F   UNL A   1      47.903  27.753  36.617  1.00  0.00    -0.200 F 
ENDBRANCH  76  99
ENDBRANCH  50  51
ENDBRANCH  43  45
ENDBRANCH  42  43
ENDBRANCH  41  42
ENDBRANCH  40  41
ENDBRANCH  39  40
ENDBRANCH  38  39
ENDBRANCH  37  38
ENDBRANCH  36  37
ENDBRANCH   1  36
TORSDOF 24
ENDMDL
MODEL 3
REMARK VINA RESULT:     -10.4      1.813      3.709
REMARK SMILES CC(=O)Nc1cc(NC(C)=O)cc(C(=O)Nc2ccc(Br)cc2C(=O)OCCOCCOCCOCCOC(=O)c2ccc(-c3c4nc(c(-c5c(F)c(F)c(F)c(F)c5F)c5ccc([nH]5)c(-c5c(F)c(F)c(F)c(F)c5F)c5nc(c(-c6c(F)c(F)c(F)c(F)c6F)c6ccc3[nH]6)C=C5)C=C4)cc2)c1
REMARK SMILES IDX 31 1 30 2 29 3 28 4 27 5 26 6 24 7 25 8 23 9 17 10 18 11
REMARK SMILES IDX 19 12 22 13 20 14 21 15 16 16 14 17 15 18 13 20 5 21 6 22
REMARK SMILES IDX 104 23 7 24 12 25 4 26 1 27 2 28 3 29 8 31 9 32 10 34 11 35
REMARK SMILES IDX 32 36 33 37 34 38 35 39 36 40 37 41 38 42 39 43 40 44 41 45
REMARK SMILES IDX 42 46 103 47 43 48 102 49 44 50 45 51 46 52 96 53 47 54
REMARK SMILES IDX 101 55 95 56 97 57 48 58 100 59 94 60 93 61 49 63 81 64
REMARK SMILES IDX 61 65 80 66 62 67 65 68 79 69 98 70 63 71 64 72 78 74 99 75
REMARK SMILES IDX 66 76 50 77 51 78 59 79 52 80 53 81 57 82 60 83 54 84 55 85
REMARK SMILES IDX 58 86 56 87 82 88 83 89 91 90 84 91 85 92 89 93 92 94 86 95
REMARK SMILES IDX 87 96 90 97 88 98 67 99 68 100 76 101 69 102 70 103 74 104
REMARK SMILES IDX 77 105 71 106 72 107 75 108 73 109
REMARK H PARENT 16 19 4 30 8 33 97 62 65 73
REMARK Flexibility Score: inf
ROOT
ATOM      1  C   UNL A   1      34.325  31.279  27.481  1.00  0.00     0.188 C 
ENDROOT
BRANCH   1   2
ATOM      2  C   UNL A   1      34.803  29.831  27.705  1.00  0.00     0.188 C 
BRANCH   2   3
ATOM      3  O   UNL A   1      34.391  28.774  26.849  1.00  0.00    -0.376 OA
BRANCH   3   4
ATOM      4  C   UNL A   1      33.360  28.931  25.889  1.00  0.00     0.202 C 
BRANCH   4   5
ATOM      5  C   UNL A   1      31.880  28.736  26.216  1.00  0.00     0.261 C 
BRANCH   5   6
ATOM      6  O   UNL A   1      31.294  27.476  25.865  1.00  0.00    -0.460 OA
BRANCH   6   7
ATOM      7  C   UNL A   1      30.804  27.428  24.610  1.00  0.00     0.340 C 
ATOM      8  O   UNL A   1      30.267  28.356  24.022  1.00  0.00    -0.246 OA
BRANCH   7   9
ATOM      9  C   UNL A   1      31.123  26.152  23.923  1.00  0.00     0.084 A 
ATOM     10  C   UNL A   1      31.066  24.845  24.449  1.00  0.00     0.056 A 
ATOM     11  C   UNL A   1      31.587  23.800  23.654  1.00  0.00     0.028 A 
ATOM     12  C   UNL A   1      32.058  24.017  22.354  1.00  0.00     0.018 A 
ATOM     13  C   UNL A   1      31.596  26.357  22.604  1.00  0.00     0.033 A 
ATOM     14  C   UNL A   1      32.046  25.298  21.828  1.00  0.00     0.018 A 
ATOM     15  Br  UNL A   1      32.645  25.610  20.066  1.00  0.00    -0.051 Br
BRANCH  10  16
ATOM     16  N   UNL A   1      30.520  24.387  25.674  1.00  0.00    -0.321 N 
ATOM     17  C   UNL A   1      30.808  23.367  26.556  1.00  0.00     0.255 C 
ATOM     18  O   UNL A   1      30.015  23.126  27.468  1.00  0.00    -0.269 OA
ATOM     19  H   UNL A   1      29.750  24.926  25.965  1.00  0.00     0.170 HD
BRANCH  17  20
ATOM     20  C   UNL A   1      32.056  22.575  26.487  1.00  0.00     0.044 A 
ATOM     21  C   UNL A   1      34.454  22.530  26.609  1.00  0.00     0.044 A 
ATOM     22  C   UNL A   1      34.446  21.425  25.736  1.00  0.00     0.052 A 
ATOM     23  C   UNL A   1      33.242  23.034  27.066  1.00  0.00     0.040 A 
ATOM     24  C   UNL A   1      33.250  20.858  25.279  1.00  0.00     0.044 A 
ATOM     25  C   UNL A   1      32.045  21.431  25.681  1.00  0.00     0.040 A 
BRANCH  21  26
ATOM     26  N   UNL A   1      35.685  23.208  26.742  1.00  0.00    -0.326 N 
ATOM     27  C   UNL A   1      36.463  23.573  24.395  1.00  0.00     0.114 C 
ATOM     28  C   UNL A   1      36.695  23.505  25.875  1.00  0.00     0.221 C 
ATOM     29  O   UNL A   1      37.815  23.753  26.330  1.00  0.00    -0.275 OA
ATOM     30  H   UNL A   1      35.850  23.536  27.655  1.00  0.00     0.169 HD
ENDBRANCH  21  26
BRANCH  24  31
ATOM     31  N   UNL A   1      33.175  19.822  24.321  1.00  0.00    -0.326 N 
ATOM     32  C   UNL A   1      32.654  18.554  24.507  1.00  0.00     0.221 C 
ATOM     33  H   UNL A   1      33.532  20.024  23.426  1.00  0.00     0.169 HD
ATOM     34  C   UNL A   1      32.746  17.686  23.278  1.00  0.00     0.114 C 
ATOM     35  O   UNL A   1      32.170  18.111  25.543  1.00  0.00    -0.275 OA
ENDBRANCH  24  31
ENDBRANCH  17  20
ENDBRANCH  10  16
ENDBRANCH   7   9
ENDBRANCH   6   7
ENDBRANCH   5   6
ENDBRANCH   4   5
ENDBRANCH   3   4
ENDBRANCH   2   3
ENDBRANCH   1   2
BRANCH   1  36
ATOM     36  O   UNL A   1      35.365  32.239  27.455  1.00  0.00    -0.377 OA
BRANCH  36  37
ATOM     37  C   UNL A   1      35.474  33.091  28.589  1.00  0.00     0.188 C 
BRANCH  37  38
ATOM     38  C   UNL A   1      34.990  34.549  28.455  1.00  0.00     0.188 C 
BRANCH  38  39
ATOM     39  O   UNL A   1      33.655  34.662  27.974  1.00  0.00    -0.376 OA
BRANCH  39  40
ATOM     40  C   UNL A   1      32.721  35.339  28.803  1.00  0.00     0.202 C 
BRANCH  40  41
ATOM     41  C   UNL A   1      33.325  35.992  30.053  1.00  0.00     0.261 C 
BRANCH  41  42
ATOM     42  O   UNL A   1      32.383  36.593  30.959  1.00  0.00    -0.460 OA
BRANCH  42  43
ATOM     43  C   UNL A   1      32.296  36.096  32.213  1.00  0.00     0.338 C 
ATOM     44  O   UNL A   1      31.372  36.201  32.994  1.00  0.00    -0.246 OA
BRANCH  43  45
ATOM     45  C   UNL A   1      33.465  35.216  32.412  1.00  0.00     0.060 A 
ATOM     46  C   UNL A   1      33.260  33.889  32.813  1.00  0.00     0.016 A 
ATOM     47  C   UNL A   1      34.754  35.701  32.184  1.00  0.00     0.016 A 
ATOM     48  C   UNL A   1      34.354  33.043  33.003  1.00  0.00     0.010 A 
ATOM     49  C   UNL A   1      35.847  34.863  32.401  1.00  0.00     0.010 A 
ATOM     50  C   UNL A   1      35.653  33.540  32.834  1.00  0.00    -0.014 A 
BRANCH  50  51
ATOM     51  C   UNL A   1      36.825  32.752  33.276  1.00  0.00     0.031 A 
ATOM     52  C   UNL A   1      37.468  33.112  34.583  1.00  0.00     0.074 A 
ATOM     53  C   UNL A   1      37.335  31.773  32.510  1.00  0.00     0.049 A 
ATOM     54  N   UNL A   1      38.577  32.669  35.115  1.00  0.00    -0.248 NA
ATOM     55  C   UNL A   1      36.765  34.115  35.399  1.00  0.00     0.031 C 
ATOM     56  C   UNL A   1      36.773  31.310  31.244  1.00  0.00     0.029 A 
ATOM     57  N   UNL A   1      38.462  31.009  32.681  1.00  0.00    -0.354 N 
ATOM     58  C   UNL A   1      38.708  33.342  36.321  1.00  0.00     0.074 A 
ATOM     59  C   UNL A   1      37.577  34.238  36.437  1.00  0.00     0.031 C 
ATOM     60  C   UNL A   1      37.577  30.359  30.735  1.00  0.00     0.029 A 
ATOM     61  C   UNL A   1      38.726  30.178  31.621  1.00  0.00     0.049 A 
ATOM     62  H   UNL A   1      39.027  31.053  33.486  1.00  0.00     0.167 HD
ATOM     63  C   UNL A   1      39.685  33.222  37.250  1.00  0.00     0.037 A 
ATOM     64  C   UNL A   1      39.796  29.395  31.379  1.00  0.00     0.037 A 
ATOM     65  C   UNL A   1      40.814  32.342  37.123  1.00  0.00     0.049 A 
ATOM     66  C   UNL A   1      40.925  29.356  32.381  1.00  0.00     0.074 A 
ATOM     67  C   UNL A   1      41.844  32.122  38.020  1.00  0.00     0.029 A 
ATOM     68  N   UNL A   1      41.068  31.544  36.016  1.00  0.00    -0.354 N 
ATOM     69  N   UNL A   1      41.029  29.969  33.535  1.00  0.00    -0.248 NA
ATOM     70  C   UNL A   1      42.090  28.528  32.035  1.00  0.00     0.031 C 
ATOM     71  C   UNL A   1      42.750  31.234  37.432  1.00  0.00     0.029 A 
ATOM     72  C   UNL A   1      42.260  30.862  36.190  1.00  0.00     0.049 A 
ATOM     73  H   UNL A   1      40.487  31.474  35.225  1.00  0.00     0.167 HD
ATOM     74  C   UNL A   1      42.260  29.590  34.060  1.00  0.00     0.074 A 
ATOM     75  C   UNL A   1      42.858  28.680  33.106  1.00  0.00     0.031 C 
ATOM     76  C   UNL A   1      42.842  29.964  35.226  1.00  0.00     0.037 A 
BRANCH  63  77
ATOM     77  C   UNL A   1      39.592  34.091  38.468  1.00  0.00     0.064 A 
ATOM     78  C   UNL A   1      38.901  33.676  39.615  1.00  0.00     0.173 A 
ATOM     79  C   UNL A   1      40.223  35.342  38.495  1.00  0.00     0.173 A 
ATOM     80  F   UNL A   1      38.264  32.496  39.632  1.00  0.00    -0.203 F 
ATOM     81  C   UNL A   1      38.827  34.494  40.740  1.00  0.00     0.198 A 
ATOM     82  C   UNL A   1      40.171  36.146  39.631  1.00  0.00     0.198 A 
ATOM     83  F   UNL A   1      40.896  35.785  37.422  1.00  0.00    -0.203 F 
ATOM     84  F   UNL A   1      38.126  34.098  41.810  1.00  0.00    -0.200 F 
ATOM     85  C   UNL A   1      39.469  35.724  40.749  1.00  0.00     0.200 A 
ATOM     86  F   UNL A   1      40.797  37.331  39.640  1.00  0.00    -0.200 F 
ATOM     87  F   UNL A   1      39.402  36.508  41.834  1.00  0.00    -0.200 F 
ENDBRANCH  63  77
BRANCH  64  88
ATOM     88  C   UNL A   1      39.876  28.611  30.119  1.00  0.00     0.064 A 
ATOM     89  C   UNL A   1      40.500  29.137  28.981  1.00  0.00     0.173 A 
ATOM     90  C   UNL A   1      39.310  27.331  30.021  1.00  0.00     0.173 A 
ATOM     91  F   UNL A   1      41.028  30.370  29.016  1.00  0.00    -0.203 F 
ATOM     92  C   UNL A   1      40.544  28.419  27.787  1.00  0.00     0.198 A 
ATOM     93  C   UNL A   1      39.377  26.602  28.834  1.00  0.00     0.198 A 
ATOM     94  F   UNL A   1      38.690  26.788  31.078  1.00  0.00    -0.203 F 
ATOM     95  F   UNL A   1      41.107  28.964  26.700  1.00  0.00    -0.200 F 
ATOM     96  C   UNL A   1      39.988  27.150  27.717  1.00  0.00     0.200 A 
ATOM     97  F   UNL A   1      38.840  25.376  28.772  1.00  0.00    -0.200 F 
ATOM     98  F   UNL A   1      40.030  26.460  26.568  1.00  0.00    -0.200 F 
ENDBRANCH  64  88
BRANCH  76  99
ATOM     99  C   UNL A   1      44.190  29.386  35.545  1.00  0.00     0.064 A 
ATOM    100  C   UNL A   1      44.319  28.149  36.195  1.00  0.00     0.173 A 
ATOM    101  C   UNL A   1      45.362  30.040  35.136  1.00  0.00     0.173 A 
ATOM    102  F   UNL A   1      43.229  27.493  36.619  1.00  0.00    -0.203 F 
ATOM    103  C   UNL A   1      45.574  27.595  36.433  1.00  0.00     0.198 A 
ATOM    104  C   UNL A   1      46.612  29.470  35.351  1.00  0.00     0.198 A 
ATOM    105  F   UNL A   1      45.290  31.221  34.504  1.00  0.00    -0.203 F 
ATOM    106  F   UNL A   1      45.676  26.429  37.085  1.00  0.00    -0.200 F 
ATOM    107  C   UNL A   1      46.719  28.250  36.003  1.00  0.00     0.200 A 
ATOM    108  F   UNL A   1      47.717  30.097  34.922  1.00  0.00    -0.200 F 
ATOM    109  F   UNL A   1      47.924  27.708  36.220  1.00  0.00    -0.200 F 
ENDBRANCH  76  99
ENDBRANCH  50  51
ENDBRANCH  43  45
ENDBRANCH  42  43
ENDBRANCH  41  42
ENDBRANCH  40  41
ENDBRANCH  39  40
ENDBRANCH  38  39
ENDBRANCH  37  38
ENDBRANCH  36  37
ENDBRANCH   1  36
TORSDOF 24
ENDMDL
