MODEL 1
REMARK VINA RESULT:     -10.9      0.000      0.000
REMARK SMILES Cc1cccc(C(=O)OCCOCCOCCOCCOC(=O)c2ccc(-c3c4nc(c(-c5c(F)c(F)c(F)c(F)c5F)c5ccc([nH]5)c(-c5c(F)c(F)c(F)c(F)c5F)c5nc(c(-c6c(F)c(F)c(F)c(F)c6F)c6ccc3[nH]6)C=C5)C=C4)cc2)c1OC[C@@H]1C[C@H]2CC[C@@H]1C2
REMARK SMILES IDX 14 1 13 2 12 3 11 4 10 5 9 6 7 7 8 8 6 9 1 10 2 11 3 12
REMARK SMILES IDX 87 13 4 14 5 15 88 16 89 17 90 18 91 19 95 20 92 21 94 22
REMARK SMILES IDX 96 23 93 24 15 25 16 26 17 27 18 28 19 29 20 30 21 31 22 32
REMARK SMILES IDX 23 33 24 34 25 35 86 36 26 37 85 38 27 39 28 40 29 41 79 42
REMARK SMILES IDX 30 43 84 44 78 45 80 46 31 47 83 48 77 49 76 50 32 52 64 53
REMARK SMILES IDX 44 54 63 55 45 56 48 57 62 58 81 59 46 60 47 61 61 63 82 64
REMARK SMILES IDX 49 65 33 66 34 67 42 68 35 69 36 70 40 71 43 72 37 73 38 74
REMARK SMILES IDX 41 75 39 76 65 77 66 78 74 79 67 80 68 81 72 82 75 83 69 84
REMARK SMILES IDX 70 85 73 86 71 87 50 88 51 89 59 90 52 91 53 92 57 93 60 94
REMARK SMILES IDX 54 95 55 96 58 97 56 98
REMARK H PARENT 80 51 48 62
REMARK Flexibility Score: inf
ROOT
ATOM      1  C   UNL A   1      32.006  23.103  26.691  1.00  0.00     0.188 C 
ENDROOT
BRANCH   1   2
ATOM      2  C   UNL A   1      31.369  22.366  25.493  1.00  0.00     0.188 C 
BRANCH   2   3
ATOM      3  O   UNL A   1      30.905  23.111  24.373  1.00  0.00    -0.376 OA
BRANCH   3   4
ATOM      4  C   UNL A   1      31.824  23.223  23.285  1.00  0.00     0.202 C 
BRANCH   4   5
ATOM      5  C   UNL A   1      32.046  24.627  22.740  1.00  0.00     0.261 C 
BRANCH   5   6
ATOM      6  O   UNL A   1      33.362  25.045  23.116  1.00  0.00    -0.460 OA
BRANCH   6   7
ATOM      7  C   UNL A   1      33.652  26.331  22.839  1.00  0.00     0.342 C 
ATOM      8  O   UNL A   1      33.736  26.854  21.750  1.00  0.00    -0.246 OA
BRANCH   7   9
ATOM      9  C   UNL A   1      33.291  27.102  24.038  1.00  0.00     0.102 A 
ATOM     10  C   UNL A   1      31.622  30.173  25.620  1.00  0.00     0.048 C 
ATOM     11  C   UNL A   1      32.322  28.884  25.307  1.00  0.00    -0.008 A 
ATOM     12  C   UNL A   1      33.039  28.384  26.434  1.00  0.00     0.007 A 
ATOM     13  C   UNL A   1      32.407  28.210  24.075  1.00  0.00     0.136 A 
ATOM     14  C   UNL A   1      33.916  27.317  26.356  1.00  0.00     0.001 A 
ATOM     15  C   UNL A   1      34.053  26.682  25.147  1.00  0.00     0.019 A 
BRANCH  13  16
ATOM     16  O   UNL A   1      31.853  28.523  22.871  1.00  0.00    -0.492 OA
BRANCH  16  17
ATOM     17  C   UNL A   1      30.532  28.229  22.393  1.00  0.00     0.233 C 
BRANCH  17  18
ATOM     18  C   UNL A   1      29.502  29.194  22.971  1.00  0.00     0.030 C 
ATOM     19  C   UNL A   1      28.028  28.729  22.988  1.00  0.00     0.011 C 
ATOM     20  C   UNL A   1      29.380  30.543  22.218  1.00  0.00    -0.004 C 
ATOM     21  C   UNL A   1      27.268  30.029  22.644  1.00  0.00    -0.010 C 
ATOM     22  C   UNL A   1      29.023  31.585  23.276  1.00  0.00     0.004 C 
ATOM     23  C   UNL A   1      28.070  30.462  21.428  1.00  0.00     0.007 C 
ATOM     24  C   UNL A   1      27.598  31.155  23.658  1.00  0.00     0.004 C 
ENDBRANCH  17  18
ENDBRANCH  16  17
ENDBRANCH  13  16
ENDBRANCH   7   9
ENDBRANCH   6   7
ENDBRANCH   5   6
ENDBRANCH   4   5
ENDBRANCH   3   4
ENDBRANCH   2   3
ENDBRANCH   1   2
BRANCH   1  25
ATOM     25  O   UNL A   1      33.298  23.647  26.481  1.00  0.00    -0.377 OA
BRANCH  25  26
ATOM     26  C   UNL A   1      34.421  22.785  26.619  1.00  0.00     0.188 C 
BRANCH  26  27
ATOM     27  C   UNL A   1      35.781  23.199  26.114  1.00  0.00     0.188 C 
BRANCH  27  28
ATOM     28  O   UNL A   1      36.640  22.074  26.224  1.00  0.00    -0.376 OA
BRANCH  28  29
ATOM     29  C   UNL A   1      37.813  22.132  25.426  1.00  0.00     0.202 C 
BRANCH  29  30
ATOM     30  C   UNL A   1      39.014  22.676  26.205  1.00  0.00     0.261 C 
BRANCH  30  31
ATOM     31  O   UNL A   1      39.631  21.594  26.940  1.00  0.00    -0.460 OA
BRANCH  31  32
ATOM     32  C   UNL A   1      40.861  21.207  26.497  1.00  0.00     0.338 C 
ATOM     33  O   UNL A   1      41.105  20.137  25.962  1.00  0.00    -0.246 OA
BRANCH  32  34
ATOM     34  C   UNL A   1      41.918  22.130  27.023  1.00  0.00     0.060 A 
ATOM     35  C   UNL A   1      41.967  22.456  28.389  1.00  0.00     0.016 A 
ATOM     36  C   UNL A   1      42.603  22.929  26.125  1.00  0.00     0.016 A 
ATOM     37  C   UNL A   1      42.504  23.693  28.812  1.00  0.00     0.010 A 
ATOM     38  C   UNL A   1      43.021  24.181  26.541  1.00  0.00     0.010 A 
ATOM     39  C   UNL A   1      42.925  24.627  27.874  1.00  0.00    -0.014 A 
BRANCH  39  40
ATOM     40  C   UNL A   1      43.200  26.078  28.105  1.00  0.00     0.031 A 
ATOM     41  C   UNL A   1      42.004  27.009  28.061  1.00  0.00     0.074 A 
ATOM     42  C   UNL A   1      44.355  26.508  28.709  1.00  0.00     0.049 A 
ATOM     43  N   UNL A   1      41.986  28.211  28.520  1.00  0.00    -0.248 NA
ATOM     44  C   UNL A   1      40.673  26.630  27.570  1.00  0.00     0.031 C 
ATOM     45  C   UNL A   1      44.508  27.716  29.531  1.00  0.00     0.029 A 
ATOM     46  N   UNL A   1      45.653  25.953  28.816  1.00  0.00    -0.354 N 
ATOM     47  C   UNL A   1      40.684  28.607  28.730  1.00  0.00     0.074 A 
ATOM     48  C   UNL A   1      39.897  27.607  28.060  1.00  0.00     0.031 C 
ATOM     49  C   UNL A   1      45.767  27.895  29.949  1.00  0.00     0.029 A 
ATOM     50  C   UNL A   1      46.541  27.022  29.121  1.00  0.00     0.049 A 
ATOM     51  H   UNL A   1      45.895  25.005  28.702  1.00  0.00     0.167 HD
ATOM     52  C   UNL A   1      40.459  29.679  29.549  1.00  0.00     0.037 A 
ATOM     53  C   UNL A   1      47.467  27.473  28.229  1.00  0.00     0.037 A 
ATOM     54  C   UNL A   1      41.711  30.402  29.820  1.00  0.00     0.049 A 
ATOM     55  C   UNL A   1      47.125  28.909  27.868  1.00  0.00     0.074 A 
ATOM     56  C   UNL A   1      42.375  30.808  30.960  1.00  0.00     0.029 A 
ATOM     57  N   UNL A   1      42.583  30.674  28.759  1.00  0.00    -0.354 N 
ATOM     58  N   UNL A   1      45.890  29.359  27.783  1.00  0.00    -0.248 NA
ATOM     59  C   UNL A   1      48.112  29.985  27.901  1.00  0.00     0.031 C 
ATOM     60  C   UNL A   1      43.715  31.139  30.591  1.00  0.00     0.029 A 
ATOM     61  C   UNL A   1      43.833  31.047  29.210  1.00  0.00     0.049 A 
ATOM     62  H   UNL A   1      42.336  30.606  27.809  1.00  0.00     0.167 HD
ATOM     63  C   UNL A   1      45.905  30.721  27.948  1.00  0.00     0.074 A 
ATOM     64  C   UNL A   1      47.320  31.072  27.944  1.00  0.00     0.031 C 
ATOM     65  C   UNL A   1      44.844  31.520  28.280  1.00  0.00     0.037 A 
BRANCH  52  66
ATOM     66  C   UNL A   1      39.149  30.031  30.255  1.00  0.00     0.064 A 
ATOM     67  C   UNL A   1      38.881  29.542  31.559  1.00  0.00     0.173 A 
ATOM     68  C   UNL A   1      38.071  30.732  29.672  1.00  0.00     0.173 A 
ATOM     69  F   UNL A   1      39.810  28.868  32.251  1.00  0.00    -0.203 F 
ATOM     70  C   UNL A   1      37.650  29.721  32.206  1.00  0.00     0.198 A 
ATOM     71  C   UNL A   1      36.859  30.962  30.345  1.00  0.00     0.198 A 
ATOM     72  F   UNL A   1      38.123  31.182  28.414  1.00  0.00    -0.203 F 
ATOM     73  F   UNL A   1      37.446  29.181  33.417  1.00  0.00    -0.200 F 
ATOM     74  C   UNL A   1      36.643  30.444  31.606  1.00  0.00     0.200 A 
ATOM     75  F   UNL A   1      35.891  31.674  29.749  1.00  0.00    -0.200 F 
ATOM     76  F   UNL A   1      35.471  30.634  32.230  1.00  0.00    -0.200 F 
ENDBRANCH  52  66
BRANCH  53  77
ATOM     77  C   UNL A   1      48.035  26.314  27.474  1.00  0.00     0.064 A 
ATOM     78  C   UNL A   1      47.757  26.365  26.083  1.00  0.00     0.173 A 
ATOM     79  C   UNL A   1      49.267  25.764  27.854  1.00  0.00     0.173 A 
ATOM     80  F   UNL A   1      46.571  26.833  25.658  1.00  0.00    -0.203 F 
ATOM     81  C   UNL A   1      48.770  26.196  25.139  1.00  0.00     0.198 A 
ATOM     82  C   UNL A   1      50.258  25.522  26.891  1.00  0.00     0.198 A 
ATOM     83  F   UNL A   1      49.589  25.656  29.150  1.00  0.00    -0.203 F 
ATOM     84  F   UNL A   1      48.552  26.520  23.856  1.00  0.00    -0.200 F 
ATOM     85  C   UNL A   1      50.037  25.829  25.554  1.00  0.00     0.200 A 
ATOM     86  F   UNL A   1      51.477  25.116  27.274  1.00  0.00    -0.200 F 
ATOM     87  F   UNL A   1      51.058  25.838  24.682  1.00  0.00    -0.200 F 
ENDBRANCH  53  77
BRANCH  65  88
ATOM     88  C   UNL A   1      44.677  32.919  27.733  1.00  0.00     0.064 A 
ATOM     89  C   UNL A   1      44.083  33.174  26.488  1.00  0.00     0.173 A 
ATOM     90  C   UNL A   1      44.893  34.059  28.552  1.00  0.00     0.173 A 
ATOM     91  F   UNL A   1      43.721  32.183  25.663  1.00  0.00    -0.203 F 
ATOM     92  C   UNL A   1      43.781  34.469  26.071  1.00  0.00     0.198 A 
ATOM     93  C   UNL A   1      44.531  35.341  28.156  1.00  0.00     0.198 A 
ATOM     94  F   UNL A   1      45.409  33.972  29.786  1.00  0.00    -0.203 F 
ATOM     95  F   UNL A   1      43.245  34.658  24.858  1.00  0.00    -0.200 F 
ATOM     96  C   UNL A   1      43.991  35.549  26.907  1.00  0.00     0.200 A 
ATOM     97  F   UNL A   1      44.680  36.366  29.006  1.00  0.00    -0.200 F 
ATOM     98  F   UNL A   1      43.649  36.782  26.518  1.00  0.00    -0.200 F 
ENDBRANCH  65  88
ENDBRANCH  39  40
ENDBRANCH  32  34
ENDBRANCH  31  32
ENDBRANCH  30  31
ENDBRANCH  29  30
ENDBRANCH  28  29
ENDBRANCH  27  28
ENDBRANCH  26  27
ENDBRANCH  25  26
ENDBRANCH   1  25
TORSDOF 23
ENDMDL
MODEL 2
REMARK VINA RESULT:     -10.5      1.020      2.669
REMARK SMILES Cc1cccc(C(=O)OCCOCCOCCOCCOC(=O)c2ccc(-c3c4nc(c(-c5c(F)c(F)c(F)c(F)c5F)c5ccc([nH]5)c(-c5c(F)c(F)c(F)c(F)c5F)c5nc(c(-c6c(F)c(F)c(F)c(F)c6F)c6ccc3[nH]6)C=C5)C=C4)cc2)c1OC[C@@H]1C[C@H]2CC[C@@H]1C2
REMARK SMILES IDX 14 1 13 2 12 3 11 4 10 5 9 6 7 7 8 8 6 9 1 10 2 11 3 12
REMARK SMILES IDX 87 13 4 14 5 15 88 16 89 17 90 18 91 19 95 20 92 21 94 22
REMARK SMILES IDX 96 23 93 24 15 25 16 26 17 27 18 28 19 29 20 30 21 31 22 32
REMARK SMILES IDX 23 33 24 34 25 35 86 36 26 37 85 38 27 39 28 40 29 41 79 42
REMARK SMILES IDX 30 43 84 44 78 45 80 46 31 47 83 48 77 49 76 50 32 52 64 53
REMARK SMILES IDX 44 54 63 55 45 56 48 57 62 58 81 59 46 60 47 61 61 63 82 64
REMARK SMILES IDX 49 65 33 66 34 67 42 68 35 69 36 70 40 71 43 72 37 73 38 74
REMARK SMILES IDX 41 75 39 76 65 77 66 78 74 79 67 80 68 81 72 82 75 83 69 84
REMARK SMILES IDX 70 85 73 86 71 87 50 88 51 89 59 90 52 91 53 92 57 93 60 94
REMARK SMILES IDX 54 95 55 96 58 97 56 98
REMARK H PARENT 80 51 48 62
REMARK Flexibility Score: inf
ROOT
ATOM      1  C   UNL A   1      34.207  22.521  25.011  1.00  0.00     0.188 C 
ENDROOT
BRANCH   1   2
ATOM      2  C   UNL A   1      33.150  21.780  24.163  1.00  0.00     0.188 C 
BRANCH   2   3
ATOM      3  O   UNL A   1      32.518  22.453  23.080  1.00  0.00    -0.376 OA
BRANCH   3   4
ATOM      4  C   UNL A   1      32.085  23.786  23.353  1.00  0.00     0.202 C 
BRANCH   4   5
ATOM      5  C   UNL A   1      30.601  24.059  23.155  1.00  0.00     0.261 C 
BRANCH   5   6
ATOM      6  O   UNL A   1      30.421  25.476  23.054  1.00  0.00    -0.460 OA
BRANCH   6   7
ATOM      7  C   UNL A   1      29.703  26.031  24.050  1.00  0.00     0.342 C 
ATOM      8  O   UNL A   1      29.885  25.926  25.243  1.00  0.00    -0.246 OA
BRANCH   7   9
ATOM      9  C   UNL A   1      29.043  27.212  23.472  1.00  0.00     0.102 A 
ATOM     10  C   UNL A   1      29.287  30.685  21.863  1.00  0.00     0.048 C 
ATOM     11  C   UNL A   1      28.877  29.363  22.439  1.00  0.00    -0.008 A 
ATOM     12  C   UNL A   1      27.481  29.323  22.731  1.00  0.00     0.007 A 
ATOM     13  C   UNL A   1      29.688  28.265  22.777  1.00  0.00     0.136 A 
ATOM     14  C   UNL A   1      26.889  28.293  23.439  1.00  0.00     0.001 A 
ATOM     15  C   UNL A   1      27.677  27.238  23.823  1.00  0.00     0.019 A 
BRANCH  13  16
ATOM     16  O   UNL A   1      31.033  28.099  22.636  1.00  0.00    -0.492 OA
BRANCH  16  17
ATOM     17  C   UNL A   1      32.091  28.741  23.363  1.00  0.00     0.233 C 
BRANCH  17  18
ATOM     18  C   UNL A   1      31.813  28.747  24.863  1.00  0.00     0.030 C 
ATOM     19  C   UNL A   1      31.501  30.112  25.517  1.00  0.00     0.011 C 
ATOM     20  C   UNL A   1      32.989  28.257  25.744  1.00  0.00    -0.004 C 
ATOM     21  C   UNL A   1      32.223  29.999  26.878  1.00  0.00    -0.010 C 
ATOM     22  C   UNL A   1      32.354  27.574  26.953  1.00  0.00     0.004 C 
ATOM     23  C   UNL A   1      33.579  29.515  26.390  1.00  0.00     0.007 C 
ATOM     24  C   UNL A   1      31.718  28.771  27.679  1.00  0.00     0.004 C 
ENDBRANCH  17  18
ENDBRANCH  16  17
ENDBRANCH  13  16
ENDBRANCH   7   9
ENDBRANCH   6   7
ENDBRANCH   5   6
ENDBRANCH   4   5
ENDBRANCH   3   4
ENDBRANCH   2   3
ENDBRANCH   1   2
BRANCH   1  25
ATOM     25  O   UNL A   1      35.119  23.343  24.302  1.00  0.00    -0.377 OA
BRANCH  25  26
ATOM     26  C   UNL A   1      36.487  22.954  24.266  1.00  0.00     0.188 C 
BRANCH  26  27
ATOM     27  C   UNL A   1      36.878  21.498  24.314  1.00  0.00     0.188 C 
BRANCH  27  28
ATOM     28  O   UNL A   1      38.041  21.392  25.122  1.00  0.00    -0.376 OA
BRANCH  28  29
ATOM     29  C   UNL A   1      38.188  22.408  26.102  1.00  0.00     0.202 C 
BRANCH  29  30
ATOM     30  C   UNL A   1      39.634  22.532  26.592  1.00  0.00     0.261 C 
BRANCH  30  31
ATOM     31  O   UNL A   1      40.459  21.583  25.878  1.00  0.00    -0.460 OA
BRANCH  31  32
ATOM     32  C   UNL A   1      41.403  20.943  26.625  1.00  0.00     0.338 C 
ATOM     33  O   UNL A   1      41.306  19.800  27.043  1.00  0.00    -0.246 OA
BRANCH  32  34
ATOM     34  C   UNL A   1      42.427  21.921  27.117  1.00  0.00     0.060 A 
ATOM     35  C   UNL A   1      42.502  22.254  28.481  1.00  0.00     0.016 A 
ATOM     36  C   UNL A   1      43.041  22.752  26.196  1.00  0.00     0.016 A 
ATOM     37  C   UNL A   1      42.988  23.518  28.884  1.00  0.00     0.010 A 
ATOM     38  C   UNL A   1      43.407  24.025  26.598  1.00  0.00     0.010 A 
ATOM     39  C   UNL A   1      43.330  24.469  27.932  1.00  0.00    -0.014 A 
BRANCH  39  40
ATOM     40  C   UNL A   1      43.537  25.933  28.153  1.00  0.00     0.031 A 
ATOM     41  C   UNL A   1      42.303  26.810  28.075  1.00  0.00     0.074 A 
ATOM     42  C   UNL A   1      44.660  26.419  28.774  1.00  0.00     0.049 A 
ATOM     43  N   UNL A   1      42.223  28.015  28.520  1.00  0.00    -0.248 NA
ATOM     44  C   UNL A   1      40.999  26.368  27.562  1.00  0.00     0.031 C 
ATOM     45  C   UNL A   1      44.743  27.642  29.586  1.00  0.00     0.029 A 
ATOM     46  N   UNL A   1      45.978  25.923  28.913  1.00  0.00    -0.354 N 
ATOM     47  C   UNL A   1      40.900  28.356  28.700  1.00  0.00     0.074 A 
ATOM     48  C   UNL A   1      40.172  27.316  28.026  1.00  0.00     0.031 C 
ATOM     49  C   UNL A   1      45.984  27.879  30.027  1.00  0.00     0.029 A 
ATOM     50  C   UNL A   1      46.812  27.033  29.224  1.00  0.00     0.049 A 
ATOM     51  H   UNL A   1      46.263  24.985  28.815  1.00  0.00     0.167 HD
ATOM     52  C   UNL A   1      40.613  29.425  29.503  1.00  0.00     0.037 A 
ATOM     53  C   UNL A   1      47.736  27.515  28.346  1.00  0.00     0.037 A 
ATOM     54  C   UNL A   1      41.827  30.205  29.790  1.00  0.00     0.049 A 
ATOM     55  C   UNL A   1      47.339  28.930  27.963  1.00  0.00     0.074 A 
ATOM     56  C   UNL A   1      42.449  30.651  30.939  1.00  0.00     0.029 A 
ATOM     57  N   UNL A   1      42.708  30.504  28.744  1.00  0.00    -0.354 N 
ATOM     58  N   UNL A   1      46.087  29.325  27.848  1.00  0.00    -0.248 NA
ATOM     59  C   UNL A   1      48.277  30.049  28.003  1.00  0.00     0.031 C 
ATOM     60  C   UNL A   1      43.781  31.037  30.593  1.00  0.00     0.029 A 
ATOM     61  C   UNL A   1      43.930  30.936  29.215  1.00  0.00     0.049 A 
ATOM     62  H   UNL A   1      42.483  30.416  27.790  1.00  0.00     0.167 HD
ATOM     63  C   UNL A   1      46.040  30.688  27.998  1.00  0.00     0.074 A 
ATOM     64  C   UNL A   1      47.438  31.100  28.019  1.00  0.00     0.031 C 
ATOM     65  C   UNL A   1      44.938  31.443  28.300  1.00  0.00     0.037 A 
BRANCH  52  66
ATOM     66  C   UNL A   1      39.275  29.726  30.179  1.00  0.00     0.064 A 
ATOM     67  C   UNL A   1      38.245  30.396  29.470  1.00  0.00     0.173 A 
ATOM     68  C   UNL A   1      38.981  29.500  31.542  1.00  0.00     0.173 A 
ATOM     69  F   UNL A   1      38.367  30.670  28.165  1.00  0.00    -0.203 F 
ATOM     70  C   UNL A   1      37.049  30.813  30.072  1.00  0.00     0.198 A 
ATOM     71  C   UNL A   1      37.758  29.867  32.128  1.00  0.00     0.198 A 
ATOM     72  F   UNL A   1      39.878  28.961  32.375  1.00  0.00    -0.203 F 
ATOM     73  F   UNL A   1      36.142  31.494  29.355  1.00  0.00    -0.200 F 
ATOM     74  C   UNL A   1      36.798  30.537  31.398  1.00  0.00     0.200 A 
ATOM     75  F   UNL A   1      37.527  29.583  33.419  1.00  0.00    -0.200 F 
ATOM     76  F   UNL A   1      35.647  30.917  31.970  1.00  0.00    -0.200 F 
ENDBRANCH  52  66
BRANCH  53  77
ATOM     77  C   UNL A   1      48.369  26.374  27.615  1.00  0.00     0.064 A 
ATOM     78  C   UNL A   1      48.035  26.341  26.236  1.00  0.00     0.173 A 
ATOM     79  C   UNL A   1      49.656  25.942  27.965  1.00  0.00     0.173 A 
ATOM     80  F   UNL A   1      46.798  26.693  25.842  1.00  0.00    -0.203 F 
ATOM     81  C   UNL A   1      49.022  26.215  25.259  1.00  0.00     0.198 A 
ATOM     82  C   UNL A   1      50.625  25.741  26.973  1.00  0.00     0.198 A 
ATOM     83  F   UNL A   1      50.034  25.918  29.250  1.00  0.00    -0.203 F 
ATOM     84  F   UNL A   1      48.729  26.464  23.973  1.00  0.00    -0.200 F 
ATOM     85  C   UNL A   1      50.329  25.971  25.635  1.00  0.00     0.200 A 
ATOM     86  F   UNL A   1      51.888  25.452  27.320  1.00  0.00    -0.200 F 
ATOM     87  F   UNL A   1      51.313  26.025  24.721  1.00  0.00    -0.200 F 
ENDBRANCH  53  77
BRANCH  65  88
ATOM     88  C   UNL A   1      44.721  32.828  27.735  1.00  0.00     0.064 A 
ATOM     89  C   UNL A   1      44.094  33.047  26.499  1.00  0.00     0.173 A 
ATOM     90  C   UNL A   1      44.924  33.986  28.531  1.00  0.00     0.173 A 
ATOM     91  F   UNL A   1      43.742  32.032  25.699  1.00  0.00    -0.203 F 
ATOM     92  C   UNL A   1      43.748  34.326  26.068  1.00  0.00     0.198 A 
ATOM     93  C   UNL A   1      44.519  35.252  28.122  1.00  0.00     0.198 A 
ATOM     94  F   UNL A   1      45.469  33.934  29.754  1.00  0.00    -0.203 F 
ATOM     95  F   UNL A   1      43.181  34.480  24.864  1.00  0.00    -0.200 F 
ATOM     96  C   UNL A   1      43.947  35.424  26.882  1.00  0.00     0.200 A 
ATOM     97  F   UNL A   1      44.659  36.295  28.952  1.00  0.00    -0.200 F 
ATOM     98  F   UNL A   1      43.563  36.641  26.481  1.00  0.00    -0.200 F 
ENDBRANCH  65  88
ENDBRANCH  39  40
ENDBRANCH  32  34
ENDBRANCH  31  32
ENDBRANCH  30  31
ENDBRANCH  29  30
ENDBRANCH  28  29
ENDBRANCH  27  28
ENDBRANCH  26  27
ENDBRANCH  25  26
ENDBRANCH   1  25
TORSDOF 23
ENDMDL
MODEL 3
REMARK VINA RESULT:     -10.4      5.033      9.578
REMARK SMILES Cc1cccc(C(=O)OCCOCCOCCOCCOC(=O)c2ccc(-c3c4nc(c(-c5c(F)c(F)c(F)c(F)c5F)c5ccc([nH]5)c(-c5c(F)c(F)c(F)c(F)c5F)c5nc(c(-c6c(F)c(F)c(F)c(F)c6F)c6ccc3[nH]6)C=C5)C=C4)cc2)c1OC[C@@H]1C[C@H]2CC[C@@H]1C2
REMARK SMILES IDX 14 1 13 2 12 3 11 4 10 5 9 6 7 7 8 8 6 9 1 10 2 11 3 12
REMARK SMILES IDX 87 13 4 14 5 15 88 16 89 17 90 18 91 19 95 20 92 21 94 22
REMARK SMILES IDX 96 23 93 24 15 25 16 26 17 27 18 28 19 29 20 30 21 31 22 32
REMARK SMILES IDX 23 33 24 34 25 35 86 36 26 37 85 38 27 39 28 40 29 41 79 42
REMARK SMILES IDX 30 43 84 44 78 45 80 46 31 47 83 48 77 49 76 50 32 52 64 53
REMARK SMILES IDX 44 54 63 55 45 56 48 57 62 58 81 59 46 60 47 61 61 63 82 64
REMARK SMILES IDX 49 65 33 66 34 67 42 68 35 69 36 70 40 71 43 72 37 73 38 74
REMARK SMILES IDX 41 75 39 76 65 77 66 78 74 79 67 80 68 81 72 82 75 83 69 84
REMARK SMILES IDX 70 85 73 86 71 87 50 88 51 89 59 90 52 91 53 92 57 93 60 94
REMARK SMILES IDX 54 95 55 96 58 97 56 98
REMARK H PARENT 80 51 48 62
REMARK Flexibility Score: inf
ROOT
ATOM      1  C   UNL A   1      33.965  21.249  24.505  1.00  0.00     0.188 C 
ENDROOT
BRANCH   1   2
ATOM      2  C   UNL A   1      32.549  21.427  23.915  1.00  0.00     0.188 C 
BRANCH   2   3
ATOM      3  O   UNL A   1      32.363  22.248  22.768  1.00  0.00    -0.376 OA
BRANCH   3   4
ATOM      4  C   UNL A   1      31.784  23.531  23.017  1.00  0.00     0.202 C 
BRANCH   4   5
ATOM      5  C   UNL A   1      30.684  23.574  24.068  1.00  0.00     0.261 C 
BRANCH   5   6
ATOM      6  O   UNL A   1      30.210  24.922  24.158  1.00  0.00    -0.460 OA
BRANCH   6   7
ATOM      7  C   UNL A   1      30.285  25.470  25.386  1.00  0.00     0.342 C 
ATOM      8  O   UNL A   1      29.840  25.030  26.423  1.00  0.00    -0.246 OA
BRANCH   7   9
ATOM      9  C   UNL A   1      31.451  26.366  25.367  1.00  0.00     0.102 A 
ATOM     10  C   UNL A   1      33.277  29.392  23.875  1.00  0.00     0.048 C 
ATOM     11  C   UNL A   1      32.811  28.205  24.663  1.00  0.00    -0.008 A 
ATOM     12  C   UNL A   1      33.865  27.636  25.437  1.00  0.00     0.007 A 
ATOM     13  C   UNL A   1      31.548  27.585  24.650  1.00  0.00     0.136 A 
ATOM     14  C   UNL A   1      33.746  26.429  26.102  1.00  0.00     0.001 A 
ATOM     15  C   UNL A   1      32.536  25.784  26.055  1.00  0.00     0.019 A 
BRANCH  13  16
ATOM     16  O   UNL A   1      30.421  27.918  23.960  1.00  0.00    -0.492 OA
BRANCH  16  17
ATOM     17  C   UNL A   1      30.299  28.292  22.580  1.00  0.00     0.233 C 
BRANCH  17  18
ATOM     18  C   UNL A   1      29.696  29.685  22.431  1.00  0.00     0.030 C 
ATOM     19  C   UNL A   1      29.594  30.553  23.706  1.00  0.00     0.011 C 
ATOM     20  C   UNL A   1      28.227  29.709  21.938  1.00  0.00    -0.004 C 
ATOM     21  C   UNL A   1      28.237  31.265  23.514  1.00  0.00    -0.010 C 
ATOM     22  C   UNL A   1      28.082  30.982  21.107  1.00  0.00     0.004 C 
ATOM     23  C   UNL A   1      27.380  30.059  23.166  1.00  0.00     0.007 C 
ATOM     24  C   UNL A   1      28.209  32.067  22.188  1.00  0.00     0.004 C 
ENDBRANCH  17  18
ENDBRANCH  16  17
ENDBRANCH  13  16
ENDBRANCH   7   9
ENDBRANCH   6   7
ENDBRANCH   5   6
ENDBRANCH   4   5
ENDBRANCH   3   4
ENDBRANCH   2   3
ENDBRANCH   1   2
BRANCH   1  25
ATOM     25  O   UNL A   1      34.735  22.428  24.663  1.00  0.00    -0.377 OA
BRANCH  25  26
ATOM     26  C   UNL A   1      35.647  22.495  25.753  1.00  0.00     0.188 C 
BRANCH  26  27
ATOM     27  C   UNL A   1      37.134  22.565  25.514  1.00  0.00     0.188 C 
BRANCH  27  28
ATOM     28  O   UNL A   1      37.633  23.684  26.231  1.00  0.00    -0.376 OA
BRANCH  28  29
ATOM     29  C   UNL A   1      39.011  23.621  26.564  1.00  0.00     0.202 C 
BRANCH  29  30
ATOM     30  C   UNL A   1      39.350  24.482  27.784  1.00  0.00     0.261 C 
BRANCH  30  31
ATOM     31  O   UNL A   1      39.659  25.825  27.346  1.00  0.00    -0.460 OA
BRANCH  31  32
ATOM     32  C   UNL A   1      40.638  26.464  28.048  1.00  0.00     0.338 C 
ATOM     33  O   UNL A   1      41.676  25.947  28.426  1.00  0.00    -0.246 OA
BRANCH  32  34
ATOM     34  C   UNL A   1      40.138  27.785  28.551  1.00  0.00     0.060 A 
ATOM     35  C   UNL A   1      40.985  28.906  28.581  1.00  0.00     0.016 A 
ATOM     36  C   UNL A   1      38.981  27.806  29.310  1.00  0.00     0.016 A 
ATOM     37  C   UNL A   1      40.784  29.930  29.534  1.00  0.00     0.010 A 
ATOM     38  C   UNL A   1      38.864  28.758  30.308  1.00  0.00     0.010 A 
ATOM     39  C   UNL A   1      39.790  29.803  30.494  1.00  0.00    -0.014 A 
BRANCH  39  40
ATOM     40  C   UNL A   1      39.644  30.596  31.754  1.00  0.00     0.031 A 
ATOM     41  C   UNL A   1      40.587  30.242  32.888  1.00  0.00     0.074 A 
ATOM     42  C   UNL A   1      39.004  31.809  31.775  1.00  0.00     0.049 A 
ATOM     43  N   UNL A   1      40.819  30.984  33.913  1.00  0.00    -0.248 NA
ATOM     44  C   UNL A   1      41.434  29.044  32.922  1.00  0.00     0.031 C 
ATOM     45  C   UNL A   1      39.296  32.930  32.681  1.00  0.00     0.029 A 
ATOM     46  N   UNL A   1      38.001  32.386  30.960  1.00  0.00    -0.354 N 
ATOM     47  C   UNL A   1      42.007  30.605  34.499  1.00  0.00     0.074 A 
ATOM     48  C   UNL A   1      42.322  29.346  33.881  1.00  0.00     0.031 C 
ATOM     49  C   UNL A   1      38.474  33.969  32.490  1.00  0.00     0.029 A 
ATOM     50  C   UNL A   1      37.399  33.431  31.716  1.00  0.00     0.049 A 
ATOM     51  H   UNL A   1      37.765  32.116  30.043  1.00  0.00     0.167 HD
ATOM     52  C   UNL A   1      42.616  31.484  35.352  1.00  0.00     0.037 A 
ATOM     53  C   UNL A   1      36.120  33.347  32.180  1.00  0.00     0.037 A 
ATOM     54  C   UNL A   1      41.701  32.578  35.716  1.00  0.00     0.049 A 
ATOM     55  C   UNL A   1      36.161  33.345  33.699  1.00  0.00     0.074 A 
ATOM     56  C   UNL A   1      41.768  33.957  35.678  1.00  0.00     0.029 A 
ATOM     57  N   UNL A   1      40.380  32.274  36.063  1.00  0.00    -0.354 N 
ATOM     58  N   UNL A   1      37.128  32.785  34.396  1.00  0.00    -0.248 NA
ATOM     59  C   UNL A   1      35.325  34.227  34.510  1.00  0.00     0.031 C 
ATOM     60  C   UNL A   1      40.439  34.462  35.813  1.00  0.00     0.029 A 
ATOM     61  C   UNL A   1      39.579  33.397  36.051  1.00  0.00     0.049 A 
ATOM     62  H   UNL A   1      40.062  31.371  36.289  1.00  0.00     0.167 HD
ATOM     63  C   UNL A   1      37.165  33.361  35.640  1.00  0.00     0.074 A 
ATOM     64  C   UNL A   1      35.975  34.202  35.687  1.00  0.00     0.031 C 
ATOM     65  C   UNL A   1      38.208  33.333  36.527  1.00  0.00     0.037 A 
BRANCH  52  66
ATOM     66  C   UNL A   1      44.086  31.481  35.772  1.00  0.00     0.064 A 
ATOM     67  C   UNL A   1      45.024  32.313  35.111  1.00  0.00     0.173 A 
ATOM     68  C   UNL A   1      44.661  30.608  36.721  1.00  0.00     0.173 A 
ATOM     69  F   UNL A   1      44.632  33.206  34.192  1.00  0.00    -0.203 F 
ATOM     70  C   UNL A   1      46.403  32.261  35.361  1.00  0.00     0.198 A 
ATOM     71  C   UNL A   1      46.035  30.600  37.014  1.00  0.00     0.198 A 
ATOM     72  F   UNL A   1      43.931  29.695  37.371  1.00  0.00    -0.203 F 
ATOM     73  F   UNL A   1      47.240  33.037  34.656  1.00  0.00    -0.200 F 
ATOM     74  C   UNL A   1      46.909  31.415  36.324  1.00  0.00     0.200 A 
ATOM     75  F   UNL A   1      46.510  29.774  37.959  1.00  0.00    -0.200 F 
ATOM     76  F   UNL A   1      48.224  31.378  36.579  1.00  0.00    -0.200 F 
ENDBRANCH  52  66
BRANCH  53  77
ATOM     77  C   UNL A   1      35.265  32.668  31.158  1.00  0.00     0.064 A 
ATOM     78  C   UNL A   1      34.877  33.526  30.096  1.00  0.00     0.173 A 
ATOM     79  C   UNL A   1      35.489  31.322  30.835  1.00  0.00     0.173 A 
ATOM     80  F   UNL A   1      34.597  34.816  30.350  1.00  0.00    -0.203 F 
ATOM     81  C   UNL A   1      35.038  33.141  28.765  1.00  0.00     0.198 A 
ATOM     82  C   UNL A   1      35.573  30.924  29.494  1.00  0.00     0.198 A 
ATOM     83  F   UNL A   1      35.830  30.446  31.791  1.00  0.00    -0.203 F 
ATOM     84  F   UNL A   1      34.934  34.053  27.786  1.00  0.00    -0.200 F 
ATOM     85  C   UNL A   1      35.443  31.853  28.469  1.00  0.00     0.200 A 
ATOM     86  F   UNL A   1      35.914  29.663  29.191  1.00  0.00    -0.200 F 
ATOM     87  F   UNL A   1      35.772  31.525  27.209  1.00  0.00    -0.200 F 
ENDBRANCH  53  77
BRANCH  65  88
ATOM     88  C   UNL A   1      38.001  33.263  38.023  1.00  0.00     0.064 A 
ATOM     89  C   UNL A   1      37.617  32.081  38.675  1.00  0.00     0.173 A 
ATOM     90  C   UNL A   1      38.416  34.323  38.873  1.00  0.00     0.173 A 
ATOM     91  F   UNL A   1      37.312  30.969  37.994  1.00  0.00    -0.203 F 
ATOM     92  C   UNL A   1      37.596  31.984  40.065  1.00  0.00     0.198 A 
ATOM     93  C   UNL A   1      38.452  34.198  40.256  1.00  0.00     0.198 A 
ATOM     94  F   UNL A   1      38.854  35.497  38.398  1.00  0.00    -0.203 F 
ATOM     95  F   UNL A   1      37.188  30.843  40.635  1.00  0.00    -0.200 F 
ATOM     96  C   UNL A   1      38.025  33.034  40.854  1.00  0.00     0.200 A 
ATOM     97  F   UNL A   1      38.935  35.202  41.002  1.00  0.00    -0.200 F 
ATOM     98  F   UNL A   1      38.050  32.912  42.186  1.00  0.00    -0.200 F 
ENDBRANCH  65  88
ENDBRANCH  39  40
ENDBRANCH  32  34
ENDBRANCH  31  32
ENDBRANCH  30  31
ENDBRANCH  29  30
ENDBRANCH  28  29
ENDBRANCH  27  28
ENDBRANCH  26  27
ENDBRANCH  25  26
ENDBRANCH   1  25
TORSDOF 23
ENDMDL
