MODEL 1
REMARK VINA RESULT:      -9.5      0.000      0.000
REMARK SMILES O=C(N/N=C/c1ccc(C(=O)OCCOCCOCCOCCOC(=O)c2ccc(-c3c4nc(c(-c5c(F)c(F)c(F)c(F)c5F)c5ccc([nH]5)c(-c5c(F)c(F)c(F)c(F)c5F)c5nc(c(-c6c(F)c(F)c(F)c(F)c6F)c6ccc3[nH]6)C=C5)C=C4)cc2)cc1)C(=O)Nc1ccc2c(c1)OCO2
REMARK SMILES IDX 17 1 16 2 15 3 14 4 13 5 12 6 10 7 11 8 9 9 6 10 7 11 91 12
REMARK SMILES IDX 8 13 90 14 5 15 4 16 3 17 1 18 2 19 92 21 93 22 94 23 95 25
REMARK SMILES IDX 96 26 100 27 97 28 99 29 98 30 101 31 103 32 102 33 18 34
REMARK SMILES IDX 19 35 20 36 21 37 22 38 23 39 24 40 25 41 26 42 27 43 28 44
REMARK SMILES IDX 89 45 29 46 88 47 30 48 31 49 32 50 82 51 33 52 87 53 81 54
REMARK SMILES IDX 83 55 34 56 86 57 80 58 79 59 35 61 67 62 47 63 66 64 48 65
REMARK SMILES IDX 51 66 65 67 84 68 49 69 50 70 64 72 85 73 52 74 36 75 37 76
REMARK SMILES IDX 45 77 38 78 39 79 43 80 46 81 40 82 41 83 44 84 42 85 68 86
REMARK SMILES IDX 69 87 77 88 70 89 71 90 75 91 78 92 72 93 73 94 76 95 74 96
REMARK SMILES IDX 53 97 54 98 62 99 55 100 56 101 60 102 63 103 57 104 58 105
REMARK SMILES IDX 61 106 59 107
REMARK H PARENT 3 20 94 24 83 60 51 71
REMARK Flexibility Score: inf
ROOT
ATOM      1  C   UNL A   1      39.663  27.993  27.967  1.00  0.00     0.188 C 
ENDROOT
BRANCH   1   2
ATOM      2  C   UNL A   1      39.504  26.460  27.969  1.00  0.00     0.188 C 
BRANCH   2   3
ATOM      3  O   UNL A   1      40.607  25.790  27.376  1.00  0.00    -0.376 OA
BRANCH   3   4
ATOM      4  C   UNL A   1      41.108  24.617  27.989  1.00  0.00     0.202 C 
BRANCH   4   5
ATOM      5  C   UNL A   1      41.813  23.573  27.109  1.00  0.00     0.261 C 
BRANCH   5   6
ATOM      6  O   UNL A   1      40.985  22.901  26.158  1.00  0.00    -0.460 OA
BRANCH   6   7
ATOM      7  C   UNL A   1      40.152  21.957  26.637  1.00  0.00     0.338 C 
ATOM      8  O   UNL A   1      40.404  21.123  27.490  1.00  0.00    -0.246 OA
BRANCH   7   9
ATOM      9  C   UNL A   1      38.798  22.211  26.097  1.00  0.00     0.060 A 
ATOM     10  C   UNL A   1      36.156  22.759  24.633  1.00  0.00    -0.005 A 
ATOM     11  C   UNL A   1      36.839  21.437  24.877  1.00  0.00     0.010 A 
ATOM     12  C   UNL A   1      36.887  23.627  25.638  1.00  0.00     0.010 A 
ATOM     13  C   UNL A   1      38.102  21.191  25.485  1.00  0.00     0.016 A 
ATOM     14  C   UNL A   1      38.130  23.395  26.287  1.00  0.00     0.016 A 
BRANCH  10  15
ATOM     15  C   UNL A   1      34.722  23.276  23.124  1.00  0.00     0.141 C 
ATOM     16  N   UNL A   1      34.473  24.337  22.282  1.00  0.00    -0.180 NA
BRANCH  16  17
ATOM     17  N   UNL A   1      33.171  24.435  21.926  1.00  0.00    -0.239 N 
ATOM     18  O   UNL A   1      31.256  25.635  21.712  1.00  0.00    -0.262 OA
ATOM     19  C   UNL A   1      32.456  25.623  21.983  1.00  0.00     0.329 C 
ATOM     20  H   UNL A   1      32.709  23.625  21.613  1.00  0.00     0.194 HD
BRANCH  19  21
ATOM     21  C   UNL A   1      33.164  26.977  22.276  1.00  0.00     0.315 C 
ATOM     22  O   UNL A   1      34.040  27.354  21.496  1.00  0.00    -0.263 OA
ATOM     23  N   UNL A   1      32.753  27.850  23.290  1.00  0.00    -0.318 N 
ATOM     24  H   UNL A   1      32.656  28.807  23.079  1.00  0.00     0.170 HD
BRANCH  23  25
ATOM     25  C   UNL A   1      32.472  27.413  24.598  1.00  0.00     0.045 A 
ATOM     26  C   UNL A   1      30.683  27.259  25.026  1.00  0.00     0.030 A 
ATOM     27  C   UNL A   1      33.708  26.294  25.354  1.00  0.00     0.076 A 
ATOM     28  C   UNL A   1      30.142  25.914  26.155  1.00  0.00     0.053 A 
ATOM     29  C   UNL A   1      33.109  24.897  26.342  1.00  0.00     0.167 A 
ATOM     30  C   UNL A   1      31.358  24.709  26.709  1.00  0.00     0.165 A 
ATOM     31  O   UNL A   1      33.708  23.748  26.745  1.00  0.00    -0.454 OA
ATOM     32  O   UNL A   1      31.226  23.506  27.315  1.00  0.00    -0.454 OA
ATOM     33  C   UNL A   1      32.541  22.889  27.035  1.00  0.00     0.468 C 
ENDBRANCH  23  25
ENDBRANCH  19  21
ENDBRANCH  16  17
ENDBRANCH  10  15
ENDBRANCH   7   9
ENDBRANCH   6   7
ENDBRANCH   5   6
ENDBRANCH   4   5
ENDBRANCH   3   4
ENDBRANCH   2   3
ENDBRANCH   1   2
BRANCH   1  34
ATOM     34  O   UNL A   1      39.228  28.673  29.134  1.00  0.00    -0.377 OA
BRANCH  34  35
ATOM     35  C   UNL A   1      38.027  29.446  29.077  1.00  0.00     0.188 C 
BRANCH  35  36
ATOM     36  C   UNL A   1      38.003  30.937  28.648  1.00  0.00     0.188 C 
BRANCH  36  37
ATOM     37  O   UNL A   1      36.714  31.486  28.432  1.00  0.00    -0.376 OA
BRANCH  37  38
ATOM     38  C   UNL A   1      35.886  31.670  29.568  1.00  0.00     0.202 C 
BRANCH  38  39
ATOM     39  C   UNL A   1      35.680  33.130  29.990  1.00  0.00     0.261 C 
BRANCH  39  40
ATOM     40  O   UNL A   1      36.871  33.932  30.026  1.00  0.00    -0.460 OA
BRANCH  40  41
ATOM     41  C   UNL A   1      37.673  33.795  31.104  1.00  0.00     0.338 C 
ATOM     42  O   UNL A   1      37.394  33.298  32.180  1.00  0.00    -0.246 OA
BRANCH  41  43
ATOM     43  C   UNL A   1      39.032  34.194  30.693  1.00  0.00     0.060 A 
ATOM     44  C   UNL A   1      39.266  34.562  29.361  1.00  0.00     0.016 A 
ATOM     45  C   UNL A   1      40.066  34.215  31.630  1.00  0.00     0.016 A 
ATOM     46  C   UNL A   1      40.550  34.926  28.956  1.00  0.00     0.010 A 
ATOM     47  C   UNL A   1      41.355  34.556  31.219  1.00  0.00     0.010 A 
ATOM     48  C   UNL A   1      41.607  34.882  29.873  1.00  0.00    -0.014 A 
BRANCH  48  49
ATOM     49  C   UNL A   1      43.008  34.957  29.397  1.00  0.00     0.031 A 
ATOM     50  C   UNL A   1      43.580  36.317  29.106  1.00  0.00     0.074 A 
ATOM     51  C   UNL A   1      43.755  33.853  29.226  1.00  0.00     0.049 A 
ATOM     52  N   UNL A   1      44.741  36.644  28.598  1.00  0.00    -0.248 NA
ATOM     53  C   UNL A   1      42.719  37.467  29.431  1.00  0.00     0.031 C 
ATOM     54  C   UNL A   1      43.332  32.488  29.522  1.00  0.00     0.029 A 
ATOM     55  N   UNL A   1      45.035  33.715  28.747  1.00  0.00    -0.354 N 
ATOM     56  C   UNL A   1      44.747  38.030  28.544  1.00  0.00     0.074 A 
ATOM     57  C   UNL A   1      43.465  38.485  29.033  1.00  0.00     0.031 C 
ATOM     58  C   UNL A   1      44.330  31.644  29.204  1.00  0.00     0.029 A 
ATOM     59  C   UNL A   1      45.445  32.408  28.647  1.00  0.00     0.049 A 
ATOM     60  H   UNL A   1      45.603  34.478  28.498  1.00  0.00     0.167 HD
ATOM     61  C   UNL A   1      45.741  38.853  28.132  1.00  0.00     0.037 A 
ATOM     62  C   UNL A   1      46.582  31.894  28.136  1.00  0.00     0.037 A 
ATOM     63  C   UNL A   1      47.010  38.398  27.632  1.00  0.00     0.049 A 
ATOM     64  C   UNL A   1      47.632  32.830  27.584  1.00  0.00     0.074 A 
ATOM     65  C   UNL A   1      48.080  39.149  27.179  1.00  0.00     0.029 A 
ATOM     66  N   UNL A   1      47.375  37.066  27.512  1.00  0.00    -0.354 N 
ATOM     67  N   UNL A   1      47.641  34.142  27.548  1.00  0.00    -0.248 NA
ATOM     68  C   UNL A   1      48.831  32.211  26.999  1.00  0.00     0.031 C 
ATOM     69  C   UNL A   1      49.073  38.271  26.738  1.00  0.00     0.029 A 
ATOM     70  C   UNL A   1      48.648  36.973  26.972  1.00  0.00     0.049 A 
ATOM     71  H   UNL A   1      46.814  36.299  27.772  1.00  0.00     0.167 HD
ATOM     72  C   UNL A   1      48.856  34.502  26.978  1.00  0.00     0.074 A 
ATOM     73  C   UNL A   1      49.563  33.272  26.692  1.00  0.00     0.031 C 
ATOM     74  C   UNL A   1      49.346  35.739  26.716  1.00  0.00     0.037 A 
BRANCH  61  75
ATOM     75  C   UNL A   1      45.481  40.331  28.186  1.00  0.00     0.064 A 
ATOM     76  C   UNL A   1      44.937  41.022  27.093  1.00  0.00     0.173 A 
ATOM     77  C   UNL A   1      45.755  41.059  29.352  1.00  0.00     0.173 A 
ATOM     78  F   UNL A   1      44.675  40.375  25.947  1.00  0.00    -0.203 F 
ATOM     79  C   UNL A   1      44.699  42.393  27.159  1.00  0.00     0.198 A 
ATOM     80  C   UNL A   1      45.486  42.423  29.426  1.00  0.00     0.198 A 
ATOM     81  F   UNL A   1      46.275  40.447  30.426  1.00  0.00    -0.203 F 
ATOM     82  F   UNL A   1      44.225  43.040  26.085  1.00  0.00    -0.200 F 
ATOM     83  C   UNL A   1      44.965  43.090  28.326  1.00  0.00     0.200 A 
ATOM     84  F   UNL A   1      45.732  43.093  30.559  1.00  0.00    -0.200 F 
ATOM     85  F   UNL A   1      44.727  44.407  28.391  1.00  0.00    -0.200 F 
ENDBRANCH  61  75
BRANCH  62  86
ATOM     86  C   UNL A   1      46.797  30.423  28.102  1.00  0.00     0.064 A 
ATOM     87  C   UNL A   1      46.335  29.650  27.026  1.00  0.00     0.173 A 
ATOM     88  C   UNL A   1      47.417  29.751  29.165  1.00  0.00     0.173 A 
ATOM     89  F   UNL A   1      45.710  30.241  25.998  1.00  0.00    -0.203 F 
ATOM     90  C   UNL A   1      46.461  28.262  27.029  1.00  0.00     0.198 A 
ATOM     91  C   UNL A   1      47.571  28.366  29.152  1.00  0.00     0.198 A 
ATOM     92  F   UNL A   1      47.872  30.439  30.223  1.00  0.00    -0.203 F 
ATOM     93  F   UNL A   1      45.954  27.544  26.017  1.00  0.00    -0.200 F 
ATOM     94  C   UNL A   1      47.083  27.621  28.089  1.00  0.00     0.200 A 
ATOM     95  F   UNL A   1      48.183  27.752  30.175  1.00  0.00    -0.200 F 
ATOM     96  F   UNL A   1      47.199  26.286  28.094  1.00  0.00    -0.200 F 
ENDBRANCH  62  86
BRANCH  74  97
ATOM     97  C   UNL A   1      50.733  35.833  26.147  1.00  0.00     0.064 A 
ATOM     98  C   UNL A   1      50.960  36.064  24.782  1.00  0.00     0.173 A 
ATOM     99  C   UNL A   1      51.850  35.743  26.992  1.00  0.00     0.173 A 
ATOM    100  F   UNL A   1      49.928  36.145  23.929  1.00  0.00    -0.203 F 
ATOM    101  C   UNL A   1      52.255  36.175  24.281  1.00  0.00     0.198 A 
ATOM    102  C   UNL A   1      53.142  35.889  26.493  1.00  0.00     0.198 A 
ATOM    103  F   UNL A   1      51.689  35.533  28.307  1.00  0.00    -0.203 F 
ATOM    104  F   UNL A   1      52.450  36.347  22.967  1.00  0.00    -0.200 F 
ATOM    105  C   UNL A   1      53.344  36.097  25.137  1.00  0.00     0.200 A 
ATOM    106  F   UNL A   1      54.191  35.831  27.325  1.00  0.00    -0.200 F 
ATOM    107  F   UNL A   1      54.588  36.217  24.655  1.00  0.00    -0.200 F 
ENDBRANCH  74  97
ENDBRANCH  48  49
ENDBRANCH  41  43
ENDBRANCH  40  41
ENDBRANCH  39  40
ENDBRANCH  38  39
ENDBRANCH  37  38
ENDBRANCH  36  37
ENDBRANCH  35  36
ENDBRANCH  34  35
ENDBRANCH   1  34
TORSDOF 24
ENDMDL
MODEL 2
REMARK VINA RESULT:      -9.1      4.687      9.335
REMARK SMILES O=C(N/N=C/c1ccc(C(=O)OCCOCCOCCOCCOC(=O)c2ccc(-c3c4nc(c(-c5c(F)c(F)c(F)c(F)c5F)c5ccc([nH]5)c(-c5c(F)c(F)c(F)c(F)c5F)c5nc(c(-c6c(F)c(F)c(F)c(F)c6F)c6ccc3[nH]6)C=C5)C=C4)cc2)cc1)C(=O)Nc1ccc2c(c1)OCO2
REMARK SMILES IDX 17 1 16 2 15 3 14 4 13 5 12 6 10 7 11 8 9 9 6 10 7 11 91 12
REMARK SMILES IDX 8 13 90 14 5 15 4 16 3 17 1 18 2 19 92 21 93 22 94 23 95 25
REMARK SMILES IDX 96 26 100 27 97 28 99 29 98 30 101 31 103 32 102 33 18 34
REMARK SMILES IDX 19 35 20 36 21 37 22 38 23 39 24 40 25 41 26 42 27 43 28 44
REMARK SMILES IDX 89 45 29 46 88 47 30 48 31 49 32 50 82 51 33 52 87 53 81 54
REMARK SMILES IDX 83 55 34 56 86 57 80 58 79 59 35 61 67 62 47 63 66 64 48 65
REMARK SMILES IDX 51 66 65 67 84 68 49 69 50 70 64 72 85 73 52 74 36 75 37 76
REMARK SMILES IDX 45 77 38 78 39 79 43 80 46 81 40 82 41 83 44 84 42 85 68 86
REMARK SMILES IDX 69 87 77 88 70 89 71 90 75 91 78 92 72 93 73 94 76 95 74 96
REMARK SMILES IDX 53 97 54 98 62 99 55 100 56 101 60 102 63 103 57 104 58 105
REMARK SMILES IDX 61 106 59 107
REMARK H PARENT 3 20 94 24 83 60 51 71
REMARK Flexibility Score: inf
ROOT
ATOM      1  C   UNL A   1      36.905  33.756  35.302  1.00  0.00     0.188 C 
ENDROOT
BRANCH   1   2
ATOM      2  C   UNL A   1      35.547  34.173  34.703  1.00  0.00     0.188 C 
BRANCH   2   3
ATOM      3  O   UNL A   1      35.359  33.697  33.378  1.00  0.00    -0.376 OA
BRANCH   3   4
ATOM      4  C   UNL A   1      34.067  33.762  32.803  1.00  0.00     0.202 C 
BRANCH   4   5
ATOM      5  C   UNL A   1      33.655  35.048  32.070  1.00  0.00     0.261 C 
BRANCH   5   6
ATOM      6  O   UNL A   1      34.243  35.247  30.783  1.00  0.00    -0.460 OA
BRANCH   6   7
ATOM      7  C   UNL A   1      33.778  34.479  29.778  1.00  0.00     0.338 C 
ATOM      8  O   UNL A   1      32.688  34.559  29.239  1.00  0.00    -0.246 OA
BRANCH   7   9
ATOM      9  C   UNL A   1      34.887  33.630  29.289  1.00  0.00     0.060 A 
ATOM     10  C   UNL A   1      37.153  31.675  28.603  1.00  0.00    -0.005 A 
ATOM     11  C   UNL A   1      35.672  31.519  28.365  1.00  0.00     0.010 A 
ATOM     12  C   UNL A   1      37.226  33.167  28.861  1.00  0.00     0.010 A 
ATOM     13  C   UNL A   1      34.615  32.388  28.755  1.00  0.00     0.016 A 
ATOM     14  C   UNL A   1      36.186  34.068  29.219  1.00  0.00     0.016 A 
BRANCH  10  15
ATOM     15  C   UNL A   1      38.660  30.157  28.752  1.00  0.00     0.141 C 
ATOM     16  N   UNL A   1      38.716  28.802  28.996  1.00  0.00    -0.180 NA
BRANCH  16  17
ATOM     17  N   UNL A   1      39.896  28.409  29.530  1.00  0.00    -0.239 N 
ATOM     18  O   UNL A   1      41.869  27.297  29.383  1.00  0.00    -0.262 OA
ATOM     19  C   UNL A   1      40.846  27.685  28.822  1.00  0.00     0.329 C 
ATOM     20  H   UNL A   1      40.090  28.648  30.464  1.00  0.00     0.194 HD
BRANCH  19  21
ATOM     21  C   UNL A   1      40.699  27.444  27.292  1.00  0.00     0.315 C 
ATOM     22  O   UNL A   1      40.479  28.417  26.570  1.00  0.00    -0.263 OA
ATOM     23  N   UNL A   1      40.953  26.208  26.687  1.00  0.00    -0.318 N 
ATOM     24  H   UNL A   1      41.511  26.185  25.876  1.00  0.00     0.170 HD
BRANCH  23  25
ATOM     25  C   UNL A   1      40.444  24.997  27.193  1.00  0.00     0.045 A 
ATOM     26  C   UNL A   1      38.935  24.346  26.352  1.00  0.00     0.030 A 
ATOM     27  C   UNL A   1      41.672  23.850  27.918  1.00  0.00     0.076 A 
ATOM     28  C   UNL A   1      38.721  22.530  26.173  1.00  0.00     0.053 A 
ATOM     29  C   UNL A   1      41.490  22.077  27.587  1.00  0.00     0.167 A 
ATOM     30  C   UNL A   1      40.051  21.444  26.713  1.00  0.00     0.165 A 
ATOM     31  O   UNL A   1      42.361  21.041  27.687  1.00  0.00    -0.454 OA
ATOM     32  O   UNL A   1      40.290  20.131  26.491  1.00  0.00    -0.454 OA
ATOM     33  C   UNL A   1      41.734  20.038  26.801  1.00  0.00     0.468 C 
ENDBRANCH  23  25
ENDBRANCH  19  21
ENDBRANCH  16  17
ENDBRANCH  10  15
ENDBRANCH   7   9
ENDBRANCH   6   7
ENDBRANCH   5   6
ENDBRANCH   4   5
ENDBRANCH   3   4
ENDBRANCH   2   3
ENDBRANCH   1   2
BRANCH   1  34
ATOM     34  O   UNL A   1      36.861  33.040  36.526  1.00  0.00    -0.377 OA
BRANCH  34  35
ATOM     35  C   UNL A   1      38.080  32.797  37.229  1.00  0.00     0.188 C 
BRANCH  35  36
ATOM     36  C   UNL A   1      38.209  32.940  38.770  1.00  0.00     0.188 C 
BRANCH  36  37
ATOM     37  O   UNL A   1      39.145  33.909  39.213  1.00  0.00    -0.376 OA
BRANCH  37  38
ATOM     38  C   UNL A   1      39.413  34.999  38.347  1.00  0.00     0.202 C 
BRANCH  38  39
ATOM     39  C   UNL A   1      40.613  35.865  38.748  1.00  0.00     0.261 C 
BRANCH  39  40
ATOM     40  O   UNL A   1      41.902  35.301  38.455  1.00  0.00    -0.460 OA
BRANCH  40  41
ATOM     41  C   UNL A   1      42.575  35.817  37.403  1.00  0.00     0.338 C 
ATOM     42  O   UNL A   1      42.907  36.975  37.229  1.00  0.00    -0.246 OA
BRANCH  41  43
ATOM     43  C   UNL A   1      43.012  34.686  36.564  1.00  0.00     0.060 A 
ATOM     44  C   UNL A   1      44.378  34.389  36.469  1.00  0.00     0.016 A 
ATOM     45  C   UNL A   1      42.067  33.914  35.886  1.00  0.00     0.016 A 
ATOM     46  C   UNL A   1      44.805  33.331  35.666  1.00  0.00     0.010 A 
ATOM     47  C   UNL A   1      42.497  32.871  35.065  1.00  0.00     0.010 A 
ATOM     48  C   UNL A   1      43.869  32.597  34.927  1.00  0.00    -0.014 A 
BRANCH  48  49
ATOM     49  C   UNL A   1      44.322  31.692  33.845  1.00  0.00     0.031 A 
ATOM     50  C   UNL A   1      44.590  32.290  32.492  1.00  0.00     0.074 A 
ATOM     51  C   UNL A   1      44.493  30.375  34.053  1.00  0.00     0.049 A 
ATOM     52  N   UNL A   1      44.906  31.704  31.367  1.00  0.00    -0.248 NA
ATOM     53  C   UNL A   1      44.481  33.757  32.398  1.00  0.00     0.031 C 
ATOM     54  C   UNL A   1      44.316  29.687  35.328  1.00  0.00     0.029 A 
ATOM     55  N   UNL A   1      44.847  29.378  33.176  1.00  0.00    -0.354 N 
ATOM     56  C   UNL A   1      45.034  32.726  30.436  1.00  0.00     0.074 A 
ATOM     57  C   UNL A   1      44.725  33.965  31.115  1.00  0.00     0.031 C 
ATOM     58  C   UNL A   1      44.548  28.374  35.150  1.00  0.00     0.029 A 
ATOM     59  C   UNL A   1      44.851  28.126  33.742  1.00  0.00     0.049 A 
ATOM     60  H   UNL A   1      45.074  29.545  32.234  1.00  0.00     0.167 HD
ATOM     61  C   UNL A   1      45.388  32.639  29.132  1.00  0.00     0.037 A 
ATOM     62  C   UNL A   1      45.051  26.921  33.172  1.00  0.00     0.037 A 
ATOM     63  C   UNL A   1      45.681  31.404  28.456  1.00  0.00     0.049 A 
ATOM     64  C   UNL A   1      45.339  26.842  31.692  1.00  0.00     0.074 A 
ATOM     65  C   UNL A   1      46.039  31.206  27.135  1.00  0.00     0.029 A 
ATOM     66  N   UNL A   1      45.640  30.153  29.053  1.00  0.00    -0.354 N 
ATOM     67  N   UNL A   1      45.474  27.812  30.818  1.00  0.00    -0.248 NA
ATOM     68  C   UNL A   1      45.503  25.498  31.118  1.00  0.00     0.031 C 
ATOM     69  C   UNL A   1      46.165  29.831  26.919  1.00  0.00     0.029 A 
ATOM     70  C   UNL A   1      45.946  29.175  28.120  1.00  0.00     0.049 A 
ATOM     71  H   UNL A   1      45.425  29.983  29.999  1.00  0.00     0.167 HD
ATOM     72  C   UNL A   1      45.777  27.199  29.608  1.00  0.00     0.074 A 
ATOM     73  C   UNL A   1      45.816  25.775  29.861  1.00  0.00     0.031 C 
ATOM     74  C   UNL A   1      46.005  27.762  28.396  1.00  0.00     0.037 A 
BRANCH  61  75
ATOM     75  C   UNL A   1      45.456  33.917  28.348  1.00  0.00     0.064 A 
ATOM     76  C   UNL A   1      46.664  34.611  28.176  1.00  0.00     0.173 A 
ATOM     77  C   UNL A   1      44.307  34.441  27.740  1.00  0.00     0.173 A 
ATOM     78  F   UNL A   1      47.789  34.162  28.753  1.00  0.00    -0.203 F 
ATOM     79  C   UNL A   1      46.712  35.794  27.443  1.00  0.00     0.198 A 
ATOM     80  C   UNL A   1      44.364  35.607  26.981  1.00  0.00     0.198 A 
ATOM     81  F   UNL A   1      43.127  33.816  27.873  1.00  0.00    -0.203 F 
ATOM     82  F   UNL A   1      47.867  36.465  27.333  1.00  0.00    -0.200 F 
ATOM     83  C   UNL A   1      45.565  36.286  26.840  1.00  0.00     0.200 A 
ATOM     84  F   UNL A   1      43.257  36.074  26.389  1.00  0.00    -0.200 F 
ATOM     85  F   UNL A   1      45.614  37.421  26.128  1.00  0.00    -0.200 F 
ENDBRANCH  61  75
BRANCH  62  86
ATOM     86  C   UNL A   1      44.972  25.680  33.988  1.00  0.00     0.064 A 
ATOM     87  C   UNL A   1      46.133  24.994  34.375  1.00  0.00     0.173 A 
ATOM     88  C   UNL A   1      43.738  25.122  34.352  1.00  0.00     0.173 A 
ATOM     89  F   UNL A   1      47.338  25.470  34.028  1.00  0.00    -0.203 F 
ATOM     90  C   UNL A   1      46.062  23.787  35.068  1.00  0.00     0.198 A 
ATOM     91  C   UNL A   1      43.668  23.932  35.074  1.00  0.00     0.198 A 
ATOM     92  F   UNL A   1      42.594  25.731  34.004  1.00  0.00    -0.203 F 
ATOM     93  F   UNL A   1      47.186  23.123  35.370  1.00  0.00    -0.200 F 
ATOM     94  C   UNL A   1      44.829  23.259  35.421  1.00  0.00     0.200 A 
ATOM     95  F   UNL A   1      42.474  23.431  35.422  1.00  0.00    -0.200 F 
ATOM     96  F   UNL A   1      44.760  22.096  36.084  1.00  0.00    -0.200 F 
ENDBRANCH  62  86
BRANCH  74  97
ATOM     97  C   UNL A   1      46.377  26.851  27.262  1.00  0.00     0.064 A 
ATOM     98  C   UNL A   1      45.409  26.264  26.433  1.00  0.00     0.173 A 
ATOM     99  C   UNL A   1      47.728  26.603  26.970  1.00  0.00     0.173 A 
ATOM    100  F   UNL A   1      44.104  26.458  26.676  1.00  0.00    -0.203 F 
ATOM    101  C   UNL A   1      45.780  25.443  25.371  1.00  0.00     0.198 A 
ATOM    102  C   UNL A   1      48.095  25.810  25.886  1.00  0.00     0.198 A 
ATOM    103  F   UNL A   1      48.694  27.146  27.725  1.00  0.00    -0.203 F 
ATOM    104  F   UNL A   1      44.838  24.854  24.621  1.00  0.00    -0.200 F 
ATOM    105  C   UNL A   1      47.121  25.224  25.092  1.00  0.00     0.200 A 
ATOM    106  F   UNL A   1      49.392  25.614  25.609  1.00  0.00    -0.200 F 
ATOM    107  F   UNL A   1      47.475  24.444  24.062  1.00  0.00    -0.200 F 
ENDBRANCH  74  97
ENDBRANCH  48  49
ENDBRANCH  41  43
ENDBRANCH  40  41
ENDBRANCH  39  40
ENDBRANCH  38  39
ENDBRANCH  37  38
ENDBRANCH  36  37
ENDBRANCH  35  36
ENDBRANCH  34  35
ENDBRANCH   1  34
TORSDOF 24
ENDMDL
MODEL 3
REMARK VINA RESULT:      -9.1      7.601     11.574
REMARK SMILES O=C(N/N=C/c1ccc(C(=O)OCCOCCOCCOCCOC(=O)c2ccc(-c3c4nc(c(-c5c(F)c(F)c(F)c(F)c5F)c5ccc([nH]5)c(-c5c(F)c(F)c(F)c(F)c5F)c5nc(c(-c6c(F)c(F)c(F)c(F)c6F)c6ccc3[nH]6)C=C5)C=C4)cc2)cc1)C(=O)Nc1ccc2c(c1)OCO2
REMARK SMILES IDX 17 1 16 2 15 3 14 4 13 5 12 6 10 7 11 8 9 9 6 10 7 11 91 12
REMARK SMILES IDX 8 13 90 14 5 15 4 16 3 17 1 18 2 19 92 21 93 22 94 23 95 25
REMARK SMILES IDX 96 26 100 27 97 28 99 29 98 30 101 31 103 32 102 33 18 34
REMARK SMILES IDX 19 35 20 36 21 37 22 38 23 39 24 40 25 41 26 42 27 43 28 44
REMARK SMILES IDX 89 45 29 46 88 47 30 48 31 49 32 50 82 51 33 52 87 53 81 54
REMARK SMILES IDX 83 55 34 56 86 57 80 58 79 59 35 61 67 62 47 63 66 64 48 65
REMARK SMILES IDX 51 66 65 67 84 68 49 69 50 70 64 72 85 73 52 74 36 75 37 76
REMARK SMILES IDX 45 77 38 78 39 79 43 80 46 81 40 82 41 83 44 84 42 85 68 86
REMARK SMILES IDX 69 87 77 88 70 89 71 90 75 91 78 92 72 93 73 94 76 95 74 96
REMARK SMILES IDX 53 97 54 98 62 99 55 100 56 101 60 102 63 103 57 104 58 105
REMARK SMILES IDX 61 106 59 107
REMARK H PARENT 3 20 94 24 83 60 51 71
REMARK Flexibility Score: inf
ROOT
ATOM      1  C   UNL A   1      40.318  29.680  28.944  1.00  0.00     0.188 C 
ENDROOT
BRANCH   1   2
ATOM      2  C   UNL A   1      41.110  28.896  27.879  1.00  0.00     0.188 C 
BRANCH   2   3
ATOM      3  O   UNL A   1      42.303  28.320  28.393  1.00  0.00    -0.376 OA
BRANCH   3   4
ATOM      4  C   UNL A   1      42.366  26.917  28.567  1.00  0.00     0.202 C 
BRANCH   4   5
ATOM      5  C   UNL A   1      43.537  26.151  27.930  1.00  0.00     0.261 C 
BRANCH   5   6
ATOM      6  O   UNL A   1      43.190  25.241  26.885  1.00  0.00    -0.460 OA
BRANCH   6   7
ATOM      7  C   UNL A   1      43.393  23.931  27.128  1.00  0.00     0.338 C 
ATOM      8  O   UNL A   1      44.405  23.417  27.572  1.00  0.00    -0.246 OA
BRANCH   7   9
ATOM      9  C   UNL A   1      42.110  23.218  26.949  1.00  0.00     0.060 A 
ATOM     10  C   UNL A   1      39.470  21.836  26.207  1.00  0.00    -0.005 A 
ATOM     11  C   UNL A   1      40.871  21.280  26.150  1.00  0.00     0.010 A 
ATOM     12  C   UNL A   1      39.697  23.044  27.095  1.00  0.00     0.010 A 
ATOM     13  C   UNL A   1      42.100  21.946  26.417  1.00  0.00     0.016 A 
ATOM     14  C   UNL A   1      40.913  23.711  27.408  1.00  0.00     0.016 A 
BRANCH  10  15
ATOM     15  C   UNL A   1      37.724  21.199  25.136  1.00  0.00     0.141 C 
ATOM     16  N   UNL A   1      36.476  21.701  24.841  1.00  0.00    -0.180 NA
BRANCH  16  17
ATOM     17  N   UNL A   1      35.555  20.734  24.626  1.00  0.00    -0.239 N 
ATOM     18  O   UNL A   1      33.590  19.715  25.131  1.00  0.00    -0.262 OA
ATOM     19  C   UNL A   1      34.356  20.658  25.323  1.00  0.00     0.329 C 
ATOM     20  H   UNL A   1      35.744  20.051  23.943  1.00  0.00     0.194 HD
BRANCH  19  21
ATOM     21  C   UNL A   1      33.901  21.804  26.270  1.00  0.00     0.315 C 
ATOM     22  O   UNL A   1      33.655  21.524  27.444  1.00  0.00    -0.263 OA
ATOM     23  N   UNL A   1      33.903  23.152  25.893  1.00  0.00    -0.318 N 
ATOM     24  H   UNL A   1      34.294  23.815  26.508  1.00  0.00     0.170 HD
BRANCH  23  25
ATOM     25  C   UNL A   1      33.371  23.597  24.668  1.00  0.00     0.045 A 
ATOM     26  C   UNL A   1      31.599  23.177  24.362  1.00  0.00     0.030 A 
ATOM     27  C   UNL A   1      34.091  25.138  23.991  1.00  0.00     0.076 A 
ATOM     28  C   UNL A   1      30.541  24.366  23.444  1.00  0.00     0.053 A 
ATOM     29  C   UNL A   1      32.974  26.341  23.223  1.00  0.00     0.167 A 
ATOM     30  C   UNL A   1      31.233  25.961  22.979  1.00  0.00     0.165 A 
ATOM     31  O   UNL A   1      33.120  27.660  22.935  1.00  0.00    -0.454 OA
ATOM     32  O   UNL A   1      30.655  27.101  22.538  1.00  0.00    -0.454 OA
ATOM     33  C   UNL A   1      31.713  28.097  22.820  1.00  0.00     0.468 C 
ENDBRANCH  23  25
ENDBRANCH  19  21
ENDBRANCH  16  17
ENDBRANCH  10  15
ENDBRANCH   7   9
ENDBRANCH   6   7
ENDBRANCH   5   6
ENDBRANCH   4   5
ENDBRANCH   3   4
ENDBRANCH   2   3
ENDBRANCH   1   2
BRANCH   1  34
ATOM     34  O   UNL A   1      39.823  28.929  30.041  1.00  0.00    -0.377 OA
BRANCH  34  35
ATOM     35  C   UNL A   1      38.453  28.520  30.038  1.00  0.00     0.188 C 
BRANCH  35  36
ATOM     36  C   UNL A   1      37.452  28.935  28.927  1.00  0.00     0.188 C 
BRANCH  36  37
ATOM     37  O   UNL A   1      36.530  29.950  29.290  1.00  0.00    -0.376 OA
BRANCH  37  38
ATOM     38  C   UNL A   1      35.905  30.667  28.239  1.00  0.00     0.202 C 
BRANCH  38  39
ATOM     39  C   UNL A   1      35.051  31.860  28.686  1.00  0.00     0.261 C 
BRANCH  39  40
ATOM     40  O   UNL A   1      35.691  32.763  29.601  1.00  0.00    -0.460 OA
BRANCH  40  41
ATOM     41  C   UNL A   1      35.271  32.739  30.885  1.00  0.00     0.338 C 
ATOM     42  O   UNL A   1      34.128  32.819  31.295  1.00  0.00    -0.246 OA
BRANCH  41  43
ATOM     43  C   UNL A   1      36.440  32.411  31.723  1.00  0.00     0.060 A 
ATOM     44  C   UNL A   1      36.262  31.628  32.872  1.00  0.00     0.016 A 
ATOM     45  C   UNL A   1      37.708  32.866  31.361  1.00  0.00     0.016 A 
ATOM     46  C   UNL A   1      37.356  31.323  33.681  1.00  0.00     0.010 A 
ATOM     47  C   UNL A   1      38.798  32.581  32.184  1.00  0.00     0.010 A 
ATOM     48  C   UNL A   1      38.620  31.836  33.364  1.00  0.00    -0.014 A 
BRANCH  48  49
ATOM     49  C   UNL A   1      39.714  31.788  34.362  1.00  0.00     0.031 A 
ATOM     50  C   UNL A   1      40.596  30.572  34.382  1.00  0.00     0.074 A 
ATOM     51  C   UNL A   1      39.922  32.794  35.228  1.00  0.00     0.049 A 
ATOM     52  N   UNL A   1      41.558  30.250  35.209  1.00  0.00    -0.248 NA
ATOM     53  C   UNL A   1      40.356  29.578  33.321  1.00  0.00     0.031 C 
ATOM     54  C   UNL A   1      39.168  34.044  35.274  1.00  0.00     0.029 A 
ATOM     55  N   UNL A   1      40.833  32.911  36.250  1.00  0.00    -0.354 N 
ATOM     56  C   UNL A   1      42.034  29.023  34.769  1.00  0.00     0.074 A 
ATOM     57  C   UNL A   1      41.235  28.637  33.627  1.00  0.00     0.031 C 
ATOM     58  C   UNL A   1      39.638  34.799  36.283  1.00  0.00     0.029 A 
ATOM     59  C   UNL A   1      40.698  34.068  36.977  1.00  0.00     0.049 A 
ATOM     60  H   UNL A   1      41.516  32.230  36.442  1.00  0.00     0.167 HD
ATOM     61  C   UNL A   1      43.056  28.287  35.267  1.00  0.00     0.037 A 
ATOM     62  C   UNL A   1      41.342  34.470  38.091  1.00  0.00     0.037 A 
ATOM     63  C   UNL A   1      43.840  28.667  36.411  1.00  0.00     0.049 A 
ATOM     64  C   UNL A   1      42.406  33.580  38.690  1.00  0.00     0.074 A 
ATOM     65  C   UNL A   1      44.890  27.988  37.003  1.00  0.00     0.029 A 
ATOM     66  N   UNL A   1      43.650  29.829  37.143  1.00  0.00    -0.354 N 
ATOM     67  N   UNL A   1      42.864  32.428  38.262  1.00  0.00    -0.248 NA
ATOM     68  C   UNL A   1      43.042  34.050  39.929  1.00  0.00     0.031 C 
ATOM     69  C   UNL A   1      45.302  28.714  38.123  1.00  0.00     0.029 A 
ATOM     70  C   UNL A   1      44.550  29.876  38.196  1.00  0.00     0.049 A 
ATOM     71  H   UNL A   1      42.976  30.519  36.946  1.00  0.00     0.167 HD
ATOM     72  C   UNL A   1      43.865  32.058  39.153  1.00  0.00     0.074 A 
ATOM     73  C   UNL A   1      43.954  33.112  40.140  1.00  0.00     0.031 C 
ATOM     74  C   UNL A   1      44.642  30.947  39.155  1.00  0.00     0.037 A 
BRANCH  61  75
ATOM     75  C   UNL A   1      43.368  26.987  34.586  1.00  0.00     0.064 A 
ATOM     76  C   UNL A   1      44.310  26.906  33.549  1.00  0.00     0.173 A 
ATOM     77  C   UNL A   1      42.737  25.802  34.991  1.00  0.00     0.173 A 
ATOM     78  F   UNL A   1      44.927  28.014  33.111  1.00  0.00    -0.203 F 
ATOM     79  C   UNL A   1      44.590  25.692  32.928  1.00  0.00     0.198 A 
ATOM     80  C   UNL A   1      43.043  24.584  34.391  1.00  0.00     0.198 A 
ATOM     81  F   UNL A   1      41.828  25.823  35.978  1.00  0.00    -0.203 F 
ATOM     82  F   UNL A   1      45.458  25.649  31.907  1.00  0.00    -0.200 F 
ATOM     83  C   UNL A   1      43.964  24.532  33.355  1.00  0.00     0.200 A 
ATOM     84  F   UNL A   1      42.445  23.462  34.812  1.00  0.00    -0.200 F 
ATOM     85  F   UNL A   1      44.241  23.361  32.762  1.00  0.00    -0.200 F 
ENDBRANCH  61  75
BRANCH  62  86
ATOM     86  C   UNL A   1      41.000  35.767  38.733  1.00  0.00     0.064 A 
ATOM     87  C   UNL A   1      39.749  35.968  39.335  1.00  0.00     0.173 A 
ATOM     88  C   UNL A   1      41.891  36.850  38.712  1.00  0.00     0.173 A 
ATOM     89  F   UNL A   1      38.850  34.974  39.355  1.00  0.00    -0.203 F 
ATOM     90  C   UNL A   1      39.394  37.207  39.864  1.00  0.00     0.198 A 
ATOM     91  C   UNL A   1      41.548  38.079  39.272  1.00  0.00     0.198 A 
ATOM     92  F   UNL A   1      43.100  36.716  38.145  1.00  0.00    -0.203 F 
ATOM     93  F   UNL A   1      38.168  37.388  40.376  1.00  0.00    -0.200 F 
ATOM     94  C   UNL A   1      40.295  38.260  39.837  1.00  0.00     0.200 A 
ATOM     95  F   UNL A   1      42.426  39.091  39.252  1.00  0.00    -0.200 F 
ATOM     96  F   UNL A   1      39.951  39.453  40.341  1.00  0.00    -0.200 F 
ENDBRANCH  62  86
BRANCH  74  97
ATOM     97  C   UNL A   1      45.699  30.837  40.216  1.00  0.00     0.064 A 
ATOM     98  C   UNL A   1      46.967  31.419  40.063  1.00  0.00     0.173 A 
ATOM     99  C   UNL A   1      45.419  30.184  41.426  1.00  0.00     0.173 A 
ATOM    100  F   UNL A   1      47.290  32.043  38.920  1.00  0.00    -0.203 F 
ATOM    101  C   UNL A   1      47.922  31.328  41.072  1.00  0.00     0.198 A 
ATOM    102  C   UNL A   1      46.365  30.125  42.447  1.00  0.00     0.198 A 
ATOM    103  F   UNL A   1      44.220  29.619  41.629  1.00  0.00    -0.203 F 
ATOM    104  F   UNL A   1      49.143  31.848  40.886  1.00  0.00    -0.200 F 
ATOM    105  C   UNL A   1      47.618  30.690  42.266  1.00  0.00     0.200 A 
ATOM    106  F   UNL A   1      46.062  29.523  43.605  1.00  0.00    -0.200 F 
ATOM    107  F   UNL A   1      48.535  30.614  43.240  1.00  0.00    -0.200 F 
ENDBRANCH  74  97
ENDBRANCH  48  49
ENDBRANCH  41  43
ENDBRANCH  40  41
ENDBRANCH  39  40
ENDBRANCH  38  39
ENDBRANCH  37  38
ENDBRANCH  36  37
ENDBRANCH  35  36
ENDBRANCH  34  35
ENDBRANCH   1  34
TORSDOF 24
ENDMDL
