MODEL 1
REMARK VINA RESULT:      -9.7      0.000      0.000
REMARK SMILES CCCC[C@@H](Sc1nc(OCCC2CCCCC2)cc(OCCC2CCCCC2)n1)C(=O)OCCOCCOCCOCCOC(=O)c1ccc(-c2c3nc(c(-c4c(F)c(F)c(F)c(F)c4F)c4ccc([nH]4)c(-c4c(F)c(F)c(F)c(F)c4F)c4nc(c(-c5c(F)c(F)c(F)c(F)c5F)c5ccc2[nH]5)C=C4)C=C3)cc1
REMARK SMILES IDX 37 1 36 2 35 3 34 4 33 5 31 6 32 7 5 8 4 9 3 10 2 11 1 12
REMARK SMILES IDX 6 13 7 14 8 15 30 16 9 17 20 18 19 19 10 20 11 21 12 22
REMARK SMILES IDX 13 23 14 24 18 25 15 26 17 27 16 28 21 29 22 30 23 31 24 32
REMARK SMILES IDX 25 33 29 34 26 35 28 36 27 37 38 38 39 39 40 40 41 41 42 42
REMARK SMILES IDX 43 43 44 44 45 45 46 46 47 47 48 48 49 49 110 50 50 51
REMARK SMILES IDX 109 52 51 53 52 54 53 55 103 56 54 57 108 58 102 59 104 60
REMARK SMILES IDX 55 61 107 62 101 63 100 64 56 66 88 67 68 68 87 69 69 70
REMARK SMILES IDX 72 71 86 72 105 73 70 74 71 75 85 77 106 78 73 79 57 80
REMARK SMILES IDX 58 81 66 82 59 83 60 84 64 85 67 86 61 87 62 88 65 89 63 90
REMARK SMILES IDX 89 91 90 92 98 93 91 94 92 95 96 96 99 97 93 98 94 99 97 100
REMARK SMILES IDX 95 101 74 102 75 103 83 104 76 105 77 106 81 107 84 108
REMARK SMILES IDX 78 109 79 110 82 111 80 112
REMARK H PARENT 104 65 72 76
REMARK Flexibility Score: inf
ROOT
ATOM      1  C   UNL A   1      32.920  27.215  21.883  1.00  0.00     0.188 C 
ENDROOT
BRANCH   1   2
ATOM      2  O   UNL A   1      32.410  26.073  22.555  1.00  0.00    -0.376 OA
BRANCH   2   3
ATOM      3  C   UNL A   1      32.265  24.819  21.904  1.00  0.00     0.202 C 
BRANCH   3   4
ATOM      4  C   UNL A   1      33.363  23.745  21.928  1.00  0.00     0.261 C 
BRANCH   4   5
ATOM      5  O   UNL A   1      33.814  23.320  23.223  1.00  0.00    -0.462 OA
BRANCH   5   6
ATOM      6  C   UNL A   1      35.134  23.502  23.470  1.00  0.00     0.319 C 
ATOM      7  O   UNL A   1      36.019  23.336  22.635  1.00  0.00    -0.251 OA
BRANCH   6   8
ATOM      8  C   UNL A   1      35.447  23.845  24.920  1.00  0.00     0.164 C 
BRANCH   8   9
ATOM      9  C   UNL A   1      36.915  23.735  25.404  1.00  0.00     0.027 C 
BRANCH   9  10
ATOM     10  C   UNL A   1      37.743  22.451  25.098  1.00  0.00     0.001 C 
BRANCH  10  11
ATOM     11  C   UNL A   1      37.340  21.064  25.620  1.00  0.00    -0.003 C 
ATOM     12  C   UNL A   1      37.777  19.873  24.774  1.00  0.00     0.004 C 
ENDBRANCH  10  11
ENDBRANCH   9  10
ENDBRANCH   8   9
BRANCH   8  13
ATOM     13  S   UNL A   1      34.739  25.529  25.138  1.00  0.00    -0.071 SA
BRANCH  13  14
ATOM     14  C   UNL A   1      33.300  24.948  25.958  1.00  0.00     0.195 A 
ATOM     15  N   UNL A   1      32.138  25.574  25.709  1.00  0.00    -0.187 NA
ATOM     16  N   UNL A   1      33.446  23.741  26.513  1.00  0.00    -0.187 NA
ATOM     17  C   UNL A   1      31.038  24.948  26.129  1.00  0.00     0.221 A 
ATOM     18  C   UNL A   1      32.333  23.121  26.878  1.00  0.00     0.221 A 
ATOM     19  C   UNL A   1      31.116  23.722  26.738  1.00  0.00     0.136 A 
BRANCH  17  20
ATOM     20  O   UNL A   1      29.849  25.484  25.690  1.00  0.00    -0.477 OA
BRANCH  20  21
ATOM     21  C   UNL A   1      29.710  25.903  24.331  1.00  0.00     0.231 C 
BRANCH  21  22
ATOM     22  C   UNL A   1      28.407  26.651  23.883  1.00  0.00     0.045 C 
BRANCH  22  23
ATOM     23  C   UNL A   1      28.516  28.113  23.439  1.00  0.00    -0.008 C 
ATOM     24  C   UNL A   1      29.400  28.440  22.225  1.00  0.00     0.004 C 
ATOM     25  C   UNL A   1      27.149  28.764  23.223  1.00  0.00     0.004 C 
ATOM     26  C   UNL A   1      29.576  29.974  22.136  1.00  0.00     0.000 C 
ATOM     27  C   UNL A   1      27.304  30.272  23.236  1.00  0.00     0.000 C 
ATOM     28  C   UNL A   1      28.251  30.742  22.144  1.00  0.00     0.000 C 
ENDBRANCH  22  23
ENDBRANCH  21  22
ENDBRANCH  20  21
ENDBRANCH  17  20
BRANCH  18  29
ATOM     29  O   UNL A   1      32.562  21.872  27.365  1.00  0.00    -0.477 OA
BRANCH  29  30
ATOM     30  C   UNL A   1      33.191  20.873  26.569  1.00  0.00     0.231 C 
BRANCH  30  31
ATOM     31  C   UNL A   1      32.454  20.679  25.238  1.00  0.00     0.045 C 
BRANCH  31  32
ATOM     32  C   UNL A   1      33.162  19.856  24.126  1.00  0.00    -0.008 C 
ATOM     33  C   UNL A   1      34.364  19.036  24.637  1.00  0.00     0.004 C 
ATOM     34  C   UNL A   1      32.142  19.147  23.217  1.00  0.00     0.004 C 
ATOM     35  C   UNL A   1      34.507  17.580  24.193  1.00  0.00     0.000 C 
ATOM     36  C   UNL A   1      32.661  17.895  22.526  1.00  0.00     0.000 C 
ATOM     37  C   UNL A   1      33.279  16.976  23.549  1.00  0.00     0.000 C 
ENDBRANCH  31  32
ENDBRANCH  30  31
ENDBRANCH  29  30
ENDBRANCH  18  29
ENDBRANCH  13  14
ENDBRANCH   8  13
ENDBRANCH   6   8
ENDBRANCH   5   6
ENDBRANCH   4   5
ENDBRANCH   3   4
ENDBRANCH   2   3
ENDBRANCH   1   2
BRANCH   1  38
ATOM     38  C   UNL A   1      34.002  28.086  22.529  1.00  0.00     0.188 C 
BRANCH  38  39
ATOM     39  O   UNL A   1      33.623  28.698  23.743  1.00  0.00    -0.377 OA
BRANCH  39  40
ATOM     40  C   UNL A   1      32.278  29.134  23.870  1.00  0.00     0.188 C 
BRANCH  40  41
ATOM     41  C   UNL A   1      31.770  29.476  25.280  1.00  0.00     0.188 C 
BRANCH  41  42
ATOM     42  O   UNL A   1      32.573  28.927  26.316  1.00  0.00    -0.376 OA
BRANCH  42  43
ATOM     43  C   UNL A   1      33.030  29.799  27.340  1.00  0.00     0.202 C 
BRANCH  43  44
ATOM     44  C   UNL A   1      33.504  31.199  26.915  1.00  0.00     0.261 C 
BRANCH  44  45
ATOM     45  O   UNL A   1      33.027  32.314  27.689  1.00  0.00    -0.460 OA
BRANCH  45  46
ATOM     46  C   UNL A   1      33.881  33.317  27.991  1.00  0.00     0.338 C 
ATOM     47  O   UNL A   1      33.661  34.508  27.965  1.00  0.00    -0.246 OA
BRANCH  46  48
ATOM     48  C   UNL A   1      35.098  32.695  28.563  1.00  0.00     0.060 A 
ATOM     49  C   UNL A   1      34.971  31.562  29.379  1.00  0.00     0.016 A 
ATOM     50  C   UNL A   1      36.360  33.219  28.277  1.00  0.00     0.016 A 
ATOM     51  C   UNL A   1      36.108  30.958  29.923  1.00  0.00     0.010 A 
ATOM     52  C   UNL A   1      37.494  32.630  28.844  1.00  0.00     0.010 A 
ATOM     53  C   UNL A   1      37.373  31.511  29.687  1.00  0.00    -0.014 A 
BRANCH  53  54
ATOM     54  C   UNL A   1      38.557  31.038  30.445  1.00  0.00     0.031 A 
ATOM     55  C   UNL A   1      39.428  29.983  29.823  1.00  0.00     0.074 A 
ATOM     56  C   UNL A   1      38.847  31.517  31.668  1.00  0.00     0.049 A 
ATOM     57  N   UNL A   1      40.436  29.323  30.334  1.00  0.00    -0.248 NA
ATOM     58  C   UNL A   1      39.113  29.622  28.433  1.00  0.00     0.031 C 
ATOM     59  C   UNL A   1      38.119  32.580  32.352  1.00  0.00     0.029 A 
ATOM     60  N   UNL A   1      39.828  31.150  32.556  1.00  0.00    -0.354 N 
ATOM     61  C   UNL A   1      40.869  28.465  29.333  1.00  0.00     0.074 A 
ATOM     62  C   UNL A   1      39.996  28.664  28.196  1.00  0.00     0.031 C 
ATOM     63  C   UNL A   1      38.667  32.770  33.566  1.00  0.00     0.029 A 
ATOM     64  C   UNL A   1      39.753  31.810  33.758  1.00  0.00     0.049 A 
ATOM     65  H   UNL A   1      40.518  30.479  32.350  1.00  0.00     0.167 HD
ATOM     66  C   UNL A   1      41.903  27.591  29.358  1.00  0.00     0.037 A 
ATOM     67  C   UNL A   1      40.459  31.630  34.892  1.00  0.00     0.037 A 
ATOM     68  C   UNL A   1      42.757  27.384  30.498  1.00  0.00     0.049 A 
ATOM     69  C   UNL A   1      41.529  30.565  34.938  1.00  0.00     0.074 A 
ATOM     70  C   UNL A   1      43.835  26.526  30.625  1.00  0.00     0.029 A 
ATOM     71  N   UNL A   1      42.619  28.035  31.716  1.00  0.00    -0.354 N 
ATOM     72  N   UNL A   1      41.946  29.764  33.987  1.00  0.00    -0.248 NA
ATOM     73  C   UNL A   1      42.222  30.376  36.221  1.00  0.00     0.031 C 
ATOM     74  C   UNL A   1      44.308  26.612  31.938  1.00  0.00     0.029 A 
ATOM     75  C   UNL A   1      43.570  27.571  32.611  1.00  0.00     0.049 A 
ATOM     76  H   UNL A   1      41.945  28.725  31.914  1.00  0.00     0.167 HD
ATOM     77  C   UNL A   1      42.966  29.003  34.544  1.00  0.00     0.074 A 
ATOM     78  C   UNL A   1      43.113  29.445  35.915  1.00  0.00     0.031 C 
ATOM     79  C   UNL A   1      43.713  28.028  33.971  1.00  0.00     0.037 A 
BRANCH  66  80
ATOM     80  C   UNL A   1      42.139  26.765  28.126  1.00  0.00     0.064 A 
ATOM     81  C   UNL A   1      41.457  25.559  27.901  1.00  0.00     0.173 A 
ATOM     82  C   UNL A   1      43.052  27.192  27.149  1.00  0.00     0.173 A 
ATOM     83  F   UNL A   1      40.584  25.098  28.810  1.00  0.00    -0.203 F 
ATOM     84  C   UNL A   1      41.707  24.794  26.765  1.00  0.00     0.198 A 
ATOM     85  C   UNL A   1      43.274  26.442  25.998  1.00  0.00     0.198 A 
ATOM     86  F   UNL A   1      43.729  28.339  27.310  1.00  0.00    -0.203 F 
ATOM     87  F   UNL A   1      41.089  23.616  26.603  1.00  0.00    -0.200 F 
ATOM     88  C   UNL A   1      42.610  25.239  25.812  1.00  0.00     0.200 A 
ATOM     89  F   UNL A   1      44.136  26.881  25.070  1.00  0.00    -0.200 F 
ATOM     90  F   UNL A   1      42.848  24.503  24.717  1.00  0.00    -0.200 F 
ENDBRANCH  66  80
BRANCH  67  91
ATOM     91  C   UNL A   1      40.169  32.461  36.092  1.00  0.00     0.064 A 
ATOM     92  C   UNL A   1      40.946  33.589  36.392  1.00  0.00     0.173 A 
ATOM     93  C   UNL A   1      39.131  32.132  36.977  1.00  0.00     0.173 A 
ATOM     94  F   UNL A   1      41.971  33.926  35.595  1.00  0.00    -0.203 F 
ATOM     95  C   UNL A   1      40.705  34.347  37.536  1.00  0.00     0.198 A 
ATOM     96  C   UNL A   1      38.871  32.910  38.104  1.00  0.00     0.198 A 
ATOM     97  F   UNL A   1      38.364  31.057  36.743  1.00  0.00    -0.203 F 
ATOM     98  F   UNL A   1      41.497  35.390  37.824  1.00  0.00    -0.200 F 
ATOM     99  C   UNL A   1      39.664  34.011  38.387  1.00  0.00     0.200 A 
ATOM    100  F   UNL A   1      37.859  32.585  38.920  1.00  0.00    -0.200 F 
ATOM    101  F   UNL A   1      39.432  34.741  39.487  1.00  0.00    -0.200 F 
ENDBRANCH  67  91
BRANCH  79 102
ATOM    102  C   UNL A   1      44.791  27.392  34.805  1.00  0.00     0.064 A 
ATOM    103  C   UNL A   1      44.563  26.220  35.542  1.00  0.00     0.173 A 
ATOM    104  C   UNL A   1      46.088  27.931  34.818  1.00  0.00     0.173 A 
ATOM    105  F   UNL A   1      43.339  25.672  35.576  1.00  0.00    -0.203 F 
ATOM    106  C   UNL A   1      45.586  25.622  36.273  1.00  0.00     0.198 A 
ATOM    107  C   UNL A   1      47.117  27.312  35.523  1.00  0.00     0.198 A 
ATOM    108  F   UNL A   1      46.363  29.046  34.125  1.00  0.00    -0.203 F 
ATOM    109  F   UNL A   1      45.335  24.527  37.002  1.00  0.00    -0.200 F 
ATOM    110  C   UNL A   1      46.864  26.163  36.254  1.00  0.00     0.200 A 
ATOM    111  F   UNL A   1      48.354  27.826  35.488  1.00  0.00    -0.200 F 
ATOM    112  F   UNL A   1      47.851  25.576  36.946  1.00  0.00    -0.200 F 
ENDBRANCH  79 102
ENDBRANCH  53  54
ENDBRANCH  46  48
ENDBRANCH  45  46
ENDBRANCH  44  45
ENDBRANCH  43  44
ENDBRANCH  42  43
ENDBRANCH  41  42
ENDBRANCH  40  41
ENDBRANCH  39  40
ENDBRANCH  38  39
ENDBRANCH   1  38
TORSDOF 33
ENDMDL
MODEL 2
REMARK VINA RESULT:      -8.9      1.591      6.963
REMARK SMILES CCCC[C@@H](Sc1nc(OCCC2CCCCC2)cc(OCCC2CCCCC2)n1)C(=O)OCCOCCOCCOCCOC(=O)c1ccc(-c2c3nc(c(-c4c(F)c(F)c(F)c(F)c4F)c4ccc([nH]4)c(-c4c(F)c(F)c(F)c(F)c4F)c4nc(c(-c5c(F)c(F)c(F)c(F)c5F)c5ccc2[nH]5)C=C4)C=C3)cc1
REMARK SMILES IDX 37 1 36 2 35 3 34 4 33 5 31 6 32 7 5 8 4 9 3 10 2 11 1 12
REMARK SMILES IDX 6 13 7 14 8 15 30 16 9 17 20 18 19 19 10 20 11 21 12 22
REMARK SMILES IDX 13 23 14 24 18 25 15 26 17 27 16 28 21 29 22 30 23 31 24 32
REMARK SMILES IDX 25 33 29 34 26 35 28 36 27 37 38 38 39 39 40 40 41 41 42 42
REMARK SMILES IDX 43 43 44 44 45 45 46 46 47 47 48 48 49 49 110 50 50 51
REMARK SMILES IDX 109 52 51 53 52 54 53 55 103 56 54 57 108 58 102 59 104 60
REMARK SMILES IDX 55 61 107 62 101 63 100 64 56 66 88 67 68 68 87 69 69 70
REMARK SMILES IDX 72 71 86 72 105 73 70 74 71 75 85 77 106 78 73 79 57 80
REMARK SMILES IDX 58 81 66 82 59 83 60 84 64 85 67 86 61 87 62 88 65 89 63 90
REMARK SMILES IDX 89 91 90 92 98 93 91 94 92 95 96 96 99 97 93 98 94 99 97 100
REMARK SMILES IDX 95 101 74 102 75 103 83 104 76 105 77 106 81 107 84 108
REMARK SMILES IDX 78 109 79 110 82 111 80 112
REMARK H PARENT 104 65 72 76
REMARK Flexibility Score: inf
ROOT
ATOM      1  C   UNL A   1      32.550  26.646  22.216  1.00  0.00     0.188 C 
ENDROOT
BRANCH   1   2
ATOM      2  O   UNL A   1      32.105  25.423  22.782  1.00  0.00    -0.376 OA
BRANCH   2   3
ATOM      3  C   UNL A   1      32.114  24.207  22.048  1.00  0.00     0.202 C 
BRANCH   3   4
ATOM      4  C   UNL A   1      33.369  23.331  21.920  1.00  0.00     0.261 C 
BRANCH   4   5
ATOM      5  O   UNL A   1      33.905  22.799  23.140  1.00  0.00    -0.462 OA
BRANCH   5   6
ATOM      6  C   UNL A   1      35.173  23.174  23.434  1.00  0.00     0.319 C 
ATOM      7  O   UNL A   1      36.070  23.277  22.601  1.00  0.00    -0.251 OA
BRANCH   6   8
ATOM      8  C   UNL A   1      35.428  23.373  24.922  1.00  0.00     0.164 C 
BRANCH   8   9
ATOM      9  C   UNL A   1      36.865  23.158  25.460  1.00  0.00     0.027 C 
BRANCH   9  10
ATOM     10  C   UNL A   1      37.505  24.212  26.412  1.00  0.00     0.001 C 
BRANCH  10  11
ATOM     11  C   UNL A   1      39.010  24.249  26.713  1.00  0.00    -0.003 C 
ATOM     12  C   UNL A   1      39.443  25.131  27.879  1.00  0.00     0.004 C 
ENDBRANCH  10  11
ENDBRANCH   9  10
ENDBRANCH   8   9
BRANCH   8  13
ATOM     13  S   UNL A   1      34.774  25.059  25.260  1.00  0.00    -0.071 SA
BRANCH  13  14
ATOM     14  C   UNL A   1      33.265  24.469  25.937  1.00  0.00     0.195 A 
ATOM     15  N   UNL A   1      32.198  25.285  25.901  1.00  0.00    -0.187 NA
ATOM     16  N   UNL A   1      33.246  23.148  26.140  1.00  0.00    -0.187 NA
ATOM     17  C   UNL A   1      31.023  24.716  26.170  1.00  0.00     0.221 A 
ATOM     18  C   UNL A   1      32.058  22.603  26.358  1.00  0.00     0.221 A 
ATOM     19  C   UNL A   1      30.933  23.372  26.423  1.00  0.00     0.136 A 
BRANCH  17  20
ATOM     20  O   UNL A   1      29.919  25.501  25.929  1.00  0.00    -0.477 OA
BRANCH  20  21
ATOM     21  C   UNL A   1      29.964  26.513  24.920  1.00  0.00     0.231 C 
BRANCH  21  22
ATOM     22  C   UNL A   1      28.728  26.719  23.978  1.00  0.00     0.045 C 
BRANCH  22  23
ATOM     23  C   UNL A   1      28.687  27.962  23.083  1.00  0.00    -0.008 C 
ATOM     24  C   UNL A   1      27.450  28.870  23.159  1.00  0.00     0.004 C 
ATOM     25  C   UNL A   1      29.931  28.837  23.236  1.00  0.00     0.004 C 
ATOM     26  C   UNL A   1      27.504  29.884  21.992  1.00  0.00     0.000 C 
ATOM     27  C   UNL A   1      30.043  29.763  22.040  1.00  0.00     0.000 C 
ATOM     28  C   UNL A   1      28.823  30.661  21.919  1.00  0.00     0.000 C 
ENDBRANCH  22  23
ENDBRANCH  21  22
ENDBRANCH  20  21
ENDBRANCH  17  20
BRANCH  18  29
ATOM     29  O   UNL A   1      32.115  21.249  26.481  1.00  0.00    -0.477 OA
BRANCH  29  30
ATOM     30  C   UNL A   1      33.127  20.490  25.828  1.00  0.00     0.231 C 
BRANCH  30  31
ATOM     31  C   UNL A   1      33.135  19.037  26.321  1.00  0.00     0.045 C 
BRANCH  31  32
ATOM     32  C   UNL A   1      32.702  17.927  25.324  1.00  0.00    -0.008 C 
ATOM     33  C   UNL A   1      32.460  18.444  23.892  1.00  0.00     0.004 C 
ATOM     34  C   UNL A   1      33.553  16.655  25.496  1.00  0.00     0.004 C 
ATOM     35  C   UNL A   1      33.039  17.659  22.716  1.00  0.00     0.000 C 
ATOM     36  C   UNL A   1      33.651  15.779  24.257  1.00  0.00     0.000 C 
ATOM     37  C   UNL A   1      34.076  16.619  23.079  1.00  0.00     0.000 C 
ENDBRANCH  31  32
ENDBRANCH  30  31
ENDBRANCH  29  30
ENDBRANCH  18  29
ENDBRANCH  13  14
ENDBRANCH   8  13
ENDBRANCH   6   8
ENDBRANCH   5   6
ENDBRANCH   4   5
ENDBRANCH   3   4
ENDBRANCH   2   3
ENDBRANCH   1   2
BRANCH   1  38
ATOM     38  C   UNL A   1      34.031  27.040  22.267  1.00  0.00     0.188 C 
BRANCH  38  39
ATOM     39  O   UNL A   1      34.320  28.149  23.091  1.00  0.00    -0.377 OA
BRANCH  39  40
ATOM     40  C   UNL A   1      33.286  29.096  23.309  1.00  0.00     0.188 C 
BRANCH  40  41
ATOM     41  C   UNL A   1      32.994  29.512  24.761  1.00  0.00     0.188 C 
BRANCH  41  42
ATOM     42  O   UNL A   1      33.407  28.544  25.716  1.00  0.00    -0.376 OA
BRANCH  42  43
ATOM     43  C   UNL A   1      33.956  29.008  26.942  1.00  0.00     0.202 C 
BRANCH  43  44
ATOM     44  C   UNL A   1      34.415  30.475  26.998  1.00  0.00     0.261 C 
BRANCH  44  45
ATOM     45  O   UNL A   1      33.588  31.390  27.738  1.00  0.00    -0.460 OA
BRANCH  45  46
ATOM     46  C   UNL A   1      34.080  32.607  28.061  1.00  0.00     0.338 C 
ATOM     47  O   UNL A   1      33.567  33.687  27.867  1.00  0.00    -0.246 OA
BRANCH  46  48
ATOM     48  C   UNL A   1      35.290  32.382  28.887  1.00  0.00     0.060 A 
ATOM     49  C   UNL A   1      36.477  33.054  28.563  1.00  0.00     0.016 A 
ATOM     50  C   UNL A   1      35.246  31.523  29.986  1.00  0.00     0.016 A 
ATOM     51  C   UNL A   1      37.627  32.859  29.332  1.00  0.00     0.010 A 
ATOM     52  C   UNL A   1      36.404  31.308  30.738  1.00  0.00     0.010 A 
ATOM     53  C   UNL A   1      37.605  31.957  30.403  1.00  0.00    -0.014 A 
BRANCH  53  54
ATOM     54  C   UNL A   1      38.865  31.552  31.075  1.00  0.00     0.031 A 
ATOM     55  C   UNL A   1      39.163  32.120  32.434  1.00  0.00     0.074 A 
ATOM     56  C   UNL A   1      39.737  30.714  30.488  1.00  0.00     0.049 A 
ATOM     57  N   UNL A   1      40.245  32.020  33.162  1.00  0.00    -0.248 NA
ATOM     58  C   UNL A   1      38.091  32.916  33.052  1.00  0.00     0.031 C 
ATOM     59  C   UNL A   1      39.537  30.050  29.204  1.00  0.00     0.029 A 
ATOM     60  N   UNL A   1      40.980  30.296  30.897  1.00  0.00    -0.354 N 
ATOM     61  C   UNL A   1      39.988  32.744  34.318  1.00  0.00     0.074 A 
ATOM     62  C   UNL A   1      38.661  33.304  34.182  1.00  0.00     0.031 C 
ATOM     63  C   UNL A   1      40.629  29.318  28.919  1.00  0.00     0.029 A 
ATOM     64  C   UNL A   1      41.620  29.501  29.978  1.00  0.00     0.049 A 
ATOM     65  H   UNL A   1      41.372  30.541  31.766  1.00  0.00     0.167 HD
ATOM     66  C   UNL A   1      40.785  32.923  35.398  1.00  0.00     0.037 A 
ATOM     67  C   UNL A   1      42.876  29.011  29.980  1.00  0.00     0.037 A 
ATOM     68  C   UNL A   1      42.112  32.377  35.521  1.00  0.00     0.049 A 
ATOM     69  C   UNL A   1      43.791  29.324  31.140  1.00  0.00     0.074 A 
ATOM     70  C   UNL A   1      43.000  32.496  36.575  1.00  0.00     0.029 A 
ATOM     71  N   UNL A   1      42.746  31.619  34.548  1.00  0.00    -0.354 N 
ATOM     72  N   UNL A   1      43.542  29.997  32.237  1.00  0.00    -0.248 NA
ATOM     73  C   UNL A   1      45.168  28.813  31.055  1.00  0.00     0.031 C 
ATOM     74  C   UNL A   1      44.194  31.865  36.213  1.00  0.00     0.029 A 
ATOM     75  C   UNL A   1      44.028  31.294  34.961  1.00  0.00     0.049 A 
ATOM     76  H   UNL A   1      42.345  31.352  33.689  1.00  0.00     0.167 HD
ATOM     77  C   UNL A   1      44.713  29.962  32.984  1.00  0.00     0.074 A 
ATOM     78  C   UNL A   1      45.672  29.193  32.220  1.00  0.00     0.031 C 
ATOM     79  C   UNL A   1      44.970  30.517  34.194  1.00  0.00     0.037 A 
BRANCH  66  80
ATOM     80  C   UNL A   1      40.255  33.778  36.514  1.00  0.00     0.064 A 
ATOM     81  C   UNL A   1      40.632  35.122  36.659  1.00  0.00     0.173 A 
ATOM     82  C   UNL A   1      39.348  33.248  37.444  1.00  0.00     0.173 A 
ATOM     83  F   UNL A   1      41.508  35.674  35.806  1.00  0.00    -0.203 F 
ATOM     84  C   UNL A   1      40.150  35.892  37.714  1.00  0.00     0.198 A 
ATOM     85  C   UNL A   1      38.840  34.031  38.477  1.00  0.00     0.198 A 
ATOM     86  F   UNL A   1      38.950  31.971  37.350  1.00  0.00    -0.203 F 
ATOM     87  F   UNL A   1      40.571  37.155  37.868  1.00  0.00    -0.200 F 
ATOM     88  C   UNL A   1      39.250  35.348  38.618  1.00  0.00     0.200 A 
ATOM     89  F   UNL A   1      37.959  33.507  39.341  1.00  0.00    -0.200 F 
ATOM     90  F   UNL A   1      38.784  36.091  39.632  1.00  0.00    -0.200 F 
ENDBRANCH  66  80
BRANCH  67  91
ATOM     91  C   UNL A   1      43.358  28.188  28.838  1.00  0.00     0.064 A 
ATOM     92  C   UNL A   1      44.116  28.762  27.807  1.00  0.00     0.173 A 
ATOM     93  C   UNL A   1      43.052  26.824  28.738  1.00  0.00     0.173 A 
ATOM     94  F   UNL A   1      44.408  30.070  27.840  1.00  0.00    -0.203 F 
ATOM     95  C   UNL A   1      44.537  28.005  26.715  1.00  0.00     0.198 A 
ATOM     96  C   UNL A   1      43.499  26.061  27.661  1.00  0.00     0.198 A 
ATOM     97  F   UNL A   1      42.320  26.227  29.691  1.00  0.00    -0.203 F 
ATOM     98  F   UNL A   1      45.216  28.592  25.719  1.00  0.00    -0.200 F 
ATOM     99  C   UNL A   1      44.234  26.654  26.646  1.00  0.00     0.200 A 
ATOM    100  F   UNL A   1      43.210  24.754  27.602  1.00  0.00    -0.200 F 
ATOM    101  F   UNL A   1      44.639  25.927  25.595  1.00  0.00    -0.200 F 
ENDBRANCH  67  91
BRANCH  79 102
ATOM    102  C   UNL A   1      46.328  30.282  34.797  1.00  0.00     0.064 A 
ATOM    103  C   UNL A   1      47.390  31.177  34.598  1.00  0.00     0.173 A 
ATOM    104  C   UNL A   1      46.550  29.178  35.635  1.00  0.00     0.173 A 
ATOM    105  F   UNL A   1      47.236  32.240  33.795  1.00  0.00    -0.203 F 
ATOM    106  C   UNL A   1      48.628  30.965  35.201  1.00  0.00     0.198 A 
ATOM    107  C   UNL A   1      47.778  28.988  36.263  1.00  0.00     0.198 A 
ATOM    108  F   UNL A   1      45.566  28.295  35.866  1.00  0.00    -0.203 F 
ATOM    109  F   UNL A   1      49.640  31.809  34.962  1.00  0.00    -0.200 F 
ATOM    110  C   UNL A   1      48.817  29.877  36.040  1.00  0.00     0.200 A 
ATOM    111  F   UNL A   1      47.953  27.945  37.088  1.00  0.00    -0.200 F 
ATOM    112  F   UNL A   1      50.004  29.684  36.632  1.00  0.00    -0.200 F 
ENDBRANCH  79 102
ENDBRANCH  53  54
ENDBRANCH  46  48
ENDBRANCH  45  46
ENDBRANCH  44  45
ENDBRANCH  43  44
ENDBRANCH  42  43
ENDBRANCH  41  42
ENDBRANCH  40  41
ENDBRANCH  39  40
ENDBRANCH  38  39
ENDBRANCH   1  38
TORSDOF 33
ENDMDL
MODEL 3
REMARK VINA RESULT:      -8.7      3.132      9.132
REMARK SMILES CCCC[C@@H](Sc1nc(OCCC2CCCCC2)cc(OCCC2CCCCC2)n1)C(=O)OCCOCCOCCOCCOC(=O)c1ccc(-c2c3nc(c(-c4c(F)c(F)c(F)c(F)c4F)c4ccc([nH]4)c(-c4c(F)c(F)c(F)c(F)c4F)c4nc(c(-c5c(F)c(F)c(F)c(F)c5F)c5ccc2[nH]5)C=C4)C=C3)cc1
REMARK SMILES IDX 37 1 36 2 35 3 34 4 33 5 31 6 32 7 5 8 4 9 3 10 2 11 1 12
REMARK SMILES IDX 6 13 7 14 8 15 30 16 9 17 20 18 19 19 10 20 11 21 12 22
REMARK SMILES IDX 13 23 14 24 18 25 15 26 17 27 16 28 21 29 22 30 23 31 24 32
REMARK SMILES IDX 25 33 29 34 26 35 28 36 27 37 38 38 39 39 40 40 41 41 42 42
REMARK SMILES IDX 43 43 44 44 45 45 46 46 47 47 48 48 49 49 110 50 50 51
REMARK SMILES IDX 109 52 51 53 52 54 53 55 103 56 54 57 108 58 102 59 104 60
REMARK SMILES IDX 55 61 107 62 101 63 100 64 56 66 88 67 68 68 87 69 69 70
REMARK SMILES IDX 72 71 86 72 105 73 70 74 71 75 85 77 106 78 73 79 57 80
REMARK SMILES IDX 58 81 66 82 59 83 60 84 64 85 67 86 61 87 62 88 65 89 63 90
REMARK SMILES IDX 89 91 90 92 98 93 91 94 92 95 96 96 99 97 93 98 94 99 97 100
REMARK SMILES IDX 95 101 74 102 75 103 83 104 76 105 77 106 81 107 84 108
REMARK SMILES IDX 78 109 79 110 82 111 80 112
REMARK H PARENT 104 65 72 76
REMARK Flexibility Score: inf
ROOT
ATOM      1  C   UNL A   1      37.728  19.936  24.669  1.00  0.00     0.188 C 
ENDROOT
BRANCH   1   2
ATOM      2  O   UNL A   1      36.398  19.569  25.000  1.00  0.00    -0.376 OA
BRANCH   2   3
ATOM      3  C   UNL A   1      35.848  18.314  24.624  1.00  0.00     0.202 C 
BRANCH   3   4
ATOM      4  C   UNL A   1      34.348  18.119  24.355  1.00  0.00     0.261 C 
BRANCH   4   5
ATOM      5  O   UNL A   1      33.486  19.206  24.723  1.00  0.00    -0.462 OA
BRANCH   5   6
ATOM      6  C   UNL A   1      32.575  19.571  23.788  1.00  0.00     0.319 C 
ATOM      7  O   UNL A   1      32.281  18.887  22.810  1.00  0.00    -0.251 OA
BRANCH   6   8
ATOM      8  C   UNL A   1      32.002  20.966  23.998  1.00  0.00     0.164 C 
BRANCH   8   9
ATOM      9  C   UNL A   1      32.070  21.586  25.416  1.00  0.00     0.027 C 
BRANCH   9  10
ATOM     10  C   UNL A   1      30.801  22.238  26.042  1.00  0.00     0.001 C 
BRANCH  10  11
ATOM     11  C   UNL A   1      30.650  23.757  26.213  1.00  0.00    -0.003 C 
ATOM     12  C   UNL A   1      31.696  24.445  27.082  1.00  0.00     0.004 C 
ENDBRANCH  10  11
ENDBRANCH   9  10
ENDBRANCH   8   9
BRANCH   8  13
ATOM     13  S   UNL A   1      32.848  21.987  22.722  1.00  0.00    -0.071 SA
BRANCH  13  14
ATOM     14  C   UNL A   1      33.590  23.058  23.898  1.00  0.00     0.195 A 
ATOM     15  N   UNL A   1      34.593  22.571  24.647  1.00  0.00    -0.187 NA
ATOM     16  N   UNL A   1      33.292  24.348  23.716  1.00  0.00    -0.187 NA
ATOM     17  C   UNL A   1      35.302  23.472  25.326  1.00  0.00     0.221 A 
ATOM     18  C   UNL A   1      34.044  25.224  24.366  1.00  0.00     0.221 A 
ATOM     19  C   UNL A   1      35.029  24.811  25.215  1.00  0.00     0.136 A 
BRANCH  17  20
ATOM     20  O   UNL A   1      36.448  22.996  25.921  1.00  0.00    -0.477 OA
BRANCH  20  21
ATOM     21  C   UNL A   1      37.642  23.784  25.910  1.00  0.00     0.231 C 
BRANCH  21  22
ATOM     22  C   UNL A   1      38.830  23.397  26.856  1.00  0.00     0.045 C 
BRANCH  22  23
ATOM     23  C   UNL A   1      40.017  24.358  26.974  1.00  0.00    -0.008 C 
ATOM     24  C   UNL A   1      40.388  25.208  25.749  1.00  0.00     0.004 C 
ATOM     25  C   UNL A   1      39.900  25.288  28.182  1.00  0.00     0.004 C 
ATOM     26  C   UNL A   1      41.757  25.880  26.006  1.00  0.00     0.000 C 
ATOM     27  C   UNL A   1      41.264  25.871  28.499  1.00  0.00     0.000 C 
ATOM     28  C   UNL A   1      41.817  26.659  27.324  1.00  0.00     0.000 C 
ENDBRANCH  22  23
ENDBRANCH  21  22
ENDBRANCH  20  21
ENDBRANCH  17  20
BRANCH  18  29
ATOM     29  O   UNL A   1      33.724  26.513  24.071  1.00  0.00    -0.477 OA
BRANCH  29  30
ATOM     30  C   UNL A   1      32.480  26.845  23.463  1.00  0.00     0.231 C 
BRANCH  30  31
ATOM     31  C   UNL A   1      31.335  26.796  24.484  1.00  0.00     0.045 C 
BRANCH  31  32
ATOM     32  C   UNL A   1      31.221  27.960  25.507  1.00  0.00    -0.008 C 
ATOM     33  C   UNL A   1      31.958  27.690  26.834  1.00  0.00     0.004 C 
ATOM     34  C   UNL A   1      31.437  29.326  24.829  1.00  0.00     0.004 C 
ATOM     35  C   UNL A   1      32.833  28.792  27.431  1.00  0.00     0.000 C 
ATOM     36  C   UNL A   1      31.941  30.425  25.751  1.00  0.00     0.000 C 
ATOM     37  C   UNL A   1      33.156  29.938  26.498  1.00  0.00     0.000 C 
ENDBRANCH  31  32
ENDBRANCH  30  31
ENDBRANCH  29  30
ENDBRANCH  18  29
ENDBRANCH  13  14
ENDBRANCH   8  13
ENDBRANCH   6   8
ENDBRANCH   5   6
ENDBRANCH   4   5
ENDBRANCH   3   4
ENDBRANCH   2   3
ENDBRANCH   1   2
BRANCH   1  38
ATOM     38  C   UNL A   1      38.921  19.284  25.377  1.00  0.00     0.188 C 
BRANCH  38  39
ATOM     39  O   UNL A   1      39.771  20.184  26.055  1.00  0.00    -0.377 OA
BRANCH  39  40
ATOM     40  C   UNL A   1      41.131  19.812  26.215  1.00  0.00     0.188 C 
BRANCH  40  41
ATOM     41  C   UNL A   1      42.160  20.938  26.408  1.00  0.00     0.188 C 
BRANCH  41  42
ATOM     42  O   UNL A   1      42.325  21.323  27.767  1.00  0.00    -0.376 OA
BRANCH  42  43
ATOM     43  C   UNL A   1      42.910  22.589  28.036  1.00  0.00     0.202 C 
BRANCH  43  44
ATOM     44  C   UNL A   1      44.184  22.957  27.258  1.00  0.00     0.261 C 
BRANCH  44  45
ATOM     45  O   UNL A   1      45.230  23.617  27.993  1.00  0.00    -0.460 OA
BRANCH  45  46
ATOM     46  C   UNL A   1      45.526  24.904  27.702  1.00  0.00     0.338 C 
ATOM     47  O   UNL A   1      45.917  25.353  26.648  1.00  0.00    -0.246 OA
BRANCH  46  48
ATOM     48  C   UNL A   1      45.094  25.722  28.860  1.00  0.00     0.060 A 
ATOM     49  C   UNL A   1      44.539  25.086  29.980  1.00  0.00     0.016 A 
ATOM     50  C   UNL A   1      45.252  27.108  28.845  1.00  0.00     0.016 A 
ATOM     51  C   UNL A   1      44.130  25.839  31.084  1.00  0.00     0.010 A 
ATOM     52  C   UNL A   1      44.817  27.863  29.938  1.00  0.00     0.010 A 
ATOM     53  C   UNL A   1      44.235  27.235  31.053  1.00  0.00    -0.014 A 
BRANCH  53  54
ATOM     54  C   UNL A   1      43.588  28.064  32.101  1.00  0.00     0.031 A 
ATOM     55  C   UNL A   1      42.322  28.794  31.752  1.00  0.00     0.074 A 
ATOM     56  C   UNL A   1      44.119  28.185  33.330  1.00  0.00     0.049 A 
ATOM     57  N   UNL A   1      41.645  29.672  32.447  1.00  0.00    -0.248 NA
ATOM     58  C   UNL A   1      41.745  28.493  30.433  1.00  0.00     0.031 C 
ATOM     59  C   UNL A   1      45.306  27.483  33.810  1.00  0.00     0.029 A 
ATOM     60  N   UNL A   1      43.731  28.962  34.394  1.00  0.00    -0.354 N 
ATOM     61  C   UNL A   1      40.568  30.033  31.648  1.00  0.00     0.074 A 
ATOM     62  C   UNL A   1      40.699  29.304  30.405  1.00  0.00     0.031 C 
ATOM     63  C   UNL A   1      45.561  27.875  35.071  1.00  0.00     0.029 A 
ATOM     64  C   UNL A   1      44.584  28.888  35.467  1.00  0.00     0.049 A 
ATOM     65  H   UNL A   1      42.918  29.517  34.386  1.00  0.00     0.167 HD
ATOM     66  C   UNL A   1      39.560  30.892  31.928  1.00  0.00     0.037 A 
ATOM     67  C   UNL A   1      44.591  29.587  36.619  1.00  0.00     0.037 A 
ATOM     68  C   UNL A   1      39.444  31.628  33.160  1.00  0.00     0.049 A 
ATOM     69  C   UNL A   1      43.525  30.630  36.860  1.00  0.00     0.074 A 
ATOM     70  C   UNL A   1      38.459  32.520  33.544  1.00  0.00     0.029 A 
ATOM     71  N   UNL A   1      40.356  31.565  34.204  1.00  0.00    -0.354 N 
ATOM     72  N   UNL A   1      42.501  30.961  36.111  1.00  0.00    -0.248 NA
ATOM     73  C   UNL A   1      43.622  31.402  38.108  1.00  0.00     0.031 C 
ATOM     74  C   UNL A   1      38.809  33.045  34.792  1.00  0.00     0.029 A 
ATOM     75  C   UNL A   1      39.975  32.430  35.217  1.00  0.00     0.049 A 
ATOM     76  H   UNL A   1      41.155  30.990  34.223  1.00  0.00     0.167 HD
ATOM     77  C   UNL A   1      41.818  31.950  36.806  1.00  0.00     0.074 A 
ATOM     78  C   UNL A   1      42.537  32.160  38.045  1.00  0.00     0.031 C 
ATOM     79  C   UNL A   1      40.695  32.622  36.452  1.00  0.00     0.037 A 
BRANCH  66  80
ATOM     80  C   UNL A   1      38.524  31.112  30.862  1.00  0.00     0.064 A 
ATOM     81  C   UNL A   1      38.523  32.261  30.056  1.00  0.00     0.173 A 
ATOM     82  C   UNL A   1      37.525  30.153  30.635  1.00  0.00     0.173 A 
ATOM     83  F   UNL A   1      39.448  33.217  30.242  1.00  0.00    -0.203 F 
ATOM     84  C   UNL A   1      37.541  32.460  29.090  1.00  0.00     0.198 A 
ATOM     85  C   UNL A   1      36.566  30.338  29.644  1.00  0.00     0.198 A 
ATOM     86  F   UNL A   1      37.481  29.033  31.372  1.00  0.00    -0.203 F 
ATOM     87  F   UNL A   1      37.524  33.593  28.376  1.00  0.00    -0.200 F 
ATOM     88  C   UNL A   1      36.567  31.495  28.881  1.00  0.00     0.200 A 
ATOM     89  F   UNL A   1      35.634  29.397  29.433  1.00  0.00    -0.200 F 
ATOM     90  F   UNL A   1      35.623  31.685  27.949  1.00  0.00    -0.200 F 
ENDBRANCH  66  80
BRANCH  67  91
ATOM     91  C   UNL A   1      45.654  29.347  37.633  1.00  0.00     0.064 A 
ATOM     92  C   UNL A   1      45.556  28.282  38.539  1.00  0.00     0.173 A 
ATOM     93  C   UNL A   1      46.772  30.187  37.734  1.00  0.00     0.173 A 
ATOM     94  F   UNL A   1      44.490  27.469  38.505  1.00  0.00    -0.203 F 
ATOM     95  C   UNL A   1      46.528  28.075  39.517  1.00  0.00     0.198 A 
ATOM     96  C   UNL A   1      47.760  29.961  38.692  1.00  0.00     0.198 A 
ATOM     97  F   UNL A   1      46.910  31.227  36.899  1.00  0.00    -0.203 F 
ATOM     98  F   UNL A   1      46.382  27.081  40.403  1.00  0.00    -0.200 F 
ATOM     99  C   UNL A   1      47.632  28.910  39.588  1.00  0.00     0.200 A 
ATOM    100  F   UNL A   1      48.828  30.767  38.752  1.00  0.00    -0.200 F 
ATOM    101  F   UNL A   1      48.567  28.711  40.528  1.00  0.00    -0.200 F 
ENDBRANCH  67  91
BRANCH  79 102
ATOM    102  C   UNL A   1      40.142  33.623  37.429  1.00  0.00     0.064 A 
ATOM    103  C   UNL A   1      40.573  34.959  37.443  1.00  0.00     0.173 A 
ATOM    104  C   UNL A   1      39.123  33.254  38.321  1.00  0.00     0.173 A 
ATOM    105  F   UNL A   1      41.554  35.361  36.622  1.00  0.00    -0.203 F 
ATOM    106  C   UNL A   1      40.016  35.881  38.326  1.00  0.00     0.198 A 
ATOM    107  C   UNL A   1      38.545  34.186  39.178  1.00  0.00     0.198 A 
ATOM    108  F   UNL A   1      38.668  31.992  38.343  1.00  0.00    -0.203 F 
ATOM    109  F   UNL A   1      40.472  37.140  38.352  1.00  0.00    -0.200 F 
ATOM    110  C   UNL A   1      38.997  35.497  39.185  1.00  0.00     0.200 A 
ATOM    111  F   UNL A   1      37.548  33.817  39.994  1.00  0.00    -0.200 F 
ATOM    112  F   UNL A   1      38.451  36.390  40.022  1.00  0.00    -0.200 F 
ENDBRANCH  79 102
ENDBRANCH  53  54
ENDBRANCH  46  48
ENDBRANCH  45  46
ENDBRANCH  44  45
ENDBRANCH  43  44
ENDBRANCH  42  43
ENDBRANCH  41  42
ENDBRANCH  40  41
ENDBRANCH  39  40
ENDBRANCH  38  39
ENDBRANCH   1  38
TORSDOF 33
ENDMDL
