MODEL 1
REMARK VINA RESULT:     -10.2      0.000      0.000
REMARK SMILES CCn1c(N2CCC(C(=O)OCCOCCOCCOCCOC(=O)c3ccc(-c4c5nc(c(-c6c(F)c(F)c(F)c(F)c6F)c6ccc([nH]6)c(-c6c(F)c(F)c(F)c(F)c6F)c6nc(c(-c7c(F)c(F)c(F)c(F)c7F)c7ccc4[nH]7)C=C6)C=C5)cc3)CC2)nc2cc(C)ccc21
REMARK SMILES IDX 17 1 16 2 15 3 14 4 13 5 12 6 11 7 9 8 10 9 8 10 5 11 6 12
REMARK SMILES IDX 90 13 7 14 89 15 4 16 3 17 98 18 91 19 92 20 97 21 93 22
REMARK SMILES IDX 96 23 94 24 95 25 2 26 1 27 18 28 19 29 20 30 21 31 22 32
REMARK SMILES IDX 23 33 24 34 25 35 26 36 27 37 88 38 28 39 87 40 29 41 30 42
REMARK SMILES IDX 31 43 81 44 32 45 86 46 80 47 82 48 33 49 85 50 79 51 78 52
REMARK SMILES IDX 34 54 66 55 46 56 65 57 47 58 50 59 64 60 83 61 48 62 49 63
REMARK SMILES IDX 63 65 84 66 51 67 35 68 36 69 44 70 37 71 38 72 42 73 45 74
REMARK SMILES IDX 39 75 40 76 43 77 41 78 67 79 68 80 76 81 69 82 70 83 74 84
REMARK SMILES IDX 77 85 71 86 72 87 75 88 73 89 52 90 53 91 61 92 54 93 55 94
REMARK SMILES IDX 59 95 62 96 56 97 57 98 60 99 58 100
REMARK H PARENT 82 53 50 64
REMARK Flexibility Score: inf
ROOT
ATOM      1  O   UNL A   1      34.045  28.581  27.209  1.00  0.00    -0.377 OA
ENDROOT
BRANCH   1   2
ATOM      2  C   UNL A   1      33.314  28.016  26.151  1.00  0.00     0.188 C 
BRANCH   2   3
ATOM      3  C   UNL A   1      31.984  28.729  25.916  1.00  0.00     0.188 C 
BRANCH   3   4
ATOM      4  O   UNL A   1      31.815  29.670  24.867  1.00  0.00    -0.376 OA
BRANCH   4   5
ATOM      5  C   UNL A   1      31.259  29.327  23.606  1.00  0.00     0.202 C 
BRANCH   5   6
ATOM      6  C   UNL A   1      29.812  28.863  23.387  1.00  0.00     0.261 C 
BRANCH   6   7
ATOM      7  O   UNL A   1      29.671  27.597  22.744  1.00  0.00    -0.463 OA
BRANCH   7   8
ATOM      8  C   UNL A   1      29.109  26.643  23.511  1.00  0.00     0.309 C 
ATOM      9  O   UNL A   1      27.960  26.671  23.941  1.00  0.00    -0.252 OA
BRANCH   8  10
ATOM     10  C   UNL A   1      30.023  25.486  23.802  1.00  0.00     0.103 C 
ATOM     11  N   UNL A   1      32.041  23.730  24.698  1.00  0.00    -0.342 N 
ATOM     12  C   UNL A   1      31.889  23.978  23.270  1.00  0.00     0.120 C 
ATOM     13  C   UNL A   1      31.008  24.139  25.645  1.00  0.00     0.120 C 
ATOM     14  C   UNL A   1      31.325  25.362  23.021  1.00  0.00     0.037 C 
ATOM     15  C   UNL A   1      30.384  25.480  25.282  1.00  0.00     0.037 C 
BRANCH  11  16
ATOM     16  C   UNL A   1      33.285  23.424  25.119  1.00  0.00     0.206 A 
ATOM     17  N   UNL A   1      33.881  22.214  24.835  1.00  0.00    -0.310 N 
ATOM     18  C   UNL A   1      35.213  22.323  25.197  1.00  0.00     0.070 A 
ATOM     19  N   UNL A   1      34.145  24.281  25.619  1.00  0.00    -0.213 NA
ATOM     20  C   UNL A   1      35.340  23.621  25.677  1.00  0.00     0.091 A 
ATOM     21  C   UNL A   1      36.296  21.439  25.131  1.00  0.00     0.029 A 
ATOM     22  C   UNL A   1      36.592  24.081  26.110  1.00  0.00     0.034 A 
ATOM     23  C   UNL A   1      37.540  21.914  25.563  1.00  0.00     0.006 A 
ATOM     24  C   UNL A   1      37.700  23.217  26.051  1.00  0.00    -0.049 A 
ATOM     25  C   UNL A   1      39.046  23.706  26.501  1.00  0.00     0.044 C 
BRANCH  17  26
ATOM     26  C   UNL A   1      33.320  21.015  24.243  1.00  0.00     0.122 C 
ATOM     27  C   UNL A   1      32.872  19.869  25.136  1.00  0.00     0.028 C 
ENDBRANCH  17  26
ENDBRANCH  11  16
ENDBRANCH   8  10
ENDBRANCH   7   8
ENDBRANCH   6   7
ENDBRANCH   5   6
ENDBRANCH   4   5
ENDBRANCH   3   4
ENDBRANCH   2   3
ENDBRANCH   1   2
BRANCH   1  28
ATOM     28  C   UNL A   1      34.462  29.932  27.118  1.00  0.00     0.188 C 
BRANCH  28  29
ATOM     29  C   UNL A   1      33.621  31.017  27.814  1.00  0.00     0.188 C 
BRANCH  29  30
ATOM     30  O   UNL A   1      34.248  32.289  27.842  1.00  0.00    -0.376 OA
BRANCH  30  31
ATOM     31  C   UNL A   1      34.204  33.042  29.046  1.00  0.00     0.202 C 
BRANCH  31  32
ATOM     32  C   UNL A   1      35.275  32.770  30.116  1.00  0.00     0.261 C 
BRANCH  32  33
ATOM     33  O   UNL A   1      36.164  31.684  29.802  1.00  0.00    -0.460 OA
BRANCH  33  34
ATOM     34  C   UNL A   1      37.277  31.933  29.065  1.00  0.00     0.338 C 
ATOM     35  O   UNL A   1      37.485  32.881  28.361  1.00  0.00    -0.246 OA
BRANCH  34  36
ATOM     36  C   UNL A   1      38.313  31.022  29.639  1.00  0.00     0.060 A 
ATOM     37  C   UNL A   1      39.577  31.484  30.029  1.00  0.00     0.016 A 
ATOM     38  C   UNL A   1      38.088  29.653  29.441  1.00  0.00     0.016 A 
ATOM     39  C   UNL A   1      40.639  30.580  30.105  1.00  0.00     0.010 A 
ATOM     40  C   UNL A   1      39.159  28.764  29.468  1.00  0.00     0.010 A 
ATOM     41  C   UNL A   1      40.444  29.230  29.764  1.00  0.00    -0.014 A 
BRANCH  41  42
ATOM     42  C   UNL A   1      41.550  28.284  29.973  1.00  0.00     0.031 A 
ATOM     43  C   UNL A   1      41.997  28.247  31.393  1.00  0.00     0.074 A 
ATOM     44  C   UNL A   1      42.010  27.376  29.082  1.00  0.00     0.049 A 
ATOM     45  N   UNL A   1      43.185  28.404  31.879  1.00  0.00    -0.248 NA
ATOM     46  C   UNL A   1      40.939  28.110  32.412  1.00  0.00     0.031 C 
ATOM     47  C   UNL A   1      41.442  27.067  27.772  1.00  0.00     0.029 A 
ATOM     48  N   UNL A   1      43.026  26.458  29.194  1.00  0.00    -0.354 N 
ATOM     49  C   UNL A   1      43.045  28.221  33.252  1.00  0.00     0.074 A 
ATOM     50  C   UNL A   1      41.636  28.198  33.539  1.00  0.00     0.031 C 
ATOM     51  C   UNL A   1      42.011  25.945  27.281  1.00  0.00     0.029 A 
ATOM     52  C   UNL A   1      43.016  25.466  28.212  1.00  0.00     0.049 A 
ATOM     53  H   UNL A   1      43.704  26.497  29.906  1.00  0.00     0.167 HD
ATOM     54  C   UNL A   1      44.085  27.844  34.039  1.00  0.00     0.037 A 
ATOM     55  C   UNL A   1      43.703  24.291  28.197  1.00  0.00     0.037 A 
ATOM     56  C   UNL A   1      45.355  28.170  33.459  1.00  0.00     0.049 A 
ATOM     57  C   UNL A   1      44.803  24.395  29.184  1.00  0.00     0.074 A 
ATOM     58  C   UNL A   1      45.962  29.346  33.068  1.00  0.00     0.029 A 
ATOM     59  N   UNL A   1      46.091  27.164  32.890  1.00  0.00    -0.354 N 
ATOM     60  N   UNL A   1      45.854  25.151  29.044  1.00  0.00    -0.248 NA
ATOM     61  C   UNL A   1      44.527  23.944  30.539  1.00  0.00     0.031 C 
ATOM     62  C   UNL A   1      46.728  29.005  31.916  1.00  0.00     0.029 A 
ATOM     63  C   UNL A   1      46.572  27.637  31.697  1.00  0.00     0.049 A 
ATOM     64  H   UNL A   1      46.246  26.268  33.268  1.00  0.00     0.167 HD
ATOM     65  C   UNL A   1      46.111  25.623  30.322  1.00  0.00     0.074 A 
ATOM     66  C   UNL A   1      45.320  24.780  31.211  1.00  0.00     0.031 C 
ATOM     67  C   UNL A   1      46.722  26.827  30.512  1.00  0.00     0.037 A 
BRANCH  54  68
ATOM     68  C   UNL A   1      43.910  26.875  35.174  1.00  0.00     0.064 A 
ATOM     69  C   UNL A   1      44.199  27.270  36.489  1.00  0.00     0.173 A 
ATOM     70  C   UNL A   1      43.715  25.488  34.974  1.00  0.00     0.173 A 
ATOM     71  F   UNL A   1      44.461  28.555  36.772  1.00  0.00    -0.203 F 
ATOM     72  C   UNL A   1      44.302  26.338  37.526  1.00  0.00     0.198 A 
ATOM     73  C   UNL A   1      43.758  24.571  36.019  1.00  0.00     0.198 A 
ATOM     74  F   UNL A   1      43.587  24.961  33.749  1.00  0.00    -0.203 F 
ATOM     75  F   UNL A   1      44.683  26.742  38.746  1.00  0.00    -0.200 F 
ATOM     76  C   UNL A   1      44.074  24.993  37.292  1.00  0.00     0.200 A 
ATOM     77  F   UNL A   1      43.562  23.270  35.763  1.00  0.00    -0.200 F 
ATOM     78  F   UNL A   1      44.212  24.097  38.277  1.00  0.00    -0.200 F 
ENDBRANCH  54  68
BRANCH  55  79
ATOM     79  C   UNL A   1      43.304  22.977  27.611  1.00  0.00     0.064 A 
ATOM     80  C   UNL A   1      42.113  22.330  27.994  1.00  0.00     0.173 A 
ATOM     81  C   UNL A   1      43.944  22.455  26.470  1.00  0.00     0.173 A 
ATOM     82  F   UNL A   1      41.402  22.783  29.037  1.00  0.00    -0.203 F 
ATOM     83  C   UNL A   1      41.591  21.250  27.268  1.00  0.00     0.198 A 
ATOM     84  C   UNL A   1      43.432  21.369  25.758  1.00  0.00     0.198 A 
ATOM     85  F   UNL A   1      45.032  23.046  25.957  1.00  0.00    -0.203 F 
ATOM     86  F   UNL A   1      40.419  20.705  27.625  1.00  0.00    -0.200 F 
ATOM     87  C   UNL A   1      42.247  20.776  26.146  1.00  0.00     0.200 A 
ATOM     88  F   UNL A   1      44.062  20.947  24.653  1.00  0.00    -0.200 F 
ATOM     89  F   UNL A   1      41.721  19.783  25.416  1.00  0.00    -0.200 F 
ENDBRANCH  55  79
BRANCH  67  90
ATOM     90  C   UNL A   1      47.383  27.476  29.329  1.00  0.00     0.064 A 
ATOM     91  C   UNL A   1      48.712  27.235  28.940  1.00  0.00     0.173 A 
ATOM     92  C   UNL A   1      46.585  28.242  28.469  1.00  0.00     0.173 A 
ATOM     93  F   UNL A   1      49.513  26.442  29.666  1.00  0.00    -0.203 F 
ATOM     94  C   UNL A   1      49.221  27.762  27.753  1.00  0.00     0.198 A 
ATOM     95  C   UNL A   1      47.085  28.738  27.268  1.00  0.00     0.198 A 
ATOM     96  F   UNL A   1      45.295  28.464  28.768  1.00  0.00    -0.203 F 
ATOM     97  F   UNL A   1      50.492  27.518  27.402  1.00  0.00    -0.200 F 
ATOM     98  C   UNL A   1      48.404  28.503  26.914  1.00  0.00     0.200 A 
ATOM     99  F   UNL A   1      46.278  29.413  26.439  1.00  0.00    -0.200 F 
ATOM    100  F   UNL A   1      48.878  28.967  25.749  1.00  0.00    -0.200 F 
ENDBRANCH  67  90
ENDBRANCH  41  42
ENDBRANCH  34  36
ENDBRANCH  33  34
ENDBRANCH  32  33
ENDBRANCH  31  32
ENDBRANCH  30  31
ENDBRANCH  29  30
ENDBRANCH  28  29
ENDBRANCH   1  28
TORSDOF 22
ENDMDL
MODEL 2
REMARK VINA RESULT:     -10.2      3.246      5.119
REMARK SMILES CCn1c(N2CCC(C(=O)OCCOCCOCCOCCOC(=O)c3ccc(-c4c5nc(c(-c6c(F)c(F)c(F)c(F)c6F)c6ccc([nH]6)c(-c6c(F)c(F)c(F)c(F)c6F)c6nc(c(-c7c(F)c(F)c(F)c(F)c7F)c7ccc4[nH]7)C=C6)C=C5)cc3)CC2)nc2cc(C)ccc21
REMARK SMILES IDX 17 1 16 2 15 3 14 4 13 5 12 6 11 7 9 8 10 9 8 10 5 11 6 12
REMARK SMILES IDX 90 13 7 14 89 15 4 16 3 17 98 18 91 19 92 20 97 21 93 22
REMARK SMILES IDX 96 23 94 24 95 25 2 26 1 27 18 28 19 29 20 30 21 31 22 32
REMARK SMILES IDX 23 33 24 34 25 35 26 36 27 37 88 38 28 39 87 40 29 41 30 42
REMARK SMILES IDX 31 43 81 44 32 45 86 46 80 47 82 48 33 49 85 50 79 51 78 52
REMARK SMILES IDX 34 54 66 55 46 56 65 57 47 58 50 59 64 60 83 61 48 62 49 63
REMARK SMILES IDX 63 65 84 66 51 67 35 68 36 69 44 70 37 71 38 72 42 73 45 74
REMARK SMILES IDX 39 75 40 76 43 77 41 78 67 79 68 80 76 81 69 82 70 83 74 84
REMARK SMILES IDX 77 85 71 86 72 87 75 88 73 89 52 90 53 91 61 92 54 93 55 94
REMARK SMILES IDX 59 95 62 96 56 97 57 98 60 99 58 100
REMARK H PARENT 82 53 50 64
REMARK Flexibility Score: inf
ROOT
ATOM      1  O   UNL A   1      34.604  34.715  29.220  1.00  0.00    -0.377 OA
ENDROOT
BRANCH   1   2
ATOM      2  C   UNL A   1      34.084  33.411  29.284  1.00  0.00     0.188 C 
BRANCH   2   3
ATOM      3  C   UNL A   1      34.666  32.499  28.207  1.00  0.00     0.188 C 
BRANCH   3   4
ATOM      4  O   UNL A   1      33.836  31.734  27.345  1.00  0.00    -0.376 OA
BRANCH   4   5
ATOM      5  C   UNL A   1      33.817  30.314  27.352  1.00  0.00     0.202 C 
BRANCH   5   6
ATOM      6  C   UNL A   1      33.705  29.436  26.098  1.00  0.00     0.261 C 
BRANCH   6   7
ATOM      7  O   UNL A   1      33.784  28.031  26.331  1.00  0.00    -0.463 OA
BRANCH   7   8
ATOM      8  C   UNL A   1      32.613  27.379  26.199  1.00  0.00     0.309 C 
ATOM      9  O   UNL A   1      31.541  27.904  25.916  1.00  0.00    -0.252 OA
BRANCH   8  10
ATOM     10  C   UNL A   1      32.720  25.896  26.418  1.00  0.00     0.103 C 
ATOM     11  N   UNL A   1      32.962  23.092  26.210  1.00  0.00    -0.342 N 
ATOM     12  C   UNL A   1      31.772  23.665  26.825  1.00  0.00     0.120 C 
ATOM     13  C   UNL A   1      34.145  23.911  25.959  1.00  0.00     0.120 C 
ATOM     14  C   UNL A   1      31.474  25.035  26.249  1.00  0.00     0.037 C 
ATOM     15  C   UNL A   1      33.792  25.320  25.502  1.00  0.00     0.037 C 
BRANCH  11  16
ATOM     16  C   UNL A   1      32.800  21.903  25.597  1.00  0.00     0.206 A 
ATOM     17  N   UNL A   1      32.292  21.795  24.321  1.00  0.00    -0.310 N 
ATOM     18  C   UNL A   1      32.485  20.485  23.915  1.00  0.00     0.070 A 
ATOM     19  N   UNL A   1      33.305  20.763  26.013  1.00  0.00    -0.213 NA
ATOM     20  C   UNL A   1      33.118  19.877  24.991  1.00  0.00     0.091 A 
ATOM     21  C   UNL A   1      32.192  19.799  22.731  1.00  0.00     0.029 A 
ATOM     22  C   UNL A   1      33.491  18.527  24.903  1.00  0.00     0.034 A 
ATOM     23  C   UNL A   1      32.573  18.455  22.657  1.00  0.00     0.006 A 
ATOM     24  C   UNL A   1      33.214  17.812  23.724  1.00  0.00    -0.049 A 
ATOM     25  C   UNL A   1      33.621  16.372  23.618  1.00  0.00     0.044 C 
BRANCH  17  26
ATOM     26  C   UNL A   1      31.686  22.803  23.471  1.00  0.00     0.122 C 
ATOM     27  C   UNL A   1      32.567  23.685  22.599  1.00  0.00     0.028 C 
ENDBRANCH  17  26
ENDBRANCH  11  16
ENDBRANCH   8  10
ENDBRANCH   7   8
ENDBRANCH   6   7
ENDBRANCH   5   6
ENDBRANCH   4   5
ENDBRANCH   3   4
ENDBRANCH   2   3
ENDBRANCH   1   2
BRANCH   1  28
ATOM     28  C   UNL A   1      33.988  35.664  28.367  1.00  0.00     0.188 C 
BRANCH  28  29
ATOM     29  C   UNL A   1      33.396  36.943  28.983  1.00  0.00     0.188 C 
BRANCH  29  30
ATOM     30  O   UNL A   1      32.754  36.727  30.230  1.00  0.00    -0.376 OA
BRANCH  30  31
ATOM     31  C   UNL A   1      33.328  37.297  31.398  1.00  0.00     0.202 C 
BRANCH  31  32
ATOM     32  C   UNL A   1      33.333  36.462  32.690  1.00  0.00     0.261 C 
BRANCH  32  33
ATOM     33  O   UNL A   1      34.450  35.564  32.810  1.00  0.00    -0.460 OA
BRANCH  33  34
ATOM     34  C   UNL A   1      34.216  34.241  33.009  1.00  0.00     0.338 C 
ATOM     35  O   UNL A   1      33.175  33.724  33.305  1.00  0.00    -0.246 OA
BRANCH  34  36
ATOM     36  C   UNL A   1      35.386  33.559  32.380  1.00  0.00     0.060 A 
ATOM     37  C   UNL A   1      35.502  32.163  32.340  1.00  0.00     0.016 A 
ATOM     38  C   UNL A   1      36.506  34.371  32.152  1.00  0.00     0.016 A 
ATOM     39  C   UNL A   1      36.766  31.589  32.188  1.00  0.00     0.010 A 
ATOM     40  C   UNL A   1      37.770  33.795  32.053  1.00  0.00     0.010 A 
ATOM     41  C   UNL A   1      37.909  32.405  32.108  1.00  0.00    -0.014 A 
BRANCH  41  42
ATOM     42  C   UNL A   1      39.207  31.773  31.826  1.00  0.00     0.031 A 
ATOM     43  C   UNL A   1      40.086  31.734  33.028  1.00  0.00     0.074 A 
ATOM     44  C   UNL A   1      39.546  31.102  30.702  1.00  0.00     0.049 A 
ATOM     45  N   UNL A   1      41.298  32.159  33.166  1.00  0.00    -0.248 NA
ATOM     46  C   UNL A   1      39.474  31.231  34.273  1.00  0.00     0.031 C 
ATOM     47  C   UNL A   1      38.670  30.768  29.582  1.00  0.00     0.029 A 
ATOM     48  N   UNL A   1      40.724  30.482  30.360  1.00  0.00    -0.354 N 
ATOM     49  C   UNL A   1      41.656  31.827  34.470  1.00  0.00     0.074 A 
ATOM     50  C   UNL A   1      40.459  31.404  35.147  1.00  0.00     0.031 C 
ATOM     51  C   UNL A   1      39.287  29.885  28.767  1.00  0.00     0.029 A 
ATOM     52  C   UNL A   1      40.620  29.613  29.273  1.00  0.00     0.049 A 
ATOM     53  H   UNL A   1      41.568  30.639  30.839  1.00  0.00     0.167 HD
ATOM     54  C   UNL A   1      42.951  31.674  34.847  1.00  0.00     0.037 A 
ATOM     55  C   UNL A   1      41.513  28.670  28.863  1.00  0.00     0.037 A 
ATOM     56  C   UNL A   1      43.857  32.376  33.985  1.00  0.00     0.049 A 
ATOM     57  C   UNL A   1      42.819  28.977  29.490  1.00  0.00     0.074 A 
ATOM     58  C   UNL A   1      44.022  33.701  33.634  1.00  0.00     0.029 A 
ATOM     59  N   UNL A   1      44.576  31.656  33.067  1.00  0.00    -0.354 N 
ATOM     60  N   UNL A   1      43.568  29.995  29.178  1.00  0.00    -0.248 NA
ATOM     61  C   UNL A   1      43.106  28.353  30.772  1.00  0.00     0.031 C 
ATOM     62  C   UNL A   1      44.429  33.678  32.270  1.00  0.00     0.029 A 
ATOM     63  C   UNL A   1      44.525  32.342  31.882  1.00  0.00     0.049 A 
ATOM     64  H   UNL A   1      45.043  30.805  33.229  1.00  0.00     0.167 HD
ATOM     65  C   UNL A   1      44.111  30.406  30.386  1.00  0.00     0.074 A 
ATOM     66  C   UNL A   1      43.863  29.309  31.314  1.00  0.00     0.031 C 
ATOM     67  C   UNL A   1      44.462  31.708  30.587  1.00  0.00     0.037 A 
BRANCH  54  68
ATOM     68  C   UNL A   1      43.377  30.598  35.806  1.00  0.00     0.064 A 
ATOM     69  C   UNL A   1      44.115  30.929  36.952  1.00  0.00     0.173 A 
ATOM     70  C   UNL A   1      43.303  29.221  35.494  1.00  0.00     0.173 A 
ATOM     71  F   UNL A   1      44.297  32.212  37.299  1.00  0.00    -0.203 F 
ATOM     72  C   UNL A   1      44.749  29.948  37.722  1.00  0.00     0.198 A 
ATOM     73  C   UNL A   1      43.883  28.243  36.296  1.00  0.00     0.198 A 
ATOM     74  F   UNL A   1      42.764  28.783  34.348  1.00  0.00    -0.203 F 
ATOM     75  F   UNL A   1      45.530  30.312  38.747  1.00  0.00    -0.200 F 
ATOM     76  C   UNL A   1      44.625  28.608  37.397  1.00  0.00     0.200 A 
ATOM     77  F   UNL A   1      43.774  26.954  35.946  1.00  0.00    -0.200 F 
ATOM     78  F   UNL A   1      45.265  27.673  38.111  1.00  0.00    -0.200 F 
ENDBRANCH  54  68
BRANCH  55  79
ATOM     79  C   UNL A   1      41.254  27.353  28.209  1.00  0.00     0.064 A 
ATOM     80  C   UNL A   1      40.249  26.482  28.675  1.00  0.00     0.173 A 
ATOM     81  C   UNL A   1      41.803  27.035  26.951  1.00  0.00     0.173 A 
ATOM     82  F   UNL A   1      39.627  26.727  29.838  1.00  0.00    -0.203 F 
ATOM     83  C   UNL A   1      39.812  25.385  27.920  1.00  0.00     0.198 A 
ATOM     84  C   UNL A   1      41.379  25.931  26.209  1.00  0.00     0.198 A 
ATOM     85  F   UNL A   1      42.698  27.841  26.364  1.00  0.00    -0.203 F 
ATOM     86  F   UNL A   1      38.806  24.619  28.369  1.00  0.00    -0.200 F 
ATOM     87  C   UNL A   1      40.372  25.115  26.684  1.00  0.00     0.200 A 
ATOM     88  F   UNL A   1      41.908  25.707  24.997  1.00  0.00    -0.200 F 
ATOM     89  F   UNL A   1      39.917  24.102  25.934  1.00  0.00    -0.200 F 
ENDBRANCH  55  79
BRANCH  67  90
ATOM     90  C   UNL A   1      44.540  32.610  29.388  1.00  0.00     0.064 A 
ATOM     91  C   UNL A   1      43.463  33.377  28.910  1.00  0.00     0.173 A 
ATOM     92  C   UNL A   1      45.796  32.824  28.806  1.00  0.00     0.173 A 
ATOM     93  F   UNL A   1      42.249  33.292  29.472  1.00  0.00    -0.203 F 
ATOM     94  C   UNL A   1      43.639  34.299  27.878  1.00  0.00     0.198 A 
ATOM     95  C   UNL A   1      45.976  33.768  27.800  1.00  0.00     0.198 A 
ATOM     96  F   UNL A   1      46.868  32.151  29.255  1.00  0.00    -0.203 F 
ATOM     97  F   UNL A   1      42.597  35.021  27.439  1.00  0.00    -0.200 F 
ATOM     98  C   UNL A   1      44.896  34.501  27.333  1.00  0.00     0.200 A 
ATOM     99  F   UNL A   1      47.202  33.993  27.309  1.00  0.00    -0.200 F 
ATOM    100  F   UNL A   1      45.076  35.423  26.376  1.00  0.00    -0.200 F 
ENDBRANCH  67  90
ENDBRANCH  41  42
ENDBRANCH  34  36
ENDBRANCH  33  34
ENDBRANCH  32  33
ENDBRANCH  31  32
ENDBRANCH  30  31
ENDBRANCH  29  30
ENDBRANCH  28  29
ENDBRANCH   1  28
TORSDOF 22
ENDMDL
MODEL 3
REMARK VINA RESULT:      -9.8      2.575      6.949
REMARK SMILES CCn1c(N2CCC(C(=O)OCCOCCOCCOCCOC(=O)c3ccc(-c4c5nc(c(-c6c(F)c(F)c(F)c(F)c6F)c6ccc([nH]6)c(-c6c(F)c(F)c(F)c(F)c6F)c6nc(c(-c7c(F)c(F)c(F)c(F)c7F)c7ccc4[nH]7)C=C6)C=C5)cc3)CC2)nc2cc(C)ccc21
REMARK SMILES IDX 17 1 16 2 15 3 14 4 13 5 12 6 11 7 9 8 10 9 8 10 5 11 6 12
REMARK SMILES IDX 90 13 7 14 89 15 4 16 3 17 98 18 91 19 92 20 97 21 93 22
REMARK SMILES IDX 96 23 94 24 95 25 2 26 1 27 18 28 19 29 20 30 21 31 22 32
REMARK SMILES IDX 23 33 24 34 25 35 26 36 27 37 88 38 28 39 87 40 29 41 30 42
REMARK SMILES IDX 31 43 81 44 32 45 86 46 80 47 82 48 33 49 85 50 79 51 78 52
REMARK SMILES IDX 34 54 66 55 46 56 65 57 47 58 50 59 64 60 83 61 48 62 49 63
REMARK SMILES IDX 63 65 84 66 51 67 35 68 36 69 44 70 37 71 38 72 42 73 45 74
REMARK SMILES IDX 39 75 40 76 43 77 41 78 67 79 68 80 76 81 69 82 70 83 74 84
REMARK SMILES IDX 77 85 71 86 72 87 75 88 73 89 52 90 53 91 61 92 54 93 55 94
REMARK SMILES IDX 59 95 62 96 56 97 57 98 60 99 58 100
REMARK H PARENT 82 53 50 64
REMARK Flexibility Score: inf
ROOT
ATOM      1  O   UNL A   1      35.888  32.900  29.102  1.00  0.00    -0.377 OA
ENDROOT
BRANCH   1   2
ATOM      2  C   UNL A   1      35.823  31.619  28.529  1.00  0.00     0.188 C 
BRANCH   2   3
ATOM      3  C   UNL A   1      34.557  31.418  27.697  1.00  0.00     0.188 C 
BRANCH   3   4
ATOM      4  O   UNL A   1      33.819  30.205  27.740  1.00  0.00    -0.376 OA
BRANCH   4   5
ATOM      5  C   UNL A   1      33.888  29.224  26.716  1.00  0.00     0.202 C 
BRANCH   5   6
ATOM      6  C   UNL A   1      33.403  29.431  25.274  1.00  0.00     0.261 C 
BRANCH   6   7
ATOM      7  O   UNL A   1      33.936  28.517  24.317  1.00  0.00    -0.463 OA
BRANCH   7   8
ATOM      8  C   UNL A   1      33.152  27.451  24.070  1.00  0.00     0.309 C 
ATOM      9  O   UNL A   1      31.985  27.505  23.695  1.00  0.00    -0.252 OA
BRANCH   8  10
ATOM     10  C   UNL A   1      33.843  26.132  24.281  1.00  0.00     0.103 C 
ATOM     11  N   UNL A   1      34.599  23.422  24.485  1.00  0.00    -0.342 N 
ATOM     12  C   UNL A   1      34.619  24.262  25.675  1.00  0.00     0.120 C 
ATOM     13  C   UNL A   1      34.472  24.008  23.153  1.00  0.00     0.120 C 
ATOM     14  C   UNL A   1      33.585  25.366  25.573  1.00  0.00     0.037 C 
ATOM     15  C   UNL A   1      33.516  25.194  23.128  1.00  0.00     0.037 C 
BRANCH  11  16
ATOM     16  C   UNL A   1      34.367  22.110  24.688  1.00  0.00     0.206 A 
ATOM     17  N   UNL A   1      33.104  21.564  24.610  1.00  0.00    -0.310 N 
ATOM     18  C   UNL A   1      33.254  20.188  24.629  1.00  0.00     0.070 A 
ATOM     19  N   UNL A   1      35.293  21.179  24.746  1.00  0.00    -0.213 NA
ATOM     20  C   UNL A   1      34.626  19.987  24.713  1.00  0.00     0.091 A 
ATOM     21  C   UNL A   1      32.343  19.127  24.564  1.00  0.00     0.029 A 
ATOM     22  C   UNL A   1      35.136  18.680  24.725  1.00  0.00     0.034 A 
ATOM     23  C   UNL A   1      32.868  17.829  24.573  1.00  0.00     0.006 A 
ATOM     24  C   UNL A   1      34.246  17.594  24.655  1.00  0.00    -0.049 A 
ATOM     25  C   UNL A   1      34.785  16.193  24.655  1.00  0.00     0.044 C 
BRANCH  17  26
ATOM     26  C   UNL A   1      31.814  22.215  24.490  1.00  0.00     0.122 C 
ATOM     27  C   UNL A   1      31.052  22.620  25.743  1.00  0.00     0.028 C 
ENDBRANCH  17  26
ENDBRANCH  11  16
ENDBRANCH   8  10
ENDBRANCH   7   8
ENDBRANCH   6   7
ENDBRANCH   5   6
ENDBRANCH   4   5
ENDBRANCH   3   4
ENDBRANCH   2   3
ENDBRANCH   1   2
BRANCH   1  28
ATOM     28  C   UNL A   1      35.300  33.993  28.419  1.00  0.00     0.188 C 
BRANCH  28  29
ATOM     29  C   UNL A   1      34.211  34.815  29.131  1.00  0.00     0.188 C 
BRANCH  29  30
ATOM     30  O   UNL A   1      33.684  34.177  30.284  1.00  0.00    -0.376 OA
BRANCH  30  31
ATOM     31  C   UNL A   1      34.162  34.577  31.560  1.00  0.00     0.202 C 
BRANCH  31  32
ATOM     32  C   UNL A   1      34.523  33.484  32.580  1.00  0.00     0.261 C 
BRANCH  32  33
ATOM     33  O   UNL A   1      35.913  33.112  32.582  1.00  0.00    -0.460 OA
BRANCH  33  34
ATOM     34  C   UNL A   1      36.549  32.941  33.770  1.00  0.00     0.338 C 
ATOM     35  O   UNL A   1      36.165  33.276  34.855  1.00  0.00    -0.246 OA
BRANCH  34  36
ATOM     36  C   UNL A   1      37.584  31.901  33.489  1.00  0.00     0.060 A 
ATOM     37  C   UNL A   1      38.746  31.778  34.263  1.00  0.00     0.016 A 
ATOM     38  C   UNL A   1      37.506  31.299  32.226  1.00  0.00     0.016 A 
ATOM     39  C   UNL A   1      39.866  31.150  33.715  1.00  0.00     0.010 A 
ATOM     40  C   UNL A   1      38.641  30.720  31.664  1.00  0.00     0.010 A 
ATOM     41  C   UNL A   1      39.834  30.676  32.392  1.00  0.00    -0.014 A 
BRANCH  41  42
ATOM     42  C   UNL A   1      40.987  29.913  31.889  1.00  0.00     0.031 A 
ATOM     43  C   UNL A   1      41.776  30.681  30.887  1.00  0.00     0.074 A 
ATOM     44  C   UNL A   1      41.453  28.743  32.383  1.00  0.00     0.049 A 
ATOM     45  N   UNL A   1      42.129  30.342  29.691  1.00  0.00    -0.248 NA
ATOM     46  C   UNL A   1      42.134  32.065  31.254  1.00  0.00     0.031 C 
ATOM     47  C   UNL A   1      40.984  28.048  33.579  1.00  0.00     0.029 A 
ATOM     48  N   UNL A   1      42.516  27.971  31.981  1.00  0.00    -0.354 N 
ATOM     49  C   UNL A   1      42.892  31.405  29.218  1.00  0.00     0.074 A 
ATOM     50  C   UNL A   1      42.736  32.490  30.149  1.00  0.00     0.031 C 
ATOM     51  C   UNL A   1      41.843  27.055  33.896  1.00  0.00     0.029 A 
ATOM     52  C   UNL A   1      42.908  27.006  32.910  1.00  0.00     0.049 A 
ATOM     53  H   UNL A   1      42.962  28.087  31.112  1.00  0.00     0.167 HD
ATOM     54  C   UNL A   1      43.810  31.252  28.230  1.00  0.00     0.037 A 
ATOM     55  C   UNL A   1      44.059  26.280  32.934  1.00  0.00     0.037 A 
ATOM     56  C   UNL A   1      43.541  30.109  27.408  1.00  0.00     0.049 A 
ATOM     57  C   UNL A   1      44.671  26.355  31.586  1.00  0.00     0.074 A 
ATOM     58  C   UNL A   1      42.483  29.725  26.607  1.00  0.00     0.029 A 
ATOM     59  N   UNL A   1      44.301  28.982  27.583  1.00  0.00    -0.354 N 
ATOM     60  N   UNL A   1      44.188  25.780  30.522  1.00  0.00    -0.248 NA
ATOM     61  C   UNL A   1      45.626  27.425  31.346  1.00  0.00     0.031 C 
ATOM     62  C   UNL A   1      42.408  28.309  26.740  1.00  0.00     0.029 A 
ATOM     63  C   UNL A   1      43.446  27.910  27.582  1.00  0.00     0.049 A 
ATOM     64  H   UNL A   1      45.279  28.949  27.691  1.00  0.00     0.167 HD
ATOM     65  C   UNL A   1      44.433  26.685  29.501  1.00  0.00     0.074 A 
ATOM     66  C   UNL A   1      45.396  27.634  30.049  1.00  0.00     0.031 C 
ATOM     67  C   UNL A   1      43.624  26.739  28.406  1.00  0.00     0.037 A 
BRANCH  54  68
ATOM     68  C   UNL A   1      45.130  31.968  28.254  1.00  0.00     0.064 A 
ATOM     69  C   UNL A   1      45.523  32.759  27.164  1.00  0.00     0.173 A 
ATOM     70  C   UNL A   1      46.135  31.691  29.210  1.00  0.00     0.173 A 
ATOM     71  F   UNL A   1      44.661  33.027  26.171  1.00  0.00    -0.203 F 
ATOM     72  C   UNL A   1      46.835  33.223  27.032  1.00  0.00     0.198 A 
ATOM     73  C   UNL A   1      47.424  32.206  29.108  1.00  0.00     0.198 A 
ATOM     74  F   UNL A   1      45.937  30.826  30.215  1.00  0.00    -0.203 F 
ATOM     75  F   UNL A   1      47.197  33.886  25.926  1.00  0.00    -0.200 F 
ATOM     76  C   UNL A   1      47.780  32.953  28.008  1.00  0.00     0.200 A 
ATOM     77  F   UNL A   1      48.329  31.907  30.050  1.00  0.00    -0.200 F 
ATOM     78  F   UNL A   1      49.047  33.365  27.862  1.00  0.00    -0.200 F 
ENDBRANCH  54  68
BRANCH  55  79
ATOM     79  C   UNL A   1      44.827  25.774  34.110  1.00  0.00     0.064 A 
ATOM     80  C   UNL A   1      45.465  26.652  35.008  1.00  0.00     0.173 A 
ATOM     81  C   UNL A   1      44.729  24.433  34.531  1.00  0.00     0.173 A 
ATOM     82  F   UNL A   1      45.563  27.958  34.723  1.00  0.00    -0.203 F 
ATOM     83  C   UNL A   1      45.949  26.217  36.250  1.00  0.00     0.198 A 
ATOM     84  C   UNL A   1      45.227  23.998  35.760  1.00  0.00     0.198 A 
ATOM     85  F   UNL A   1      44.061  23.527  33.803  1.00  0.00    -0.203 F 
ATOM     86  F   UNL A   1      46.489  27.097  37.106  1.00  0.00    -0.200 F 
ATOM     87  C   UNL A   1      45.822  24.891  36.628  1.00  0.00     0.200 A 
ATOM     88  F   UNL A   1      45.063  22.718  36.124  1.00  0.00    -0.200 F 
ATOM     89  F   UNL A   1      46.230  24.484  37.838  1.00  0.00    -0.200 F 
ENDBRANCH  55  79
BRANCH  67  90
ATOM     90  C   UNL A   1      42.663  25.606  28.185  1.00  0.00     0.064 A 
ATOM     91  C   UNL A   1      41.300  25.651  28.529  1.00  0.00     0.173 A 
ATOM     92  C   UNL A   1      43.108  24.500  27.448  1.00  0.00     0.173 A 
ATOM     93  F   UNL A   1      40.780  26.713  29.159  1.00  0.00    -0.203 F 
ATOM     94  C   UNL A   1      40.433  24.619  28.171  1.00  0.00     0.198 A 
ATOM     95  C   UNL A   1      42.233  23.488  27.062  1.00  0.00     0.198 A 
ATOM     96  F   UNL A   1      44.389  24.428  27.052  1.00  0.00    -0.203 F 
ATOM     97  F   UNL A   1      39.137  24.684  28.510  1.00  0.00    -0.200 F 
ATOM     98  C   UNL A   1      40.899  23.545  27.429  1.00  0.00     0.200 A 
ATOM     99  F   UNL A   1      42.679  22.476  26.304  1.00  0.00    -0.200 F 
ATOM    100  F   UNL A   1      40.055  22.578  27.040  1.00  0.00    -0.200 F 
ENDBRANCH  67  90
ENDBRANCH  41  42
ENDBRANCH  34  36
ENDBRANCH  33  34
ENDBRANCH  32  33
ENDBRANCH  31  32
ENDBRANCH  30  31
ENDBRANCH  29  30
ENDBRANCH  28  29
ENDBRANCH   1  28
TORSDOF 22
ENDMDL
