MODEL 1
REMARK VINA RESULT:      -9.0      0.000      0.000
REMARK SMILES O=C(CCC(=O)OCCOCCOCCOCCOC(=O)c1ccc(-c2c3nc(c(-c4c(F)c(F)c(F)c(F)c4F)c4ccc([nH]4)c(-c4c(F)c(F)c(F)c(F)c4F)c4nc(c(-c5c(F)c(F)c(F)c(F)c5F)c5ccc2[nH]5)C=C4)C=C3)cc1)Nc1ccc2nc(-c3ccccc3)oc2c1
REMARK SMILES IDX 12 1 11 2 10 3 9 4 8 5 7 6 5 7 6 8 4 9 3 10 2 11 1 12 85 13
REMARK SMILES IDX 86 15 87 16 100 17 88 18 99 19 89 20 98 21 90 22 91 23 92 24
REMARK SMILES IDX 93 25 97 26 94 27 96 28 95 29 13 30 14 31 15 32 16 33 17 34
REMARK SMILES IDX 18 35 19 36 20 37 21 38 22 39 23 40 84 41 24 42 83 43 25 44
REMARK SMILES IDX 26 45 27 46 77 47 28 48 82 49 76 50 78 51 29 52 81 53 75 54
REMARK SMILES IDX 74 55 30 57 62 58 42 59 61 60 43 61 46 62 60 63 79 64 44 65
REMARK SMILES IDX 45 66 59 68 80 69 47 70 31 71 32 72 40 73 33 74 34 75 38 76
REMARK SMILES IDX 41 77 35 78 36 79 39 80 37 81 63 82 64 83 72 84 65 85 66 86
REMARK SMILES IDX 70 87 73 88 67 89 68 90 71 91 69 92 48 93 49 94 57 95 50 96
REMARK SMILES IDX 51 97 55 98 58 99 52 100 53 101 56 102 54 103
REMARK H PARENT 85 14 78 56 46 67
REMARK Flexibility Score: inf
ROOT
ATOM      1  C   UNL A   1      38.545  29.696  28.031  1.00  0.00     0.188 C 
ENDROOT
BRANCH   1   2
ATOM      2  C   UNL A   1      39.835  29.229  28.713  1.00  0.00     0.188 C 
BRANCH   2   3
ATOM      3  O   UNL A   1      40.569  28.279  27.978  1.00  0.00    -0.376 OA
BRANCH   3   4
ATOM      4  C   UNL A   1      41.457  28.695  26.959  1.00  0.00     0.202 C 
BRANCH   4   5
ATOM      5  C   UNL A   1      41.948  27.801  25.799  1.00  0.00     0.261 C 
BRANCH   5   6
ATOM      6  O   UNL A   1      43.203  27.098  25.944  1.00  0.00    -0.463 OA
BRANCH   6   7
ATOM      7  C   UNL A   1      43.284  26.275  27.019  1.00  0.00     0.306 C 
ATOM      8  O   UNL A   1      44.187  26.340  27.850  1.00  0.00    -0.252 OA
BRANCH   7   9
ATOM      9  C   UNL A   1      42.171  25.252  27.199  1.00  0.00     0.132 C 
BRANCH   9  10
ATOM     10  C   UNL A   1      42.250  23.751  26.933  1.00  0.00     0.112 C 
BRANCH  10  11
ATOM     11  C   UNL A   1      40.968  22.949  26.980  1.00  0.00     0.224 C 
ATOM     12  O   UNL A   1      40.879  21.926  27.651  1.00  0.00    -0.275 OA
ATOM     13  N   UNL A   1      39.971  23.495  26.216  1.00  0.00    -0.326 N 
ATOM     14  H   UNL A   1      40.162  24.360  25.787  1.00  0.00     0.169 HD
BRANCH  13  15
ATOM     15  C   UNL A   1      38.707  22.939  25.988  1.00  0.00     0.045 A 
ATOM     16  C   UNL A   1      37.661  23.870  26.022  1.00  0.00     0.028 A 
ATOM     17  C   UNL A   1      38.483  21.573  25.717  1.00  0.00     0.075 A 
ATOM     18  C   UNL A   1      36.367  23.502  25.696  1.00  0.00     0.034 A 
ATOM     19  C   UNL A   1      37.158  21.225  25.466  1.00  0.00     0.157 A 
ATOM     20  C   UNL A   1      36.135  22.157  25.422  1.00  0.00     0.110 A 
ATOM     21  O   UNL A   1      36.597  19.986  25.202  1.00  0.00    -0.436 OA
ATOM     22  N   UNL A   1      34.976  21.561  25.090  1.00  0.00    -0.209 NA
ATOM     23  C   UNL A   1      35.272  20.286  24.979  1.00  0.00     0.227 A 
BRANCH  23  24
ATOM     24  C   UNL A   1      34.315  19.267  24.568  1.00  0.00     0.037 A 
ATOM     25  C   UNL A   1      33.018  19.597  24.162  1.00  0.00     0.014 A 
ATOM     26  C   UNL A   1      34.826  17.999  24.233  1.00  0.00     0.014 A 
ATOM     27  C   UNL A   1      32.279  18.697  23.381  1.00  0.00     0.001 A 
ATOM     28  C   UNL A   1      34.099  17.115  23.434  1.00  0.00     0.001 A 
ATOM     29  C   UNL A   1      32.829  17.472  22.996  1.00  0.00     0.000 A 
ENDBRANCH  23  24
ENDBRANCH  13  15
ENDBRANCH  10  11
ENDBRANCH   9  10
ENDBRANCH   7   9
ENDBRANCH   6   7
ENDBRANCH   5   6
ENDBRANCH   4   5
ENDBRANCH   3   4
ENDBRANCH   2   3
ENDBRANCH   1   2
BRANCH   1  30
ATOM     30  O   UNL A   1      37.855  30.799  28.603  1.00  0.00    -0.377 OA
BRANCH  30  31
ATOM     31  C   UNL A   1      36.486  30.663  28.998  1.00  0.00     0.188 C 
BRANCH  31  32
ATOM     32  C   UNL A   1      35.405  31.681  28.575  1.00  0.00     0.188 C 
BRANCH  32  33
ATOM     33  O   UNL A   1      35.414  32.895  29.302  1.00  0.00    -0.376 OA
BRANCH  33  34
ATOM     34  C   UNL A   1      34.602  32.973  30.466  1.00  0.00     0.202 C 
BRANCH  34  35
ATOM     35  C   UNL A   1      35.314  33.281  31.793  1.00  0.00     0.261 C 
BRANCH  35  36
ATOM     36  O   UNL A   1      35.610  32.144  32.625  1.00  0.00    -0.460 OA
BRANCH  36  37
ATOM     37  C   UNL A   1      36.403  32.343  33.695  1.00  0.00     0.338 C 
ATOM     38  O   UNL A   1      36.096  32.878  34.753  1.00  0.00    -0.246 OA
BRANCH  37  39
ATOM     39  C   UNL A   1      37.681  31.637  33.469  1.00  0.00     0.060 A 
ATOM     40  C   UNL A   1      38.833  32.107  34.110  1.00  0.00     0.016 A 
ATOM     41  C   UNL A   1      37.753  30.538  32.609  1.00  0.00     0.016 A 
ATOM     42  C   UNL A   1      40.069  31.508  33.860  1.00  0.00     0.010 A 
ATOM     43  C   UNL A   1      38.997  29.942  32.355  1.00  0.00     0.010 A 
ATOM     44  C   UNL A   1      40.170  30.445  32.953  1.00  0.00    -0.014 A 
BRANCH  44  45
ATOM     45  C   UNL A   1      41.512  29.987  32.493  1.00  0.00     0.031 A 
ATOM     46  C   UNL A   1      42.174  30.737  31.367  1.00  0.00     0.074 A 
ATOM     47  C   UNL A   1      42.180  28.994  33.114  1.00  0.00     0.049 A 
ATOM     48  N   UNL A   1      43.314  30.508  30.768  1.00  0.00    -0.248 NA
ATOM     49  C   UNL A   1      41.470  31.935  30.874  1.00  0.00     0.031 C 
ATOM     50  C   UNL A   1      41.729  28.311  34.321  1.00  0.00     0.029 A 
ATOM     51  N   UNL A   1      43.373  28.377  32.815  1.00  0.00    -0.354 N 
ATOM     52  C   UNL A   1      43.484  31.552  29.867  1.00  0.00     0.074 A 
ATOM     53  C   UNL A   1      42.298  32.375  29.938  1.00  0.00     0.031 C 
ATOM     54  C   UNL A   1      42.608  27.341  34.636  1.00  0.00     0.029 A 
ATOM     55  C   UNL A   1      43.655  27.297  33.627  1.00  0.00     0.049 A 
ATOM     56  H   UNL A   1      43.969  28.678  32.091  1.00  0.00     0.167 HD
ATOM     57  C   UNL A   1      44.555  31.818  29.080  1.00  0.00     0.037 A 
ATOM     58  C   UNL A   1      44.622  26.359  33.533  1.00  0.00     0.037 A 
ATOM     59  C   UNL A   1      45.724  30.981  29.014  1.00  0.00     0.049 A 
ATOM     60  C   UNL A   1      45.629  26.508  32.418  1.00  0.00     0.074 A 
ATOM     61  C   UNL A   1      46.873  31.154  28.264  1.00  0.00     0.029 A 
ATOM     62  N   UNL A   1      45.883  29.794  29.719  1.00  0.00    -0.354 N 
ATOM     63  N   UNL A   1      45.796  27.501  31.577  1.00  0.00    -0.248 NA
ATOM     64  C   UNL A   1      46.598  25.418  32.251  1.00  0.00     0.031 C 
ATOM     65  C   UNL A   1      47.693  30.038  28.458  1.00  0.00     0.029 A 
ATOM     66  C   UNL A   1      47.087  29.200  29.380  1.00  0.00     0.049 A 
ATOM     67  H   UNL A   1      45.235  29.430  30.365  1.00  0.00     0.167 HD
ATOM     68  C   UNL A   1      46.939  27.200  30.849  1.00  0.00     0.074 A 
ATOM     69  C   UNL A   1      47.406  25.915  31.326  1.00  0.00     0.031 C 
ATOM     70  C   UNL A   1      47.562  27.939  29.897  1.00  0.00     0.037 A 
BRANCH  57  71
ATOM     71  C   UNL A   1      44.497  33.048  28.218  1.00  0.00     0.064 A 
ATOM     72  C   UNL A   1      44.832  34.318  28.715  1.00  0.00     0.173 A 
ATOM     73  C   UNL A   1      44.120  32.956  26.869  1.00  0.00     0.173 A 
ATOM     74  F   UNL A   1      45.191  34.468  29.999  1.00  0.00    -0.203 F 
ATOM     75  C   UNL A   1      44.757  35.450  27.906  1.00  0.00     0.198 A 
ATOM     76  C   UNL A   1      44.076  34.084  26.055  1.00  0.00     0.198 A 
ATOM     77  F   UNL A   1      43.795  31.766  26.338  1.00  0.00    -0.203 F 
ATOM     78  F   UNL A   1      45.028  36.658  28.418  1.00  0.00    -0.200 F 
ATOM     79  C   UNL A   1      44.384  35.332  26.575  1.00  0.00     0.200 A 
ATOM     80  F   UNL A   1      43.730  33.966  24.766  1.00  0.00    -0.200 F 
ATOM     81  F   UNL A   1      44.315  36.421  25.798  1.00  0.00    -0.200 F 
ENDBRANCH  57  71
BRANCH  58  82
ATOM     82  C   UNL A   1      44.694  25.184  34.465  1.00  0.00     0.064 A 
ATOM     83  C   UNL A   1      45.268  25.271  35.740  1.00  0.00     0.173 A 
ATOM     84  C   UNL A   1      44.288  23.905  34.062  1.00  0.00     0.173 A 
ATOM     85  F   UNL A   1      45.726  26.449  36.187  1.00  0.00    -0.203 F 
ATOM     86  C   UNL A   1      45.446  24.135  36.540  1.00  0.00     0.198 A 
ATOM     87  C   UNL A   1      44.429  22.777  34.864  1.00  0.00     0.198 A 
ATOM     88  F   UNL A   1      43.781  23.726  32.851  1.00  0.00    -0.203 F 
ATOM     89  F   UNL A   1      46.067  24.243  37.722  1.00  0.00    -0.200 F 
ATOM     90  C   UNL A   1      45.024  22.889  36.102  1.00  0.00     0.200 A 
ATOM     91  F   UNL A   1      44.020  21.581  34.415  1.00  0.00    -0.200 F 
ATOM     92  F   UNL A   1      45.212  21.799  36.859  1.00  0.00    -0.200 F 
ENDBRANCH  58  82
BRANCH  70  93
ATOM     93  C   UNL A   1      48.885  27.434  29.397  1.00  0.00     0.064 A 
ATOM     94  C   UNL A   1      48.991  26.573  28.296  1.00  0.00     0.173 A 
ATOM     95  C   UNL A   1      50.072  27.839  30.030  1.00  0.00     0.173 A 
ATOM     96  F   UNL A   1      47.886  26.141  27.669  1.00  0.00    -0.203 F 
ATOM     97  C   UNL A   1      50.233  26.110  27.868  1.00  0.00     0.198 A 
ATOM     98  C   UNL A   1      51.313  27.406  29.575  1.00  0.00     0.198 A 
ATOM     99  F   UNL A   1      50.028  28.667  31.084  1.00  0.00    -0.203 F 
ATOM    100  F   UNL A   1      50.306  25.238  26.853  1.00  0.00    -0.200 F 
ATOM    101  C   UNL A   1      51.392  26.533  28.502  1.00  0.00     0.200 A 
ATOM    102  F   UNL A   1      52.432  27.832  30.178  1.00  0.00    -0.200 F 
ATOM    103  F   UNL A   1      52.586  26.091  28.084  1.00  0.00    -0.200 F 
ENDBRANCH  70  93
ENDBRANCH  44  45
ENDBRANCH  37  39
ENDBRANCH  36  37
ENDBRANCH  35  36
ENDBRANCH  34  35
ENDBRANCH  33  34
ENDBRANCH  32  33
ENDBRANCH  31  32
ENDBRANCH  30  31
ENDBRANCH   1  30
TORSDOF 24
ENDMDL
MODEL 2
REMARK VINA RESULT:      -8.9      4.151     10.990
REMARK SMILES O=C(CCC(=O)OCCOCCOCCOCCOC(=O)c1ccc(-c2c3nc(c(-c4c(F)c(F)c(F)c(F)c4F)c4ccc([nH]4)c(-c4c(F)c(F)c(F)c(F)c4F)c4nc(c(-c5c(F)c(F)c(F)c(F)c5F)c5ccc2[nH]5)C=C4)C=C3)cc1)Nc1ccc2nc(-c3ccccc3)oc2c1
REMARK SMILES IDX 12 1 11 2 10 3 9 4 8 5 7 6 5 7 6 8 4 9 3 10 2 11 1 12 85 13
REMARK SMILES IDX 86 15 87 16 100 17 88 18 99 19 89 20 98 21 90 22 91 23 92 24
REMARK SMILES IDX 93 25 97 26 94 27 96 28 95 29 13 30 14 31 15 32 16 33 17 34
REMARK SMILES IDX 18 35 19 36 20 37 21 38 22 39 23 40 84 41 24 42 83 43 25 44
REMARK SMILES IDX 26 45 27 46 77 47 28 48 82 49 76 50 78 51 29 52 81 53 75 54
REMARK SMILES IDX 74 55 30 57 62 58 42 59 61 60 43 61 46 62 60 63 79 64 44 65
REMARK SMILES IDX 45 66 59 68 80 69 47 70 31 71 32 72 40 73 33 74 34 75 38 76
REMARK SMILES IDX 41 77 35 78 36 79 39 80 37 81 63 82 64 83 72 84 65 85 66 86
REMARK SMILES IDX 70 87 73 88 67 89 68 90 71 91 69 92 48 93 49 94 57 95 50 96
REMARK SMILES IDX 51 97 55 98 58 99 52 100 53 101 56 102 54 103
REMARK H PARENT 85 14 78 56 46 67
REMARK Flexibility Score: inf
ROOT
ATOM      1  C   UNL A   1      34.833  22.687  26.052  1.00  0.00     0.188 C 
ENDROOT
BRANCH   1   2
ATOM      2  C   UNL A   1      33.632  23.525  26.503  1.00  0.00     0.188 C 
BRANCH   2   3
ATOM      3  O   UNL A   1      32.437  22.797  26.645  1.00  0.00    -0.376 OA
BRANCH   3   4
ATOM      4  C   UNL A   1      31.190  23.411  26.378  1.00  0.00     0.202 C 
BRANCH   4   5
ATOM      5  C   UNL A   1      30.816  24.106  25.050  1.00  0.00     0.261 C 
BRANCH   5   6
ATOM      6  O   UNL A   1      29.880  25.208  25.080  1.00  0.00    -0.463 OA
BRANCH   6   7
ATOM      7  C   UNL A   1      30.122  26.197  24.185  1.00  0.00     0.306 C 
ATOM      8  O   UNL A   1      29.237  26.904  23.708  1.00  0.00    -0.252 OA
BRANCH   7   9
ATOM      9  C   UNL A   1      31.572  26.445  23.795  1.00  0.00     0.132 C 
BRANCH   9  10
ATOM     10  C   UNL A   1      32.597  27.286  24.552  1.00  0.00     0.112 C 
BRANCH  10  11
ATOM     11  C   UNL A   1      32.131  28.575  25.193  1.00  0.00     0.224 C 
ATOM     12  O   UNL A   1      30.971  28.960  25.083  1.00  0.00    -0.275 OA
ATOM     13  N   UNL A   1      33.126  29.216  25.880  1.00  0.00    -0.326 N 
ATOM     14  H   UNL A   1      33.993  28.755  25.944  1.00  0.00     0.169 HD
BRANCH  13  15
ATOM     15  C   UNL A   1      33.027  30.467  26.502  1.00  0.00     0.045 A 
ATOM     16  C   UNL A   1      31.908  31.213  26.106  1.00  0.00     0.028 A 
ATOM     17  C   UNL A   1      33.940  30.943  27.465  1.00  0.00     0.075 A 
ATOM     18  C   UNL A   1      31.601  32.417  26.717  1.00  0.00     0.034 A 
ATOM     19  C   UNL A   1      33.639  32.192  28.006  1.00  0.00     0.157 A 
ATOM     20  C   UNL A   1      32.494  32.894  27.672  1.00  0.00     0.110 A 
ATOM     21  O   UNL A   1      34.332  32.950  28.934  1.00  0.00    -0.436 OA
ATOM     22  N   UNL A   1      32.418  34.028  28.391  1.00  0.00    -0.209 NA
ATOM     23  C   UNL A   1      33.514  34.043  29.114  1.00  0.00     0.227 A 
BRANCH  23  24
ATOM     24  C   UNL A   1      33.820  35.074  30.098  1.00  0.00     0.037 A 
ATOM     25  C   UNL A   1      33.165  36.310  30.096  1.00  0.00     0.014 A 
ATOM     26  C   UNL A   1      34.507  34.675  31.259  1.00  0.00     0.014 A 
ATOM     27  C   UNL A   1      33.146  37.093  31.258  1.00  0.00     0.001 A 
ATOM     28  C   UNL A   1      34.466  35.444  32.423  1.00  0.00     0.001 A 
ATOM     29  C   UNL A   1      33.772  36.649  32.425  1.00  0.00     0.000 A 
ENDBRANCH  23  24
ENDBRANCH  13  15
ENDBRANCH  10  11
ENDBRANCH   9  10
ENDBRANCH   7   9
ENDBRANCH   6   7
ENDBRANCH   5   6
ENDBRANCH   4   5
ENDBRANCH   3   4
ENDBRANCH   2   3
ENDBRANCH   1   2
BRANCH   1  30
ATOM     30  O   UNL A   1      34.702  21.932  24.855  1.00  0.00    -0.377 OA
BRANCH  30  31
ATOM     31  C   UNL A   1      34.640  20.503  24.910  1.00  0.00     0.188 C 
BRANCH  31  32
ATOM     32  C   UNL A   1      35.910  19.629  24.990  1.00  0.00     0.188 C 
BRANCH  32  33
ATOM     33  O   UNL A   1      37.109  20.286  24.626  1.00  0.00    -0.376 OA
BRANCH  33  34
ATOM     34  C   UNL A   1      38.337  19.659  24.973  1.00  0.00     0.202 C 
BRANCH  34  35
ATOM     35  C   UNL A   1      39.304  20.462  25.857  1.00  0.00     0.261 C 
BRANCH  35  36
ATOM     36  O   UNL A   1      40.243  19.687  26.625  1.00  0.00    -0.460 OA
BRANCH  36  37
ATOM     37  C   UNL A   1      41.509  19.612  26.173  1.00  0.00     0.338 C 
ATOM     38  O   UNL A   1      42.007  18.707  25.515  1.00  0.00    -0.246 OA
BRANCH  37  39
ATOM     39  C   UNL A   1      42.177  20.903  26.435  1.00  0.00     0.060 A 
ATOM     40  C   UNL A   1      42.177  21.409  27.740  1.00  0.00     0.016 A 
ATOM     41  C   UNL A   1      42.774  21.628  25.400  1.00  0.00     0.016 A 
ATOM     42  C   UNL A   1      42.735  22.660  28.008  1.00  0.00     0.010 A 
ATOM     43  C   UNL A   1      43.328  22.887  25.671  1.00  0.00     0.010 A 
ATOM     44  C   UNL A   1      43.282  23.428  26.971  1.00  0.00    -0.014 A 
BRANCH  44  45
ATOM     45  C   UNL A   1      43.632  24.857  27.212  1.00  0.00     0.031 A 
ATOM     46  C   UNL A   1      45.072  25.274  27.063  1.00  0.00     0.074 A 
ATOM     47  C   UNL A   1      42.691  25.791  27.461  1.00  0.00     0.049 A 
ATOM     48  N   UNL A   1      45.627  26.442  27.258  1.00  0.00    -0.248 NA
ATOM     49  C   UNL A   1      46.008  24.238  26.592  1.00  0.00     0.031 C 
ATOM     50  C   UNL A   1      41.252  25.551  27.453  1.00  0.00     0.029 A 
ATOM     51  N   UNL A   1      42.799  27.125  27.778  1.00  0.00    -0.354 N 
ATOM     52  C   UNL A   1      46.959  26.294  26.891  1.00  0.00     0.074 A 
ATOM     53  C   UNL A   1      47.151  24.906  26.536  1.00  0.00     0.031 C 
ATOM     54  C   UNL A   1      40.612  26.684  27.795  1.00  0.00     0.029 A 
ATOM     55  C   UNL A   1      41.592  27.716  28.098  1.00  0.00     0.049 A 
ATOM     56  H   UNL A   1      43.654  27.612  27.778  1.00  0.00     0.167 HD
ATOM     57  C   UNL A   1      47.922  27.244  26.821  1.00  0.00     0.037 A 
ATOM     58  C   UNL A   1      41.323  28.933  28.617  1.00  0.00     0.037 A 
ATOM     59  C   UNL A   1      47.715  28.620  27.189  1.00  0.00     0.049 A 
ATOM     60  C   UNL A   1      42.488  29.868  28.838  1.00  0.00     0.074 A 
ATOM     61  C   UNL A   1      48.612  29.672  27.149  1.00  0.00     0.029 A 
ATOM     62  N   UNL A   1      46.522  29.130  27.685  1.00  0.00    -0.354 N 
ATOM     63  N   UNL A   1      43.742  29.731  28.479  1.00  0.00    -0.248 NA
ATOM     64  C   UNL A   1      42.198  31.137  29.517  1.00  0.00     0.031 C 
ATOM     65  C   UNL A   1      47.984  30.800  27.689  1.00  0.00     0.029 A 
ATOM     66  C   UNL A   1      46.676  30.469  28.004  1.00  0.00     0.049 A 
ATOM     67  H   UNL A   1      45.689  28.616  27.793  1.00  0.00     0.167 HD
ATOM     68  C   UNL A   1      44.367  30.928  28.800  1.00  0.00     0.074 A 
ATOM     69  C   UNL A   1      43.360  31.768  29.414  1.00  0.00     0.031 C 
ATOM     70  C   UNL A   1      45.649  31.307  28.575  1.00  0.00     0.037 A 
BRANCH  57  71
ATOM     71  C   UNL A   1      49.285  26.819  26.350  1.00  0.00     0.064 A 
ATOM     72  C   UNL A   1      50.253  26.318  27.237  1.00  0.00     0.173 A 
ATOM     73  C   UNL A   1      49.625  26.893  24.991  1.00  0.00     0.173 A 
ATOM     74  F   UNL A   1      49.988  26.233  28.549  1.00  0.00    -0.203 F 
ATOM     75  C   UNL A   1      51.517  25.944  26.785  1.00  0.00     0.198 A 
ATOM     76  C   UNL A   1      50.877  26.489  24.538  1.00  0.00     0.198 A 
ATOM     77  F   UNL A   1      48.737  27.358  24.097  1.00  0.00    -0.203 F 
ATOM     78  F   UNL A   1      52.442  25.522  27.658  1.00  0.00    -0.200 F 
ATOM     79  C   UNL A   1      51.827  26.024  25.436  1.00  0.00     0.200 A 
ATOM     80  F   UNL A   1      51.170  26.553  23.232  1.00  0.00    -0.200 F 
ATOM     81  F   UNL A   1      53.042  25.662  25.002  1.00  0.00    -0.200 F 
ENDBRANCH  57  71
BRANCH  58  82
ATOM     82  C   UNL A   1      39.933  29.352  29.002  1.00  0.00     0.064 A 
ATOM     83  C   UNL A   1      39.482  29.329  30.328  1.00  0.00     0.173 A 
ATOM     84  C   UNL A   1      38.976  29.685  28.035  1.00  0.00     0.173 A 
ATOM     85  F   UNL A   1      40.321  28.977  31.313  1.00  0.00    -0.203 F 
ATOM     86  C   UNL A   1      38.146  29.596  30.649  1.00  0.00     0.198 A 
ATOM     87  C   UNL A   1      37.654  29.985  28.348  1.00  0.00     0.198 A 
ATOM     88  F   UNL A   1      39.307  29.681  26.751  1.00  0.00    -0.203 F 
ATOM     89  F   UNL A   1      37.732  29.492  31.919  1.00  0.00    -0.200 F 
ATOM     90  C   UNL A   1      37.233  29.926  29.659  1.00  0.00     0.200 A 
ATOM     91  F   UNL A   1      36.788  30.295  27.372  1.00  0.00    -0.200 F 
ATOM     92  F   UNL A   1      35.950  30.161  29.964  1.00  0.00    -0.200 F 
ENDBRANCH  58  82
BRANCH  70  93
ATOM     93  C   UNL A   1      46.004  32.734  28.881  1.00  0.00     0.064 A 
ATOM     94  C   UNL A   1      45.905  33.753  27.925  1.00  0.00     0.173 A 
ATOM     95  C   UNL A   1      46.437  33.085  30.171  1.00  0.00     0.173 A 
ATOM     96  F   UNL A   1      45.516  33.468  26.673  1.00  0.00    -0.203 F 
ATOM     97  C   UNL A   1      46.259  35.064  28.238  1.00  0.00     0.198 A 
ATOM     98  C   UNL A   1      46.751  34.401  30.491  1.00  0.00     0.198 A 
ATOM     99  F   UNL A   1      46.544  32.149  31.127  1.00  0.00    -0.203 F 
ATOM    100  F   UNL A   1      46.216  36.011  27.290  1.00  0.00    -0.200 F 
ATOM    101  C   UNL A   1      46.673  35.388  29.522  1.00  0.00     0.200 A 
ATOM    102  F   UNL A   1      47.133  34.713  31.737  1.00  0.00    -0.200 F 
ATOM    103  F   UNL A   1      47.006  36.651  29.822  1.00  0.00    -0.200 F 
ENDBRANCH  70  93
ENDBRANCH  44  45
ENDBRANCH  37  39
ENDBRANCH  36  37
ENDBRANCH  35  36
ENDBRANCH  34  35
ENDBRANCH  33  34
ENDBRANCH  32  33
ENDBRANCH  31  32
ENDBRANCH  30  31
ENDBRANCH   1  30
TORSDOF 24
ENDMDL
MODEL 3
REMARK VINA RESULT:      -8.7      4.069      8.852
REMARK SMILES O=C(CCC(=O)OCCOCCOCCOCCOC(=O)c1ccc(-c2c3nc(c(-c4c(F)c(F)c(F)c(F)c4F)c4ccc([nH]4)c(-c4c(F)c(F)c(F)c(F)c4F)c4nc(c(-c5c(F)c(F)c(F)c(F)c5F)c5ccc2[nH]5)C=C4)C=C3)cc1)Nc1ccc2nc(-c3ccccc3)oc2c1
REMARK SMILES IDX 12 1 11 2 10 3 9 4 8 5 7 6 5 7 6 8 4 9 3 10 2 11 1 12 85 13
REMARK SMILES IDX 86 15 87 16 100 17 88 18 99 19 89 20 98 21 90 22 91 23 92 24
REMARK SMILES IDX 93 25 97 26 94 27 96 28 95 29 13 30 14 31 15 32 16 33 17 34
REMARK SMILES IDX 18 35 19 36 20 37 21 38 22 39 23 40 84 41 24 42 83 43 25 44
REMARK SMILES IDX 26 45 27 46 77 47 28 48 82 49 76 50 78 51 29 52 81 53 75 54
REMARK SMILES IDX 74 55 30 57 62 58 42 59 61 60 43 61 46 62 60 63 79 64 44 65
REMARK SMILES IDX 45 66 59 68 80 69 47 70 31 71 32 72 40 73 33 74 34 75 38 76
REMARK SMILES IDX 41 77 35 78 36 79 39 80 37 81 63 82 64 83 72 84 65 85 66 86
REMARK SMILES IDX 70 87 73 88 67 89 68 90 71 91 69 92 48 93 49 94 57 95 50 96
REMARK SMILES IDX 51 97 55 98 58 99 52 100 53 101 56 102 54 103
REMARK H PARENT 85 14 78 56 46 67
REMARK Flexibility Score: inf
ROOT
ATOM      1  C   UNL A   1      34.467  21.854  26.646  1.00  0.00     0.188 C 
ENDROOT
BRANCH   1   2
ATOM      2  C   UNL A   1      33.548  23.046  26.934  1.00  0.00     0.188 C 
BRANCH   2   3
ATOM      3  O   UNL A   1      32.300  22.698  27.481  1.00  0.00    -0.376 OA
BRANCH   3   4
ATOM      4  C   UNL A   1      31.103  23.070  26.824  1.00  0.00     0.202 C 
BRANCH   4   5
ATOM      5  C   UNL A   1      31.004  23.478  25.337  1.00  0.00     0.261 C 
BRANCH   5   6
ATOM      6  O   UNL A   1      31.094  24.880  24.993  1.00  0.00    -0.463 OA
BRANCH   6   7
ATOM      7  C   UNL A   1      29.990  25.617  25.274  1.00  0.00     0.306 C 
ATOM      8  O   UNL A   1      29.556  25.767  26.414  1.00  0.00    -0.252 OA
BRANCH   7   9
ATOM      9  C   UNL A   1      29.297  26.308  24.109  1.00  0.00     0.132 C 
BRANCH   9  10
ATOM     10  C   UNL A   1      29.917  27.300  23.129  1.00  0.00     0.112 C 
BRANCH  10  11
ATOM     11  C   UNL A   1      31.003  28.223  23.636  1.00  0.00     0.224 C 
ATOM     12  O   UNL A   1      31.581  29.003  22.884  1.00  0.00    -0.275 OA
ATOM     13  N   UNL A   1      31.238  28.079  24.976  1.00  0.00    -0.326 N 
ATOM     14  H   UNL A   1      30.649  27.464  25.470  1.00  0.00     0.169 HD
BRANCH  13  15
ATOM     15  C   UNL A   1      32.238  28.726  25.713  1.00  0.00     0.045 A 
ATOM     16  C   UNL A   1      31.903  30.029  26.106  1.00  0.00     0.028 A 
ATOM     17  C   UNL A   1      33.466  28.130  26.068  1.00  0.00     0.075 A 
ATOM     18  C   UNL A   1      32.732  30.757  26.943  1.00  0.00     0.034 A 
ATOM     19  C   UNL A   1      34.308  28.920  26.849  1.00  0.00     0.157 A 
ATOM     20  C   UNL A   1      33.946  30.177  27.302  1.00  0.00     0.110 A 
ATOM     21  O   UNL A   1      35.577  28.657  27.335  1.00  0.00    -0.436 OA
ATOM     22  N   UNL A   1      34.910  30.683  28.091  1.00  0.00    -0.209 NA
ATOM     23  C   UNL A   1      35.861  29.777  28.083  1.00  0.00     0.227 A 
BRANCH  23  24
ATOM     24  C   UNL A   1      37.086  29.885  28.865  1.00  0.00     0.037 A 
ATOM     25  C   UNL A   1      37.115  29.593  30.233  1.00  0.00     0.014 A 
ATOM     26  C   UNL A   1      38.302  29.927  28.159  1.00  0.00     0.014 A 
ATOM     27  C   UNL A   1      38.331  29.284  30.857  1.00  0.00     0.001 A 
ATOM     28  C   UNL A   1      39.509  29.595  28.776  1.00  0.00     0.001 A 
ATOM     29  C   UNL A   1      39.520  29.259  30.125  1.00  0.00     0.000 A 
ENDBRANCH  23  24
ENDBRANCH  13  15
ENDBRANCH  10  11
ENDBRANCH   9  10
ENDBRANCH   7   9
ENDBRANCH   6   7
ENDBRANCH   5   6
ENDBRANCH   4   5
ENDBRANCH   3   4
ENDBRANCH   2   3
ENDBRANCH   1   2
BRANCH   1  30
ATOM     30  O   UNL A   1      34.680  21.494  25.288  1.00  0.00    -0.377 OA
BRANCH  30  31
ATOM     31  C   UNL A   1      35.735  20.592  24.940  1.00  0.00     0.188 C 
BRANCH  31  32
ATOM     32  C   UNL A   1      37.214  20.897  25.260  1.00  0.00     0.188 C 
BRANCH  32  33
ATOM     33  O   UNL A   1      37.566  22.266  25.201  1.00  0.00    -0.376 OA
BRANCH  33  34
ATOM     34  C   UNL A   1      38.639  22.708  26.021  1.00  0.00     0.202 C 
BRANCH  34  35
ATOM     35  C   UNL A   1      38.544  24.135  26.584  1.00  0.00     0.261 C 
BRANCH  35  36
ATOM     36  O   UNL A   1      39.532  24.488  27.570  1.00  0.00    -0.460 OA
BRANCH  36  37
ATOM     37  C   UNL A   1      40.469  25.390  27.220  1.00  0.00     0.338 C 
ATOM     38  O   UNL A   1      40.374  26.258  26.361  1.00  0.00    -0.246 OA
BRANCH  37  39
ATOM     39  C   UNL A   1      41.590  25.297  28.176  1.00  0.00     0.060 A 
ATOM     40  C   UNL A   1      42.033  26.463  28.810  1.00  0.00     0.016 A 
ATOM     41  C   UNL A   1      42.223  24.077  28.426  1.00  0.00     0.016 A 
ATOM     42  C   UNL A   1      43.138  26.423  29.663  1.00  0.00     0.010 A 
ATOM     43  C   UNL A   1      43.337  24.040  29.278  1.00  0.00     0.010 A 
ATOM     44  C   UNL A   1      43.823  25.219  29.876  1.00  0.00    -0.014 A 
BRANCH  44  45
ATOM     45  C   UNL A   1      45.145  25.230  30.567  1.00  0.00     0.031 A 
ATOM     46  C   UNL A   1      46.363  25.618  29.771  1.00  0.00     0.074 A 
ATOM     47  C   UNL A   1      45.260  24.998  31.891  1.00  0.00     0.049 A 
ATOM     48  N   UNL A   1      47.618  25.663  30.135  1.00  0.00    -0.248 NA
ATOM     49  C   UNL A   1      46.127  26.052  28.383  1.00  0.00     0.031 C 
ATOM     50  C   UNL A   1      44.142  24.789  32.804  1.00  0.00     0.029 A 
ATOM     51  N   UNL A   1      46.368  24.890  32.700  1.00  0.00    -0.354 N 
ATOM     52  C   UNL A   1      48.311  26.171  29.043  1.00  0.00     0.074 A 
ATOM     53  C   UNL A   1      47.353  26.348  27.975  1.00  0.00     0.031 C 
ATOM     54  C   UNL A   1      44.618  24.532  34.037  1.00  0.00     0.029 A 
ATOM     55  C   UNL A   1      46.073  24.506  33.992  1.00  0.00     0.049 A 
ATOM     56  H   UNL A   1      47.284  25.067  32.386  1.00  0.00     0.167 HD
ATOM     57  C   UNL A   1      49.623  26.497  28.957  1.00  0.00     0.037 A 
ATOM     58  C   UNL A   1      46.886  24.136  35.004  1.00  0.00     0.037 A 
ATOM     59  C   UNL A   1      50.565  26.305  30.028  1.00  0.00     0.049 A 
ATOM     60  C   UNL A   1      48.375  24.199  34.758  1.00  0.00     0.074 A 
ATOM     61  C   UNL A   1      51.914  26.608  30.061  1.00  0.00     0.029 A 
ATOM     62  N   UNL A   1      50.253  25.739  31.258  1.00  0.00    -0.354 N 
ATOM     63  N   UNL A   1      49.026  24.692  33.732  1.00  0.00    -0.248 NA
ATOM     64  C   UNL A   1      49.244  23.676  35.819  1.00  0.00     0.031 C 
ATOM     65  C   UNL A   1      52.432  26.158  31.279  1.00  0.00     0.029 A 
ATOM     66  C   UNL A   1      51.395  25.635  32.035  1.00  0.00     0.049 A 
ATOM     67  H   UNL A   1      49.352  25.454  31.536  1.00  0.00     0.167 HD
ATOM     68  C   UNL A   1      50.373  24.626  34.063  1.00  0.00     0.074 A 
ATOM     69  C   UNL A   1      50.446  24.014  35.373  1.00  0.00     0.031 C 
ATOM     70  C   UNL A   1      51.446  25.064  33.359  1.00  0.00     0.037 A 
BRANCH  57  71
ATOM     71  C   UNL A   1      50.113  27.073  27.658  1.00  0.00     0.064 A 
ATOM     72  C   UNL A   1      50.577  26.255  26.613  1.00  0.00     0.173 A 
ATOM     73  C   UNL A   1      50.102  28.459  27.443  1.00  0.00     0.173 A 
ATOM     74  F   UNL A   1      50.619  24.923  26.766  1.00  0.00    -0.203 F 
ATOM     75  C   UNL A   1      51.043  26.807  25.422  1.00  0.00     0.198 A 
ATOM     76  C   UNL A   1      50.538  29.005  26.239  1.00  0.00     0.198 A 
ATOM     77  F   UNL A   1      49.663  29.288  28.403  1.00  0.00    -0.203 F 
ATOM     78  F   UNL A   1      51.532  26.010  24.462  1.00  0.00    -0.200 F 
ATOM     79  C   UNL A   1      51.018  28.180  25.233  1.00  0.00     0.200 A 
ATOM     80  F   UNL A   1      50.501  30.332  26.053  1.00  0.00    -0.200 F 
ATOM     81  F   UNL A   1      51.465  28.709  24.085  1.00  0.00    -0.200 F 
ENDBRANCH  57  71
BRANCH  58  82
ATOM     82  C   UNL A   1      46.358  23.640  36.320  1.00  0.00     0.064 A 
ATOM     83  C   UNL A   1      45.950  24.509  37.340  1.00  0.00     0.173 A 
ATOM     84  C   UNL A   1      46.350  22.276  36.637  1.00  0.00     0.173 A 
ATOM     85  F   UNL A   1      45.970  25.834  37.137  1.00  0.00    -0.203 F 
ATOM     86  C   UNL A   1      45.587  24.030  38.605  1.00  0.00     0.198 A 
ATOM     87  C   UNL A   1      45.959  21.788  37.880  1.00  0.00     0.198 A 
ATOM     88  F   UNL A   1      46.770  21.389  35.745  1.00  0.00    -0.203 F 
ATOM     89  F   UNL A   1      45.274  24.894  39.580  1.00  0.00    -0.200 F 
ATOM     90  C   UNL A   1      45.589  22.670  38.873  1.00  0.00     0.200 A 
ATOM     91  F   UNL A   1      45.976  20.469  38.118  1.00  0.00    -0.200 F 
ATOM     92  F   UNL A   1      45.261  22.213  40.090  1.00  0.00    -0.200 F 
ENDBRANCH  58  82
BRANCH  70  93
ATOM     93  C   UNL A   1      52.781  25.011  34.045  1.00  0.00     0.064 A 
ATOM     94  C   UNL A   1      53.262  26.065  34.832  1.00  0.00     0.173 A 
ATOM     95  C   UNL A   1      53.586  23.866  33.919  1.00  0.00     0.173 A 
ATOM     96  F   UNL A   1      52.541  27.189  34.969  1.00  0.00    -0.203 F 
ATOM     97  C   UNL A   1      54.513  25.989  35.441  1.00  0.00     0.198 A 
ATOM     98  C   UNL A   1      54.816  23.778  34.561  1.00  0.00     0.198 A 
ATOM     99  F   UNL A   1      53.171  22.824  33.181  1.00  0.00    -0.203 F 
ATOM    100  F   UNL A   1      54.980  27.035  36.138  1.00  0.00    -0.200 F 
ATOM    101  C   UNL A   1      55.284  24.844  35.312  1.00  0.00     0.200 A 
ATOM    102  F   UNL A   1      55.551  22.662  34.449  1.00  0.00    -0.200 F 
ATOM    103  F   UNL A   1      56.485  24.772  35.904  1.00  0.00    -0.200 F 
ENDBRANCH  70  93
ENDBRANCH  44  45
ENDBRANCH  37  39
ENDBRANCH  36  37
ENDBRANCH  35  36
ENDBRANCH  34  35
ENDBRANCH  33  34
ENDBRANCH  32  33
ENDBRANCH  31  32
ENDBRANCH  30  31
ENDBRANCH   1  30
TORSDOF 24
ENDMDL
