MODEL 1
REMARK VINA RESULT:     -10.3      0.000      0.000
REMARK SMILES CCC[C@H](NC(=O)c1cc2ccccc2[nH]1)C(=O)OCCOCCOCCOCCOC(=O)c1ccc(-c2c3nc(c(-c4c(F)c(F)c(F)c(F)c4F)c4ccc([nH]4)c(-c4c(F)c(F)c(F)c(F)c4F)c4nc(c(-c5c(F)c(F)c(F)c(F)c5F)c5ccc2[nH]5)C=C4)C=C3)cc1
REMARK SMILES IDX 25 1 24 2 23 3 22 4 21 5 20 6 19 7 17 8 18 9 4 10 3 11 2 12
REMARK SMILES IDX 1 13 5 14 6 15 7 17 8 18 9 19 16 20 10 21 15 22 11 24 14 25
REMARK SMILES IDX 12 26 13 27 26 28 27 29 28 30 29 31 30 32 31 33 32 34 33 35
REMARK SMILES IDX 34 36 35 37 96 38 36 39 95 40 37 41 38 42 39 43 89 44 40 45
REMARK SMILES IDX 94 46 88 47 90 48 41 49 93 50 87 51 86 52 42 54 74 55 54 56
REMARK SMILES IDX 73 57 55 58 58 59 72 60 91 61 56 62 57 63 71 65 92 66 59 67
REMARK SMILES IDX 43 68 44 69 52 70 45 71 46 72 50 73 53 74 47 75 48 76 51 77
REMARK SMILES IDX 49 78 75 79 76 80 84 81 77 82 78 83 82 84 85 85 79 86 80 87
REMARK SMILES IDX 83 88 81 89 60 90 61 91 69 92 62 93 63 94 67 95 70 96 64 97
REMARK SMILES IDX 65 98 68 99 66 100
REMARK H PARENT 5 16 16 23 90 53 58 64
REMARK Flexibility Score: inf
ROOT
ATOM      1  O   UNL A   1      35.591  32.326  27.840  1.00  0.00    -0.377 OA
ENDROOT
BRANCH   1   2
ATOM      2  C   UNL A   1      34.750  31.189  27.878  1.00  0.00     0.188 C 
BRANCH   2   3
ATOM      3  C   UNL A   1      35.274  29.907  27.212  1.00  0.00     0.188 C 
BRANCH   3   4
ATOM      4  O   UNL A   1      34.238  29.145  26.602  1.00  0.00    -0.376 OA
BRANCH   4   5
ATOM      5  C   UNL A   1      33.484  28.219  27.365  1.00  0.00     0.202 C 
BRANCH   5   6
ATOM      6  C   UNL A   1      31.960  28.430  27.469  1.00  0.00     0.261 C 
BRANCH   6   7
ATOM      7  O   UNL A   1      31.122  27.322  27.100  1.00  0.00    -0.462 OA
BRANCH   7   8
ATOM      8  C   UNL A   1      31.020  27.093  25.770  1.00  0.00     0.328 C 
ATOM      9  O   UNL A   1      31.024  27.988  24.933  1.00  0.00    -0.250 OA
BRANCH   8  10
ATOM     10  C   UNL A   1      30.848  25.599  25.414  1.00  0.00     0.192 C 
BRANCH  10  11
ATOM     11  C   UNL A   1      30.175  25.485  24.041  1.00  0.00     0.037 C 
BRANCH  11  12
ATOM     12  C   UNL A   1      30.751  24.404  23.123  1.00  0.00    -0.001 C 
ATOM     13  C   UNL A   1      32.211  24.622  22.747  1.00  0.00     0.004 C 
ENDBRANCH  11  12
ENDBRANCH  10  11
BRANCH  10  14
ATOM     14  N   UNL A   1      30.124  24.783  26.406  1.00  0.00    -0.337 N 
ATOM     15  C   UNL A   1      30.363  23.491  26.815  1.00  0.00     0.268 C 
ATOM     16  H   UNL A   1      29.359  25.227  26.839  1.00  0.00     0.164 HD
ATOM     17  O   UNL A   1      29.653  23.004  27.689  1.00  0.00    -0.268 OA
BRANCH  15  18
ATOM     18  C   UNL A   1      31.372  22.744  26.110  1.00  0.00     0.105 A 
ATOM     19  C   UNL A   1      32.738  22.970  26.120  1.00  0.00     0.042 A 
ATOM     20  N   UNL A   1      31.171  21.643  25.310  1.00  0.00    -0.351 N 
ATOM     21  C   UNL A   1      33.370  21.815  25.589  1.00  0.00     0.000 A 
ATOM     22  C   UNL A   1      32.361  20.981  25.110  1.00  0.00     0.046 A 
ATOM     23  H   UNL A   1      30.303  21.367  24.937  1.00  0.00     0.167 HD
ATOM     24  C   UNL A   1      34.705  21.379  25.518  1.00  0.00     0.010 A 
ATOM     25  C   UNL A   1      32.619  19.720  24.563  1.00  0.00     0.026 A 
ATOM     26  C   UNL A   1      34.979  20.108  25.003  1.00  0.00     0.001 A 
ATOM     27  C   UNL A   1      33.950  19.292  24.535  1.00  0.00     0.002 A 
ENDBRANCH  15  18
ENDBRANCH  10  14
ENDBRANCH   8  10
ENDBRANCH   7   8
ENDBRANCH   6   7
ENDBRANCH   5   6
ENDBRANCH   4   5
ENDBRANCH   3   4
ENDBRANCH   2   3
ENDBRANCH   1   2
BRANCH   1  28
ATOM     28  C   UNL A   1      34.978  33.532  28.268  1.00  0.00     0.188 C 
BRANCH  28  29
ATOM     29  C   UNL A   1      33.452  33.521  28.077  1.00  0.00     0.188 C 
BRANCH  29  30
ATOM     30  O   UNL A   1      32.679  34.670  28.379  1.00  0.00    -0.376 OA
BRANCH  30  31
ATOM     31  C   UNL A   1      33.241  35.819  28.991  1.00  0.00     0.202 C 
BRANCH  31  32
ATOM     32  C   UNL A   1      32.581  36.613  30.142  1.00  0.00     0.261 C 
BRANCH  32  33
ATOM     33  O   UNL A   1      32.098  35.907  31.286  1.00  0.00    -0.460 OA
BRANCH  33  34
ATOM     34  C   UNL A   1      32.735  36.116  32.456  1.00  0.00     0.338 C 
ATOM     35  O   UNL A   1      32.384  36.827  33.380  1.00  0.00    -0.246 OA
BRANCH  34  36
ATOM     36  C   UNL A   1      33.878  35.176  32.499  1.00  0.00     0.060 A 
ATOM     37  C   UNL A   1      33.656  33.844  32.878  1.00  0.00     0.016 A 
ATOM     38  C   UNL A   1      35.156  35.600  32.128  1.00  0.00     0.016 A 
ATOM     39  C   UNL A   1      34.714  32.936  32.905  1.00  0.00     0.010 A 
ATOM     40  C   UNL A   1      36.222  34.702  32.194  1.00  0.00     0.010 A 
ATOM     41  C   UNL A   1      36.010  33.376  32.612  1.00  0.00    -0.014 A 
BRANCH  41  42
ATOM     42  C   UNL A   1      37.173  32.539  32.980  1.00  0.00     0.031 A 
ATOM     43  C   UNL A   1      37.850  32.828  34.291  1.00  0.00     0.074 A 
ATOM     44  C   UNL A   1      37.630  31.561  32.179  1.00  0.00     0.049 A 
ATOM     45  N   UNL A   1      38.951  32.331  34.790  1.00  0.00    -0.248 NA
ATOM     46  C   UNL A   1      37.192  33.825  35.153  1.00  0.00     0.031 C 
ATOM     47  C   UNL A   1      37.027  31.152  30.913  1.00  0.00     0.029 A 
ATOM     48  N   UNL A   1      38.729  30.749  32.310  1.00  0.00    -0.354 N 
ATOM     49  C   UNL A   1      39.124  32.965  36.014  1.00  0.00     0.074 A 
ATOM     50  C   UNL A   1      38.032  33.897  36.173  1.00  0.00     0.031 C 
ATOM     51  C   UNL A   1      37.779  30.179  30.369  1.00  0.00     0.029 A 
ATOM     52  C   UNL A   1      38.937  29.930  31.228  1.00  0.00     0.049 A 
ATOM     53  H   UNL A   1      39.311  30.754  33.103  1.00  0.00     0.167 HD
ATOM     54  C   UNL A   1      40.108  32.781  36.924  1.00  0.00     0.037 A 
ATOM     55  C   UNL A   1      39.967  29.105  30.953  1.00  0.00     0.037 A 
ATOM     56  C   UNL A   1      41.196  31.857  36.755  1.00  0.00     0.049 A 
ATOM     57  C   UNL A   1      41.102  28.984  31.942  1.00  0.00     0.074 A 
ATOM     58  C   UNL A   1      42.239  31.587  37.622  1.00  0.00     0.029 A 
ATOM     59  N   UNL A   1      41.388  31.063  35.635  1.00  0.00    -0.354 N 
ATOM     60  N   UNL A   1      41.253  29.567  33.107  1.00  0.00    -0.248 NA
ATOM     61  C   UNL A   1      42.210  28.091  31.575  1.00  0.00     0.031 C 
ATOM     62  C   UNL A   1      43.094  30.672  37.000  1.00  0.00     0.029 A 
ATOM     63  C   UNL A   1      42.549  30.321  35.775  1.00  0.00     0.049 A 
ATOM     64  H   UNL A   1      40.787  31.031  34.855  1.00  0.00     0.167 HD
ATOM     65  C   UNL A   1      42.450  29.086  33.626  1.00  0.00     0.074 A 
ATOM     66  C   UNL A   1      42.981  28.157  32.652  1.00  0.00     0.031 C 
ATOM     67  C   UNL A   1      43.052  29.385  34.803  1.00  0.00     0.037 A 
BRANCH  54  68
ATOM     68  C   UNL A   1      40.069  33.625  38.164  1.00  0.00     0.064 A 
ATOM     69  C   UNL A   1      39.268  33.287  39.265  1.00  0.00     0.173 A 
ATOM     70  C   UNL A   1      40.862  34.778  38.259  1.00  0.00     0.173 A 
ATOM     71  F   UNL A   1      38.476  32.204  39.217  1.00  0.00    -0.203 F 
ATOM     72  C   UNL A   1      39.242  34.087  40.404  1.00  0.00     0.198 A 
ATOM     73  C   UNL A   1      40.859  35.558  39.412  1.00  0.00     0.198 A 
ATOM     74  F   UNL A   1      41.647  35.146  37.234  1.00  0.00    -0.203 F 
ATOM     75  F   UNL A   1      38.430  33.773  41.423  1.00  0.00    -0.200 F 
ATOM     76  C   UNL A   1      40.043  35.216  40.479  1.00  0.00     0.200 A 
ATOM     77  F   UNL A   1      41.644  36.640  39.488  1.00  0.00    -0.200 F 
ATOM     78  F   UNL A   1      40.024  35.979  41.580  1.00  0.00    -0.200 F 
ENDBRANCH  54  68
BRANCH  55  79
ATOM     79  C   UNL A   1      39.993  28.342  29.676  1.00  0.00     0.064 A 
ATOM     80  C   UNL A   1      39.379  27.085  29.571  1.00  0.00     0.173 A 
ATOM     81  C   UNL A   1      40.658  28.836  28.544  1.00  0.00     0.173 A 
ATOM     82  F   UNL A   1      38.754  26.556  30.632  1.00  0.00    -0.203 F 
ATOM     83  C   UNL A   1      39.448  26.345  28.392  1.00  0.00     0.198 A 
ATOM     84  C   UNL A   1      40.701  28.109  27.356  1.00  0.00     0.198 A 
ATOM     85  F   UNL A   1      41.267  30.030  28.590  1.00  0.00    -0.203 F 
ATOM     86  F   UNL A   1      38.896  25.125  28.337  1.00  0.00    -0.200 F 
ATOM     87  C   UNL A   1      40.102  26.860  27.284  1.00  0.00     0.200 A 
ATOM     88  F   UNL A   1      41.322  28.616  26.284  1.00  0.00    -0.200 F 
ATOM     89  F   UNL A   1      40.166  26.149  26.150  1.00  0.00    -0.200 F 
ENDBRANCH  55  79
BRANCH  67  90
ATOM     90  C   UNL A   1      44.326  28.664  35.139  1.00  0.00     0.064 A 
ATOM     91  C   UNL A   1      44.330  27.459  35.857  1.00  0.00     0.173 A 
ATOM     92  C   UNL A   1      45.557  29.153  34.672  1.00  0.00     0.173 A 
ATOM     93  F   UNL A   1      43.183  26.955  36.336  1.00  0.00    -0.203 F 
ATOM     94  C   UNL A   1      45.521  26.781  36.110  1.00  0.00     0.198 A 
ATOM     95  C   UNL A   1      46.740  28.456  34.899  1.00  0.00     0.198 A 
ATOM     96  F   UNL A   1      45.608  30.296  33.972  1.00  0.00    -0.203 F 
ATOM     97  F   UNL A   1      45.505  25.653  36.833  1.00  0.00    -0.200 F 
ATOM     98  C   UNL A   1      46.722  27.274  35.622  1.00  0.00     0.200 A 
ATOM     99  F   UNL A   1      47.897  28.925  34.410  1.00  0.00    -0.200 F 
ATOM    100  F   UNL A   1      47.864  26.612  35.853  1.00  0.00    -0.200 F 
ENDBRANCH  67  90
ENDBRANCH  41  42
ENDBRANCH  34  36
ENDBRANCH  33  34
ENDBRANCH  32  33
ENDBRANCH  31  32
ENDBRANCH  30  31
ENDBRANCH  29  30
ENDBRANCH  28  29
ENDBRANCH   1  28
TORSDOF 24
ENDMDL
MODEL 2
REMARK VINA RESULT:      -9.7      1.358      2.549
REMARK SMILES CCC[C@H](NC(=O)c1cc2ccccc2[nH]1)C(=O)OCCOCCOCCOCCOC(=O)c1ccc(-c2c3nc(c(-c4c(F)c(F)c(F)c(F)c4F)c4ccc([nH]4)c(-c4c(F)c(F)c(F)c(F)c4F)c4nc(c(-c5c(F)c(F)c(F)c(F)c5F)c5ccc2[nH]5)C=C4)C=C3)cc1
REMARK SMILES IDX 25 1 24 2 23 3 22 4 21 5 20 6 19 7 17 8 18 9 4 10 3 11 2 12
REMARK SMILES IDX 1 13 5 14 6 15 7 17 8 18 9 19 16 20 10 21 15 22 11 24 14 25
REMARK SMILES IDX 12 26 13 27 26 28 27 29 28 30 29 31 30 32 31 33 32 34 33 35
REMARK SMILES IDX 34 36 35 37 96 38 36 39 95 40 37 41 38 42 39 43 89 44 40 45
REMARK SMILES IDX 94 46 88 47 90 48 41 49 93 50 87 51 86 52 42 54 74 55 54 56
REMARK SMILES IDX 73 57 55 58 58 59 72 60 91 61 56 62 57 63 71 65 92 66 59 67
REMARK SMILES IDX 43 68 44 69 52 70 45 71 46 72 50 73 53 74 47 75 48 76 51 77
REMARK SMILES IDX 49 78 75 79 76 80 84 81 77 82 78 83 82 84 85 85 79 86 80 87
REMARK SMILES IDX 83 88 81 89 60 90 61 91 69 92 62 93 63 94 67 95 70 96 64 97
REMARK SMILES IDX 65 98 68 99 66 100
REMARK H PARENT 5 16 16 23 90 53 58 64
REMARK Flexibility Score: inf
ROOT
ATOM      1  O   UNL A   1      35.530  32.503  27.763  1.00  0.00    -0.377 OA
ENDROOT
BRANCH   1   2
ATOM      2  C   UNL A   1      34.791  31.410  28.274  1.00  0.00     0.188 C 
BRANCH   2   3
ATOM      3  C   UNL A   1      35.469  30.032  28.249  1.00  0.00     0.188 C 
BRANCH   3   4
ATOM      4  O   UNL A   1      35.392  29.407  26.973  1.00  0.00    -0.376 OA
BRANCH   4   5
ATOM      5  C   UNL A   1      34.220  28.712  26.584  1.00  0.00     0.202 C 
BRANCH   5   6
ATOM      6  C   UNL A   1      33.251  29.407  25.606  1.00  0.00     0.261 C 
BRANCH   6   7
ATOM      7  O   UNL A   1      32.973  28.727  24.371  1.00  0.00    -0.462 OA
BRANCH   7   8
ATOM      8  C   UNL A   1      31.727  28.211  24.263  1.00  0.00     0.328 C 
ATOM      9  O   UNL A   1      31.115  27.733  25.212  1.00  0.00    -0.250 OA
BRANCH   8  10
ATOM     10  C   UNL A   1      31.172  28.236  22.821  1.00  0.00     0.192 C 
BRANCH  10  11
ATOM     11  C   UNL A   1      29.737  27.696  22.827  1.00  0.00     0.037 C 
BRANCH  11  12
ATOM     12  C   UNL A   1      28.642  28.760  22.716  1.00  0.00    -0.001 C 
ATOM     13  C   UNL A   1      29.161  30.154  22.387  1.00  0.00     0.004 C 
ENDBRANCH  11  12
ENDBRANCH  10  11
BRANCH  10  14
ATOM     14  N   UNL A   1      31.979  27.528  21.811  1.00  0.00    -0.337 N 
ATOM     15  C   UNL A   1      32.512  26.259  21.853  1.00  0.00     0.268 C 
ATOM     16  H   UNL A   1      32.164  28.036  20.988  1.00  0.00     0.164 HD
ATOM     17  O   UNL A   1      33.132  25.844  20.879  1.00  0.00    -0.268 OA
BRANCH  15  18
ATOM     18  C   UNL A   1      32.402  25.530  23.089  1.00  0.00     0.105 A 
ATOM     19  C   UNL A   1      31.443  24.587  23.419  1.00  0.00     0.042 A 
ATOM     20  N   UNL A   1      33.247  25.612  24.170  1.00  0.00    -0.351 N 
ATOM     21  C   UNL A   1      31.906  23.882  24.561  1.00  0.00     0.000 A 
ATOM     22  C   UNL A   1      33.059  24.530  25.000  1.00  0.00     0.046 A 
ATOM     23  H   UNL A   1      33.893  26.338  24.327  1.00  0.00     0.167 HD
ATOM     24  C   UNL A   1      31.480  22.723  25.231  1.00  0.00     0.010 A 
ATOM     25  C   UNL A   1      33.819  24.073  26.082  1.00  0.00     0.026 A 
ATOM     26  C   UNL A   1      32.244  22.232  26.296  1.00  0.00     0.001 A 
ATOM     27  C   UNL A   1      33.396  22.897  26.712  1.00  0.00     0.002 A 
ENDBRANCH  15  18
ENDBRANCH  10  14
ENDBRANCH   8  10
ENDBRANCH   7   8
ENDBRANCH   6   7
ENDBRANCH   5   6
ENDBRANCH   4   5
ENDBRANCH   3   4
ENDBRANCH   2   3
ENDBRANCH   1   2
BRANCH   1  28
ATOM     28  C   UNL A   1      34.944  33.775  27.991  1.00  0.00     0.188 C 
BRANCH  28  29
ATOM     29  C   UNL A   1      33.411  33.750  27.870  1.00  0.00     0.188 C 
BRANCH  29  30
ATOM     30  O   UNL A   1      32.614  34.655  28.616  1.00  0.00    -0.376 OA
BRANCH  30  31
ATOM     31  C   UNL A   1      33.181  35.627  29.479  1.00  0.00     0.202 C 
BRANCH  31  32
ATOM     32  C   UNL A   1      32.405  36.383  30.582  1.00  0.00     0.261 C 
BRANCH  32  33
ATOM     33  O   UNL A   1      32.197  35.748  31.844  1.00  0.00    -0.460 OA
BRANCH  33  34
ATOM     34  C   UNL A   1      32.992  36.126  32.865  1.00  0.00     0.338 C 
ATOM     35  O   UNL A   1      32.769  36.973  33.712  1.00  0.00    -0.246 OA
BRANCH  34  36
ATOM     36  C   UNL A   1      34.140  35.192  32.887  1.00  0.00     0.060 A 
ATOM     37  C   UNL A   1      33.939  33.867  33.299  1.00  0.00     0.016 A 
ATOM     38  C   UNL A   1      35.403  35.616  32.463  1.00  0.00     0.016 A 
ATOM     39  C   UNL A   1      35.003  32.964  33.305  1.00  0.00     0.010 A 
ATOM     40  C   UNL A   1      36.475  34.724  32.508  1.00  0.00     0.010 A 
ATOM     41  C   UNL A   1      36.285  33.405  32.959  1.00  0.00    -0.014 A 
BRANCH  41  42
ATOM     42  C   UNL A   1      37.465  32.581  33.302  1.00  0.00     0.031 A 
ATOM     43  C   UNL A   1      38.162  32.873  34.601  1.00  0.00     0.074 A 
ATOM     44  C   UNL A   1      37.918  31.612  32.488  1.00  0.00     0.049 A 
ATOM     45  N   UNL A   1      39.278  32.387  35.078  1.00  0.00    -0.248 NA
ATOM     46  C   UNL A   1      37.510  33.860  35.479  1.00  0.00     0.031 C 
ATOM     47  C   UNL A   1      37.296  31.200  31.233  1.00  0.00     0.029 A 
ATOM     48  N   UNL A   1      39.029  30.812  32.596  1.00  0.00    -0.354 N 
ATOM     49  C   UNL A   1      39.467  33.019  36.300  1.00  0.00     0.074 A 
ATOM     50  C   UNL A   1      38.367  33.938  36.483  1.00  0.00     0.031 C 
ATOM     51  C   UNL A   1      38.050  30.238  30.671  1.00  0.00     0.029 A 
ATOM     52  C   UNL A   1      39.227  30.000  31.508  1.00  0.00     0.049 A 
ATOM     53  H   UNL A   1      39.626  30.821  33.378  1.00  0.00     0.167 HD
ATOM     54  C   UNL A   1      40.470  32.844  37.192  1.00  0.00     0.037 A 
ATOM     55  C   UNL A   1      40.261  29.188  31.210  1.00  0.00     0.037 A 
ATOM     56  C   UNL A   1      41.566  31.934  36.999  1.00  0.00     0.049 A 
ATOM     57  C   UNL A   1      41.415  29.077  32.177  1.00  0.00     0.074 A 
ATOM     58  C   UNL A   1      42.628  31.673  37.845  1.00  0.00     0.029 A 
ATOM     59  N   UNL A   1      41.746  31.146  35.872  1.00  0.00    -0.354 N 
ATOM     60  N   UNL A   1      41.582  29.658  33.341  1.00  0.00    -0.248 NA
ATOM     61  C   UNL A   1      42.527  28.198  31.786  1.00  0.00     0.031 C 
ATOM     62  C   UNL A   1      43.482  30.771  37.203  1.00  0.00     0.029 A 
ATOM     63  C   UNL A   1      42.918  30.418  35.988  1.00  0.00     0.049 A 
ATOM     64  H   UNL A   1      41.131  31.109  35.104  1.00  0.00     0.167 HD
ATOM     65  C   UNL A   1      42.793  29.189  33.836  1.00  0.00     0.074 A 
ATOM     66  C   UNL A   1      43.318  28.270  32.849  1.00  0.00     0.031 C 
ATOM     67  C   UNL A   1      43.414  29.491  35.003  1.00  0.00     0.037 A 
BRANCH  54  68
ATOM     68  C   UNL A   1      40.444  33.683  38.435  1.00  0.00     0.064 A 
ATOM     69  C   UNL A   1      41.220  34.846  38.558  1.00  0.00     0.173 A 
ATOM     70  C   UNL A   1      39.616  33.328  39.510  1.00  0.00     0.173 A 
ATOM     71  F   UNL A   1      42.043  35.218  37.566  1.00  0.00    -0.203 F 
ATOM     72  C   UNL A   1      41.186  35.607  39.724  1.00  0.00     0.198 A 
ATOM     73  C   UNL A   1      39.559  34.111  40.660  1.00  0.00     0.198 A 
ATOM     74  F   UNL A   1      38.854  32.226  39.443  1.00  0.00    -0.203 F 
ATOM     75  F   UNL A   1      41.973  36.685  39.840  1.00  0.00    -0.200 F 
ATOM     76  C   UNL A   1      40.350  35.244  40.768  1.00  0.00     0.200 A 
ATOM     77  F   UNL A   1      38.742  33.765  41.663  1.00  0.00    -0.200 F 
ATOM     78  F   UNL A   1      40.312  35.984  41.885  1.00  0.00    -0.200 F 
ENDBRANCH  54  68
BRANCH  55  79
ATOM     79  C   UNL A   1      40.272  28.430  29.930  1.00  0.00     0.064 A 
ATOM     80  C   UNL A   1      40.936  28.929  28.800  1.00  0.00     0.173 A 
ATOM     81  C   UNL A   1      39.594  27.209  29.799  1.00  0.00     0.173 A 
ATOM     82  F   UNL A   1      41.576  30.105  28.865  1.00  0.00    -0.203 F 
ATOM     83  C   UNL A   1      40.902  28.247  27.584  1.00  0.00     0.198 A 
ATOM     84  C   UNL A   1      39.587  26.512  28.592  1.00  0.00     0.198 A 
ATOM     85  F   UNL A   1      38.939  26.688  30.846  1.00  0.00    -0.203 F 
ATOM     86  F   UNL A   1      41.502  28.773  26.508  1.00  0.00    -0.200 F 
ATOM     87  C   UNL A   1      40.235  27.036  27.483  1.00  0.00     0.200 A 
ATOM     88  F   UNL A   1      38.952  25.337  28.502  1.00  0.00    -0.200 F 
ATOM     89  F   UNL A   1      40.205  26.380  26.315  1.00  0.00    -0.200 F 
ENDBRANCH  55  79
BRANCH  67  90
ATOM     90  C   UNL A   1      44.703  28.784  35.312  1.00  0.00     0.064 A 
ATOM     91  C   UNL A   1      44.730  27.534  35.946  1.00  0.00     0.173 A 
ATOM     92  C   UNL A   1      45.927  29.338  34.902  1.00  0.00     0.173 A 
ATOM     93  F   UNL A   1      43.591  26.967  36.370  1.00  0.00    -0.203 F 
ATOM     94  C   UNL A   1      45.936  26.873  36.175  1.00  0.00     0.198 A 
ATOM     95  C   UNL A   1      47.125  28.660  35.102  1.00  0.00     0.198 A 
ATOM     96  F   UNL A   1      45.957  30.527  34.282  1.00  0.00    -0.203 F 
ATOM     97  F   UNL A   1      45.941  25.698  36.819  1.00  0.00    -0.200 F 
ATOM     98  C   UNL A   1      47.129  27.431  35.743  1.00  0.00     0.200 A 
ATOM     99  F   UNL A   1      48.276  29.193  34.667  1.00  0.00    -0.200 F 
ATOM    100  F   UNL A   1      48.286  26.786  35.949  1.00  0.00    -0.200 F 
ENDBRANCH  67  90
ENDBRANCH  41  42
ENDBRANCH  34  36
ENDBRANCH  33  34
ENDBRANCH  32  33
ENDBRANCH  31  32
ENDBRANCH  30  31
ENDBRANCH  29  30
ENDBRANCH  28  29
ENDBRANCH   1  28
TORSDOF 24
ENDMDL
MODEL 3
REMARK VINA RESULT:      -9.4      4.998      7.784
REMARK SMILES CCC[C@H](NC(=O)c1cc2ccccc2[nH]1)C(=O)OCCOCCOCCOCCOC(=O)c1ccc(-c2c3nc(c(-c4c(F)c(F)c(F)c(F)c4F)c4ccc([nH]4)c(-c4c(F)c(F)c(F)c(F)c4F)c4nc(c(-c5c(F)c(F)c(F)c(F)c5F)c5ccc2[nH]5)C=C4)C=C3)cc1
REMARK SMILES IDX 25 1 24 2 23 3 22 4 21 5 20 6 19 7 17 8 18 9 4 10 3 11 2 12
REMARK SMILES IDX 1 13 5 14 6 15 7 17 8 18 9 19 16 20 10 21 15 22 11 24 14 25
REMARK SMILES IDX 12 26 13 27 26 28 27 29 28 30 29 31 30 32 31 33 32 34 33 35
REMARK SMILES IDX 34 36 35 37 96 38 36 39 95 40 37 41 38 42 39 43 89 44 40 45
REMARK SMILES IDX 94 46 88 47 90 48 41 49 93 50 87 51 86 52 42 54 74 55 54 56
REMARK SMILES IDX 73 57 55 58 58 59 72 60 91 61 56 62 57 63 71 65 92 66 59 67
REMARK SMILES IDX 43 68 44 69 52 70 45 71 46 72 50 73 53 74 47 75 48 76 51 77
REMARK SMILES IDX 49 78 75 79 76 80 84 81 77 82 78 83 82 84 85 85 79 86 80 87
REMARK SMILES IDX 83 88 81 89 60 90 61 91 69 92 62 93 63 94 67 95 70 96 64 97
REMARK SMILES IDX 65 98 68 99 66 100
REMARK H PARENT 5 16 16 23 90 53 58 64
REMARK Flexibility Score: inf
ROOT
ATOM      1  O   UNL A   1      34.173  31.237  28.129  1.00  0.00    -0.377 OA
ENDROOT
BRANCH   1   2
ATOM      2  C   UNL A   1      33.979  30.152  27.242  1.00  0.00     0.188 C 
BRANCH   2   3
ATOM      3  C   UNL A   1      32.877  30.300  26.183  1.00  0.00     0.188 C 
BRANCH   3   4
ATOM      4  O   UNL A   1      31.763  29.450  26.430  1.00  0.00    -0.376 OA
BRANCH   4   5
ATOM      5  C   UNL A   1      31.878  28.357  27.325  1.00  0.00     0.202 C 
BRANCH   5   6
ATOM      6  C   UNL A   1      31.423  26.966  26.839  1.00  0.00     0.261 C 
BRANCH   6   7
ATOM      7  O   UNL A   1      32.450  26.061  26.399  1.00  0.00    -0.462 OA
BRANCH   7   8
ATOM      8  C   UNL A   1      32.157  24.746  26.532  1.00  0.00     0.328 C 
ATOM      9  O   UNL A   1      31.141  24.338  27.082  1.00  0.00    -0.250 OA
BRANCH   8  10
ATOM     10  C   UNL A   1      33.253  23.812  25.970  1.00  0.00     0.192 C 
BRANCH  10  11
ATOM     11  C   UNL A   1      34.344  24.662  25.309  1.00  0.00     0.037 C 
BRANCH  11  12
ATOM     12  C   UNL A   1      35.741  24.035  25.301  1.00  0.00    -0.001 C 
ATOM     13  C   UNL A   1      36.100  23.335  23.997  1.00  0.00     0.004 C 
ENDBRANCH  11  12
ENDBRANCH  10  11
BRANCH  10  14
ATOM     14  N   UNL A   1      32.788  22.767  25.040  1.00  0.00    -0.337 N 
ATOM     15  C   UNL A   1      32.153  22.898  23.826  1.00  0.00     0.268 C 
ATOM     16  H   UNL A   1      32.957  21.841  25.329  1.00  0.00     0.164 HD
ATOM     17  O   UNL A   1      31.879  21.887  23.188  1.00  0.00    -0.268 OA
BRANCH  15  18
ATOM     18  C   UNL A   1      31.747  24.220  23.425  1.00  0.00     0.105 A 
ATOM     19  C   UNL A   1      30.482  24.774  23.535  1.00  0.00     0.042 A 
ATOM     20  N   UNL A   1      32.547  25.195  22.878  1.00  0.00    -0.351 N 
ATOM     21  C   UNL A   1      30.609  26.176  23.353  1.00  0.00     0.000 A 
ATOM     22  C   UNL A   1      31.925  26.420  22.967  1.00  0.00     0.046 A 
ATOM     23  H   UNL A   1      33.435  25.040  22.483  1.00  0.00     0.167 HD
ATOM     24  C   UNL A   1      29.739  27.265  23.532  1.00  0.00     0.010 A 
ATOM     25  C   UNL A   1      32.423  27.709  22.751  1.00  0.00     0.026 A 
ATOM     26  C   UNL A   1      30.227  28.564  23.352  1.00  0.00     0.001 A 
ATOM     27  C   UNL A   1      31.550  28.780  22.969  1.00  0.00     0.002 A 
ENDBRANCH  15  18
ENDBRANCH  10  14
ENDBRANCH   8  10
ENDBRANCH   7   8
ENDBRANCH   6   7
ENDBRANCH   5   6
ENDBRANCH   4   5
ENDBRANCH   3   4
ENDBRANCH   2   3
ENDBRANCH   1   2
BRANCH   1  28
ATOM     28  C   UNL A   1      33.685  32.483  27.659  1.00  0.00     0.188 C 
BRANCH  28  29
ATOM     29  C   UNL A   1      34.380  33.682  28.329  1.00  0.00     0.188 C 
BRANCH  29  30
ATOM     30  O   UNL A   1      35.066  33.521  29.559  1.00  0.00    -0.376 OA
BRANCH  30  31
ATOM     31  C   UNL A   1      34.441  33.758  30.810  1.00  0.00     0.202 C 
BRANCH  31  32
ATOM     32  C   UNL A   1      34.406  32.748  31.979  1.00  0.00     0.261 C 
BRANCH  32  33
ATOM     33  O   UNL A   1      35.457  31.789  32.101  1.00  0.00    -0.460 OA
BRANCH  33  34
ATOM     34  C   UNL A   1      36.444  32.061  32.979  1.00  0.00     0.338 C 
ATOM     35  O   UNL A   1      36.336  32.360  34.155  1.00  0.00    -0.246 OA
BRANCH  34  36
ATOM     36  C   UNL A   1      37.724  31.761  32.297  1.00  0.00     0.060 A 
ATOM     37  C   UNL A   1      37.825  31.956  30.912  1.00  0.00     0.016 A 
ATOM     38  C   UNL A   1      38.830  31.326  33.032  1.00  0.00     0.016 A 
ATOM     39  C   UNL A   1      39.028  31.700  30.254  1.00  0.00     0.010 A 
ATOM     40  C   UNL A   1      40.020  31.031  32.367  1.00  0.00     0.010 A 
ATOM     41  C   UNL A   1      40.114  31.187  30.972  1.00  0.00    -0.014 A 
BRANCH  41  42
ATOM     42  C   UNL A   1      41.253  30.578  30.250  1.00  0.00     0.031 A 
ATOM     43  C   UNL A   1      42.435  31.456  29.951  1.00  0.00     0.074 A 
ATOM     44  C   UNL A   1      41.241  29.293  29.857  1.00  0.00     0.049 A 
ATOM     45  N   UNL A   1      43.499  31.208  29.233  1.00  0.00    -0.248 NA
ATOM     46  C   UNL A   1      42.405  32.806  30.540  1.00  0.00     0.031 C 
ATOM     47  C   UNL A   1      40.179  28.331  30.136  1.00  0.00     0.029 A 
ATOM     48  N   UNL A   1      42.155  28.585  29.116  1.00  0.00    -0.354 N 
ATOM     49  C   UNL A   1      44.255  32.373  29.273  1.00  0.00     0.074 A 
ATOM     50  C   UNL A   1      43.521  33.334  30.063  1.00  0.00     0.031 C 
ATOM     51  C   UNL A   1      40.489  27.160  29.550  1.00  0.00     0.029 A 
ATOM     52  C   UNL A   1      41.749  27.307  28.821  1.00  0.00     0.049 A 
ATOM     53  H   UNL A   1      43.017  28.958  28.823  1.00  0.00     0.167 HD
ATOM     54  C   UNL A   1      45.457  32.616  28.701  1.00  0.00     0.037 A 
ATOM     55  C   UNL A   1      42.317  26.381  28.023  1.00  0.00     0.037 A 
ATOM     56  C   UNL A   1      46.178  31.657  27.908  1.00  0.00     0.049 A 
ATOM     57  C   UNL A   1      43.613  26.706  27.320  1.00  0.00     0.074 A 
ATOM     58  C   UNL A   1      47.408  31.798  27.293  1.00  0.00     0.029 A 
ATOM     59  N   UNL A   1      45.723  30.381  27.611  1.00  0.00    -0.354 N 
ATOM     60  N   UNL A   1      44.336  27.799  27.376  1.00  0.00    -0.248 NA
ATOM     61  C   UNL A   1      44.171  25.668  26.441  1.00  0.00     0.031 C 
ATOM     62  C   UNL A   1      47.670  30.629  26.574  1.00  0.00     0.029 A 
ATOM     63  C   UNL A   1      46.636  29.733  26.796  1.00  0.00     0.049 A 
ATOM     64  H   UNL A   1      44.877  29.993  27.932  1.00  0.00     0.167 HD
ATOM     65  C   UNL A   1      45.447  27.567  26.572  1.00  0.00     0.074 A 
ATOM     66  C   UNL A   1      45.306  26.227  26.046  1.00  0.00     0.031 C 
ATOM     67  C   UNL A   1      46.490  28.390  26.298  1.00  0.00     0.037 A 
BRANCH  54  68
ATOM     68  C   UNL A   1      46.045  33.984  28.882  1.00  0.00     0.064 A 
ATOM     69  C   UNL A   1      45.767  35.032  27.991  1.00  0.00     0.173 A 
ATOM     70  C   UNL A   1      46.881  34.255  29.974  1.00  0.00     0.173 A 
ATOM     71  F   UNL A   1      44.988  34.819  26.919  1.00  0.00    -0.203 F 
ATOM     72  C   UNL A   1      46.328  36.293  28.173  1.00  0.00     0.198 A 
ATOM     73  C   UNL A   1      47.413  35.526  30.172  1.00  0.00     0.198 A 
ATOM     74  F   UNL A   1      47.177  33.289  30.856  1.00  0.00    -0.203 F 
ATOM     75  F   UNL A   1      46.091  37.265  27.281  1.00  0.00    -0.200 F 
ATOM     76  C   UNL A   1      47.142  36.541  29.267  1.00  0.00     0.200 A 
ATOM     77  F   UNL A   1      48.189  35.767  31.237  1.00  0.00    -0.200 F 
ATOM     78  F   UNL A   1      47.673  37.758  29.446  1.00  0.00    -0.200 F 
ENDBRANCH  54  68
BRANCH  55  79
ATOM     79  C   UNL A   1      41.658  25.063  27.821  1.00  0.00     0.064 A 
ATOM     80  C   UNL A   1      42.161  23.901  28.424  1.00  0.00     0.173 A 
ATOM     81  C   UNL A   1      40.531  24.930  26.995  1.00  0.00     0.173 A 
ATOM     82  F   UNL A   1      43.252  23.970  29.200  1.00  0.00    -0.203 F 
ATOM     83  C   UNL A   1      41.577  22.657  28.193  1.00  0.00     0.198 A 
ATOM     84  C   UNL A   1      39.929  23.690  26.789  1.00  0.00     0.198 A 
ATOM     85  F   UNL A   1      40.011  26.007  26.389  1.00  0.00    -0.203 F 
ATOM     86  F   UNL A   1      42.111  21.557  28.742  1.00  0.00    -0.200 F 
ATOM     87  C   UNL A   1      40.458  22.553  27.382  1.00  0.00     0.200 A 
ATOM     88  F   UNL A   1      38.840  23.596  26.015  1.00  0.00    -0.200 F 
ATOM     89  F   UNL A   1      39.895  21.357  27.162  1.00  0.00    -0.200 F 
ENDBRANCH  55  79
BRANCH  67  90
ATOM     90  C   UNL A   1      47.594  27.852  25.433  1.00  0.00     0.064 A 
ATOM     91  C   UNL A   1      48.718  27.214  25.977  1.00  0.00     0.173 A 
ATOM     92  C   UNL A   1      47.490  27.917  24.034  1.00  0.00     0.173 A 
ATOM     93  F   UNL A   1      48.873  27.137  27.307  1.00  0.00    -0.203 F 
ATOM     94  C   UNL A   1      49.705  26.676  25.152  1.00  0.00     0.198 A 
ATOM     95  C   UNL A   1      48.460  27.350  23.214  1.00  0.00     0.198 A 
ATOM     96  F   UNL A   1      46.430  28.509  23.463  1.00  0.00    -0.203 F 
ATOM     97  F   UNL A   1      50.790  26.107  25.695  1.00  0.00    -0.200 F 
ATOM     98  C   UNL A   1      49.569  26.735  23.774  1.00  0.00     0.200 A 
ATOM     99  F   UNL A   1      48.317  27.392  21.882  1.00  0.00    -0.200 F 
ATOM    100  F   UNL A   1      50.511  26.203  22.982  1.00  0.00    -0.200 F 
ENDBRANCH  67  90
ENDBRANCH  41  42
ENDBRANCH  34  36
ENDBRANCH  33  34
ENDBRANCH  32  33
ENDBRANCH  31  32
ENDBRANCH  30  31
ENDBRANCH  29  30
ENDBRANCH  28  29
ENDBRANCH   1  28
TORSDOF 24
ENDMDL
