MODEL 1
REMARK VINA RESULT:     -10.5      0.000      0.000
REMARK SMILES Cc1ccc2[nH]cc([C@@H](C(=O)OCCOCCOCCOCCOC(=O)c3ccc(-c4c5nc(c(-c6c(F)c(F)c(F)c(F)c6F)c6ccc([nH]6)c(-c6c(F)c(F)c(F)c(F)c6F)c6nc(c(-c7c(F)c(F)c(F)c(F)c7F)c7ccc4[nH]7)C=C6)C=C5)cc3)[NH+]3CCN(c4ccc(F)cc4)CC3)c2c1
REMARK SMILES IDX 18 1 17 2 16 3 15 4 14 5 13 6 12 7 10 8 11 9 9 10 8 11 1 12
REMARK SMILES IDX 2 13 3 14 104 15 4 16 103 17 5 18 6 19 7 20 90 22 91 23
REMARK SMILES IDX 102 24 92 26 101 27 93 28 94 29 95 30 100 31 96 32 99 33
REMARK SMILES IDX 97 34 98 35 19 36 20 37 21 38 22 39 23 40 24 41 25 42 26 43
REMARK SMILES IDX 27 44 28 45 89 46 29 47 88 48 30 49 31 50 32 51 82 52 33 53
REMARK SMILES IDX 87 54 81 55 83 56 34 57 86 58 80 59 79 60 35 62 67 63 47 64
REMARK SMILES IDX 66 65 48 66 51 67 65 68 84 69 49 70 50 71 64 73 85 74 52 75
REMARK SMILES IDX 36 76 37 77 45 78 38 79 39 80 43 81 46 82 40 83 41 84 44 85
REMARK SMILES IDX 42 86 68 87 69 88 77 89 70 90 71 91 75 92 78 93 72 94 73 95
REMARK SMILES IDX 76 96 74 97 53 98 54 99 62 100 55 101 56 102 60 103 63 104
REMARK SMILES IDX 57 105 58 106 61 107 59 108
REMARK H PARENT 6 21 90 25 83 61 51 72
REMARK Flexibility Score: inf
ROOT
ATOM      1  O   UNL A   1      43.138  41.548  24.257  1.00  0.00    -0.377 OA
ENDROOT
BRANCH   1   2
ATOM      2  C   UNL A   1      41.905  42.076  23.825  1.00  0.00     0.188 C 
BRANCH   2   3
ATOM      3  C   UNL A   1      41.976  43.390  23.055  1.00  0.00     0.188 C 
BRANCH   3   4
ATOM      4  O   UNL A   1      41.645  43.393  21.677  1.00  0.00    -0.376 OA
BRANCH   4   5
ATOM      5  C   UNL A   1      42.379  42.574  20.772  1.00  0.00     0.202 C 
BRANCH   5   6
ATOM      6  C   UNL A   1      43.903  42.375  20.944  1.00  0.00     0.261 C 
BRANCH   6   7
ATOM      7  O   UNL A   1      44.782  43.392  20.388  1.00  0.00    -0.459 OA
BRANCH   7   8
ATOM      8  C   UNL A   1      46.119  43.125  20.438  1.00  0.00     0.370 C 
ATOM      9  O   UNL A   1      46.613  42.176  19.826  1.00  0.00    -0.245 OA
BRANCH   8  10
ATOM     10  C   UNL A   1      46.993  44.060  21.336  1.00  0.00     0.328 C 
BRANCH  10  11
ATOM     11  C   UNL A   1      46.767  44.230  22.843  1.00  0.00     0.046 A 
ATOM     12  C   UNL A   1      51.381  45.531  24.693  1.00  0.00     0.044 C 
ATOM     13  C   UNL A   1      49.897  45.350  24.804  1.00  0.00    -0.050 A 
ATOM     14  C   UNL A   1      49.225  45.674  25.984  1.00  0.00     0.005 A 
ATOM     15  C   UNL A   1      49.181  44.849  23.701  1.00  0.00     0.014 A 
ATOM     16  C   UNL A   1      47.850  45.476  26.108  1.00  0.00     0.027 A 
ATOM     17  C   UNL A   1      47.788  44.644  23.789  1.00  0.00     0.009 A 
ATOM     18  C   UNL A   1      47.174  44.946  25.006  1.00  0.00     0.046 A 
ATOM     19  N   UNL A   1      45.850  44.639  24.870  1.00  0.00    -0.361 N 
ATOM     20  C   UNL A   1      45.602  44.198  23.598  1.00  0.00     0.094 A 
ATOM     21  H   UNL A   1      45.173  44.723  25.580  1.00  0.00     0.166 HD
ENDBRANCH  10  11
BRANCH  10  22
ATOM     22  N   UNL A   1      47.242  45.347  20.626  1.00  0.00    -0.316 N 
ATOM     23  C   UNL A   1      47.416  45.403  19.173  1.00  0.00     0.284 C 
ATOM     24  C   UNL A   1      46.495  46.508  21.103  1.00  0.00     0.284 C 
ATOM     25  H   UNL A   1      48.207  45.397  20.953  1.00  0.00     0.349 HD
ATOM     26  C   UNL A   1      46.177  45.737  18.307  1.00  0.00     0.178 C 
ATOM     27  C   UNL A   1      45.157  46.759  20.384  1.00  0.00     0.178 C 
ATOM     28  N   UNL A   1      45.322  46.749  18.924  1.00  0.00    -0.360 N 
BRANCH  28  29
ATOM     29  C   UNL A   1      44.254  47.245  18.192  1.00  0.00     0.037 A 
ATOM     30  C   UNL A   1      43.734  48.535  18.372  1.00  0.00     0.029 A 
ATOM     31  C   UNL A   1      43.684  46.420  17.217  1.00  0.00     0.029 A 
ATOM     32  C   UNL A   1      42.657  48.978  17.598  1.00  0.00     0.041 A 
ATOM     33  C   UNL A   1      42.604  46.852  16.451  1.00  0.00     0.041 A 
ATOM     34  C   UNL A   1      42.100  48.129  16.649  1.00  0.00     0.123 A 
ATOM     35  F   UNL A   1      41.063  48.549  15.913  1.00  0.00    -0.207 F 
ENDBRANCH  28  29
ENDBRANCH  10  22
ENDBRANCH   8  10
ENDBRANCH   7   8
ENDBRANCH   6   7
ENDBRANCH   5   6
ENDBRANCH   4   5
ENDBRANCH   3   4
ENDBRANCH   2   3
ENDBRANCH   1   2
BRANCH   1  36
ATOM     36  C   UNL A   1      43.527  41.765  25.597  1.00  0.00     0.188 C 
BRANCH  36  37
ATOM     37  C   UNL A   1      44.503  40.760  26.218  1.00  0.00     0.188 C 
BRANCH  37  38
ATOM     38  O   UNL A   1      45.730  40.669  25.512  1.00  0.00    -0.376 OA
BRANCH  38  39
ATOM     39  C   UNL A   1      46.428  39.436  25.436  1.00  0.00     0.202 C 
BRANCH  39  40
ATOM     40  C   UNL A   1      47.049  38.794  26.692  1.00  0.00     0.261 C 
BRANCH  40  41
ATOM     41  O   UNL A   1      46.235  37.925  27.491  1.00  0.00    -0.460 OA
BRANCH  41  42
ATOM     42  C   UNL A   1      46.840  37.176  28.439  1.00  0.00     0.338 C 
ATOM     43  O   UNL A   1      47.720  37.525  29.193  1.00  0.00    -0.246 OA
BRANCH  42  44
ATOM     44  C   UNL A   1      46.098  35.895  28.540  1.00  0.00     0.060 A 
ATOM     45  C   UNL A   1      46.640  34.866  29.320  1.00  0.00     0.016 A 
ATOM     46  C   UNL A   1      44.887  35.705  27.868  1.00  0.00     0.016 A 
ATOM     47  C   UNL A   1      46.000  33.629  29.394  1.00  0.00     0.010 A 
ATOM     48  C   UNL A   1      44.260  34.454  27.919  1.00  0.00     0.010 A 
ATOM     49  C   UNL A   1      44.839  33.399  28.648  1.00  0.00    -0.014 A 
BRANCH  49  50
ATOM     50  C   UNL A   1      44.381  32.002  28.444  1.00  0.00     0.031 A 
ATOM     51  C   UNL A   1      43.063  31.596  29.047  1.00  0.00     0.074 A 
ATOM     52  C   UNL A   1      45.080  31.130  27.697  1.00  0.00     0.049 A 
ATOM     53  N   UNL A   1      42.452  30.439  29.021  1.00  0.00    -0.248 NA
ATOM     54  C   UNL A   1      42.333  32.642  29.783  1.00  0.00     0.031 C 
ATOM     55  C   UNL A   1      46.342  31.420  27.020  1.00  0.00     0.029 A 
ATOM     56  N   UNL A   1      44.822  29.818  27.388  1.00  0.00    -0.354 N 
ATOM     57  C   UNL A   1      41.276  30.619  29.737  1.00  0.00     0.074 A 
ATOM     58  C   UNL A   1      41.273  31.981  30.217  1.00  0.00     0.031 C 
ATOM     59  C   UNL A   1      46.754  30.312  26.380  1.00  0.00     0.029 A 
ATOM     60  C   UNL A   1      45.804  29.229  26.631  1.00  0.00     0.049 A 
ATOM     61  H   UNL A   1      44.010  29.344  27.682  1.00  0.00     0.167 HD
ATOM     62  C   UNL A   1      40.281  29.728  29.965  1.00  0.00     0.037 A 
ATOM     63  C   UNL A   1      45.926  27.954  26.209  1.00  0.00     0.037 A 
ATOM     64  C   UNL A   1      40.288  28.370  29.489  1.00  0.00     0.049 A 
ATOM     65  C   UNL A   1      44.842  26.959  26.543  1.00  0.00     0.074 A 
ATOM     66  C   UNL A   1      39.328  27.391  29.658  1.00  0.00     0.029 A 
ATOM     67  N   UNL A   1      41.319  27.798  28.757  1.00  0.00    -0.354 N 
ATOM     68  N   UNL A   1      43.722  27.140  27.202  1.00  0.00    -0.248 NA
ATOM     69  C   UNL A   1      45.036  25.583  26.065  1.00  0.00     0.031 C 
ATOM     70  C   UNL A   1      39.804  26.208  29.085  1.00  0.00     0.029 A 
ATOM     71  C   UNL A   1      41.029  26.469  28.491  1.00  0.00     0.049 A 
ATOM     72  H   UNL A   1      42.135  28.267  28.468  1.00  0.00     0.167 HD
ATOM     73  C   UNL A   1      43.064  25.915  27.187  1.00  0.00     0.074 A 
ATOM     74  C   UNL A   1      43.904  25.004  26.438  1.00  0.00     0.031 C 
ATOM     75  C   UNL A   1      41.871  25.576  27.736  1.00  0.00     0.037 A 
BRANCH  62  76
ATOM     76  C   UNL A   1      39.118  30.187  30.799  1.00  0.00     0.064 A 
ATOM     77  C   UNL A   1      39.070  29.981  32.186  1.00  0.00     0.173 A 
ATOM     78  C   UNL A   1      38.042  30.863  30.201  1.00  0.00     0.173 A 
ATOM     79  F   UNL A   1      40.062  29.324  32.806  1.00  0.00    -0.203 F 
ATOM     80  C   UNL A   1      37.977  30.408  32.938  1.00  0.00     0.198 A 
ATOM     81  C   UNL A   1      36.969  31.319  30.961  1.00  0.00     0.198 A 
ATOM     82  F   UNL A   1      38.035  31.087  28.878  1.00  0.00    -0.203 F 
ATOM     83  F   UNL A   1      37.928  30.149  34.251  1.00  0.00    -0.200 F 
ATOM     84  C   UNL A   1      36.933  31.083  32.325  1.00  0.00     0.200 A 
ATOM     85  F   UNL A   1      35.967  31.983  30.369  1.00  0.00    -0.200 F 
ATOM     86  F   UNL A   1      35.885  31.499  33.051  1.00  0.00    -0.200 F 
ENDBRANCH  62  76
BRANCH  63  87
ATOM     87  C   UNL A   1      47.124  27.536  25.432  1.00  0.00     0.064 A 
ATOM     88  C   UNL A   1      48.208  26.899  26.053  1.00  0.00     0.173 A 
ATOM     89  C   UNL A   1      47.225  27.796  24.057  1.00  0.00     0.173 A 
ATOM     90  F   UNL A   1      48.175  26.652  27.370  1.00  0.00    -0.203 F 
ATOM     91  C   UNL A   1      49.354  26.561  25.334  1.00  0.00     0.198 A 
ATOM     92  C   UNL A   1      48.356  27.427  23.332  1.00  0.00     0.198 A 
ATOM     93  F   UNL A   1      46.219  28.408  23.414  1.00  0.00    -0.203 F 
ATOM     94  F   UNL A   1      50.398  26.006  25.965  1.00  0.00    -0.200 F 
ATOM     95  C   UNL A   1      49.424  26.820  23.974  1.00  0.00     0.200 A 
ATOM     96  F   UNL A   1      48.415  27.669  22.016  1.00  0.00    -0.200 F 
ATOM     97  F   UNL A   1      50.526  26.494  23.283  1.00  0.00    -0.200 F 
ENDBRANCH  63  87
BRANCH  75  98
ATOM     98  C   UNL A   1      41.373  24.175  27.504  1.00  0.00     0.064 A 
ATOM     99  C   UNL A   1      40.269  23.905  26.681  1.00  0.00     0.173 A 
ATOM    100  C   UNL A   1      42.034  23.084  28.092  1.00  0.00     0.173 A 
ATOM    101  F   UNL A   1      39.595  24.910  26.103  1.00  0.00    -0.203 F 
ATOM    102  C   UNL A   1      39.823  22.600  26.489  1.00  0.00     0.198 A 
ATOM    103  C   UNL A   1      41.608  21.779  27.865  1.00  0.00     0.198 A 
ATOM    104  F   UNL A   1      43.103  23.284  28.877  1.00  0.00    -0.203 F 
ATOM    105  F   UNL A   1      38.727  22.371  25.750  1.00  0.00    -0.200 F 
ATOM    106  C   UNL A   1      40.495  21.538  27.075  1.00  0.00     0.200 A 
ATOM    107  F   UNL A   1      42.274  20.753  28.415  1.00  0.00    -0.200 F 
ATOM    108  F   UNL A   1      40.067  20.283  26.883  1.00  0.00    -0.200 F 
ENDBRANCH  75  98
ENDBRANCH  49  50
ENDBRANCH  42  44
ENDBRANCH  41  42
ENDBRANCH  40  41
ENDBRANCH  39  40
ENDBRANCH  38  39
ENDBRANCH  37  38
ENDBRANCH  36  37
ENDBRANCH   1  36
TORSDOF 23
ENDMDL
MODEL 2
REMARK VINA RESULT:     -10.4      8.342     14.042
REMARK SMILES Cc1ccc2[nH]cc([C@@H](C(=O)OCCOCCOCCOCCOC(=O)c3ccc(-c4c5nc(c(-c6c(F)c(F)c(F)c(F)c6F)c6ccc([nH]6)c(-c6c(F)c(F)c(F)c(F)c6F)c6nc(c(-c7c(F)c(F)c(F)c(F)c7F)c7ccc4[nH]7)C=C6)C=C5)cc3)[NH+]3CCN(c4ccc(F)cc4)CC3)c2c1
REMARK SMILES IDX 18 1 17 2 16 3 15 4 14 5 13 6 12 7 10 8 11 9 9 10 8 11 1 12
REMARK SMILES IDX 2 13 3 14 104 15 4 16 103 17 5 18 6 19 7 20 90 22 91 23
REMARK SMILES IDX 102 24 92 26 101 27 93 28 94 29 95 30 100 31 96 32 99 33
REMARK SMILES IDX 97 34 98 35 19 36 20 37 21 38 22 39 23 40 24 41 25 42 26 43
REMARK SMILES IDX 27 44 28 45 89 46 29 47 88 48 30 49 31 50 32 51 82 52 33 53
REMARK SMILES IDX 87 54 81 55 83 56 34 57 86 58 80 59 79 60 35 62 67 63 47 64
REMARK SMILES IDX 66 65 48 66 51 67 65 68 84 69 49 70 50 71 64 73 85 74 52 75
REMARK SMILES IDX 36 76 37 77 45 78 38 79 39 80 43 81 46 82 40 83 41 84 44 85
REMARK SMILES IDX 42 86 68 87 69 88 77 89 70 90 71 91 75 92 78 93 72 94 73 95
REMARK SMILES IDX 76 96 74 97 53 98 54 99 62 100 55 101 56 102 60 103 63 104
REMARK SMILES IDX 57 105 58 106 61 107 59 108
REMARK H PARENT 6 21 90 25 83 61 51 72
REMARK Flexibility Score: inf
ROOT
ATOM      1  O   UNL A   1      35.342  34.217  30.746  1.00  0.00    -0.377 OA
ENDROOT
BRANCH   1   2
ATOM      2  C   UNL A   1      35.457  32.934  30.173  1.00  0.00     0.188 C 
BRANCH   2   3
ATOM      3  C   UNL A   1      36.848  32.545  29.685  1.00  0.00     0.188 C 
BRANCH   3   4
ATOM      4  O   UNL A   1      37.356  31.265  30.022  1.00  0.00    -0.376 OA
BRANCH   4   5
ATOM      5  C   UNL A   1      37.244  30.193  29.091  1.00  0.00     0.202 C 
BRANCH   5   6
ATOM      6  C   UNL A   1      38.087  28.908  29.261  1.00  0.00     0.261 C 
BRANCH   6   7
ATOM      7  O   UNL A   1      39.396  29.038  29.880  1.00  0.00    -0.459 OA
BRANCH   7   8
ATOM      8  C   UNL A   1      40.315  28.084  29.551  1.00  0.00     0.370 C 
ATOM      9  O   UNL A   1      41.160  27.693  30.359  1.00  0.00    -0.245 OA
BRANCH   8  10
ATOM     10  C   UNL A   1      40.270  27.532  28.089  1.00  0.00     0.328 C 
BRANCH  10  11
ATOM     11  C   UNL A   1      40.370  26.039  27.751  1.00  0.00     0.046 A 
ATOM     12  C   UNL A   1      44.889  24.581  29.715  1.00  0.00     0.044 C 
ATOM     13  C   UNL A   1      43.548  24.314  29.099  1.00  0.00    -0.050 A 
ATOM     14  C   UNL A   1      43.116  23.006  28.871  1.00  0.00     0.005 A 
ATOM     15  C   UNL A   1      42.722  25.400  28.753  1.00  0.00     0.014 A 
ATOM     16  C   UNL A   1      41.886  22.750  28.267  1.00  0.00     0.027 A 
ATOM     17  C   UNL A   1      41.468  25.175  28.148  1.00  0.00     0.009 A 
ATOM     18  C   UNL A   1      41.103  23.850  27.904  1.00  0.00     0.046 A 
ATOM     19  N   UNL A   1      39.884  23.879  27.289  1.00  0.00    -0.361 N 
ATOM     20  C   UNL A   1      39.450  25.172  27.178  1.00  0.00     0.094 A 
ATOM     21  H   UNL A   1      39.391  23.088  26.973  1.00  0.00     0.166 HD
ENDBRANCH  10  11
BRANCH  10  22
ATOM     22  N   UNL A   1      41.098  28.396  27.201  1.00  0.00    -0.316 N 
ATOM     23  C   UNL A   1      42.349  29.000  27.664  1.00  0.00     0.284 C 
ATOM     24  C   UNL A   1      41.210  27.977  25.806  1.00  0.00     0.284 C 
ATOM     25  H   UNL A   1      40.449  29.180  27.277  1.00  0.00     0.349 HD
ATOM     26  C   UNL A   1      43.671  28.259  27.348  1.00  0.00     0.178 C 
ATOM     27  C   UNL A   1      42.420  27.077  25.495  1.00  0.00     0.178 C 
ATOM     28  N   UNL A   1      43.666  27.652  26.018  1.00  0.00    -0.360 N 
BRANCH  28  29
ATOM     29  C   UNL A   1      44.839  27.080  25.550  1.00  0.00     0.037 A 
ATOM     30  C   UNL A   1      45.928  27.832  25.087  1.00  0.00     0.029 A 
ATOM     31  C   UNL A   1      44.941  25.684  25.559  1.00  0.00     0.029 A 
ATOM     32  C   UNL A   1      47.086  27.195  24.631  1.00  0.00     0.041 A 
ATOM     33  C   UNL A   1      46.088  25.044  25.095  1.00  0.00     0.041 A 
ATOM     34  C   UNL A   1      47.151  25.807  24.635  1.00  0.00     0.123 A 
ATOM     35  F   UNL A   1      48.256  25.195  24.190  1.00  0.00    -0.207 F 
ENDBRANCH  28  29
ENDBRANCH  10  22
ENDBRANCH   8  10
ENDBRANCH   7   8
ENDBRANCH   6   7
ENDBRANCH   5   6
ENDBRANCH   4   5
ENDBRANCH   3   4
ENDBRANCH   2   3
ENDBRANCH   1   2
BRANCH   1  36
ATOM     36  C   UNL A   1      34.053  34.697  31.062  1.00  0.00     0.188 C 
BRANCH  36  37
ATOM     37  C   UNL A   1      33.765  35.026  32.531  1.00  0.00     0.188 C 
BRANCH  37  38
ATOM     38  O   UNL A   1      34.926  35.410  33.251  1.00  0.00    -0.376 OA
BRANCH  38  39
ATOM     39  C   UNL A   1      35.493  34.542  34.220  1.00  0.00     0.202 C 
BRANCH  39  40
ATOM     40  C   UNL A   1      36.621  33.560  33.845  1.00  0.00     0.261 C 
BRANCH  40  41
ATOM     41  O   UNL A   1      36.648  32.274  34.479  1.00  0.00    -0.460 OA
BRANCH  41  42
ATOM     42  C   UNL A   1      37.670  31.998  35.319  1.00  0.00     0.338 C 
ATOM     43  O   UNL A   1      37.610  31.857  36.520  1.00  0.00    -0.246 OA
BRANCH  42  44
ATOM     44  C   UNL A   1      38.863  31.695  34.490  1.00  0.00     0.060 A 
ATOM     45  C   UNL A   1      38.764  30.696  33.514  1.00  0.00     0.016 A 
ATOM     46  C   UNL A   1      40.067  32.379  34.677  1.00  0.00     0.016 A 
ATOM     47  C   UNL A   1      39.879  30.344  32.754  1.00  0.00     0.010 A 
ATOM     48  C   UNL A   1      41.193  32.005  33.934  1.00  0.00     0.010 A 
ATOM     49  C   UNL A   1      41.114  30.956  33.001  1.00  0.00    -0.014 A 
BRANCH  49  50
ATOM     50  C   UNL A   1      42.346  30.332  32.460  1.00  0.00     0.031 A 
ATOM     51  C   UNL A   1      42.981  30.957  31.247  1.00  0.00     0.074 A 
ATOM     52  C   UNL A   1      42.925  29.276  33.058  1.00  0.00     0.049 A 
ATOM     53  N   UNL A   1      44.049  30.597  30.582  1.00  0.00    -0.248 NA
ATOM     54  C   UNL A   1      42.316  32.156  30.710  1.00  0.00     0.031 C 
ATOM     55  C   UNL A   1      42.436  28.615  34.265  1.00  0.00     0.029 A 
ATOM     56  N   UNL A   1      44.056  28.574  32.721  1.00  0.00    -0.354 N 
ATOM     57  C   UNL A   1      44.178  31.519  29.551  1.00  0.00     0.074 A 
ATOM     58  C   UNL A   1      43.063  32.432  29.653  1.00  0.00     0.031 C 
ATOM     59  C   UNL A   1      43.258  27.594  34.564  1.00  0.00     0.029 A 
ATOM     60  C   UNL A   1      44.310  27.511  33.552  1.00  0.00     0.049 A 
ATOM     61  H   UNL A   1      44.629  28.809  31.956  1.00  0.00     0.167 HD
ATOM     62  C   UNL A   1      45.147  31.602  28.608  1.00  0.00     0.037 A 
ATOM     63  C   UNL A   1      45.273  26.569  33.485  1.00  0.00     0.037 A 
ATOM     64  C   UNL A   1      46.254  30.689  28.507  1.00  0.00     0.049 A 
ATOM     65  C   UNL A   1      46.296  26.638  32.378  1.00  0.00     0.074 A 
ATOM     66  C   UNL A   1      47.293  30.690  27.595  1.00  0.00     0.029 A 
ATOM     67  N   UNL A   1      46.458  29.602  29.345  1.00  0.00    -0.354 N 
ATOM     68  N   UNL A   1      46.426  27.523  31.419  1.00  0.00    -0.248 NA
ATOM     69  C   UNL A   1      47.314  25.578  32.352  1.00  0.00     0.031 C 
ATOM     70  C   UNL A   1      48.090  29.568  27.839  1.00  0.00     0.029 A 
ATOM     71  C   UNL A   1      47.592  28.908  28.952  1.00  0.00     0.049 A 
ATOM     72  H   UNL A   1      45.882  29.359  30.106  1.00  0.00     0.167 HD
ATOM     73  C   UNL A   1      47.556  27.149  30.700  1.00  0.00     0.074 A 
ATOM     74  C   UNL A   1      48.084  25.965  31.345  1.00  0.00     0.031 C 
ATOM     75  C   UNL A   1      48.110  27.735  29.610  1.00  0.00     0.037 A 
BRANCH  62  76
ATOM     76  C   UNL A   1      45.030  32.699  27.589  1.00  0.00     0.064 A 
ATOM     77  C   UNL A   1      45.594  33.968  27.793  1.00  0.00     0.173 A 
ATOM     78  C   UNL A   1      44.359  32.470  26.377  1.00  0.00     0.173 A 
ATOM     79  F   UNL A   1      46.230  34.247  28.941  1.00  0.00    -0.203 F 
ATOM     80  C   UNL A   1      45.466  34.973  26.838  1.00  0.00     0.198 A 
ATOM     81  C   UNL A   1      44.263  33.466  25.409  1.00  0.00     0.198 A 
ATOM     82  F   UNL A   1      43.800  31.276  26.128  1.00  0.00    -0.203 F 
ATOM     83  F   UNL A   1      45.963  36.193  27.080  1.00  0.00    -0.200 F 
ATOM     84  C   UNL A   1      44.808  34.719  25.644  1.00  0.00     0.200 A 
ATOM     85  F   UNL A   1      43.639  33.214  24.251  1.00  0.00    -0.200 F 
ATOM     86  F   UNL A   1      44.691  35.685  24.722  1.00  0.00    -0.200 F 
ENDBRANCH  62  76
BRANCH  63  87
ATOM     87  C   UNL A   1      45.314  25.471  34.488  1.00  0.00     0.064 A 
ATOM     88  C   UNL A   1      44.684  24.242  34.248  1.00  0.00     0.173 A 
ATOM     89  C   UNL A   1      45.957  25.641  35.724  1.00  0.00     0.173 A 
ATOM     90  F   UNL A   1      44.032  24.038  33.094  1.00  0.00    -0.203 F 
ATOM     91  C   UNL A   1      44.674  23.236  35.213  1.00  0.00     0.198 A 
ATOM     92  C   UNL A   1      45.975  24.622  36.674  1.00  0.00     0.198 A 
ATOM     93  F   UNL A   1      46.570  26.799  36.009  1.00  0.00    -0.203 F 
ATOM     94  F   UNL A   1      44.014  22.093  34.978  1.00  0.00    -0.200 F 
ATOM     95  C   UNL A   1      45.324  23.425  36.422  1.00  0.00     0.200 A 
ATOM     96  F   UNL A   1      46.614  24.805  37.838  1.00  0.00    -0.200 F 
ATOM     97  F   UNL A   1      45.315  22.456  37.350  1.00  0.00    -0.200 F 
ENDBRANCH  63  87
BRANCH  75  98
ATOM     98  C   UNL A   1      49.384  27.139  29.073  1.00  0.00     0.064 A 
ATOM     99  C   UNL A   1      49.387  26.224  28.010  1.00  0.00     0.173 A 
ATOM    100  C   UNL A   1      50.623  27.516  29.615  1.00  0.00     0.173 A 
ATOM    101  F   UNL A   1      48.231  25.822  27.461  1.00  0.00    -0.203 F 
ATOM    102  C   UNL A   1      50.579  25.680  27.537  1.00  0.00     0.198 A 
ATOM    103  C   UNL A   1      51.814  27.000  29.114  1.00  0.00     0.198 A 
ATOM    104  F   UNL A   1      50.680  28.397  30.625  1.00  0.00    -0.203 F 
ATOM    105  F   UNL A   1      50.552  24.760  26.562  1.00  0.00    -0.200 F 
ATOM    106  C   UNL A   1      51.791  26.073  28.084  1.00  0.00     0.200 A 
ATOM    107  F   UNL A   1      52.985  27.399  29.630  1.00  0.00    -0.200 F 
ATOM    108  F   UNL A   1      52.936  25.553  27.623  1.00  0.00    -0.200 F 
ENDBRANCH  75  98
ENDBRANCH  49  50
ENDBRANCH  42  44
ENDBRANCH  41  42
ENDBRANCH  40  41
ENDBRANCH  39  40
ENDBRANCH  38  39
ENDBRANCH  37  38
ENDBRANCH  36  37
ENDBRANCH   1  36
TORSDOF 23
ENDMDL
MODEL 3
REMARK VINA RESULT:     -10.0     12.014     17.397
REMARK SMILES Cc1ccc2[nH]cc([C@@H](C(=O)OCCOCCOCCOCCOC(=O)c3ccc(-c4c5nc(c(-c6c(F)c(F)c(F)c(F)c6F)c6ccc([nH]6)c(-c6c(F)c(F)c(F)c(F)c6F)c6nc(c(-c7c(F)c(F)c(F)c(F)c7F)c7ccc4[nH]7)C=C6)C=C5)cc3)[NH+]3CCN(c4ccc(F)cc4)CC3)c2c1
REMARK SMILES IDX 18 1 17 2 16 3 15 4 14 5 13 6 12 7 10 8 11 9 9 10 8 11 1 12
REMARK SMILES IDX 2 13 3 14 104 15 4 16 103 17 5 18 6 19 7 20 90 22 91 23
REMARK SMILES IDX 102 24 92 26 101 27 93 28 94 29 95 30 100 31 96 32 99 33
REMARK SMILES IDX 97 34 98 35 19 36 20 37 21 38 22 39 23 40 24 41 25 42 26 43
REMARK SMILES IDX 27 44 28 45 89 46 29 47 88 48 30 49 31 50 32 51 82 52 33 53
REMARK SMILES IDX 87 54 81 55 83 56 34 57 86 58 80 59 79 60 35 62 67 63 47 64
REMARK SMILES IDX 66 65 48 66 51 67 65 68 84 69 49 70 50 71 64 73 85 74 52 75
REMARK SMILES IDX 36 76 37 77 45 78 38 79 39 80 43 81 46 82 40 83 41 84 44 85
REMARK SMILES IDX 42 86 68 87 69 88 77 89 70 90 71 91 75 92 78 93 72 94 73 95
REMARK SMILES IDX 76 96 74 97 53 98 54 99 62 100 55 101 56 102 60 103 63 104
REMARK SMILES IDX 57 105 58 106 61 107 59 108
REMARK H PARENT 6 21 90 25 83 61 51 72
REMARK Flexibility Score: inf
ROOT
ATOM      1  O   UNL A   1      32.044  33.456  27.282  1.00  0.00    -0.377 OA
ENDROOT
BRANCH   1   2
ATOM      2  C   UNL A   1      31.689  32.186  26.784  1.00  0.00     0.188 C 
BRANCH   2   3
ATOM      3  C   UNL A   1      32.544  31.019  27.265  1.00  0.00     0.188 C 
BRANCH   3   4
ATOM      4  O   UNL A   1      33.581  30.541  26.425  1.00  0.00    -0.376 OA
BRANCH   4   5
ATOM      5  C   UNL A   1      34.222  29.306  26.727  1.00  0.00     0.202 C 
BRANCH   5   6
ATOM      6  C   UNL A   1      34.224  28.146  25.705  1.00  0.00     0.261 C 
BRANCH   6   7
ATOM      7  O   UNL A   1      34.337  28.489  24.296  1.00  0.00    -0.459 OA
BRANCH   7   8
ATOM      8  C   UNL A   1      33.471  27.859  23.451  1.00  0.00     0.370 C 
ATOM      9  O   UNL A   1      33.230  28.299  22.324  1.00  0.00    -0.245 OA
BRANCH   8  10
ATOM     10  C   UNL A   1      32.771  26.569  23.988  1.00  0.00     0.328 C 
BRANCH  10  11
ATOM     11  C   UNL A   1      32.912  25.195  23.320  1.00  0.00     0.046 A 
ATOM     12  C   UNL A   1      33.415  21.909  27.238  1.00  0.00     0.044 C 
ATOM     13  C   UNL A   1      33.201  22.247  25.793  1.00  0.00    -0.050 A 
ATOM     14  C   UNL A   1      32.998  21.239  24.848  1.00  0.00     0.005 A 
ATOM     15  C   UNL A   1      33.206  23.597  25.394  1.00  0.00     0.014 A 
ATOM     16  C   UNL A   1      32.834  21.542  23.497  1.00  0.00     0.027 A 
ATOM     17  C   UNL A   1      33.035  23.938  24.036  1.00  0.00     0.009 A 
ATOM     18  C   UNL A   1      32.877  22.889  23.128  1.00  0.00     0.046 A 
ATOM     19  N   UNL A   1      32.765  23.451  21.888  1.00  0.00    -0.361 N 
ATOM     20  C   UNL A   1      32.803  24.815  21.989  1.00  0.00     0.094 A 
ATOM     21  H   UNL A   1      32.671  22.949  21.046  1.00  0.00     0.166 HD
ENDBRANCH  10  11
BRANCH  10  22
ATOM     22  N   UNL A   1      31.373  26.889  24.393  1.00  0.00    -0.316 N 
ATOM     23  C   UNL A   1      31.063  28.035  25.252  1.00  0.00     0.284 C 
ATOM     24  C   UNL A   1      30.343  26.714  23.372  1.00  0.00     0.284 C 
ATOM     25  H   UNL A   1      31.337  26.116  25.058  1.00  0.00     0.349 HD
ATOM     26  C   UNL A   1      30.642  29.358  24.568  1.00  0.00     0.178 C 
ATOM     27  C   UNL A   1      30.033  27.972  22.541  1.00  0.00     0.178 C 
ATOM     28  N   UNL A   1      29.788  29.137  23.402  1.00  0.00    -0.360 N 
BRANCH  28  29
ATOM     29  C   UNL A   1      29.222  30.240  22.782  1.00  0.00     0.037 A 
ATOM     30  C   UNL A   1      29.207  31.520  23.354  1.00  0.00     0.029 A 
ATOM     31  C   UNL A   1      28.654  30.064  21.515  1.00  0.00     0.029 A 
ATOM     32  C   UNL A   1      28.623  32.593  22.675  1.00  0.00     0.041 A 
ATOM     33  C   UNL A   1      28.061  31.127  20.839  1.00  0.00     0.041 A 
ATOM     34  C   UNL A   1      28.051  32.384  21.426  1.00  0.00     0.123 A 
ATOM     35  F   UNL A   1      27.483  33.409  20.778  1.00  0.00    -0.207 F 
ENDBRANCH  28  29
ENDBRANCH  10  22
ENDBRANCH   8  10
ENDBRANCH   7   8
ENDBRANCH   6   7
ENDBRANCH   5   6
ENDBRANCH   4   5
ENDBRANCH   3   4
ENDBRANCH   2   3
ENDBRANCH   1   2
BRANCH   1  36
ATOM     36  C   UNL A   1      33.132  33.544  28.179  1.00  0.00     0.188 C 
BRANCH  36  37
ATOM     37  C   UNL A   1      34.317  34.422  27.764  1.00  0.00     0.188 C 
BRANCH  37  38
ATOM     38  O   UNL A   1      35.532  33.698  27.654  1.00  0.00    -0.376 OA
BRANCH  38  39
ATOM     39  C   UNL A   1      35.724  32.496  28.382  1.00  0.00     0.202 C 
BRANCH  39  40
ATOM     40  C   UNL A   1      36.552  32.476  29.683  1.00  0.00     0.261 C 
BRANCH  40  41
ATOM     41  O   UNL A   1      36.199  31.536  30.706  1.00  0.00    -0.460 OA
BRANCH  41  42
ATOM     42  C   UNL A   1      36.640  30.265  30.584  1.00  0.00     0.338 C 
ATOM     43  O   UNL A   1      36.334  29.465  29.729  1.00  0.00    -0.246 OA
BRANCH  42  44
ATOM     44  C   UNL A   1      37.731  30.072  31.572  1.00  0.00     0.060 A 
ATOM     45  C   UNL A   1      37.424  29.477  32.802  1.00  0.00     0.016 A 
ATOM     46  C   UNL A   1      39.039  30.479  31.294  1.00  0.00     0.016 A 
ATOM     47  C   UNL A   1      38.411  29.330  33.776  1.00  0.00     0.010 A 
ATOM     48  C   UNL A   1      40.022  30.358  32.283  1.00  0.00     0.010 A 
ATOM     49  C   UNL A   1      39.700  29.823  33.543  1.00  0.00    -0.014 A 
BRANCH  49  50
ATOM     50  C   UNL A   1      40.623  29.993  34.693  1.00  0.00     0.031 A 
ATOM     51  C   UNL A   1      41.713  28.972  34.881  1.00  0.00     0.074 A 
ATOM     52  C   UNL A   1      40.538  31.052  35.517  1.00  0.00     0.049 A 
ATOM     53  N   UNL A   1      42.634  28.893  35.808  1.00  0.00    -0.248 NA
ATOM     54  C   UNL A   1      41.772  27.891  33.884  1.00  0.00     0.031 C 
ATOM     55  C   UNL A   1      39.560  32.132  35.407  1.00  0.00     0.029 A 
ATOM     56  N   UNL A   1      41.293  31.388  36.613  1.00  0.00    -0.354 N 
ATOM     57  C   UNL A   1      43.372  27.756  35.507  1.00  0.00     0.074 A 
ATOM     58  C   UNL A   1      42.774  27.156  34.337  1.00  0.00     0.031 C 
ATOM     59  C   UNL A   1      39.769  33.009  36.404  1.00  0.00     0.029 A 
ATOM     60  C   UNL A   1      40.872  32.534  37.240  1.00  0.00     0.049 A 
ATOM     61  H   UNL A   1      42.063  30.857  36.921  1.00  0.00     0.167 HD
ATOM     62  C   UNL A   1      44.460  27.262  36.145  1.00  0.00     0.037 A 
ATOM     63  C   UNL A   1      41.317  33.118  38.371  1.00  0.00     0.037 A 
ATOM     64  C   UNL A   1      45.051  27.859  37.313  1.00  0.00     0.049 A 
ATOM     65  C   UNL A   1      42.481  32.504  39.109  1.00  0.00     0.074 A 
ATOM     66  C   UNL A   1      46.157  27.443  38.030  1.00  0.00     0.029 A 
ATOM     67  N   UNL A   1      44.573  29.000  37.942  1.00  0.00    -0.354 N 
ATOM     68  N   UNL A   1      43.189  31.441  38.809  1.00  0.00    -0.248 NA
ATOM     69  C   UNL A   1      42.914  33.179  40.341  1.00  0.00     0.031 C 
ATOM     70  C   UNL A   1      46.311  28.293  39.129  1.00  0.00     0.029 A 
ATOM     71  C   UNL A   1      45.347  29.285  39.056  1.00  0.00     0.049 A 
ATOM     72  H   UNL A   1      43.799  29.529  37.641  1.00  0.00     0.167 HD
ATOM     73  C   UNL A   1      44.169  31.342  39.790  1.00  0.00     0.074 A 
ATOM     74  C   UNL A   1      43.974  32.462  40.685  1.00  0.00     0.031 C 
ATOM     75  C   UNL A   1      45.145  30.411  39.934  1.00  0.00     0.037 A 
BRANCH  62  76
ATOM     76  C   UNL A   1      45.057  25.990  35.613  1.00  0.00     0.064 A 
ATOM     77  C   UNL A   1      44.660  24.728  36.081  1.00  0.00     0.173 A 
ATOM     78  C   UNL A   1      46.030  26.034  34.602  1.00  0.00     0.173 A 
ATOM     79  F   UNL A   1      43.747  24.628  37.060  1.00  0.00    -0.203 F 
ATOM     80  C   UNL A   1      45.233  23.563  35.579  1.00  0.00     0.198 A 
ATOM     81  C   UNL A   1      46.575  24.866  34.077  1.00  0.00     0.198 A 
ATOM     82  F   UNL A   1      46.447  27.213  34.116  1.00  0.00    -0.203 F 
ATOM     83  F   UNL A   1      44.878  22.373  36.083  1.00  0.00    -0.200 F 
ATOM     84  C   UNL A   1      46.184  23.633  34.573  1.00  0.00     0.200 A 
ATOM     85  F   UNL A   1      47.484  24.936  33.095  1.00  0.00    -0.200 F 
ATOM     86  F   UNL A   1      46.729  22.510  34.085  1.00  0.00    -0.200 F 
ENDBRANCH  62  76
BRANCH  63  87
ATOM     87  C   UNL A   1      40.656  34.347  38.887  1.00  0.00     0.064 A 
ATOM     88  C   UNL A   1      41.138  35.623  38.564  1.00  0.00     0.173 A 
ATOM     89  C   UNL A   1      39.547  34.269  39.744  1.00  0.00     0.173 A 
ATOM     90  F   UNL A   1      42.212  35.752  37.772  1.00  0.00    -0.203 F 
ATOM     91  C   UNL A   1      40.553  36.772  39.097  1.00  0.00     0.198 A 
ATOM     92  C   UNL A   1      38.943  35.419  40.249  1.00  0.00     0.198 A 
ATOM     93  F   UNL A   1      39.049  33.074  40.091  1.00  0.00    -0.203 F 
ATOM     94  F   UNL A   1      41.072  37.975  38.818  1.00  0.00    -0.200 F 
ATOM     95  C   UNL A   1      39.453  36.668  39.934  1.00  0.00     0.200 A 
ATOM     96  F   UNL A   1      37.873  35.314  41.049  1.00  0.00    -0.200 F 
ATOM     97  F   UNL A   1      38.891  37.772  40.445  1.00  0.00    -0.200 F 
ENDBRANCH  63  87
BRANCH  75  98
ATOM     98  C   UNL A   1      46.114  30.592  41.070  1.00  0.00     0.064 A 
ATOM     99  C   UNL A   1      47.285  31.354  40.936  1.00  0.00     0.173 A 
ATOM    100  C   UNL A   1      45.848  30.018  42.324  1.00  0.00     0.173 A 
ATOM    101  F   UNL A   1      47.593  31.917  39.758  1.00  0.00    -0.203 F 
ATOM    102  C   UNL A   1      48.170  31.500  42.001  1.00  0.00     0.198 A 
ATOM    103  C   UNL A   1      46.716  30.199  43.397  1.00  0.00     0.198 A 
ATOM    104  F   UNL A   1      44.738  29.290  42.512  1.00  0.00    -0.203 F 
ATOM    105  F   UNL A   1      49.314  32.179  41.831  1.00  0.00    -0.200 F 
ATOM    106  C   UNL A   1      47.883  30.929  43.232  1.00  0.00     0.200 A 
ATOM    107  F   UNL A   1      46.424  29.664  44.591  1.00  0.00    -0.200 F 
ATOM    108  F   UNL A   1      48.733  31.076  44.256  1.00  0.00    -0.200 F 
ENDBRANCH  75  98
ENDBRANCH  49  50
ENDBRANCH  42  44
ENDBRANCH  41  42
ENDBRANCH  40  41
ENDBRANCH  39  40
ENDBRANCH  38  39
ENDBRANCH  37  38
ENDBRANCH  36  37
ENDBRANCH   1  36
TORSDOF 23
ENDMDL
