MODEL 1
REMARK VINA RESULT:     -10.9      0.000      0.000
REMARK SMILES COC(=O)[C@H]1CCN(S(=O)(=O)N2CCC[C@H](C(=O)OCCOCCOCCOCCOC(=O)c3ccc(-c4c5nc(c(-c6c(F)c(F)c(F)c(F)c6F)c6ccc([nH]6)c(-c6c(F)c(F)c(F)c(F)c6F)c6nc(c(-c7c(F)c(F)c(F)c(F)c7F)c7ccc4[nH]7)C=C6)C=C5)cc3)C2)C1
REMARK SMILES IDX 24 1 23 2 22 3 21 4 20 5 19 6 17 7 18 8 16 9 12 10 13 11
REMARK SMILES IDX 97 12 14 13 15 14 9 15 10 16 11 17 8 18 5 19 6 20 98 21 7 22
REMARK SMILES IDX 3 23 4 24 2 25 1 26 25 27 26 28 27 29 28 30 29 31 30 32
REMARK SMILES IDX 31 33 32 34 33 35 34 36 35 37 96 38 36 39 95 40 37 41 38 42
REMARK SMILES IDX 39 43 89 44 40 45 94 46 88 47 90 48 41 49 93 50 87 51 86 52
REMARK SMILES IDX 42 54 74 55 54 56 73 57 55 58 58 59 72 60 91 61 56 62 57 63
REMARK SMILES IDX 71 65 92 66 59 67 43 68 44 69 52 70 45 71 46 72 50 73 53 74
REMARK SMILES IDX 47 75 48 76 51 77 49 78 75 79 76 80 84 81 77 82 78 83 82 84
REMARK SMILES IDX 85 85 79 86 80 87 83 88 81 89 60 90 61 91 69 92 62 93 63 94
REMARK SMILES IDX 67 95 70 96 64 97 65 98 68 99 66 100
REMARK H PARENT 90 53 58 64
REMARK Flexibility Score: inf
ROOT
ATOM      1  C   UNL A   1      41.642  20.229  26.517  1.00  0.00     0.188 C 
ENDROOT
BRANCH   1   2
ATOM      2  C   UNL A   1      41.025  21.582  26.128  1.00  0.00     0.188 C 
BRANCH   2   3
ATOM      3  O   UNL A   1      39.700  21.782  26.552  1.00  0.00    -0.376 OA
BRANCH   3   4
ATOM      4  C   UNL A   1      38.961  22.940  26.206  1.00  0.00     0.202 C 
BRANCH   4   5
ATOM      5  C   UNL A   1      37.495  22.972  25.733  1.00  0.00     0.261 C 
BRANCH   5   6
ATOM      6  O   UNL A   1      36.656  21.857  26.044  1.00  0.00    -0.463 OA
BRANCH   6   7
ATOM      7  C   UNL A   1      35.339  22.146  26.096  1.00  0.00     0.310 C 
ATOM      8  O   UNL A   1      34.754  22.493  27.123  1.00  0.00    -0.252 OA
BRANCH   7   9
ATOM      9  C   UNL A   1      34.582  22.019  24.788  1.00  0.00     0.114 C 
ATOM     10  N   UNL A   1      32.521  23.051  25.627  1.00  0.00    -0.188 NA
ATOM     11  C   UNL A   1      31.659  21.916  25.232  1.00  0.00     0.103 C 
ATOM     12  C   UNL A   1      33.697  23.239  24.754  1.00  0.00     0.118 C 
ATOM     13  C   UNL A   1      32.482  20.631  25.202  1.00  0.00     0.018 C 
ATOM     14  C   UNL A   1      33.747  20.804  24.378  1.00  0.00     0.018 C 
BRANCH  10  15
ATOM     15  S   UNL A   1      31.749  24.453  26.139  1.00  0.00     0.282 S 
ATOM     16  O   UNL A   1      32.705  25.528  26.190  1.00  0.00    -0.195 OA
ATOM     17  O   UNL A   1      30.935  24.114  27.289  1.00  0.00    -0.195 OA
BRANCH  15  18
ATOM     18  N   UNL A   1      30.712  24.745  24.823  1.00  0.00    -0.188 NA
ATOM     19  C   UNL A   1      30.187  26.736  23.570  1.00  0.00     0.116 C 
ATOM     20  C   UNL A   1      31.478  26.145  23.047  1.00  0.00     0.033 C 
ATOM     21  C   UNL A   1      29.991  26.055  24.918  1.00  0.00     0.118 C 
ATOM     22  C   UNL A   1      31.320  24.701  23.459  1.00  0.00     0.104 C 
BRANCH  19  23
ATOM     23  C   UNL A   1      30.199  28.226  23.747  1.00  0.00     0.310 C 
ATOM     24  O   UNL A   1      30.821  28.785  24.639  1.00  0.00    -0.252 OA
BRANCH  23  25
ATOM     25  O   UNL A   1      29.521  28.854  22.751  1.00  0.00    -0.469 OA
ATOM     26  C   UNL A   1      30.332  29.690  21.929  1.00  0.00     0.282 C 
ENDBRANCH  23  25
ENDBRANCH  19  23
ENDBRANCH  15  18
ENDBRANCH  10  15
ENDBRANCH   7   9
ENDBRANCH   6   7
ENDBRANCH   5   6
ENDBRANCH   4   5
ENDBRANCH   3   4
ENDBRANCH   2   3
ENDBRANCH   1   2
BRANCH   1  27
ATOM     27  O   UNL A   1      42.097  19.351  25.497  1.00  0.00    -0.377 OA
BRANCH  27  28
ATOM     28  C   UNL A   1      43.437  18.871  25.499  1.00  0.00     0.188 C 
BRANCH  28  29
ATOM     29  C   UNL A   1      44.417  19.303  24.391  1.00  0.00     0.188 C 
BRANCH  29  30
ATOM     30  O   UNL A   1      45.302  20.344  24.752  1.00  0.00    -0.376 OA
BRANCH  30  31
ATOM     31  C   UNL A   1      44.754  21.564  25.228  1.00  0.00     0.202 C 
BRANCH  31  32
ATOM     32  C   UNL A   1      44.336  22.633  24.203  1.00  0.00     0.261 C 
BRANCH  32  33
ATOM     33  O   UNL A   1      43.613  23.766  24.719  1.00  0.00    -0.460 OA
BRANCH  33  34
ATOM     34  C   UNL A   1      44.330  24.839  25.110  1.00  0.00     0.338 C 
ATOM     35  O   UNL A   1      45.413  25.200  24.690  1.00  0.00    -0.246 OA
BRANCH  34  36
ATOM     36  C   UNL A   1      43.489  25.642  26.021  1.00  0.00     0.060 A 
ATOM     37  C   UNL A   1      43.815  26.988  26.226  1.00  0.00     0.016 A 
ATOM     38  C   UNL A   1      42.415  25.061  26.699  1.00  0.00     0.016 A 
ATOM     39  C   UNL A   1      43.101  27.746  27.150  1.00  0.00     0.010 A 
ATOM     40  C   UNL A   1      41.712  25.818  27.642  1.00  0.00     0.010 A 
ATOM     41  C   UNL A   1      42.082  27.149  27.904  1.00  0.00    -0.014 A 
BRANCH  41  42
ATOM     42  C   UNL A   1      41.565  27.868  29.094  1.00  0.00     0.031 A 
ATOM     43  C   UNL A   1      42.320  27.747  30.390  1.00  0.00     0.074 A 
ATOM     44  C   UNL A   1      40.490  28.672  29.006  1.00  0.00     0.049 A 
ATOM     45  N   UNL A   1      42.083  28.310  31.548  1.00  0.00    -0.248 NA
ATOM     46  C   UNL A   1      43.507  26.877  30.380  1.00  0.00     0.031 C 
ATOM     47  C   UNL A   1      39.702  28.901  27.798  1.00  0.00     0.029 A 
ATOM     48  N   UNL A   1      39.881  29.449  29.960  1.00  0.00    -0.354 N 
ATOM     49  C   UNL A   1      43.081  27.854  32.401  1.00  0.00     0.074 A 
ATOM     50  C   UNL A   1      43.909  26.946  31.639  1.00  0.00     0.031 C 
ATOM     51  C   UNL A   1      38.711  29.764  28.082  1.00  0.00     0.029 A 
ATOM     52  C   UNL A   1      38.776  30.122  29.498  1.00  0.00     0.049 A 
ATOM     53  H   UNL A   1      40.205  29.518  30.887  1.00  0.00     0.167 HD
ATOM     54  C   UNL A   1      43.290  28.170  33.701  1.00  0.00     0.037 A 
ATOM     55  C   UNL A   1      37.910  30.920  30.151  1.00  0.00     0.037 A 
ATOM     56  C   UNL A   1      42.470  29.083  34.452  1.00  0.00     0.049 A 
ATOM     57  C   UNL A   1      38.135  31.204  31.617  1.00  0.00     0.074 A 
ATOM     58  C   UNL A   1      42.622  29.498  35.764  1.00  0.00     0.029 A 
ATOM     59  N   UNL A   1      41.335  29.713  33.963  1.00  0.00    -0.354 N 
ATOM     60  N   UNL A   1      39.107  30.807  32.403  1.00  0.00    -0.248 NA
ATOM     61  C   UNL A   1      37.143  32.061  32.283  1.00  0.00     0.031 C 
ATOM     62  C   UNL A   1      41.538  30.321  36.090  1.00  0.00     0.029 A 
ATOM     63  C   UNL A   1      40.755  30.482  34.959  1.00  0.00     0.049 A 
ATOM     64  H   UNL A   1      40.992  29.626  33.044  1.00  0.00     0.167 HD
ATOM     65  C   UNL A   1      38.863  31.392  33.641  1.00  0.00     0.074 A 
ATOM     66  C   UNL A   1      37.665  32.190  33.494  1.00  0.00     0.031 C 
ATOM     67  C   UNL A   1      39.565  31.279  34.797  1.00  0.00     0.037 A 
BRANCH  54  68
ATOM     68  C   UNL A   1      44.430  27.496  34.412  1.00  0.00     0.064 A 
ATOM     69  C   UNL A   1      45.704  28.076  34.495  1.00  0.00     0.173 A 
ATOM     70  C   UNL A   1      44.223  26.270  35.065  1.00  0.00     0.173 A 
ATOM     71  F   UNL A   1      45.960  29.238  33.877  1.00  0.00    -0.203 F 
ATOM     72  C   UNL A   1      46.734  27.443  35.189  1.00  0.00     0.198 A 
ATOM     73  C   UNL A   1      45.245  25.659  35.785  1.00  0.00     0.198 A 
ATOM     74  F   UNL A   1      43.023  25.674  35.018  1.00  0.00    -0.203 F 
ATOM     75  F   UNL A   1      47.956  27.993  35.219  1.00  0.00    -0.200 F 
ATOM     76  C   UNL A   1      46.501  26.242  35.840  1.00  0.00     0.200 A 
ATOM     77  F   UNL A   1      45.012  24.506  36.426  1.00  0.00    -0.200 F 
ATOM     78  F   UNL A   1      47.489  25.643  36.521  1.00  0.00    -0.200 F 
ENDBRANCH  54  68
BRANCH  55  79
ATOM     79  C   UNL A   1      36.737  31.501  29.443  1.00  0.00     0.064 A 
ATOM     80  C   UNL A   1      35.663  30.699  29.032  1.00  0.00     0.173 A 
ATOM     81  C   UNL A   1      36.695  32.863  29.109  1.00  0.00     0.173 A 
ATOM     82  F   UNL A   1      35.666  29.385  29.302  1.00  0.00    -0.203 F 
ATOM     83  C   UNL A   1      34.611  31.229  28.285  1.00  0.00     0.198 A 
ATOM     84  C   UNL A   1      35.625  33.399  28.394  1.00  0.00     0.198 A 
ATOM     85  F   UNL A   1      37.697  33.677  29.473  1.00  0.00    -0.203 F 
ATOM     86  F   UNL A   1      33.635  30.424  27.844  1.00  0.00    -0.200 F 
ATOM     87  C   UNL A   1      34.591  32.579  27.971  1.00  0.00     0.200 A 
ATOM     88  F   UNL A   1      35.605  34.706  28.102  1.00  0.00    -0.200 F 
ATOM     89  F   UNL A   1      33.584  33.085  27.245  1.00  0.00    -0.200 F 
ENDBRANCH  55  79
BRANCH  67  90
ATOM     90  C   UNL A   1      39.083  32.076  35.977  1.00  0.00     0.064 A 
ATOM     91  C   UNL A   1      39.492  33.400  36.199  1.00  0.00     0.173 A 
ATOM     92  C   UNL A   1      38.184  31.509  36.895  1.00  0.00     0.173 A 
ATOM     93  F   UNL A   1      40.357  33.990  35.359  1.00  0.00    -0.203 F 
ATOM     94  C   UNL A   1      39.059  34.107  37.318  1.00  0.00     0.198 A 
ATOM     95  C   UNL A   1      37.720  32.233  37.991  1.00  0.00     0.198 A 
ATOM     96  F   UNL A   1      37.747  30.251  36.728  1.00  0.00    -0.203 F 
ATOM     97  F   UNL A   1      39.522  35.343  37.547  1.00  0.00    -0.200 F 
ATOM     98  C   UNL A   1      38.171  33.525  38.209  1.00  0.00     0.200 A 
ATOM     99  F   UNL A   1      36.845  31.676  38.838  1.00  0.00    -0.200 F 
ATOM    100  F   UNL A   1      37.755  34.208  39.285  1.00  0.00    -0.200 F 
ENDBRANCH  67  90
ENDBRANCH  41  42
ENDBRANCH  34  36
ENDBRANCH  33  34
ENDBRANCH  32  33
ENDBRANCH  31  32
ENDBRANCH  30  31
ENDBRANCH  29  30
ENDBRANCH  28  29
ENDBRANCH  27  28
ENDBRANCH   1  27
TORSDOF 24
ENDMDL
MODEL 2
REMARK VINA RESULT:     -10.7      0.987      7.046
REMARK SMILES COC(=O)[C@H]1CCN(S(=O)(=O)N2CCC[C@H](C(=O)OCCOCCOCCOCCOC(=O)c3ccc(-c4c5nc(c(-c6c(F)c(F)c(F)c(F)c6F)c6ccc([nH]6)c(-c6c(F)c(F)c(F)c(F)c6F)c6nc(c(-c7c(F)c(F)c(F)c(F)c7F)c7ccc4[nH]7)C=C6)C=C5)cc3)C2)C1
REMARK SMILES IDX 24 1 23 2 22 3 21 4 20 5 19 6 17 7 18 8 16 9 12 10 13 11
REMARK SMILES IDX 97 12 14 13 15 14 9 15 10 16 11 17 8 18 5 19 6 20 98 21 7 22
REMARK SMILES IDX 3 23 4 24 2 25 1 26 25 27 26 28 27 29 28 30 29 31 30 32
REMARK SMILES IDX 31 33 32 34 33 35 34 36 35 37 96 38 36 39 95 40 37 41 38 42
REMARK SMILES IDX 39 43 89 44 40 45 94 46 88 47 90 48 41 49 93 50 87 51 86 52
REMARK SMILES IDX 42 54 74 55 54 56 73 57 55 58 58 59 72 60 91 61 56 62 57 63
REMARK SMILES IDX 71 65 92 66 59 67 43 68 44 69 52 70 45 71 46 72 50 73 53 74
REMARK SMILES IDX 47 75 48 76 51 77 49 78 75 79 76 80 84 81 77 82 78 83 82 84
REMARK SMILES IDX 85 85 79 86 80 87 83 88 81 89 60 90 61 91 69 92 62 93 63 94
REMARK SMILES IDX 67 95 70 96 64 97 65 98 68 99 66 100
REMARK H PARENT 90 53 58 64
REMARK Flexibility Score: inf
ROOT
ATOM      1  C   UNL A   1      41.486  20.501  26.399  1.00  0.00     0.188 C 
ENDROOT
BRANCH   1   2
ATOM      2  C   UNL A   1      40.472  21.469  25.769  1.00  0.00     0.188 C 
BRANCH   2   3
ATOM      3  O   UNL A   1      39.430  21.883  26.617  1.00  0.00    -0.376 OA
BRANCH   3   4
ATOM      4  C   UNL A   1      39.110  23.249  26.812  1.00  0.00     0.202 C 
BRANCH   4   5
ATOM      5  C   UNL A   1      37.944  24.010  26.151  1.00  0.00     0.261 C 
BRANCH   5   6
ATOM      6  O   UNL A   1      37.144  23.322  25.186  1.00  0.00    -0.463 OA
BRANCH   6   7
ATOM      7  C   UNL A   1      35.859  23.728  25.134  1.00  0.00     0.310 C 
ATOM      8  O   UNL A   1      35.219  24.104  26.117  1.00  0.00    -0.252 OA
BRANCH   7   9
ATOM      9  C   UNL A   1      35.210  23.699  23.763  1.00  0.00     0.114 C 
ATOM     10  N   UNL A   1      33.030  24.518  24.535  1.00  0.00    -0.188 NA
ATOM     11  C   UNL A   1      32.275  23.385  23.957  1.00  0.00     0.103 C 
ATOM     12  C   UNL A   1      34.253  24.864  23.783  1.00  0.00     0.118 C 
ATOM     13  C   UNL A   1      33.179  22.159  23.862  1.00  0.00     0.018 C 
ATOM     14  C   UNL A   1      34.488  22.490  23.164  1.00  0.00     0.018 C 
BRANCH  10  15
ATOM     15  S   UNL A   1      32.133  25.812  25.124  1.00  0.00     0.282 S 
ATOM     16  O   UNL A   1      32.689  26.237  26.382  1.00  0.00    -0.195 OA
ATOM     17  O   UNL A   1      30.732  25.471  24.996  1.00  0.00    -0.195 OA
BRANCH  15  18
ATOM     18  N   UNL A   1      32.498  27.004  23.968  1.00  0.00    -0.188 NA
ATOM     19  C   UNL A   1      31.153  28.676  22.868  1.00  0.00     0.116 C 
ATOM     20  C   UNL A   1      31.563  29.185  24.233  1.00  0.00     0.033 C 
ATOM     21  C   UNL A   1      31.422  27.178  22.939  1.00  0.00     0.118 C 
ATOM     22  C   UNL A   1      32.810  28.372  24.480  1.00  0.00     0.104 C 
BRANCH  19  23
ATOM     23  C   UNL A   1      29.719  28.921  22.505  1.00  0.00     0.310 C 
ATOM     24  O   UNL A   1      28.782  28.474  23.153  1.00  0.00    -0.252 OA
BRANCH  23  25
ATOM     25  O   UNL A   1      29.607  29.762  21.443  1.00  0.00    -0.469 OA
ATOM     26  C   UNL A   1      28.385  30.494  21.404  1.00  0.00     0.282 C 
ENDBRANCH  23  25
ENDBRANCH  19  23
ENDBRANCH  15  18
ENDBRANCH  10  15
ENDBRANCH   7   9
ENDBRANCH   6   7
ENDBRANCH   5   6
ENDBRANCH   4   5
ENDBRANCH   3   4
ENDBRANCH   2   3
ENDBRANCH   1   2
BRANCH   1  27
ATOM     27  O   UNL A   1      41.920  19.368  25.660  1.00  0.00    -0.377 OA
BRANCH  27  28
ATOM     28  C   UNL A   1      43.251  18.881  25.795  1.00  0.00     0.188 C 
BRANCH  28  29
ATOM     29  C   UNL A   1      44.262  19.061  24.647  1.00  0.00     0.188 C 
BRANCH  29  30
ATOM     30  O   UNL A   1      45.121  20.176  24.779  1.00  0.00    -0.376 OA
BRANCH  30  31
ATOM     31  C   UNL A   1      44.582  21.389  25.283  1.00  0.00     0.202 C 
BRANCH  31  32
ATOM     32  C   UNL A   1      44.100  22.454  24.283  1.00  0.00     0.261 C 
BRANCH  32  33
ATOM     33  O   UNL A   1      43.430  23.598  24.840  1.00  0.00    -0.460 OA
BRANCH  33  34
ATOM     34  C   UNL A   1      44.187  24.663  25.176  1.00  0.00     0.338 C 
ATOM     35  O   UNL A   1      45.248  25.002  24.686  1.00  0.00    -0.246 OA
BRANCH  34  36
ATOM     36  C   UNL A   1      43.417  25.487  26.130  1.00  0.00     0.060 A 
ATOM     37  C   UNL A   1      43.674  26.863  26.190  1.00  0.00     0.016 A 
ATOM     38  C   UNL A   1      42.482  24.902  26.986  1.00  0.00     0.016 A 
ATOM     39  C   UNL A   1      43.034  27.650  27.143  1.00  0.00     0.010 A 
ATOM     40  C   UNL A   1      41.856  25.691  27.957  1.00  0.00     0.010 A 
ATOM     41  C   UNL A   1      42.165  27.058  28.069  1.00  0.00    -0.014 A 
BRANCH  41  42
ATOM     42  C   UNL A   1      41.757  27.840  29.261  1.00  0.00     0.031 A 
ATOM     43  C   UNL A   1      40.478  28.633  29.196  1.00  0.00     0.074 A 
ATOM     44  C   UNL A   1      42.466  27.789  30.402  1.00  0.00     0.049 A 
ATOM     45  N   UNL A   1      39.901  29.360  30.118  1.00  0.00    -0.248 NA
ATOM     46  C   UNL A   1      39.749  28.598  27.918  1.00  0.00     0.031 C 
ATOM     47  C   UNL A   1      43.695  27.025  30.599  1.00  0.00     0.029 A 
ATOM     48  N   UNL A   1      42.245  28.392  31.615  1.00  0.00    -0.354 N 
ATOM     49  C   UNL A   1      38.752  29.874  29.530  1.00  0.00     0.074 A 
ATOM     50  C   UNL A   1      38.727  29.403  28.163  1.00  0.00     0.031 C 
ATOM     51  C   UNL A   1      44.122  27.205  31.861  1.00  0.00     0.029 A 
ATOM     52  C   UNL A   1      43.213  28.120  32.550  1.00  0.00     0.049 A 
ATOM     53  H   UNL A   1      41.466  28.965  31.798  1.00  0.00     0.167 HD
ATOM     54  C   UNL A   1      37.802  30.664  30.083  1.00  0.00     0.037 A 
ATOM     55  C   UNL A   1      43.355  28.575  33.810  1.00  0.00     0.037 A 
ATOM     56  C   UNL A   1      37.825  31.122  31.447  1.00  0.00     0.049 A 
ATOM     57  C   UNL A   1      42.310  29.505  34.378  1.00  0.00     0.074 A 
ATOM     58  C   UNL A   1      36.889  31.895  32.113  1.00  0.00     0.029 A 
ATOM     59  N   UNL A   1      38.844  30.862  32.351  1.00  0.00    -0.354 N 
ATOM     60  N   UNL A   1      41.204  29.948  33.831  1.00  0.00    -0.248 NA
ATOM     61  C   UNL A   1      42.532  29.989  35.748  1.00  0.00     0.031 C 
ATOM     62  C   UNL A   1      37.377  32.163  33.396  1.00  0.00     0.029 A 
ATOM     63  C   UNL A   1      38.578  31.492  33.557  1.00  0.00     0.049 A 
ATOM     64  H   UNL A   1      39.638  30.311  32.164  1.00  0.00     0.167 HD
ATOM     65  C   UNL A   1      40.583  30.730  34.798  1.00  0.00     0.074 A 
ATOM     66  C   UNL A   1      41.426  30.680  35.975  1.00  0.00     0.031 C 
ATOM     67  C   UNL A   1      39.422  31.428  34.723  1.00  0.00     0.037 A 
BRANCH  54  68
ATOM     68  C   UNL A   1      36.670  31.119  29.205  1.00  0.00     0.064 A 
ATOM     69  C   UNL A   1      35.629  30.259  28.825  1.00  0.00     0.173 A 
ATOM     70  C   UNL A   1      36.604  32.456  28.781  1.00  0.00     0.173 A 
ATOM     71  F   UNL A   1      35.650  28.969  29.189  1.00  0.00    -0.203 F 
ATOM     72  C   UNL A   1      34.574  30.717  28.036  1.00  0.00     0.198 A 
ATOM     73  C   UNL A   1      35.533  32.916  28.021  1.00  0.00     0.198 A 
ATOM     74  F   UNL A   1      37.573  33.320  29.117  1.00  0.00    -0.203 F 
ATOM     75  F   UNL A   1      33.613  29.868  27.647  1.00  0.00    -0.200 F 
ATOM     76  C   UNL A   1      34.523  32.046  27.644  1.00  0.00     0.200 A 
ATOM     77  F   UNL A   1      35.478  34.205  27.657  1.00  0.00    -0.200 F 
ATOM     78  F   UNL A   1      33.500  32.488  26.899  1.00  0.00    -0.200 F 
ENDBRANCH  54  68
BRANCH  55  79
ATOM     79  C   UNL A   1      44.535  28.180  34.626  1.00  0.00     0.064 A 
ATOM     80  C   UNL A   1      44.496  27.061  35.471  1.00  0.00     0.173 A 
ATOM     81  C   UNL A   1      45.709  28.949  34.623  1.00  0.00     0.173 A 
ATOM     82  F   UNL A   1      43.389  26.306  35.533  1.00  0.00    -0.203 F 
ATOM     83  C   UNL A   1      45.568  26.749  36.306  1.00  0.00     0.198 A 
ATOM     84  C   UNL A   1      46.794  28.616  35.432  1.00  0.00     0.198 A 
ATOM     85  F   UNL A   1      45.801  30.033  33.838  1.00  0.00    -0.203 F 
ATOM     86  F   UNL A   1      45.474  25.717  37.156  1.00  0.00    -0.200 F 
ATOM     87  C   UNL A   1      46.718  27.524  36.283  1.00  0.00     0.200 A 
ATOM     88  F   UNL A   1      47.906  29.362  35.397  1.00  0.00    -0.200 F 
ATOM     89  F   UNL A   1      47.744  27.228  37.092  1.00  0.00    -0.200 F 
ENDBRANCH  55  79
BRANCH  67  90
ATOM     90  C   UNL A   1      38.971  32.152  35.961  1.00  0.00     0.064 A 
ATOM     91  C   UNL A   1      39.309  33.493  36.204  1.00  0.00     0.173 A 
ATOM     92  C   UNL A   1      38.176  31.498  36.915  1.00  0.00     0.173 A 
ATOM     93  F   UNL A   1      40.075  34.166  35.330  1.00  0.00    -0.203 F 
ATOM     94  C   UNL A   1      38.909  34.134  37.374  1.00  0.00     0.198 A 
ATOM     95  C   UNL A   1      37.743  32.154  38.065  1.00  0.00     0.198 A 
ATOM     96  F   UNL A   1      37.810  30.220  36.731  1.00  0.00    -0.203 F 
ATOM     97  F   UNL A   1      39.307  35.390  37.617  1.00  0.00    -0.200 F 
ATOM     98  C   UNL A   1      38.123  33.465  38.300  1.00  0.00     0.200 A 
ATOM     99  F   UNL A   1      36.965  31.513  38.947  1.00  0.00    -0.200 F 
ATOM    100  F   UNL A   1      37.739  34.084  39.426  1.00  0.00    -0.200 F 
ENDBRANCH  67  90
ENDBRANCH  41  42
ENDBRANCH  34  36
ENDBRANCH  33  34
ENDBRANCH  32  33
ENDBRANCH  31  32
ENDBRANCH  30  31
ENDBRANCH  29  30
ENDBRANCH  28  29
ENDBRANCH  27  28
ENDBRANCH   1  27
TORSDOF 24
ENDMDL
MODEL 3
REMARK VINA RESULT:     -10.7      5.111      7.760
REMARK SMILES COC(=O)[C@H]1CCN(S(=O)(=O)N2CCC[C@H](C(=O)OCCOCCOCCOCCOC(=O)c3ccc(-c4c5nc(c(-c6c(F)c(F)c(F)c(F)c6F)c6ccc([nH]6)c(-c6c(F)c(F)c(F)c(F)c6F)c6nc(c(-c7c(F)c(F)c(F)c(F)c7F)c7ccc4[nH]7)C=C6)C=C5)cc3)C2)C1
REMARK SMILES IDX 24 1 23 2 22 3 21 4 20 5 19 6 17 7 18 8 16 9 12 10 13 11
REMARK SMILES IDX 97 12 14 13 15 14 9 15 10 16 11 17 8 18 5 19 6 20 98 21 7 22
REMARK SMILES IDX 3 23 4 24 2 25 1 26 25 27 26 28 27 29 28 30 29 31 30 32
REMARK SMILES IDX 31 33 32 34 33 35 34 36 35 37 96 38 36 39 95 40 37 41 38 42
REMARK SMILES IDX 39 43 89 44 40 45 94 46 88 47 90 48 41 49 93 50 87 51 86 52
REMARK SMILES IDX 42 54 74 55 54 56 73 57 55 58 58 59 72 60 91 61 56 62 57 63
REMARK SMILES IDX 71 65 92 66 59 67 43 68 44 69 52 70 45 71 46 72 50 73 53 74
REMARK SMILES IDX 47 75 48 76 51 77 49 78 75 79 76 80 84 81 77 82 78 83 82 84
REMARK SMILES IDX 85 85 79 86 80 87 83 88 81 89 60 90 61 91 69 92 62 93 63 94
REMARK SMILES IDX 67 95 70 96 64 97 65 98 68 99 66 100
REMARK H PARENT 90 53 58 64
REMARK Flexibility Score: inf
ROOT
ATOM      1  C   UNL A   1      38.049  23.067  25.985  1.00  0.00     0.188 C 
ENDROOT
BRANCH   1   2
ATOM      2  C   UNL A   1      37.832  21.837  25.090  1.00  0.00     0.188 C 
BRANCH   2   3
ATOM      3  O   UNL A   1      36.977  20.853  25.617  1.00  0.00    -0.376 OA
BRANCH   3   4
ATOM      4  C   UNL A   1      35.732  20.534  25.021  1.00  0.00     0.202 C 
BRANCH   4   5
ATOM      5  C   UNL A   1      34.400  21.275  25.249  1.00  0.00     0.261 C 
BRANCH   5   6
ATOM      6  O   UNL A   1      34.308  22.645  24.850  1.00  0.00    -0.463 OA
BRANCH   6   7
ATOM      7  C   UNL A   1      34.410  22.847  23.520  1.00  0.00     0.310 C 
ATOM      8  O   UNL A   1      35.417  23.293  22.970  1.00  0.00    -0.252 OA
BRANCH   7   9
ATOM      9  C   UNL A   1      33.184  22.489  22.701  1.00  0.00     0.114 C 
ATOM     10  N   UNL A   1      32.305  24.777  22.610  1.00  0.00    -0.188 NA
ATOM     11  C   UNL A   1      30.979  24.408  23.151  1.00  0.00     0.103 C 
ATOM     12  C   UNL A   1      32.952  23.701  21.834  1.00  0.00     0.118 C 
ATOM     13  C   UNL A   1      31.107  23.160  24.020  1.00  0.00     0.018 C 
ATOM     14  C   UNL A   1      31.841  22.049  23.287  1.00  0.00     0.018 C 
BRANCH  10  15
ATOM     15  S   UNL A   1      32.474  26.334  21.998  1.00  0.00     0.282 S 
ATOM     16  O   UNL A   1      31.173  26.856  21.672  1.00  0.00    -0.195 OA
ATOM     17  O   UNL A   1      33.543  26.311  21.022  1.00  0.00    -0.195 OA
BRANCH  15  18
ATOM     18  N   UNL A   1      33.031  27.158  23.378  1.00  0.00    -0.188 NA
ATOM     19  C   UNL A   1      32.333  27.134  25.686  1.00  0.00     0.116 C 
ATOM     20  C   UNL A   1      33.243  25.953  25.428  1.00  0.00     0.033 C 
ATOM     21  C   UNL A   1      31.926  27.594  24.291  1.00  0.00     0.118 C 
ATOM     22  C   UNL A   1      34.026  26.448  24.236  1.00  0.00     0.104 C 
BRANCH  19  23
ATOM     23  C   UNL A   1      31.111  26.827  26.499  1.00  0.00     0.310 C 
ATOM     24  O   UNL A   1      30.269  26.009  26.153  1.00  0.00    -0.252 OA
BRANCH  23  25
ATOM     25  O   UNL A   1      31.118  27.492  27.684  1.00  0.00    -0.469 OA
ATOM     26  C   UNL A   1      31.753  28.767  27.634  1.00  0.00     0.282 C 
ENDBRANCH  23  25
ENDBRANCH  19  23
ENDBRANCH  15  18
ENDBRANCH  10  15
ENDBRANCH   7   9
ENDBRANCH   6   7
ENDBRANCH   5   6
ENDBRANCH   4   5
ENDBRANCH   3   4
ENDBRANCH   2   3
ENDBRANCH   1   2
BRANCH   1  27
ATOM     27  O   UNL A   1      39.351  23.352  26.475  1.00  0.00    -0.377 OA
BRANCH  27  28
ATOM     28  C   UNL A   1      40.156  22.321  27.038  1.00  0.00     0.188 C 
BRANCH  28  29
ATOM     29  C   UNL A   1      41.509  21.958  26.397  1.00  0.00     0.188 C 
BRANCH  29  30
ATOM     30  O   UNL A   1      41.533  20.717  25.720  1.00  0.00    -0.376 OA
BRANCH  30  31
ATOM     31  C   UNL A   1      41.913  19.558  26.445  1.00  0.00     0.202 C 
BRANCH  31  32
ATOM     32  C   UNL A   1      42.919  18.585  25.805  1.00  0.00     0.261 C 
BRANCH  32  33
ATOM     33  O   UNL A   1      44.245  19.095  25.574  1.00  0.00    -0.460 OA
BRANCH  33  34
ATOM     34  C   UNL A   1      44.460  19.782  24.434  1.00  0.00     0.338 C 
ATOM     35  O   UNL A   1      44.167  19.449  23.301  1.00  0.00    -0.246 OA
BRANCH  34  36
ATOM     36  C   UNL A   1      44.951  21.127  24.798  1.00  0.00     0.060 A 
ATOM     37  C   UNL A   1      45.316  21.373  26.127  1.00  0.00     0.016 A 
ATOM     38  C   UNL A   1      45.011  22.147  23.845  1.00  0.00     0.016 A 
ATOM     39  C   UNL A   1      45.691  22.654  26.520  1.00  0.00     0.010 A 
ATOM     40  C   UNL A   1      45.369  23.438  24.246  1.00  0.00     0.010 A 
ATOM     41  C   UNL A   1      45.665  23.706  25.595  1.00  0.00    -0.014 A 
BRANCH  41  42
ATOM     42  C   UNL A   1      45.748  25.098  26.099  1.00  0.00     0.031 A 
ATOM     43  C   UNL A   1      47.075  25.807  26.037  1.00  0.00     0.074 A 
ATOM     44  C   UNL A   1      44.652  25.747  26.532  1.00  0.00     0.049 A 
ATOM     45  N   UNL A   1      47.382  27.031  26.382  1.00  0.00    -0.248 NA
ATOM     46  C   UNL A   1      48.209  25.030  25.511  1.00  0.00     0.031 C 
ATOM     47  C   UNL A   1      43.307  25.181  26.599  1.00  0.00     0.029 A 
ATOM     48  N   UNL A   1      44.502  27.030  26.994  1.00  0.00    -0.354 N 
ATOM     49  C   UNL A   1      48.741  27.165  26.125  1.00  0.00     0.074 A 
ATOM     50  C   UNL A   1      49.207  25.891  25.624  1.00  0.00     0.031 C 
ATOM     51  C   UNL A   1      42.466  26.115  27.076  1.00  0.00     0.029 A 
ATOM     52  C   UNL A   1      43.218  27.332  27.375  1.00  0.00     0.049 A 
ATOM     53  H   UNL A   1      45.245  27.674  27.046  1.00  0.00     0.167 HD
ATOM     54  C   UNL A   1      49.527  28.256  26.288  1.00  0.00     0.037 A 
ATOM     55  C   UNL A   1      42.716  28.457  27.919  1.00  0.00     0.037 A 
ATOM     56  C   UNL A   1      49.057  29.525  26.776  1.00  0.00     0.049 A 
ATOM     57  C   UNL A   1      43.632  29.636  28.146  1.00  0.00     0.074 A 
ATOM     58  C   UNL A   1      49.767  30.702  26.941  1.00  0.00     0.029 A 
ATOM     59  N   UNL A   1      47.759  29.780  27.193  1.00  0.00    -0.354 N 
ATOM     60  N   UNL A   1      44.903  29.770  27.857  1.00  0.00    -0.248 NA
ATOM     61  C   UNL A   1      43.033  30.827  28.767  1.00  0.00     0.031 C 
ATOM     62  C   UNL A   1      48.917  31.647  27.525  1.00  0.00     0.029 A 
ATOM     63  C   UNL A   1      47.658  31.085  27.651  1.00  0.00     0.049 A 
ATOM     64  H   UNL A   1      47.019  29.131  27.167  1.00  0.00     0.167 HD
ATOM     65  C   UNL A   1      45.247  31.066  28.226  1.00  0.00     0.074 A 
ATOM     66  C   UNL A   1      44.042  31.684  28.738  1.00  0.00     0.031 C 
ATOM     67  C   UNL A   1      46.450  31.690  28.151  1.00  0.00     0.037 A 
BRANCH  54  68
ATOM     68  C   UNL A   1      50.990  28.119  25.971  1.00  0.00     0.064 A 
ATOM     69  C   UNL A   1      51.495  28.321  24.678  1.00  0.00     0.173 A 
ATOM     70  C   UNL A   1      51.907  27.832  26.996  1.00  0.00     0.173 A 
ATOM     71  F   UNL A   1      50.663  28.583  23.660  1.00  0.00    -0.203 F 
ATOM     72  C   UNL A   1      52.862  28.220  24.420  1.00  0.00     0.198 A 
ATOM     73  C   UNL A   1      53.273  27.765  26.739  1.00  0.00     0.198 A 
ATOM     74  F   UNL A   1      51.476  27.632  28.250  1.00  0.00    -0.203 F 
ATOM     75  F   UNL A   1      53.318  28.372  23.169  1.00  0.00    -0.200 F 
ATOM     76  C   UNL A   1      53.748  27.952  25.451  1.00  0.00     0.200 A 
ATOM     77  F   UNL A   1      54.128  27.521  27.741  1.00  0.00    -0.200 F 
ATOM     78  F   UNL A   1      55.063  27.871  25.203  1.00  0.00    -0.200 F 
ENDBRANCH  54  68
BRANCH  55  79
ATOM     79  C   UNL A   1      41.281  28.533  28.308  1.00  0.00     0.064 A 
ATOM     80  C   UNL A   1      40.847  28.123  29.577  1.00  0.00     0.173 A 
ATOM     81  C   UNL A   1      40.305  28.960  27.395  1.00  0.00     0.173 A 
ATOM     82  F   UNL A   1      41.736  27.680  30.478  1.00  0.00    -0.203 F 
ATOM     83  C   UNL A   1      39.492  28.105  29.906  1.00  0.00     0.198 A 
ATOM     84  C   UNL A   1      38.953  28.976  27.737  1.00  0.00     0.198 A 
ATOM     85  F   UNL A   1      40.662  29.358  26.165  1.00  0.00    -0.203 F 
ATOM     86  F   UNL A   1      39.102  27.640  31.100  1.00  0.00    -0.200 F 
ATOM     87  C   UNL A   1      38.547  28.535  28.987  1.00  0.00     0.200 A 
ATOM     88  F   UNL A   1      38.045  29.402  26.849  1.00  0.00    -0.200 F 
ATOM     89  F   UNL A   1      37.244  28.508  29.300  1.00  0.00    -0.200 F 
ENDBRANCH  55  79
BRANCH  67  90
ATOM     90  C   UNL A   1      46.509  33.128  28.587  1.00  0.00     0.064 A 
ATOM     91  C   UNL A   1      46.834  33.495  29.902  1.00  0.00     0.173 A 
ATOM     92  C   UNL A   1      46.249  34.158  27.668  1.00  0.00     0.173 A 
ATOM     93  F   UNL A   1      47.083  32.552  30.824  1.00  0.00    -0.203 F 
ATOM     94  C   UNL A   1      46.849  34.832  30.292  1.00  0.00     0.198 A 
ATOM     95  C   UNL A   1      46.306  35.496  28.051  1.00  0.00     0.198 A 
ATOM     96  F   UNL A   1      45.947  33.869  26.393  1.00  0.00    -0.203 F 
ATOM     97  F   UNL A   1      47.089  35.152  31.570  1.00  0.00    -0.200 F 
ATOM     98  C   UNL A   1      46.590  35.830  29.365  1.00  0.00     0.200 A 
ATOM     99  F   UNL A   1      46.077  36.459  27.148  1.00  0.00    -0.200 F 
ATOM    100  F   UNL A   1      46.605  37.116  29.742  1.00  0.00    -0.200 F 
ENDBRANCH  67  90
ENDBRANCH  41  42
ENDBRANCH  34  36
ENDBRANCH  33  34
ENDBRANCH  32  33
ENDBRANCH  31  32
ENDBRANCH  30  31
ENDBRANCH  29  30
ENDBRANCH  28  29
ENDBRANCH  27  28
ENDBRANCH   1  27
TORSDOF 24
ENDMDL
