MODEL 1
REMARK VINA RESULT:      -9.1      0.000      0.000
REMARK SMILES CCOc1cc(N2CCC[C@@H](C(=O)OCCOCCOCCOCCOC(=O)c3ccc(-c4c5nc(c(-c6c(F)c(F)c(F)c(F)c6F)c6ccc([nH]6)c(-c6c(F)c(F)c(F)c(F)c6F)c6nc(c(-c7c(F)c(F)c(F)c(F)c7F)c7ccc4[nH]7)C=C6)C=C5)cc3)C2)nc(SC)n1
REMARK SMILES IDX 19 1 18 2 17 3 16 4 15 5 14 6 12 7 13 8 11 9 7 10 8 11 92 12
REMARK SMILES IDX 9 13 10 14 6 15 4 16 5 17 97 18 94 19 93 20 3 21 2 22 1 23
REMARK SMILES IDX 95 24 96 25 20 26 21 27 22 28 23 29 24 30 25 31 26 32 27 33
REMARK SMILES IDX 28 34 29 35 30 36 91 37 31 38 90 39 32 40 33 41 34 42 84 43
REMARK SMILES IDX 35 44 89 45 83 46 85 47 36 48 88 49 82 50 81 51 37 53 69 54
REMARK SMILES IDX 49 55 68 56 50 57 53 58 67 59 86 60 51 61 52 62 66 64 87 65
REMARK SMILES IDX 54 66 38 67 39 68 47 69 40 70 41 71 45 72 48 73 42 74 43 75
REMARK SMILES IDX 46 76 44 77 70 78 71 79 79 80 72 81 73 82 77 83 80 84 74 85
REMARK SMILES IDX 75 86 78 87 76 88 55 89 56 90 64 91 57 92 58 93 62 94 65 95
REMARK SMILES IDX 59 96 60 97 63 98 61 99
REMARK H PARENT 85 52 53 63
REMARK Flexibility Score: inf
ROOT
ATOM      1  C   UNL A   1      42.656  41.735  25.059  1.00  0.00     0.188 C 
ENDROOT
BRANCH   1   2
ATOM      2  C   UNL A   1      44.091  41.532  25.576  1.00  0.00     0.188 C 
BRANCH   2   3
ATOM      3  O   UNL A   1      45.103  40.995  24.734  1.00  0.00    -0.376 OA
BRANCH   3   4
ATOM      4  C   UNL A   1      46.475  41.202  25.021  1.00  0.00     0.202 C 
BRANCH   4   5
ATOM      5  C   UNL A   1      47.011  42.567  25.488  1.00  0.00     0.261 C 
BRANCH   5   6
ATOM      6  O   UNL A   1      47.360  43.523  24.475  1.00  0.00    -0.463 OA
BRANCH   6   7
ATOM      7  C   UNL A   1      46.316  44.015  23.758  1.00  0.00     0.310 C 
ATOM      8  O   UNL A   1      45.337  44.567  24.245  1.00  0.00    -0.252 OA
BRANCH   7   9
ATOM      9  C   UNL A   1      46.459  43.768  22.272  1.00  0.00     0.118 C 
ATOM     10  N   UNL A   1      46.351  44.631  20.002  1.00  0.00    -0.356 N 
ATOM     11  C   UNL A   1      47.586  43.995  19.568  1.00  0.00     0.118 C 
ATOM     12  C   UNL A   1      46.243  45.004  21.401  1.00  0.00     0.133 C 
ATOM     13  C   UNL A   1      47.887  42.793  20.462  1.00  0.00     0.022 C 
ATOM     14  C   UNL A   1      47.823  43.153  21.947  1.00  0.00     0.019 C 
BRANCH  10  15
ATOM     15  C   UNL A   1      45.486  45.064  19.033  1.00  0.00     0.137 A 
ATOM     16  C   UNL A   1      43.626  44.896  17.638  1.00  0.00     0.219 A 
ATOM     17  C   UNL A   1      44.485  44.278  18.517  1.00  0.00     0.115 A 
ATOM     18  N   UNL A   1      43.776  46.146  17.180  1.00  0.00    -0.187 NA
ATOM     19  C   UNL A   1      44.823  46.806  17.685  1.00  0.00     0.192 A 
ATOM     20  N   UNL A   1      45.645  46.328  18.629  1.00  0.00    -0.205 NA
BRANCH  16  21
ATOM     21  O   UNL A   1      42.579  44.181  17.109  1.00  0.00    -0.478 OA
BRANCH  21  22
ATOM     22  C   UNL A   1      41.337  44.879  17.271  1.00  0.00     0.228 C 
ATOM     23  C   UNL A   1      40.683  44.456  18.579  1.00  0.00     0.049 C 
ENDBRANCH  21  22
ENDBRANCH  16  21
BRANCH  19  24
ATOM     24  S   UNL A   1      45.184  48.423  17.042  1.00  0.00    -0.089 SA
ATOM     25  C   UNL A   1      43.505  48.929  16.567  1.00  0.00     0.094 C 
ENDBRANCH  19  24
ENDBRANCH  10  15
ENDBRANCH   7   9
ENDBRANCH   6   7
ENDBRANCH   5   6
ENDBRANCH   4   5
ENDBRANCH   3   4
ENDBRANCH   2   3
ENDBRANCH   1   2
BRANCH   1  26
ATOM     26  O   UNL A   1      41.647  41.167  25.868  1.00  0.00    -0.377 OA
BRANCH  26  27
ATOM     27  C   UNL A   1      42.086  40.106  26.708  1.00  0.00     0.188 C 
BRANCH  27  28
ATOM     28  C   UNL A   1      42.373  40.449  28.189  1.00  0.00     0.188 C 
BRANCH  28  29
ATOM     29  O   UNL A   1      43.699  40.151  28.614  1.00  0.00    -0.376 OA
BRANCH  29  30
ATOM     30  C   UNL A   1      43.962  39.918  29.990  1.00  0.00     0.202 C 
BRANCH  30  31
ATOM     31  C   UNL A   1      44.743  38.650  30.385  1.00  0.00     0.261 C 
BRANCH  31  32
ATOM     32  O   UNL A   1      44.581  37.507  29.535  1.00  0.00    -0.460 OA
BRANCH  32  33
ATOM     33  C   UNL A   1      45.676  37.044  28.899  1.00  0.00     0.338 C 
ATOM     34  O   UNL A   1      46.719  37.644  28.695  1.00  0.00    -0.246 OA
BRANCH  33  35
ATOM     35  C   UNL A   1      45.482  35.598  28.664  1.00  0.00     0.060 A 
ATOM     36  C   UNL A   1      44.739  35.185  27.550  1.00  0.00     0.016 A 
ATOM     37  C   UNL A   1      46.044  34.656  29.530  1.00  0.00     0.016 A 
ATOM     38  C   UNL A   1      44.520  33.827  27.318  1.00  0.00     0.010 A 
ATOM     39  C   UNL A   1      45.799  33.298  29.314  1.00  0.00     0.010 A 
ATOM     40  C   UNL A   1      45.004  32.881  28.230  1.00  0.00    -0.014 A 
BRANCH  40  41
ATOM     41  C   UNL A   1      44.493  31.491  28.196  1.00  0.00     0.031 A 
ATOM     42  C   UNL A   1      45.304  30.464  27.456  1.00  0.00     0.074 A 
ATOM     43  C   UNL A   1      43.344  31.145  28.800  1.00  0.00     0.049 A 
ATOM     44  N   UNL A   1      45.021  29.219  27.177  1.00  0.00    -0.248 NA
ATOM     45  C   UNL A   1      46.615  30.912  26.956  1.00  0.00     0.031 C 
ATOM     46  C   UNL A   1      42.504  32.034  29.597  1.00  0.00     0.029 A 
ATOM     47  N   UNL A   1      42.678  29.944  28.816  1.00  0.00    -0.354 N 
ATOM     48  C   UNL A   1      46.108  28.741  26.456  1.00  0.00     0.074 A 
ATOM     49  C   UNL A   1      47.043  29.834  26.317  1.00  0.00     0.031 C 
ATOM     50  C   UNL A   1      41.417  31.354  30.005  1.00  0.00     0.029 A 
ATOM     51  C   UNL A   1      41.468  29.997  29.461  1.00  0.00     0.049 A 
ATOM     52  H   UNL A   1      43.034  29.124  28.403  1.00  0.00     0.167 HD
ATOM     53  C   UNL A   1      46.306  27.499  25.957  1.00  0.00     0.037 A 
ATOM     54  C   UNL A   1      40.500  29.064  29.565  1.00  0.00     0.037 A 
ATOM     55  C   UNL A   1      45.367  26.417  26.096  1.00  0.00     0.049 A 
ATOM     56  C   UNL A   1      40.704  27.714  28.923  1.00  0.00     0.074 A 
ATOM     57  C   UNL A   1      45.476  25.117  25.636  1.00  0.00     0.029 A 
ATOM     58  N   UNL A   1      44.141  26.516  26.736  1.00  0.00    -0.354 N 
ATOM     59  N   UNL A   1      41.735  27.261  28.251  1.00  0.00    -0.248 NA
ATOM     60  C   UNL A   1      39.608  26.743  29.057  1.00  0.00     0.031 C 
ATOM     61  C   UNL A   1      44.287  24.448  25.940  1.00  0.00     0.029 A 
ATOM     62  C   UNL A   1      43.470  25.307  26.659  1.00  0.00     0.049 A 
ATOM     63  H   UNL A   1      43.798  27.325  27.179  1.00  0.00     0.167 HD
ATOM     64  C   UNL A   1      41.431  25.945  27.919  1.00  0.00     0.074 A 
ATOM     65  C   UNL A   1      40.120  25.671  28.469  1.00  0.00     0.031 C 
ATOM     66  C   UNL A   1      42.173  25.044  27.229  1.00  0.00     0.037 A 
BRANCH  53  67
ATOM     67  C   UNL A   1      47.568  27.256  25.181  1.00  0.00     0.064 A 
ATOM     68  C   UNL A   1      47.692  27.618  23.831  1.00  0.00     0.173 A 
ATOM     69  C   UNL A   1      48.682  26.673  25.807  1.00  0.00     0.173 A 
ATOM     70  F   UNL A   1      46.654  28.161  23.180  1.00  0.00    -0.203 F 
ATOM     71  C   UNL A   1      48.872  27.380  23.131  1.00  0.00     0.198 A 
ATOM     72  C   UNL A   1      49.870  26.469  25.114  1.00  0.00     0.198 A 
ATOM     73  F   UNL A   1      48.618  26.307  27.096  1.00  0.00    -0.203 F 
ATOM     74  F   UNL A   1      48.949  27.683  21.828  1.00  0.00    -0.200 F 
ATOM     75  C   UNL A   1      49.963  26.815  23.775  1.00  0.00     0.200 A 
ATOM     76  F   UNL A   1      50.927  25.935  25.742  1.00  0.00    -0.200 F 
ATOM     77  F   UNL A   1      51.100  26.594  23.102  1.00  0.00    -0.200 F 
ENDBRANCH  53  67
BRANCH  54  78
ATOM     78  C   UNL A   1      39.236  29.378  30.287  1.00  0.00     0.064 A 
ATOM     79  C   UNL A   1      39.020  28.927  31.596  1.00  0.00     0.173 A 
ATOM     80  C   UNL A   1      38.208  30.107  29.673  1.00  0.00     0.173 A 
ATOM     81  F   UNL A   1      39.962  28.202  32.218  1.00  0.00    -0.203 F 
ATOM     82  C   UNL A   1      37.817  29.173  32.255  1.00  0.00     0.198 A 
ATOM     83  C   UNL A   1      37.018  30.383  30.344  1.00  0.00     0.198 A 
ATOM     84  F   UNL A   1      38.360  30.560  28.420  1.00  0.00    -0.203 F 
ATOM     85  F   UNL A   1      37.616  28.683  33.486  1.00  0.00    -0.200 F 
ATOM     86  C   UNL A   1      36.820  29.906  31.630  1.00  0.00     0.200 A 
ATOM     87  F   UNL A   1      36.062  31.103  29.741  1.00  0.00    -0.200 F 
ATOM     88  F   UNL A   1      35.663  30.146  32.265  1.00  0.00    -0.200 F 
ENDBRANCH  54  78
BRANCH  66  89
ATOM     89  C   UNL A   1      41.623  23.653  27.082  1.00  0.00     0.064 A 
ATOM     90  C   UNL A   1      42.219  22.546  27.703  1.00  0.00     0.173 A 
ATOM     91  C   UNL A   1      40.442  23.437  26.353  1.00  0.00     0.173 A 
ATOM     92  F   UNL A   1      43.355  22.694  28.401  1.00  0.00    -0.203 F 
ATOM     93  C   UNL A   1      41.669  21.273  27.579  1.00  0.00     0.198 A 
ATOM     94  C   UNL A   1      39.874  22.170  26.262  1.00  0.00     0.198 A 
ATOM     95  F   UNL A   1      39.825  24.463  25.747  1.00  0.00    -0.203 F 
ATOM     96  F   UNL A   1      42.281  20.222  28.141  1.00  0.00    -0.200 F 
ATOM     97  C   UNL A   1      40.492  21.088  26.867  1.00  0.00     0.200 A 
ATOM     98  F   UNL A   1      38.728  21.998  25.590  1.00  0.00    -0.200 F 
ATOM     99  F   UNL A   1      39.956  19.863  26.762  1.00  0.00    -0.200 F 
ENDBRANCH  66  89
ENDBRANCH  40  41
ENDBRANCH  33  35
ENDBRANCH  32  33
ENDBRANCH  31  32
ENDBRANCH  30  31
ENDBRANCH  29  30
ENDBRANCH  28  29
ENDBRANCH  27  28
ENDBRANCH  26  27
ENDBRANCH   1  26
TORSDOF 24
ENDMDL
MODEL 2
REMARK VINA RESULT:      -9.0      7.887     13.389
REMARK SMILES CCOc1cc(N2CCC[C@@H](C(=O)OCCOCCOCCOCCOC(=O)c3ccc(-c4c5nc(c(-c6c(F)c(F)c(F)c(F)c6F)c6ccc([nH]6)c(-c6c(F)c(F)c(F)c(F)c6F)c6nc(c(-c7c(F)c(F)c(F)c(F)c7F)c7ccc4[nH]7)C=C6)C=C5)cc3)C2)nc(SC)n1
REMARK SMILES IDX 19 1 18 2 17 3 16 4 15 5 14 6 12 7 13 8 11 9 7 10 8 11 92 12
REMARK SMILES IDX 9 13 10 14 6 15 4 16 5 17 97 18 94 19 93 20 3 21 2 22 1 23
REMARK SMILES IDX 95 24 96 25 20 26 21 27 22 28 23 29 24 30 25 31 26 32 27 33
REMARK SMILES IDX 28 34 29 35 30 36 91 37 31 38 90 39 32 40 33 41 34 42 84 43
REMARK SMILES IDX 35 44 89 45 83 46 85 47 36 48 88 49 82 50 81 51 37 53 69 54
REMARK SMILES IDX 49 55 68 56 50 57 53 58 67 59 86 60 51 61 52 62 66 64 87 65
REMARK SMILES IDX 54 66 38 67 39 68 47 69 40 70 41 71 45 72 48 73 42 74 43 75
REMARK SMILES IDX 46 76 44 77 70 78 71 79 79 80 72 81 73 82 77 83 80 84 74 85
REMARK SMILES IDX 75 86 78 87 76 88 55 89 56 90 64 91 57 92 58 93 62 94 65 95
REMARK SMILES IDX 59 96 60 97 63 98 61 99
REMARK H PARENT 85 52 53 63
REMARK Flexibility Score: inf
ROOT
ATOM      1  C   UNL A   1      42.717  25.268  25.678  1.00  0.00     0.188 C 
ENDROOT
BRANCH   1   2
ATOM      2  C   UNL A   1      41.612  26.068  26.388  1.00  0.00     0.188 C 
BRANCH   2   3
ATOM      3  O   UNL A   1      41.127  25.672  27.664  1.00  0.00    -0.376 OA
BRANCH   3   4
ATOM      4  C   UNL A   1      41.412  26.436  28.823  1.00  0.00     0.202 C 
BRANCH   4   5
ATOM      5  C   UNL A   1      41.317  27.972  28.827  1.00  0.00     0.261 C 
BRANCH   5   6
ATOM      6  O   UNL A   1      41.121  28.619  30.094  1.00  0.00    -0.463 OA
BRANCH   6   7
ATOM      7  C   UNL A   1      39.831  28.908  30.405  1.00  0.00     0.310 C 
ATOM      8  O   UNL A   1      38.996  28.079  30.745  1.00  0.00    -0.252 OA
BRANCH   7   9
ATOM      9  C   UNL A   1      39.505  30.377  30.242  1.00  0.00     0.118 C 
ATOM     10  N   UNL A   1      38.128  32.281  30.861  1.00  0.00    -0.356 N 
ATOM     11  C   UNL A   1      39.244  33.209  30.979  1.00  0.00     0.118 C 
ATOM     12  C   UNL A   1      38.384  30.881  31.148  1.00  0.00     0.133 C 
ATOM     13  C   UNL A   1      40.421  32.704  30.147  1.00  0.00     0.022 C 
ATOM     14  C   UNL A   1      40.751  31.241  30.449  1.00  0.00     0.019 C 
BRANCH  10  15
ATOM     15  C   UNL A   1      36.871  32.813  30.740  1.00  0.00     0.137 A 
ATOM     16  C   UNL A   1      35.024  33.613  29.565  1.00  0.00     0.219 A 
ATOM     17  C   UNL A   1      36.340  33.212  29.538  1.00  0.00     0.115 A 
ATOM     18  N   UNL A   1      34.292  33.744  30.678  1.00  0.00    -0.187 NA
ATOM     19  C   UNL A   1      34.921  33.402  31.807  1.00  0.00     0.192 A 
ATOM     20  N   UNL A   1      36.159  32.893  31.868  1.00  0.00    -0.205 NA
BRANCH  16  21
ATOM     21  O   UNL A   1      34.416  33.993  28.393  1.00  0.00    -0.478 OA
BRANCH  21  22
ATOM     22  C   UNL A   1      33.146  34.611  28.642  1.00  0.00     0.228 C 
ATOM     23  C   UNL A   1      33.339  36.107  28.840  1.00  0.00     0.049 C 
ENDBRANCH  21  22
ENDBRANCH  16  21
BRANCH  19  24
ATOM     24  S   UNL A   1      34.079  33.666  33.350  1.00  0.00    -0.089 SA
ATOM     25  C   UNL A   1      35.519  33.856  34.440  1.00  0.00     0.094 C 
ENDBRANCH  19  24
ENDBRANCH  10  15
ENDBRANCH   7   9
ENDBRANCH   6   7
ENDBRANCH   5   6
ENDBRANCH   4   5
ENDBRANCH   3   4
ENDBRANCH   2   3
ENDBRANCH   1   2
BRANCH   1  26
ATOM     26  O   UNL A   1      43.281  24.223  26.444  1.00  0.00    -0.377 OA
BRANCH  26  27
ATOM     27  C   UNL A   1      44.542  24.529  27.027  1.00  0.00     0.188 C 
BRANCH  27  28
ATOM     28  C   UNL A   1      45.718  23.575  26.710  1.00  0.00     0.188 C 
BRANCH  28  29
ATOM     29  O   UNL A   1      46.840  24.208  26.105  1.00  0.00    -0.376 OA
BRANCH  29  30
ATOM     30  C   UNL A   1      46.723  24.749  24.798  1.00  0.00     0.202 C 
BRANCH  30  31
ATOM     31  C   UNL A   1      47.956  25.422  24.166  1.00  0.00     0.261 C 
BRANCH  31  32
ATOM     32  O   UNL A   1      48.247  26.759  24.595  1.00  0.00    -0.460 OA
BRANCH  32  33
ATOM     33  C   UNL A   1      47.320  27.707  24.349  1.00  0.00     0.338 C 
ATOM     34  O   UNL A   1      46.927  28.089  23.259  1.00  0.00    -0.246 OA
BRANCH  33  35
ATOM     35  C   UNL A   1      46.696  28.071  25.639  1.00  0.00     0.060 A 
ATOM     36  C   UNL A   1      45.298  28.060  25.743  1.00  0.00     0.016 A 
ATOM     37  C   UNL A   1      47.486  28.408  26.741  1.00  0.00     0.016 A 
ATOM     38  C   UNL A   1      44.682  28.423  26.940  1.00  0.00     0.010 A 
ATOM     39  C   UNL A   1      46.868  28.801  27.930  1.00  0.00     0.010 A 
ATOM     40  C   UNL A   1      45.465  28.847  28.021  1.00  0.00    -0.014 A 
BRANCH  40  41
ATOM     41  C   UNL A   1      44.834  29.560  29.157  1.00  0.00     0.031 A 
ATOM     42  C   UNL A   1      44.611  31.040  29.017  1.00  0.00     0.074 A 
ATOM     43  C   UNL A   1      44.469  28.920  30.281  1.00  0.00     0.049 A 
ATOM     44  N   UNL A   1      44.193  31.909  29.900  1.00  0.00    -0.248 NA
ATOM     45  C   UNL A   1      44.909  31.618  27.696  1.00  0.00     0.031 C 
ATOM     46  C   UNL A   1      44.578  27.482  30.509  1.00  0.00     0.029 A 
ATOM     47  N   UNL A   1      43.948  29.412  31.451  1.00  0.00    -0.354 N 
ATOM     48  C   UNL A   1      44.195  33.135  29.248  1.00  0.00     0.074 A 
ATOM     49  C   UNL A   1      44.679  32.905  27.906  1.00  0.00     0.031 C 
ATOM     50  C   UNL A   1      44.159  27.209  31.758  1.00  0.00     0.029 A 
ATOM     51  C   UNL A   1      43.796  28.458  32.426  1.00  0.00     0.049 A 
ATOM     52  H   UNL A   1      43.708  30.358  31.580  1.00  0.00     0.167 HD
ATOM     53  C   UNL A   1      43.823  34.344  29.728  1.00  0.00     0.037 A 
ATOM     54  C   UNL A   1      43.438  28.591  33.720  1.00  0.00     0.037 A 
ATOM     55  C   UNL A   1      43.346  34.565  31.067  1.00  0.00     0.049 A 
ATOM     56  C   UNL A   1      43.114  29.963  34.259  1.00  0.00     0.074 A 
ATOM     57  C   UNL A   1      42.935  35.750  31.651  1.00  0.00     0.029 A 
ATOM     58  N   UNL A   1      43.227  33.578  32.035  1.00  0.00    -0.354 N 
ATOM     59  N   UNL A   1      43.108  31.119  33.639  1.00  0.00    -0.248 NA
ATOM     60  C   UNL A   1      42.746  30.048  35.680  1.00  0.00     0.031 C 
ATOM     61  C   UNL A   1      42.629  35.491  32.991  1.00  0.00     0.029 A 
ATOM     62  C   UNL A   1      42.776  34.132  33.220  1.00  0.00     0.049 A 
ATOM     63  H   UNL A   1      43.434  32.625  31.898  1.00  0.00     0.167 HD
ATOM     64  C   UNL A   1      42.696  32.058  34.578  1.00  0.00     0.074 A 
ATOM     65  C   UNL A   1      42.458  31.335  35.810  1.00  0.00     0.031 C 
ATOM     66  C   UNL A   1      42.524  33.395  34.433  1.00  0.00     0.037 A 
BRANCH  53  67
ATOM     67  C   UNL A   1      43.955  35.526  28.811  1.00  0.00     0.064 A 
ATOM     68  C   UNL A   1      42.882  35.989  28.035  1.00  0.00     0.173 A 
ATOM     69  C   UNL A   1      45.171  36.223  28.728  1.00  0.00     0.173 A 
ATOM     70  F   UNL A   1      41.703  35.349  28.063  1.00  0.00    -0.203 F 
ATOM     71  C   UNL A   1      43.029  37.086  27.190  1.00  0.00     0.198 A 
ATOM     72  C   UNL A   1      45.305  37.340  27.910  1.00  0.00     0.198 A 
ATOM     73  F   UNL A   1      46.230  35.823  29.449  1.00  0.00    -0.203 F 
ATOM     74  F   UNL A   1      42.007  37.476  26.416  1.00  0.00    -0.200 F 
ATOM     75  C   UNL A   1      44.237  37.766  27.135  1.00  0.00     0.200 A 
ATOM     76  F   UNL A   1      46.469  38.003  27.869  1.00  0.00    -0.200 F 
ATOM     77  F   UNL A   1      44.375  38.826  26.328  1.00  0.00    -0.200 F 
ENDBRANCH  53  67
BRANCH  54  78
ATOM     78  C   UNL A   1      43.388  27.397  34.606  1.00  0.00     0.064 A 
ATOM     79  C   UNL A   1      44.527  26.962  35.299  1.00  0.00     0.173 A 
ATOM     80  C   UNL A   1      42.212  26.647  34.755  1.00  0.00     0.173 A 
ATOM     81  F   UNL A   1      45.683  27.628  35.170  1.00  0.00    -0.203 F 
ATOM     82  C   UNL A   1      44.497  25.813  36.088  1.00  0.00     0.198 A 
ATOM     83  C   UNL A   1      42.173  25.518  35.570  1.00  0.00     0.198 A 
ATOM     84  F   UNL A   1      41.094  27.016  34.112  1.00  0.00    -0.203 F 
ATOM     85  F   UNL A   1      45.613  25.390  36.695  1.00  0.00    -0.200 F 
ATOM     86  C   UNL A   1      43.318  25.096  36.228  1.00  0.00     0.200 A 
ATOM     87  F   UNL A   1      41.028  24.836  35.713  1.00  0.00    -0.200 F 
ATOM     88  F   UNL A   1      43.289  23.993  36.988  1.00  0.00    -0.200 F 
ENDBRANCH  54  78
BRANCH  66  89
ATOM     89  C   UNL A   1      41.991  34.163  35.610  1.00  0.00     0.064 A 
ATOM     90  C   UNL A   1      40.623  34.203  35.917  1.00  0.00     0.173 A 
ATOM     91  C   UNL A   1      42.876  34.821  36.480  1.00  0.00     0.173 A 
ATOM     92  F   UNL A   1      39.733  33.602  35.113  1.00  0.00    -0.203 F 
ATOM     93  C   UNL A   1      40.159  34.893  37.033  1.00  0.00     0.198 A 
ATOM     94  C   UNL A   1      42.413  35.479  37.615  1.00  0.00     0.198 A 
ATOM     95  F   UNL A   1      44.195  34.806  36.239  1.00  0.00    -0.203 F 
ATOM     96  F   UNL A   1      38.844  34.959  37.281  1.00  0.00    -0.200 F 
ATOM     97  C   UNL A   1      41.055  35.522  37.887  1.00  0.00     0.200 A 
ATOM     98  F   UNL A   1      43.282  36.068  38.448  1.00  0.00    -0.200 F 
ATOM     99  F   UNL A   1      40.607  36.173  38.970  1.00  0.00    -0.200 F 
ENDBRANCH  66  89
ENDBRANCH  40  41
ENDBRANCH  33  35
ENDBRANCH  32  33
ENDBRANCH  31  32
ENDBRANCH  30  31
ENDBRANCH  29  30
ENDBRANCH  28  29
ENDBRANCH  27  28
ENDBRANCH  26  27
ENDBRANCH   1  26
TORSDOF 24
ENDMDL
MODEL 3
REMARK VINA RESULT:      -8.8      8.065     13.785
REMARK SMILES CCOc1cc(N2CCC[C@@H](C(=O)OCCOCCOCCOCCOC(=O)c3ccc(-c4c5nc(c(-c6c(F)c(F)c(F)c(F)c6F)c6ccc([nH]6)c(-c6c(F)c(F)c(F)c(F)c6F)c6nc(c(-c7c(F)c(F)c(F)c(F)c7F)c7ccc4[nH]7)C=C6)C=C5)cc3)C2)nc(SC)n1
REMARK SMILES IDX 19 1 18 2 17 3 16 4 15 5 14 6 12 7 13 8 11 9 7 10 8 11 92 12
REMARK SMILES IDX 9 13 10 14 6 15 4 16 5 17 97 18 94 19 93 20 3 21 2 22 1 23
REMARK SMILES IDX 95 24 96 25 20 26 21 27 22 28 23 29 24 30 25 31 26 32 27 33
REMARK SMILES IDX 28 34 29 35 30 36 91 37 31 38 90 39 32 40 33 41 34 42 84 43
REMARK SMILES IDX 35 44 89 45 83 46 85 47 36 48 88 49 82 50 81 51 37 53 69 54
REMARK SMILES IDX 49 55 68 56 50 57 53 58 67 59 86 60 51 61 52 62 66 64 87 65
REMARK SMILES IDX 54 66 38 67 39 68 47 69 40 70 41 71 45 72 48 73 42 74 43 75
REMARK SMILES IDX 46 76 44 77 70 78 71 79 79 80 72 81 73 82 77 83 80 84 74 85
REMARK SMILES IDX 75 86 78 87 76 88 55 89 56 90 64 91 57 92 58 93 62 94 65 95
REMARK SMILES IDX 59 96 60 97 63 98 61 99
REMARK H PARENT 85 52 53 63
REMARK Flexibility Score: inf
ROOT
ATOM      1  C   UNL A   1      42.356  25.408  25.666  1.00  0.00     0.188 C 
ENDROOT
BRANCH   1   2
ATOM      2  C   UNL A   1      41.111  26.207  26.087  1.00  0.00     0.188 C 
BRANCH   2   3
ATOM      3  O   UNL A   1      40.203  25.693  27.052  1.00  0.00    -0.376 OA
BRANCH   3   4
ATOM      4  C   UNL A   1      40.089  26.285  28.334  1.00  0.00     0.202 C 
BRANCH   4   5
ATOM      5  C   UNL A   1      40.809  27.598  28.690  1.00  0.00     0.261 C 
BRANCH   5   6
ATOM      6  O   UNL A   1      40.975  27.905  30.083  1.00  0.00    -0.463 OA
BRANCH   6   7
ATOM      7  C   UNL A   1      39.828  28.186  30.756  1.00  0.00     0.310 C 
ATOM      8  O   UNL A   1      39.142  27.354  31.336  1.00  0.00    -0.252 OA
BRANCH   7   9
ATOM      9  C   UNL A   1      39.447  29.648  30.677  1.00  0.00     0.118 C 
ATOM     10  N   UNL A   1      38.078  31.485  31.488  1.00  0.00    -0.356 N 
ATOM     11  C   UNL A   1      39.173  32.444  31.540  1.00  0.00     0.118 C 
ATOM     12  C   UNL A   1      38.399  30.085  31.698  1.00  0.00     0.133 C 
ATOM     13  C   UNL A   1      40.284  32.005  30.587  1.00  0.00     0.022 C 
ATOM     14  C   UNL A   1      40.682  30.544  30.804  1.00  0.00     0.019 C 
BRANCH  10  15
ATOM     15  C   UNL A   1      36.801  31.980  31.500  1.00  0.00     0.137 A 
ATOM     16  C   UNL A   1      34.921  32.943  32.488  1.00  0.00     0.219 A 
ATOM     17  C   UNL A   1      36.154  32.353  32.652  1.00  0.00     0.115 A 
ATOM     18  N   UNL A   1      34.286  33.062  31.315  1.00  0.00    -0.187 NA
ATOM     19  C   UNL A   1      34.966  32.601  30.259  1.00  0.00     0.192 A 
ATOM     20  N   UNL A   1      36.215  32.117  30.307  1.00  0.00    -0.205 NA
BRANCH  16  21
ATOM     21  O   UNL A   1      34.232  33.374  33.595  1.00  0.00    -0.478 OA
BRANCH  21  22
ATOM     22  C   UNL A   1      34.915  34.454  34.246  1.00  0.00     0.228 C 
ATOM     23  C   UNL A   1      34.666  35.747  33.483  1.00  0.00     0.049 C 
ENDBRANCH  21  22
ENDBRANCH  16  21
BRANCH  19  24
ATOM     24  S   UNL A   1      34.155  32.593  28.679  1.00  0.00    -0.089 SA
ATOM     25  C   UNL A   1      35.250  31.445  27.794  1.00  0.00     0.094 C 
ENDBRANCH  19  24
ENDBRANCH  10  15
ENDBRANCH   7   9
ENDBRANCH   6   7
ENDBRANCH   5   6
ENDBRANCH   4   5
ENDBRANCH   3   4
ENDBRANCH   2   3
ENDBRANCH   1   2
BRANCH   1  26
ATOM     26  O   UNL A   1      42.547  24.193  26.363  1.00  0.00    -0.377 OA
BRANCH  26  27
ATOM     27  C   UNL A   1      43.690  24.169  27.209  1.00  0.00     0.188 C 
BRANCH  27  28
ATOM     28  C   UNL A   1      44.881  23.286  26.765  1.00  0.00     0.188 C 
BRANCH  28  29
ATOM     29  O   UNL A   1      46.003  24.016  26.283  1.00  0.00    -0.376 OA
BRANCH  29  30
ATOM     30  C   UNL A   1      45.944  24.639  25.008  1.00  0.00     0.202 C 
BRANCH  30  31
ATOM     31  C   UNL A   1      47.239  25.220  24.412  1.00  0.00     0.261 C 
BRANCH  31  32
ATOM     32  O   UNL A   1      47.669  26.488  24.926  1.00  0.00    -0.460 OA
BRANCH  32  33
ATOM     33  C   UNL A   1      46.861  27.548  24.723  1.00  0.00     0.338 C 
ATOM     34  O   UNL A   1      46.513  28.015  23.651  1.00  0.00    -0.246 OA
BRANCH  33  35
ATOM     35  C   UNL A   1      46.289  27.935  26.030  1.00  0.00     0.060 A 
ATOM     36  C   UNL A   1      44.897  27.917  26.194  1.00  0.00     0.016 A 
ATOM     37  C   UNL A   1      47.123  28.300  27.090  1.00  0.00     0.016 A 
ATOM     38  C   UNL A   1      44.329  28.301  27.408  1.00  0.00     0.010 A 
ATOM     39  C   UNL A   1      46.553  28.714  28.296  1.00  0.00     0.010 A 
ATOM     40  C   UNL A   1      45.154  28.753  28.446  1.00  0.00    -0.014 A 
BRANCH  40  41
ATOM     41  C   UNL A   1      44.566  29.485  29.592  1.00  0.00     0.031 A 
ATOM     42  C   UNL A   1      44.310  30.957  29.425  1.00  0.00     0.074 A 
ATOM     43  C   UNL A   1      44.268  28.869  30.749  1.00  0.00     0.049 A 
ATOM     44  N   UNL A   1      43.920  31.843  30.305  1.00  0.00    -0.248 NA
ATOM     45  C   UNL A   1      44.532  31.504  28.076  1.00  0.00     0.031 C 
ATOM     46  C   UNL A   1      44.414  27.440  31.009  1.00  0.00     0.029 A 
ATOM     47  N   UNL A   1      43.797  29.385  31.930  1.00  0.00    -0.354 N 
ATOM     48  C   UNL A   1      43.868  33.050  29.621  1.00  0.00     0.074 A 
ATOM     49  C   UNL A   1      44.291  32.792  28.263  1.00  0.00     0.031 C 
ATOM     50  C   UNL A   1      44.062  27.194  32.284  1.00  0.00     0.029 A 
ATOM     51  C   UNL A   1      43.709  28.455  32.936  1.00  0.00     0.049 A 
ATOM     52  H   UNL A   1      43.546  30.329  32.046  1.00  0.00     0.167 HD
ATOM     53  C   UNL A   1      43.498  34.266  30.087  1.00  0.00     0.037 A 
ATOM     54  C   UNL A   1      43.412  28.616  34.242  1.00  0.00     0.037 A 
ATOM     55  C   UNL A   1      43.083  34.515  31.442  1.00  0.00     0.049 A 
ATOM     56  C   UNL A   1      43.090  29.997  34.760  1.00  0.00     0.074 A 
ATOM     57  C   UNL A   1      42.679  35.707  32.015  1.00  0.00     0.029 A 
ATOM     58  N   UNL A   1      43.029  33.552  32.440  1.00  0.00    -0.354 N 
ATOM     59  N   UNL A   1      43.033  31.135  34.112  1.00  0.00    -0.248 NA
ATOM     60  C   UNL A   1      42.791  30.113  36.195  1.00  0.00     0.031 C 
ATOM     61  C   UNL A   1      42.444  35.480  33.374  1.00  0.00     0.029 A 
ATOM     62  C   UNL A   1      42.626  34.129  33.631  1.00  0.00     0.049 A 
ATOM     63  H   UNL A   1      43.246  32.599  32.318  1.00  0.00     0.167 HD
ATOM     64  C   UNL A   1      42.650  32.092  35.045  1.00  0.00     0.074 A 
ATOM     65  C   UNL A   1      42.485  31.399  36.306  1.00  0.00     0.031 C 
ATOM     66  C   UNL A   1      42.447  33.421  34.874  1.00  0.00     0.037 A 
BRANCH  53  67
ATOM     67  C   UNL A   1      43.564  35.425  29.135  1.00  0.00     0.064 A 
ATOM     68  C   UNL A   1      44.748  36.147  28.925  1.00  0.00     0.173 A 
ATOM     69  C   UNL A   1      42.429  35.802  28.401  1.00  0.00     0.173 A 
ATOM     70  F   UNL A   1      45.857  35.841  29.614  1.00  0.00    -0.203 F 
ATOM     71  C   UNL A   1      44.785  37.221  28.039  1.00  0.00     0.198 A 
ATOM     72  C   UNL A   1      42.478  36.852  27.490  1.00  0.00     0.198 A 
ATOM     73  F   UNL A   1      41.270  35.144  28.562  1.00  0.00    -0.203 F 
ATOM     74  F   UNL A   1      45.912  37.932  27.896  1.00  0.00    -0.200 F 
ATOM     75  C   UNL A   1      43.654  37.566  27.315  1.00  0.00     0.200 A 
ATOM     76  F   UNL A   1      41.387  37.174  26.781  1.00  0.00    -0.200 F 
ATOM     77  F   UNL A   1      43.693  38.593  26.456  1.00  0.00    -0.200 F 
ENDBRANCH  53  67
BRANCH  54  78
ATOM     78  C   UNL A   1      43.427  27.445  35.161  1.00  0.00     0.064 A 
ATOM     79  C   UNL A   1      44.555  27.152  35.940  1.00  0.00     0.173 A 
ATOM     80  C   UNL A   1      42.329  26.579  35.256  1.00  0.00     0.173 A 
ATOM     81  F   UNL A   1      45.642  27.934  35.865  1.00  0.00    -0.203 F 
ATOM     82  C   UNL A   1      44.592  26.026  36.761  1.00  0.00     0.198 A 
ATOM     83  C   UNL A   1      42.353  25.472  36.102  1.00  0.00     0.198 A 
ATOM     84  F   UNL A   1      41.224  26.811  34.530  1.00  0.00    -0.203 F 
ATOM     85  F   UNL A   1      45.702  25.739  37.453  1.00  0.00    -0.200 F 
ATOM     86  C   UNL A   1      43.488  25.191  36.846  1.00  0.00     0.200 A 
ATOM     87  F   UNL A   1      41.278  24.676  36.191  1.00  0.00    -0.200 F 
ATOM     88  F   UNL A   1      43.522  24.110  37.637  1.00  0.00    -0.200 F 
ENDBRANCH  54  78
BRANCH  66  89
ATOM     89  C   UNL A   1      41.958  34.212  36.055  1.00  0.00     0.064 A 
ATOM     90  C   UNL A   1      42.820  34.995  36.837  1.00  0.00     0.173 A 
ATOM     91  C   UNL A   1      40.589  34.232  36.370  1.00  0.00     0.173 A 
ATOM     92  F   UNL A   1      44.138  35.003  36.586  1.00  0.00    -0.203 F 
ATOM     93  C   UNL A   1      42.335  35.746  37.904  1.00  0.00     0.198 A 
ATOM     94  C   UNL A   1      40.103  35.012  37.415  1.00  0.00     0.198 A 
ATOM     95  F   UNL A   1      39.720  33.509  35.649  1.00  0.00    -0.203 F 
ATOM     96  F   UNL A   1      43.183  36.449  38.667  1.00  0.00    -0.200 F 
ATOM     97  C   UNL A   1      40.976  35.762  38.186  1.00  0.00     0.200 A 
ATOM     98  F   UNL A   1      38.789  35.041  37.672  1.00  0.00    -0.200 F 
ATOM     99  F   UNL A   1      40.510  36.498  39.205  1.00  0.00    -0.200 F 
ENDBRANCH  66  89
ENDBRANCH  40  41
ENDBRANCH  33  35
ENDBRANCH  32  33
ENDBRANCH  31  32
ENDBRANCH  30  31
ENDBRANCH  29  30
ENDBRANCH  28  29
ENDBRANCH  27  28
ENDBRANCH  26  27
ENDBRANCH   1  26
TORSDOF 24
ENDMDL
