MODEL 1
REMARK VINA RESULT:     -11.8      0.000      0.000
REMARK SMILES O=C(OCCOCCOCCOCCOC(=O)c1cc(F)c(F)cc1NS(=O)(=O)c1ccc2c(c1)CCC2)c1ccc(-c2c3nc(c(-c4c(F)c(F)c(F)c(F)c4F)c4ccc([nH]4)c(-c4c(F)c(F)c(F)c(F)c4F)c4nc(c(-c5c(F)c(F)c(F)c(F)c5F)c5ccc2[nH]5)C=C4)C=C3)cc1
REMARK SMILES IDX 10 1 9 2 8 3 7 4 6 5 5 6 4 7 3 8 2 9 1 10 39 11 40 12 101 13
REMARK SMILES IDX 41 14 100 15 42 16 43 17 44 18 94 19 45 20 99 21 93 22 95 23
REMARK SMILES IDX 46 24 98 25 92 26 91 27 47 29 79 30 59 31 78 32 60 33 63 34
REMARK SMILES IDX 77 35 96 36 61 37 62 38 76 40 97 41 64 42 48 43 49 44 57 45
REMARK SMILES IDX 50 46 51 47 55 48 58 49 52 50 53 51 56 52 54 53 80 54 81 55
REMARK SMILES IDX 89 56 82 57 83 58 87 59 90 60 84 61 85 62 88 63 86 64 65 65
REMARK SMILES IDX 66 66 74 67 67 68 68 69 72 70 75 71 69 72 70 73 73 74 71 75
REMARK SMILES IDX 11 76 12 77 13 78 14 79 15 80 16 81 17 82 18 83 19 84 25 85
REMARK SMILES IDX 20 86 24 87 21 88 22 89 23 90 26 91 27 93 28 94 29 95 30 96
REMARK SMILES IDX 31 97 35 98 32 99 34 100 33 101 36 102 38 103 37 104
REMARK H PARENT 95 28 63 39 26 92
REMARK Flexibility Score: inf
ROOT
ATOM      1  C   UNL A   1      35.179  32.147  27.728  1.00  0.00     0.188 C 
ENDROOT
BRANCH   1   2
ATOM      2  O   UNL A   1      34.808  33.522  27.795  1.00  0.00    -0.377 OA
BRANCH   2   3
ATOM      3  C   UNL A   1      33.652  33.825  28.574  1.00  0.00     0.188 C 
BRANCH   3   4
ATOM      4  C   UNL A   1      33.874  34.953  29.575  1.00  0.00     0.188 C 
BRANCH   4   5
ATOM      5  O   UNL A   1      33.284  34.602  30.832  1.00  0.00    -0.376 OA
BRANCH   5   6
ATOM      6  C   UNL A   1      34.159  34.707  31.955  1.00  0.00     0.202 C 
BRANCH   6   7
ATOM      7  C   UNL A   1      34.158  33.457  32.836  1.00  0.00     0.261 C 
BRANCH   7   8
ATOM      8  O   UNL A   1      35.004  32.424  32.305  1.00  0.00    -0.460 OA
BRANCH   8   9
ATOM      9  C   UNL A   1      36.168  31.948  32.815  1.00  0.00     0.338 C 
ATOM     10  O   UNL A   1      36.386  32.123  34.015  1.00  0.00    -0.246 OA
BRANCH   9  11
ATOM     11  C   UNL A   1      37.191  31.177  32.034  1.00  0.00     0.060 A 
ATOM     12  C   UNL A   1      38.200  30.372  32.567  1.00  0.00     0.016 A 
ATOM     13  C   UNL A   1      37.099  31.256  30.630  1.00  0.00     0.016 A 
ATOM     14  C   UNL A   1      39.145  29.756  31.758  1.00  0.00     0.010 A 
ATOM     15  C   UNL A   1      38.025  30.615  29.803  1.00  0.00     0.010 A 
ATOM     16  C   UNL A   1      39.082  29.902  30.376  1.00  0.00    -0.014 A 
BRANCH  16  17
ATOM     17  C   UNL A   1      40.250  29.466  29.594  1.00  0.00     0.031 A 
ATOM     18  C   UNL A   1      41.423  30.397  29.522  1.00  0.00     0.074 A 
ATOM     19  C   UNL A   1      40.317  28.207  29.132  1.00  0.00     0.049 A 
ATOM     20  N   UNL A   1      42.573  30.239  28.924  1.00  0.00    -0.248 NA
ATOM     21  C   UNL A   1      41.290  31.674  30.245  1.00  0.00     0.031 C 
ATOM     22  C   UNL A   1      39.272  27.198  29.299  1.00  0.00     0.029 A 
ATOM     23  N   UNL A   1      41.321  27.548  28.475  1.00  0.00    -0.354 N 
ATOM     24  C   UNL A   1      43.286  31.403  29.178  1.00  0.00     0.074 A 
ATOM     25  C   UNL A   1      42.445  32.262  29.979  1.00  0.00     0.031 C 
ATOM     26  C   UNL A   1      39.705  26.034  28.789  1.00  0.00     0.029 A 
ATOM     27  C   UNL A   1      41.028  26.235  28.204  1.00  0.00     0.049 A 
ATOM     28  H   UNL A   1      42.172  27.974  28.222  1.00  0.00     0.167 HD
ATOM     29  C   UNL A   1      44.534  31.720  28.767  1.00  0.00     0.037 A 
ATOM     30  C   UNL A   1      41.746  25.313  27.535  1.00  0.00     0.037 A 
ATOM     31  C   UNL A   1      45.346  30.838  27.978  1.00  0.00     0.049 A 
ATOM     32  C   UNL A   1      43.091  25.722  26.997  1.00  0.00     0.074 A 
ATOM     33  C   UNL A   1      46.597  31.063  27.439  1.00  0.00     0.029 A 
ATOM     34  N   UNL A   1      44.974  29.548  27.620  1.00  0.00    -0.354 N 
ATOM     35  N   UNL A   1      43.733  26.856  27.160  1.00  0.00    -0.248 NA
ATOM     36  C   UNL A   1      43.802  24.745  26.165  1.00  0.00     0.031 C 
ATOM     37  C   UNL A   1      46.962  29.923  26.714  1.00  0.00     0.029 A 
ATOM     38  C   UNL A   1      45.960  28.970  26.843  1.00  0.00     0.049 A 
ATOM     39  H   UNL A   1      44.131  29.109  27.882  1.00  0.00     0.167 HD
ATOM     40  C   UNL A   1      44.920  26.733  26.455  1.00  0.00     0.074 A 
ATOM     41  C   UNL A   1      44.920  25.402  25.878  1.00  0.00     0.031 C 
ATOM     42  C   UNL A   1      45.916  27.639  26.290  1.00  0.00     0.037 A 
BRANCH  29  43
ATOM     43  C   UNL A   1      45.035  33.093  29.099  1.00  0.00     0.064 A 
ATOM     44  C   UNL A   1      44.674  34.185  28.295  1.00  0.00     0.173 A 
ATOM     45  C   UNL A   1      45.836  33.344  30.224  1.00  0.00     0.173 A 
ATOM     46  F   UNL A   1      43.902  34.000  27.213  1.00  0.00    -0.203 F 
ATOM     47  C   UNL A   1      45.091  35.476  28.606  1.00  0.00     0.198 A 
ATOM     48  C   UNL A   1      46.230  34.640  30.547  1.00  0.00     0.198 A 
ATOM     49  F   UNL A   1      46.183  32.340  31.043  1.00  0.00    -0.203 F 
ATOM     50  F   UNL A   1      44.733  36.501  27.820  1.00  0.00    -0.200 F 
ATOM     51  C   UNL A   1      45.860  35.705  29.737  1.00  0.00     0.200 A 
ATOM     52  F   UNL A   1      46.943  34.866  31.659  1.00  0.00    -0.200 F 
ATOM     53  F   UNL A   1      46.233  36.952  30.054  1.00  0.00    -0.200 F 
ENDBRANCH  29  43
BRANCH  30  54
ATOM     54  C   UNL A   1      41.186  23.953  27.323  1.00  0.00     0.064 A 
ATOM     55  C   UNL A   1      41.783  22.823  27.909  1.00  0.00     0.173 A 
ATOM     56  C   UNL A   1      40.079  23.741  26.491  1.00  0.00     0.173 A 
ATOM     57  F   UNL A   1      42.842  22.968  28.719  1.00  0.00    -0.203 F 
ATOM     58  C   UNL A   1      41.321  21.537  27.639  1.00  0.00     0.198 A 
ATOM     59  C   UNL A   1      39.600  22.454  26.243  1.00  0.00     0.198 A 
ATOM     60  F   UNL A   1      39.456  24.784  25.926  1.00  0.00    -0.203 F 
ATOM     61  F   UNL A   1      41.943  20.477  28.173  1.00  0.00    -0.200 F 
ATOM     62  C   UNL A   1      40.230  21.353  26.806  1.00  0.00     0.200 A 
ATOM     63  F   UNL A   1      38.530  22.280  25.455  1.00  0.00    -0.200 F 
ATOM     64  F   UNL A   1      39.784  20.115  26.547  1.00  0.00    -0.200 F 
ENDBRANCH  30  54
BRANCH  42  65
ATOM     65  C   UNL A   1      47.087  27.228  25.452  1.00  0.00     0.064 A 
ATOM     66  C   UNL A   1      48.182  26.576  26.038  1.00  0.00     0.173 A 
ATOM     67  C   UNL A   1      47.175  27.593  24.103  1.00  0.00     0.173 A 
ATOM     68  F   UNL A   1      48.144  26.218  27.331  1.00  0.00    -0.203 F 
ATOM     69  C   UNL A   1      49.338  26.329  25.305  1.00  0.00     0.198 A 
ATOM     70  C   UNL A   1      48.324  27.321  23.366  1.00  0.00     0.198 A 
ATOM     71  F   UNL A   1      46.147  28.210  23.501  1.00  0.00    -0.203 F 
ATOM     72  F   UNL A   1      50.392  25.747  25.896  1.00  0.00    -0.200 F 
ATOM     73  C   UNL A   1      49.409  26.703  23.971  1.00  0.00     0.200 A 
ATOM     74  F   UNL A   1      48.386  27.666  22.073  1.00  0.00    -0.200 F 
ATOM     75  F   UNL A   1      50.525  26.469  23.269  1.00  0.00    -0.200 F 
ENDBRANCH  42  65
ENDBRANCH  16  17
ENDBRANCH   9  11
ENDBRANCH   8   9
ENDBRANCH   7   8
ENDBRANCH   6   7
ENDBRANCH   5   6
ENDBRANCH   4   5
ENDBRANCH   3   4
ENDBRANCH   2   3
ENDBRANCH   1   2
BRANCH   1  76
ATOM     76  C   UNL A   1      34.049  31.103  27.812  1.00  0.00     0.188 C 
BRANCH  76  77
ATOM     77  O   UNL A   1      33.999  30.279  26.657  1.00  0.00    -0.376 OA
BRANCH  77  78
ATOM     78  C   UNL A   1      34.237  28.897  26.851  1.00  0.00     0.202 C 
BRANCH  78  79
ATOM     79  C   UNL A   1      33.136  27.924  26.412  1.00  0.00     0.261 C 
BRANCH  79  80
ATOM     80  O   UNL A   1      33.483  26.537  26.284  1.00  0.00    -0.460 OA
BRANCH  80  81
ATOM     81  C   UNL A   1      32.550  25.558  26.398  1.00  0.00     0.340 C 
ATOM     82  O   UNL A   1      31.382  25.664  26.662  1.00  0.00    -0.246 OA
BRANCH  81  83
ATOM     83  C   UNL A   1      33.241  24.323  25.929  1.00  0.00     0.087 A 
ATOM     84  C   UNL A   1      33.229  23.207  26.783  1.00  0.00     0.060 A 
ATOM     85  C   UNL A   1      34.078  24.361  24.790  1.00  0.00     0.066 A 
ATOM     86  C   UNL A   1      34.079  22.142  26.529  1.00  0.00     0.159 A 
ATOM     87  C   UNL A   1      34.991  23.309  24.624  1.00  0.00     0.070 A 
ATOM     88  F   UNL A   1      34.062  21.075  27.337  1.00  0.00    -0.204 F 
ATOM     89  C   UNL A   1      34.969  22.204  25.472  1.00  0.00     0.160 A 
ATOM     90  F   UNL A   1      35.819  21.193  25.245  1.00  0.00    -0.204 F 
BRANCH  85  91
ATOM     91  N   UNL A   1      33.946  25.425  23.835  1.00  0.00    -0.279 N 
ATOM     92  H   UNL A   1      34.618  26.143  23.878  1.00  0.00     0.180 HD
BRANCH  91  93
ATOM     93  S   UNL A   1      32.762  25.572  22.650  1.00  0.00     0.261 S 
ATOM     94  O   UNL A   1      33.438  25.954  21.431  1.00  0.00    -0.201 OA
ATOM     95  O   UNL A   1      31.948  24.375  22.718  1.00  0.00    -0.201 OA
BRANCH  93  96
ATOM     96  C   UNL A   1      31.743  26.953  23.147  1.00  0.00     0.088 A 
ATOM     97  C   UNL A   1      32.194  28.250  22.822  1.00  0.00     0.022 A 
ATOM     98  C   UNL A   1      30.420  26.720  23.537  1.00  0.00     0.026 A 
ATOM     99  C   UNL A   1      31.296  29.318  22.791  1.00  0.00     0.005 A 
ATOM    100  C   UNL A   1      29.529  27.768  23.403  1.00  0.00    -0.043 A 
ATOM    101  C   UNL A   1      29.959  29.048  23.025  1.00  0.00    -0.045 A 
ATOM    102  C   UNL A   1      28.034  27.719  23.501  1.00  0.00     0.036 C 
ATOM    103  C   UNL A   1      28.788  29.971  22.871  1.00  0.00     0.036 C 
ATOM    104  C   UNL A   1      27.654  28.955  22.673  1.00  0.00     0.010 C 
ENDBRANCH  93  96
ENDBRANCH  91  93
ENDBRANCH  85  91
ENDBRANCH  81  83
ENDBRANCH  80  81
ENDBRANCH  79  80
ENDBRANCH  78  79
ENDBRANCH  77  78
ENDBRANCH  76  77
ENDBRANCH   1  76
TORSDOF 23
ENDMDL
MODEL 2
REMARK VINA RESULT:     -11.3      1.668      3.091
REMARK SMILES O=C(OCCOCCOCCOCCOC(=O)c1cc(F)c(F)cc1NS(=O)(=O)c1ccc2c(c1)CCC2)c1ccc(-c2c3nc(c(-c4c(F)c(F)c(F)c(F)c4F)c4ccc([nH]4)c(-c4c(F)c(F)c(F)c(F)c4F)c4nc(c(-c5c(F)c(F)c(F)c(F)c5F)c5ccc2[nH]5)C=C4)C=C3)cc1
REMARK SMILES IDX 10 1 9 2 8 3 7 4 6 5 5 6 4 7 3 8 2 9 1 10 39 11 40 12 101 13
REMARK SMILES IDX 41 14 100 15 42 16 43 17 44 18 94 19 45 20 99 21 93 22 95 23
REMARK SMILES IDX 46 24 98 25 92 26 91 27 47 29 79 30 59 31 78 32 60 33 63 34
REMARK SMILES IDX 77 35 96 36 61 37 62 38 76 40 97 41 64 42 48 43 49 44 57 45
REMARK SMILES IDX 50 46 51 47 55 48 58 49 52 50 53 51 56 52 54 53 80 54 81 55
REMARK SMILES IDX 89 56 82 57 83 58 87 59 90 60 84 61 85 62 88 63 86 64 65 65
REMARK SMILES IDX 66 66 74 67 67 68 68 69 72 70 75 71 69 72 70 73 73 74 71 75
REMARK SMILES IDX 11 76 12 77 13 78 14 79 15 80 16 81 17 82 18 83 19 84 25 85
REMARK SMILES IDX 20 86 24 87 21 88 22 89 23 90 26 91 27 93 28 94 29 95 30 96
REMARK SMILES IDX 31 97 35 98 32 99 34 100 33 101 36 102 38 103 37 104
REMARK H PARENT 95 28 63 39 26 92
REMARK Flexibility Score: inf
ROOT
ATOM      1  C   UNL A   1      34.263  31.931  28.290  1.00  0.00     0.188 C 
ENDROOT
BRANCH   1   2
ATOM      2  O   UNL A   1      33.527  33.144  28.155  1.00  0.00    -0.377 OA
BRANCH   2   3
ATOM      3  C   UNL A   1      34.242  34.348  28.425  1.00  0.00     0.188 C 
BRANCH   3   4
ATOM      4  C   UNL A   1      34.063  34.853  29.852  1.00  0.00     0.188 C 
BRANCH   4   5
ATOM      5  O   UNL A   1      35.251  34.588  30.606  1.00  0.00    -0.376 OA
BRANCH   5   6
ATOM      6  C   UNL A   1      35.095  34.679  32.022  1.00  0.00     0.202 C 
BRANCH   6   7
ATOM      7  C   UNL A   1      36.390  34.403  32.788  1.00  0.00     0.261 C 
BRANCH   7   8
ATOM      8  O   UNL A   1      36.457  33.049  33.261  1.00  0.00    -0.460 OA
BRANCH   8   9
ATOM      9  C   UNL A   1      36.224  31.906  32.569  1.00  0.00     0.338 C 
ATOM     10  O   UNL A   1      35.066  31.490  32.515  1.00  0.00    -0.246 OA
BRANCH   9  11
ATOM     11  C   UNL A   1      37.269  31.134  31.818  1.00  0.00     0.060 A 
ATOM     12  C   UNL A   1      38.281  30.353  32.381  1.00  0.00     0.016 A 
ATOM     13  C   UNL A   1      37.197  31.186  30.411  1.00  0.00     0.016 A 
ATOM     14  C   UNL A   1      39.246  29.735  31.598  1.00  0.00     0.010 A 
ATOM     15  C   UNL A   1      38.145  30.542  29.610  1.00  0.00     0.010 A 
ATOM     16  C   UNL A   1      39.202  29.855  30.212  1.00  0.00    -0.014 A 
BRANCH  16  17
ATOM     17  C   UNL A   1      40.388  29.420  29.457  1.00  0.00     0.031 A 
ATOM     18  C   UNL A   1      41.545  30.369  29.376  1.00  0.00     0.074 A 
ATOM     19  C   UNL A   1      40.483  28.151  29.027  1.00  0.00     0.049 A 
ATOM     20  N   UNL A   1      42.706  30.216  28.798  1.00  0.00    -0.248 NA
ATOM     21  C   UNL A   1      41.381  31.660  30.065  1.00  0.00     0.031 C 
ATOM     22  C   UNL A   1      39.453  27.128  29.206  1.00  0.00     0.029 A 
ATOM     23  N   UNL A   1      41.506  27.494  28.400  1.00  0.00    -0.354 N 
ATOM     24  C   UNL A   1      43.395  31.399  29.031  1.00  0.00     0.074 A 
ATOM     25  C   UNL A   1      42.529  32.262  29.800  1.00  0.00     0.031 C 
ATOM     26  C   UNL A   1      39.912  25.960  28.730  1.00  0.00     0.029 A 
ATOM     27  C   UNL A   1      41.239  26.169  28.157  1.00  0.00     0.049 A 
ATOM     28  H   UNL A   1      42.352  27.929  28.147  1.00  0.00     0.167 HD
ATOM     29  C   UNL A   1      44.642  31.727  28.629  1.00  0.00     0.037 A 
ATOM     30  C   UNL A   1      41.982  25.245  27.521  1.00  0.00     0.037 A 
ATOM     31  C   UNL A   1      45.480  30.840  27.872  1.00  0.00     0.049 A 
ATOM     32  C   UNL A   1      43.326  25.664  26.990  1.00  0.00     0.074 A 
ATOM     33  C   UNL A   1      46.734  31.074  27.344  1.00  0.00     0.029 A 
ATOM     34  N   UNL A   1      45.135  29.536  27.541  1.00  0.00    -0.354 N 
ATOM     35  N   UNL A   1      43.946  26.812  27.133  1.00  0.00    -0.248 NA
ATOM     36  C   UNL A   1      44.065  24.679  26.191  1.00  0.00     0.031 C 
ATOM     37  C   UNL A   1      47.128  29.923  26.652  1.00  0.00     0.029 A 
ATOM     38  C   UNL A   1      46.141  28.956  26.792  1.00  0.00     0.049 A 
ATOM     39  H   UNL A   1      44.297  29.089  27.803  1.00  0.00     0.167 HD
ATOM     40  C   UNL A   1      45.145  26.692  26.446  1.00  0.00     0.074 A 
ATOM     41  C   UNL A   1      45.175  25.348  25.902  1.00  0.00     0.031 C 
ATOM     42  C   UNL A   1      46.127  27.611  26.271  1.00  0.00     0.037 A 
BRANCH  29  43
ATOM     43  C   UNL A   1      45.116  33.116  28.933  1.00  0.00     0.064 A 
ATOM     44  C   UNL A   1      44.932  34.141  27.992  1.00  0.00     0.173 A 
ATOM     45  C   UNL A   1      45.713  33.451  30.158  1.00  0.00     0.173 A 
ATOM     46  F   UNL A   1      44.358  33.876  26.808  1.00  0.00    -0.203 F 
ATOM     47  C   UNL A   1      45.324  35.448  28.267  1.00  0.00     0.198 A 
ATOM     48  C   UNL A   1      46.080  34.764  30.440  1.00  0.00     0.198 A 
ATOM     49  F   UNL A   1      45.882  32.515  31.104  1.00  0.00    -0.203 F 
ATOM     50  F   UNL A   1      45.140  36.408  27.350  1.00  0.00    -0.200 F 
ATOM     51  C   UNL A   1      45.889  35.762  29.494  1.00  0.00     0.200 A 
ATOM     52  F   UNL A   1      46.593  35.073  31.639  1.00  0.00    -0.200 F 
ATOM     53  F   UNL A   1      46.234  37.026  29.771  1.00  0.00    -0.200 F 
ENDBRANCH  29  43
BRANCH  30  54
ATOM     54  C   UNL A   1      41.448  23.870  27.336  1.00  0.00     0.064 A 
ATOM     55  C   UNL A   1      42.062  22.764  27.949  1.00  0.00     0.173 A 
ATOM     56  C   UNL A   1      40.350  23.619  26.502  1.00  0.00     0.173 A 
ATOM     57  F   UNL A   1      43.113  22.946  28.762  1.00  0.00    -0.203 F 
ATOM     58  C   UNL A   1      41.626  21.464  27.705  1.00  0.00     0.198 A 
ATOM     59  C   UNL A   1      39.897  22.318  26.280  1.00  0.00     0.198 A 
ATOM     60  F   UNL A   1      39.712  24.638  25.910  1.00  0.00    -0.203 F 
ATOM     61  F   UNL A   1      42.263  20.428  28.266  1.00  0.00    -0.200 F 
ATOM     62  C   UNL A   1      40.542  21.242  26.870  1.00  0.00     0.200 A 
ATOM     63  F   UNL A   1      38.835  22.107  25.490  1.00  0.00    -0.200 F 
ATOM     64  F   UNL A   1      40.121  19.991  26.635  1.00  0.00    -0.200 F 
ENDBRANCH  30  54
BRANCH  42  65
ATOM     65  C   UNL A   1      47.316  27.201  25.459  1.00  0.00     0.064 A 
ATOM     66  C   UNL A   1      48.407  26.567  26.072  1.00  0.00     0.173 A 
ATOM     67  C   UNL A   1      47.424  27.548  24.106  1.00  0.00     0.173 A 
ATOM     68  F   UNL A   1      48.351  26.226  27.368  1.00  0.00    -0.203 F 
ATOM     69  C   UNL A   1      49.577  26.321  25.362  1.00  0.00     0.198 A 
ATOM     70  C   UNL A   1      48.587  27.278  23.393  1.00  0.00     0.198 A 
ATOM     71  F   UNL A   1      46.400  28.147  23.479  1.00  0.00    -0.203 F 
ATOM     72  F   UNL A   1      50.627  25.758  25.978  1.00  0.00    -0.200 F 
ATOM     73  C   UNL A   1      49.667  26.678  24.024  1.00  0.00     0.200 A 
ATOM     74  F   UNL A   1      48.667  27.606  22.096  1.00  0.00    -0.200 F 
ATOM     75  F   UNL A   1      50.798  26.446  23.344  1.00  0.00    -0.200 F 
ENDBRANCH  42  65
ENDBRANCH  16  17
ENDBRANCH   9  11
ENDBRANCH   8   9
ENDBRANCH   7   8
ENDBRANCH   6   7
ENDBRANCH   5   6
ENDBRANCH   4   5
ENDBRANCH   3   4
ENDBRANCH   2   3
ENDBRANCH   1   2
BRANCH   1  76
ATOM     76  C   UNL A   1      34.084  30.866  27.191  1.00  0.00     0.188 C 
BRANCH  76  77
ATOM     77  O   UNL A   1      34.246  29.548  27.695  1.00  0.00    -0.376 OA
BRANCH  77  78
ATOM     78  C   UNL A   1      33.401  28.551  27.152  1.00  0.00     0.202 C 
BRANCH  78  79
ATOM     79  C   UNL A   1      32.137  29.021  26.419  1.00  0.00     0.261 C 
BRANCH  79  80
ATOM     80  O   UNL A   1      31.533  28.117  25.484  1.00  0.00    -0.460 OA
BRANCH  80  81
ATOM     81  C   UNL A   1      31.254  26.831  25.817  1.00  0.00     0.340 C 
ATOM     82  O   UNL A   1      30.559  26.423  26.709  1.00  0.00    -0.246 OA
BRANCH  81  83
ATOM     83  C   UNL A   1      31.839  26.020  24.712  1.00  0.00     0.087 A 
ATOM     84  C   UNL A   1      32.843  26.616  23.929  1.00  0.00     0.060 A 
ATOM     85  C   UNL A   1      31.233  24.803  24.319  1.00  0.00     0.066 A 
ATOM     86  C   UNL A   1      33.219  26.024  22.733  1.00  0.00     0.159 A 
ATOM     87  C   UNL A   1      31.572  24.292  23.059  1.00  0.00     0.070 A 
ATOM     88  F   UNL A   1      34.180  26.587  21.991  1.00  0.00    -0.204 F 
ATOM     89  C   UNL A   1      32.571  24.885  22.290  1.00  0.00     0.160 A 
ATOM     90  F   UNL A   1      32.905  24.331  21.117  1.00  0.00    -0.204 F 
BRANCH  85  91
ATOM     91  N   UNL A   1      30.345  24.120  25.216  1.00  0.00    -0.279 N 
ATOM     92  H   UNL A   1      29.392  24.363  25.163  1.00  0.00     0.180 HD
BRANCH  91  93
ATOM     93  S   UNL A   1      30.761  22.949  26.348  1.00  0.00     0.261 S 
ATOM     94  O   UNL A   1      30.849  23.617  27.626  1.00  0.00    -0.201 OA
ATOM     95  O   UNL A   1      29.865  21.828  26.142  1.00  0.00    -0.201 OA
BRANCH  93  96
ATOM     96  C   UNL A   1      32.409  22.415  25.914  1.00  0.00     0.088 A 
ATOM     97  C   UNL A   1      32.534  21.386  24.956  1.00  0.00     0.022 A 
ATOM     98  C   UNL A   1      33.502  23.214  26.270  1.00  0.00     0.026 A 
ATOM     99  C   UNL A   1      33.736  21.208  24.269  1.00  0.00     0.005 A 
ATOM    100  C   UNL A   1      34.650  23.087  25.508  1.00  0.00    -0.043 A 
ATOM    101  C   UNL A   1      34.762  22.105  24.514  1.00  0.00    -0.045 A 
ATOM    102  C   UNL A   1      35.851  23.983  25.507  1.00  0.00     0.036 C 
ATOM    103  C   UNL A   1      36.065  22.241  23.787  1.00  0.00     0.036 C 
ATOM    104  C   UNL A   1      36.413  23.703  24.105  1.00  0.00     0.010 C 
ENDBRANCH  93  96
ENDBRANCH  91  93
ENDBRANCH  85  91
ENDBRANCH  81  83
ENDBRANCH  80  81
ENDBRANCH  79  80
ENDBRANCH  78  79
ENDBRANCH  77  78
ENDBRANCH  76  77
ENDBRANCH   1  76
TORSDOF 23
ENDMDL
MODEL 3
REMARK VINA RESULT:     -11.2      2.766      8.403
REMARK SMILES O=C(OCCOCCOCCOCCOC(=O)c1cc(F)c(F)cc1NS(=O)(=O)c1ccc2c(c1)CCC2)c1ccc(-c2c3nc(c(-c4c(F)c(F)c(F)c(F)c4F)c4ccc([nH]4)c(-c4c(F)c(F)c(F)c(F)c4F)c4nc(c(-c5c(F)c(F)c(F)c(F)c5F)c5ccc2[nH]5)C=C4)C=C3)cc1
REMARK SMILES IDX 10 1 9 2 8 3 7 4 6 5 5 6 4 7 3 8 2 9 1 10 39 11 40 12 101 13
REMARK SMILES IDX 41 14 100 15 42 16 43 17 44 18 94 19 45 20 99 21 93 22 95 23
REMARK SMILES IDX 46 24 98 25 92 26 91 27 47 29 79 30 59 31 78 32 60 33 63 34
REMARK SMILES IDX 77 35 96 36 61 37 62 38 76 40 97 41 64 42 48 43 49 44 57 45
REMARK SMILES IDX 50 46 51 47 55 48 58 49 52 50 53 51 56 52 54 53 80 54 81 55
REMARK SMILES IDX 89 56 82 57 83 58 87 59 90 60 84 61 85 62 88 63 86 64 65 65
REMARK SMILES IDX 66 66 74 67 67 68 68 69 72 70 75 71 69 72 70 73 73 74 71 75
REMARK SMILES IDX 11 76 12 77 13 78 14 79 15 80 16 81 17 82 18 83 19 84 25 85
REMARK SMILES IDX 20 86 24 87 21 88 22 89 23 90 26 91 27 93 28 94 29 95 30 96
REMARK SMILES IDX 31 97 35 98 32 99 34 100 33 101 36 102 38 103 37 104
REMARK H PARENT 95 28 63 39 26 92
REMARK Flexibility Score: inf
ROOT
ATOM      1  C   UNL A   1      32.883  20.787  25.506  1.00  0.00     0.188 C 
ENDROOT
BRANCH   1   2
ATOM      2  O   UNL A   1      33.798  20.221  24.572  1.00  0.00    -0.377 OA
BRANCH   2   3
ATOM      3  C   UNL A   1      35.145  20.076  25.018  1.00  0.00     0.188 C 
BRANCH   3   4
ATOM      4  C   UNL A   1      35.766  18.734  24.647  1.00  0.00     0.188 C 
BRANCH   4   5
ATOM      5  O   UNL A   1      37.155  18.735  24.998  1.00  0.00    -0.376 OA
BRANCH   5   6
ATOM      6  C   UNL A   1      37.853  19.939  24.678  1.00  0.00     0.202 C 
BRANCH   6   7
ATOM      7  C   UNL A   1      38.834  20.372  25.769  1.00  0.00     0.261 C 
BRANCH   7   8
ATOM      8  O   UNL A   1      39.848  19.382  26.004  1.00  0.00    -0.460 OA
BRANCH   8   9
ATOM      9  C   UNL A   1      41.191  19.557  26.074  1.00  0.00     0.338 C 
ATOM     10  O   UNL A   1      41.914  18.619  25.734  1.00  0.00    -0.246 OA
BRANCH   9  11
ATOM     11  C   UNL A   1      41.866  20.831  26.490  1.00  0.00     0.060 A 
ATOM     12  C   UNL A   1      42.222  21.189  27.791  1.00  0.00     0.016 A 
ATOM     13  C   UNL A   1      42.192  21.734  25.457  1.00  0.00     0.016 A 
ATOM     14  C   UNL A   1      42.778  22.427  28.081  1.00  0.00     0.010 A 
ATOM     15  C   UNL A   1      42.782  22.971  25.732  1.00  0.00     0.010 A 
ATOM     16  C   UNL A   1      43.029  23.336  27.058  1.00  0.00    -0.014 A 
BRANCH  16  17
ATOM     17  C   UNL A   1      43.356  24.718  27.445  1.00  0.00     0.031 A 
ATOM     18  C   UNL A   1      44.720  25.232  27.094  1.00  0.00     0.074 A 
ATOM     19  C   UNL A   1      42.396  25.527  27.921  1.00  0.00     0.049 A 
ATOM     20  N   UNL A   1      45.241  26.412  27.299  1.00  0.00    -0.248 NA
ATOM     21  C   UNL A   1      45.612  24.294  26.392  1.00  0.00     0.031 C 
ATOM     22  C   UNL A   1      41.005  25.134  28.144  1.00  0.00     0.029 A 
ATOM     23  N   UNL A   1      42.430  26.855  28.252  1.00  0.00    -0.354 N 
ATOM     24  C   UNL A   1      46.525  26.346  26.776  1.00  0.00     0.074 A 
ATOM     25  C   UNL A   1      46.711  25.015  26.246  1.00  0.00     0.031 C 
ATOM     26  C   UNL A   1      40.307  26.209  28.544  1.00  0.00     0.029 A 
ATOM     27  C   UNL A   1      41.216  27.346  28.666  1.00  0.00     0.049 A 
ATOM     28  H   UNL A   1      43.244  27.404  28.200  1.00  0.00     0.167 HD
ATOM     29  C   UNL A   1      47.463  27.318  26.751  1.00  0.00     0.037 A 
ATOM     30  C   UNL A   1      40.892  28.574  29.112  1.00  0.00     0.037 A 
ATOM     31  C   UNL A   1      47.242  28.635  27.280  1.00  0.00     0.049 A 
ATOM     32  C   UNL A   1      41.980  29.612  29.172  1.00  0.00     0.074 A 
ATOM     33  C   UNL A   1      48.128  29.689  27.380  1.00  0.00     0.029 A 
ATOM     34  N   UNL A   1      46.029  29.071  27.799  1.00  0.00    -0.354 N 
ATOM     35  N   UNL A   1      43.224  29.526  28.759  1.00  0.00    -0.248 NA
ATOM     36  C   UNL A   1      41.638  30.904  29.779  1.00  0.00     0.031 C 
ATOM     37  C   UNL A   1      47.462  30.750  28.003  1.00  0.00     0.029 A 
ATOM     38  C   UNL A   1      46.148  30.373  28.247  1.00  0.00     0.049 A 
ATOM     39  H   UNL A   1      45.205  28.532  27.842  1.00  0.00     0.167 HD
ATOM     40  C   UNL A   1      43.813  30.746  29.053  1.00  0.00     0.074 A 
ATOM     41  C   UNL A   1      42.783  31.565  29.662  1.00  0.00     0.031 C 
ATOM     42  C   UNL A   1      45.092  31.150  28.848  1.00  0.00     0.037 A 
BRANCH  29  43
ATOM     43  C   UNL A   1      48.813  26.953  26.211  1.00  0.00     0.064 A 
ATOM     44  C   UNL A   1      49.755  26.327  27.043  1.00  0.00     0.173 A 
ATOM     45  C   UNL A   1      49.169  27.181  24.873  1.00  0.00     0.173 A 
ATOM     46  F   UNL A   1      49.460  26.079  28.328  1.00  0.00    -0.203 F 
ATOM     47  C   UNL A   1      50.999  25.940  26.555  1.00  0.00     0.198 A 
ATOM     48  C   UNL A   1      50.405  26.768  24.382  1.00  0.00     0.198 A 
ATOM     49  F   UNL A   1      48.294  27.747  24.029  1.00  0.00    -0.203 F 
ATOM     50  F   UNL A   1      51.881  25.345  27.370  1.00  0.00    -0.200 F 
ATOM     51  C   UNL A   1      51.320  26.150  25.223  1.00  0.00     0.200 A 
ATOM     52  F   UNL A   1      50.702  26.940  23.086  1.00  0.00    -0.200 F 
ATOM     53  F   UNL A   1      52.506  25.746  24.746  1.00  0.00    -0.200 F 
ENDBRANCH  29  43
BRANCH  30  54
ATOM     54  C   UNL A   1      39.502  28.854  29.557  1.00  0.00     0.064 A 
ATOM     55  C   UNL A   1      38.555  29.402  28.674  1.00  0.00     0.173 A 
ATOM     56  C   UNL A   1      39.100  28.634  30.881  1.00  0.00     0.173 A 
ATOM     57  F   UNL A   1      38.883  29.628  27.393  1.00  0.00    -0.203 F 
ATOM     58  C   UNL A   1      37.279  29.755  29.107  1.00  0.00     0.198 A 
ATOM     59  C   UNL A   1      37.812  28.963  31.307  1.00  0.00     0.198 A 
ATOM     60  F   UNL A   1      39.954  28.092  31.759  1.00  0.00    -0.203 F 
ATOM     61  F   UNL A   1      36.415  30.321  28.254  1.00  0.00    -0.200 F 
ATOM     62  C   UNL A   1      36.908  29.535  30.424  1.00  0.00     0.200 A 
ATOM     63  F   UNL A   1      37.449  28.728  32.575  1.00  0.00    -0.200 F 
ATOM     64  F   UNL A   1      35.680  29.873  30.841  1.00  0.00    -0.200 F 
ENDBRANCH  30  54
BRANCH  42  65
ATOM     65  C   UNL A   1      45.453  32.536  29.286  1.00  0.00     0.064 A 
ATOM     66  C   UNL A   1      45.858  32.778  30.607  1.00  0.00     0.173 A 
ATOM     67  C   UNL A   1      45.276  33.633  28.433  1.00  0.00     0.173 A 
ATOM     68  F   UNL A   1      46.029  31.757  31.460  1.00  0.00    -0.203 F 
ATOM     69  C   UNL A   1      46.046  34.077  31.066  1.00  0.00     0.198 A 
ATOM     70  C   UNL A   1      45.490  34.930  28.890  1.00  0.00     0.198 A 
ATOM     71  F   UNL A   1      44.899  33.446  27.159  1.00  0.00    -0.203 F 
ATOM     72  F   UNL A   1      46.387  34.291  32.345  1.00  0.00    -0.200 F 
ATOM     73  C   UNL A   1      45.861  35.151  30.209  1.00  0.00     0.200 A 
ATOM     74  F   UNL A   1      45.328  35.967  28.057  1.00  0.00    -0.200 F 
ATOM     75  F   UNL A   1      46.036  36.402  30.655  1.00  0.00    -0.200 F 
ENDBRANCH  42  65
ENDBRANCH  16  17
ENDBRANCH   9  11
ENDBRANCH   8   9
ENDBRANCH   7   8
ENDBRANCH   6   7
ENDBRANCH   5   6
ENDBRANCH   4   5
ENDBRANCH   3   4
ENDBRANCH   2   3
ENDBRANCH   1   2
BRANCH   1  76
ATOM     76  C   UNL A   1      31.855  21.800  24.967  1.00  0.00     0.188 C 
BRANCH  76  77
ATOM     77  O   UNL A   1      30.846  22.094  25.922  1.00  0.00    -0.376 OA
BRANCH  77  78
ATOM     78  C   UNL A   1      30.612  23.463  26.198  1.00  0.00     0.202 C 
BRANCH  78  79
ATOM     79  C   UNL A   1      31.820  24.315  26.608  1.00  0.00     0.261 C 
BRANCH  79  80
ATOM     80  O   UNL A   1      32.011  25.567  25.935  1.00  0.00    -0.460 OA
BRANCH  80  81
ATOM     81  C   UNL A   1      33.252  26.068  25.704  1.00  0.00     0.340 C 
ATOM     82  O   UNL A   1      33.729  27.097  26.100  1.00  0.00    -0.246 OA
BRANCH  81  83
ATOM     83  C   UNL A   1      33.979  24.967  25.009  1.00  0.00     0.087 A 
ATOM     84  C   UNL A   1      35.085  24.402  25.667  1.00  0.00     0.060 A 
ATOM     85  C   UNL A   1      33.715  24.682  23.649  1.00  0.00     0.066 A 
ATOM     86  C   UNL A   1      35.954  23.583  24.962  1.00  0.00     0.159 A 
ATOM     87  C   UNL A   1      34.670  23.932  22.950  1.00  0.00     0.070 A 
ATOM     88  F   UNL A   1      37.004  23.039  25.590  1.00  0.00    -0.204 F 
ATOM     89  C   UNL A   1      35.761  23.370  23.609  1.00  0.00     0.160 A 
ATOM     90  F   UNL A   1      36.620  22.611  22.916  1.00  0.00    -0.204 F 
BRANCH  85  91
ATOM     91  N   UNL A   1      32.487  25.121  23.048  1.00  0.00    -0.279 N 
ATOM     92  H   UNL A   1      31.685  24.583  23.239  1.00  0.00     0.180 HD
BRANCH  91  93
ATOM     93  S   UNL A   1      32.276  26.458  22.050  1.00  0.00     0.261 S 
ATOM     94  O   UNL A   1      33.579  27.058  21.878  1.00  0.00    -0.201 OA
ATOM     95  O   UNL A   1      31.494  26.014  20.913  1.00  0.00    -0.201 OA
BRANCH  93  96
ATOM     96  C   UNL A   1      31.280  27.610  22.982  1.00  0.00     0.088 A 
ATOM     97  C   UNL A   1      31.926  28.736  23.536  1.00  0.00     0.022 A 
ATOM     98  C   UNL A   1      29.886  27.554  22.871  1.00  0.00     0.026 A 
ATOM     99  C   UNL A   1      31.186  29.863  23.899  1.00  0.00     0.005 A 
ATOM    100  C   UNL A   1      29.184  28.714  23.141  1.00  0.00    -0.043 A 
ATOM    101  C   UNL A   1      29.826  29.857  23.639  1.00  0.00    -0.045 A 
ATOM    102  C   UNL A   1      27.740  28.998  22.858  1.00  0.00     0.036 C 
ATOM    103  C   UNL A   1      28.856  30.993  23.762  1.00  0.00     0.036 C 
ATOM    104  C   UNL A   1      27.760  30.532  22.789  1.00  0.00     0.010 C 
ENDBRANCH  93  96
ENDBRANCH  91  93
ENDBRANCH  85  91
ENDBRANCH  81  83
ENDBRANCH  80  81
ENDBRANCH  79  80
ENDBRANCH  78  79
ENDBRANCH  77  78
ENDBRANCH  76  77
ENDBRANCH   1  76
TORSDOF 23
ENDMDL
