MODEL 1
REMARK VINA RESULT:     -10.1      0.000      0.000
REMARK SMILES Cc1cc(C[N@@H+]2C[C@@H](C(=O)OCCOCCOCCOCCOC(=O)c3ccc(-c4c5nc(c(-c6c(F)c(F)c(F)c(F)c6F)c6ccc([nH]6)c(-c6c(F)c(F)c(F)c(F)c6F)c6nc(c(-c7c(F)c(F)c(F)c(F)c7F)c7ccc4[nH]7)C=C6)C=C5)cc3)[C@H](C3CC3)C2)on1
REMARK SMILES IDX 17 1 16 2 15 3 14 4 13 5 12 6 11 7 9 8 10 9 8 10 6 11 7 12
REMARK SMILES IDX 93 13 89 15 5 16 4 17 1 18 2 19 3 20 95 21 94 22 90 23 91 24
REMARK SMILES IDX 92 25 18 26 19 27 20 28 21 29 22 30 23 31 24 32 25 33 26 34
REMARK SMILES IDX 27 35 88 36 28 37 87 38 29 39 30 40 31 41 81 42 32 43 86 44
REMARK SMILES IDX 80 45 82 46 33 47 85 48 79 49 78 50 34 52 66 53 46 54 65 55
REMARK SMILES IDX 47 56 50 57 64 58 83 59 48 60 49 61 63 63 84 64 51 65 35 66
REMARK SMILES IDX 36 67 44 68 37 69 38 70 42 71 45 72 39 73 40 74 43 75 41 76
REMARK SMILES IDX 67 77 68 78 76 79 69 80 70 81 74 82 77 83 71 84 72 85 75 86
REMARK SMILES IDX 73 87 52 88 53 89 61 90 54 91 55 92 59 93 62 94 56 95 57 96
REMARK SMILES IDX 60 97 58 98
REMARK H PARENT 6 14 82 51 50 62
REMARK Flexibility Score: inf
ROOT
ATOM      1  O   UNL A   1      38.876  21.537  25.706  1.00  0.00    -0.377 OA
ENDROOT
BRANCH   1   2
ATOM      2  C   UNL A   1      37.805  20.767  25.196  1.00  0.00     0.188 C 
BRANCH   2   3
ATOM      3  C   UNL A   1      36.537  21.582  24.859  1.00  0.00     0.188 C 
BRANCH   3   4
ATOM      4  O   UNL A   1      36.616  22.897  24.326  1.00  0.00    -0.376 OA
BRANCH   4   5
ATOM      5  C   UNL A   1      35.660  23.338  23.378  1.00  0.00     0.202 C 
BRANCH   5   6
ATOM      6  C   UNL A   1      34.781  24.562  23.685  1.00  0.00     0.261 C 
BRANCH   6   7
ATOM      7  O   UNL A   1      33.797  24.911  22.697  1.00  0.00    -0.463 OA
BRANCH   7   8
ATOM      8  C   UNL A   1      32.506  24.626  23.016  1.00  0.00     0.315 C 
ATOM      9  O   UNL A   1      31.543  25.082  22.411  1.00  0.00    -0.252 OA
BRANCH   8  10
ATOM     10  C   UNL A   1      32.360  23.658  24.180  1.00  0.00     0.163 C 
ATOM     11  N   UNL A   1      31.669  21.516  24.998  1.00  0.00    -0.328 N 
ATOM     12  C   UNL A   1      32.129  22.201  23.778  1.00  0.00     0.278 C 
ATOM     13  C   UNL A   1      30.943  22.517  25.790  1.00  0.00     0.267 C 
ATOM     14  H   UNL A   1      31.050  20.741  24.758  1.00  0.00     0.348 HD
ATOM     15  C   UNL A   1      31.231  23.915  25.188  1.00  0.00     0.067 C 
BRANCH  11  16
ATOM     16  C   UNL A   1      32.752  20.838  25.741  1.00  0.00     0.341 C 
BRANCH  16  17
ATOM     17  C   UNL A   1      33.080  19.467  25.269  1.00  0.00     0.191 A 
ATOM     18  C   UNL A   1      34.026  16.603  23.221  1.00  0.00     0.070 C 
ATOM     19  C   UNL A   1      33.556  17.601  24.205  1.00  0.00     0.081 A 
ATOM     20  C   UNL A   1      33.947  18.952  24.335  1.00  0.00     0.078 A 
ATOM     21  N   UNL A   1      32.592  17.288  25.080  1.00  0.00    -0.085 NA
ATOM     22  O   UNL A   1      32.305  18.459  25.757  1.00  0.00    -0.355 OA
ENDBRANCH  16  17
ENDBRANCH  11  16
BRANCH  15  23
ATOM     23  C   UNL A   1      31.448  24.954  26.267  1.00  0.00    -0.001 C 
ATOM     24  C   UNL A   1      32.324  26.175  26.134  1.00  0.00     0.004 C 
ATOM     25  C   UNL A   1      30.836  26.331  26.121  1.00  0.00     0.004 C 
ENDBRANCH  15  23
ENDBRANCH   8  10
ENDBRANCH   7   8
ENDBRANCH   6   7
ENDBRANCH   5   6
ENDBRANCH   4   5
ENDBRANCH   3   4
ENDBRANCH   2   3
ENDBRANCH   1   2
BRANCH   1  26
ATOM     26  C   UNL A   1      39.996  20.771  26.117  1.00  0.00     0.188 C 
BRANCH  26  27
ATOM     27  C   UNL A   1      41.292  21.562  26.364  1.00  0.00     0.188 C 
BRANCH  27  28
ATOM     28  O   UNL A   1      42.364  20.723  26.790  1.00  0.00    -0.376 OA
BRANCH  28  29
ATOM     29  C   UNL A   1      42.199  19.318  26.698  1.00  0.00     0.202 C 
BRANCH  29  30
ATOM     30  C   UNL A   1      43.204  18.592  25.792  1.00  0.00     0.261 C 
BRANCH  30  31
ATOM     31  O   UNL A   1      43.511  19.238  24.546  1.00  0.00    -0.460 OA
BRANCH  31  32
ATOM     32  C   UNL A   1      44.802  19.538  24.283  1.00  0.00     0.338 C 
ATOM     33  O   UNL A   1      45.607  18.855  23.678  1.00  0.00    -0.246 OA
BRANCH  32  34
ATOM     34  C   UNL A   1      45.004  20.959  24.650  1.00  0.00     0.060 A 
ATOM     35  C   UNL A   1      45.581  21.255  25.892  1.00  0.00     0.016 A 
ATOM     36  C   UNL A   1      44.717  21.985  23.743  1.00  0.00     0.016 A 
ATOM     37  C   UNL A   1      45.879  22.578  26.228  1.00  0.00     0.010 A 
ATOM     38  C   UNL A   1      44.981  23.312  24.097  1.00  0.00     0.010 A 
ATOM     39  C   UNL A   1      45.550  23.614  25.346  1.00  0.00    -0.014 A 
BRANCH  39  40
ATOM     40  C   UNL A   1      45.609  25.020  25.810  1.00  0.00     0.031 A 
ATOM     41  C   UNL A   1      46.938  25.721  25.760  1.00  0.00     0.074 A 
ATOM     42  C   UNL A   1      44.519  25.667  26.255  1.00  0.00     0.049 A 
ATOM     43  N   UNL A   1      47.262  26.926  26.151  1.00  0.00    -0.248 NA
ATOM     44  C   UNL A   1      48.055  24.952  25.187  1.00  0.00     0.031 C 
ATOM     45  C   UNL A   1      43.168  25.112  26.309  1.00  0.00     0.029 A 
ATOM     46  N   UNL A   1      44.383  26.938  26.758  1.00  0.00    -0.354 N 
ATOM     47  C   UNL A   1      48.614  27.060  25.870  1.00  0.00     0.074 A 
ATOM     48  C   UNL A   1      49.059  25.807  25.301  1.00  0.00     0.031 C 
ATOM     49  C   UNL A   1      42.341  26.035  26.834  1.00  0.00     0.029 A 
ATOM     50  C   UNL A   1      43.109  27.230  27.181  1.00  0.00     0.049 A 
ATOM     51  H   UNL A   1      45.128  27.580  26.809  1.00  0.00     0.167 HD
ATOM     52  C   UNL A   1      49.413  28.135  26.062  1.00  0.00     0.037 A 
ATOM     53  C   UNL A   1      42.633  28.327  27.805  1.00  0.00     0.037 A 
ATOM     54  C   UNL A   1      48.973  29.375  26.645  1.00  0.00     0.049 A 
ATOM     55  C   UNL A   1      43.567  29.475  28.099  1.00  0.00     0.074 A 
ATOM     56  C   UNL A   1      49.703  30.528  26.872  1.00  0.00     0.029 A 
ATOM     57  N   UNL A   1      47.688  29.615  27.107  1.00  0.00    -0.354 N 
ATOM     58  N   UNL A   1      44.838  29.609  27.804  1.00  0.00    -0.248 NA
ATOM     59  C   UNL A   1      42.999  30.626  28.819  1.00  0.00     0.031 C 
ATOM     60  C   UNL A   1      48.874  31.445  27.526  1.00  0.00     0.029 A 
ATOM     61  C   UNL A   1      47.613  30.887  27.651  1.00  0.00     0.049 A 
ATOM     62  H   UNL A   1      46.940  28.977  27.055  1.00  0.00     0.167 HD
ATOM     63  C   UNL A   1      45.213  30.862  28.276  1.00  0.00     0.074 A 
ATOM     64  C   UNL A   1      44.031  31.456  28.863  1.00  0.00     0.031 C 
ATOM     65  C   UNL A   1      46.427  31.465  28.230  1.00  0.00     0.037 A 
BRANCH  52  66
ATOM     66  C   UNL A   1      50.854  28.002  25.670  1.00  0.00     0.064 A 
ATOM     67  C   UNL A   1      51.853  27.725  26.615  1.00  0.00     0.173 A 
ATOM     68  C   UNL A   1      51.238  28.132  24.328  1.00  0.00     0.173 A 
ATOM     69  F   UNL A   1      51.540  27.613  27.916  1.00  0.00    -0.203 F 
ATOM     70  C   UNL A   1      53.186  27.604  26.233  1.00  0.00     0.198 A 
ATOM     71  C   UNL A   1      52.567  27.981  23.944  1.00  0.00     0.198 A 
ATOM     72  F   UNL A   1      50.321  28.399  23.384  1.00  0.00    -0.203 F 
ATOM     73  F   UNL A   1      54.130  27.385  27.159  1.00  0.00    -0.200 F 
ATOM     74  C   UNL A   1      53.541  27.723  24.897  1.00  0.00     0.200 A 
ATOM     75  F   UNL A   1      52.906  28.087  22.652  1.00  0.00    -0.200 F 
ATOM     76  F   UNL A   1      54.824  27.598  24.530  1.00  0.00    -0.200 F 
ENDBRANCH  52  66
BRANCH  53  77
ATOM     77  C   UNL A   1      41.206  28.389  28.224  1.00  0.00     0.064 A 
ATOM     78  C   UNL A   1      40.219  28.894  27.365  1.00  0.00     0.173 A 
ATOM     79  C   UNL A   1      40.807  27.984  29.505  1.00  0.00     0.173 A 
ATOM     80  F   UNL A   1      40.555  29.327  26.140  1.00  0.00    -0.203 F 
ATOM     81  C   UNL A   1      38.893  29.009  27.778  1.00  0.00     0.198 A 
ATOM     82  C   UNL A   1      39.474  28.070  29.907  1.00  0.00     0.198 A 
ATOM     83  F   UNL A   1      41.711  27.503  30.370  1.00  0.00    -0.203 F 
ATOM     84  F   UNL A   1      37.981  29.546  26.957  1.00  0.00    -0.200 F 
ATOM     85  C   UNL A   1      38.521  28.591  29.047  1.00  0.00     0.200 A 
ATOM     86  F   UNL A   1      39.119  27.659  31.132  1.00  0.00    -0.200 F 
ATOM     87  F   UNL A   1      37.246  28.702  29.445  1.00  0.00    -0.200 F 
ENDBRANCH  53  77
BRANCH  65  88
ATOM     88  C   UNL A   1      46.536  32.848  28.805  1.00  0.00     0.064 A 
ATOM     89  C   UNL A   1      46.268  33.990  28.035  1.00  0.00     0.173 A 
ATOM     90  C   UNL A   1      46.865  33.032  30.158  1.00  0.00     0.173 A 
ATOM     91  F   UNL A   1      45.961  33.871  26.735  1.00  0.00    -0.203 F 
ATOM     92  C   UNL A   1      46.352  35.265  28.591  1.00  0.00     0.198 A 
ATOM     93  C   UNL A   1      46.916  34.305  30.718  1.00  0.00     0.198 A 
ATOM     94  F   UNL A   1      47.121  31.973  30.941  1.00  0.00    -0.203 F 
ATOM     95  F   UNL A   1      46.139  36.342  27.824  1.00  0.00    -0.200 F 
ATOM     96  C   UNL A   1      46.667  35.421  29.932  1.00  0.00     0.200 A 
ATOM     97  F   UNL A   1      47.205  34.453  32.018  1.00  0.00    -0.200 F 
ATOM     98  F   UNL A   1      46.737  36.648  30.467  1.00  0.00    -0.200 F 
ENDBRANCH  65  88
ENDBRANCH  39  40
ENDBRANCH  32  34
ENDBRANCH  31  32
ENDBRANCH  30  31
ENDBRANCH  29  30
ENDBRANCH  28  29
ENDBRANCH  27  28
ENDBRANCH  26  27
ENDBRANCH   1  26
TORSDOF 23
ENDMDL
MODEL 2
REMARK VINA RESULT:     -10.0      3.060      5.498
REMARK SMILES Cc1cc(C[N@@H+]2C[C@@H](C(=O)OCCOCCOCCOCCOC(=O)c3ccc(-c4c5nc(c(-c6c(F)c(F)c(F)c(F)c6F)c6ccc([nH]6)c(-c6c(F)c(F)c(F)c(F)c6F)c6nc(c(-c7c(F)c(F)c(F)c(F)c7F)c7ccc4[nH]7)C=C6)C=C5)cc3)[C@H](C3CC3)C2)on1
REMARK SMILES IDX 17 1 16 2 15 3 14 4 13 5 12 6 11 7 9 8 10 9 8 10 6 11 7 12
REMARK SMILES IDX 93 13 89 15 5 16 4 17 1 18 2 19 3 20 95 21 94 22 90 23 91 24
REMARK SMILES IDX 92 25 18 26 19 27 20 28 21 29 22 30 23 31 24 32 25 33 26 34
REMARK SMILES IDX 27 35 88 36 28 37 87 38 29 39 30 40 31 41 81 42 32 43 86 44
REMARK SMILES IDX 80 45 82 46 33 47 85 48 79 49 78 50 34 52 66 53 46 54 65 55
REMARK SMILES IDX 47 56 50 57 64 58 83 59 48 60 49 61 63 63 84 64 51 65 35 66
REMARK SMILES IDX 36 67 44 68 37 69 38 70 42 71 45 72 39 73 40 74 43 75 41 76
REMARK SMILES IDX 67 77 68 78 76 79 69 80 70 81 74 82 77 83 71 84 72 85 75 86
REMARK SMILES IDX 73 87 52 88 53 89 61 90 54 91 55 92 59 93 62 94 56 95 57 96
REMARK SMILES IDX 60 97 58 98
REMARK H PARENT 6 14 82 51 50 62
REMARK Flexibility Score: inf
ROOT
ATOM      1  O   UNL A   1      35.498  21.916  23.908  1.00  0.00    -0.377 OA
ENDROOT
BRANCH   1   2
ATOM      2  C   UNL A   1      35.852  23.214  24.346  1.00  0.00     0.188 C 
BRANCH   2   3
ATOM      3  C   UNL A   1      35.666  23.449  25.862  1.00  0.00     0.188 C 
BRANCH   3   4
ATOM      4  O   UNL A   1      34.556  24.173  26.373  1.00  0.00    -0.376 OA
BRANCH   4   5
ATOM      5  C   UNL A   1      33.393  23.484  26.798  1.00  0.00     0.202 C 
BRANCH   5   6
ATOM      6  C   UNL A   1      32.013  24.147  26.661  1.00  0.00     0.261 C 
BRANCH   6   7
ATOM      7  O   UNL A   1      31.897  25.198  25.686  1.00  0.00    -0.463 OA
BRANCH   7   8
ATOM      8  C   UNL A   1      31.134  26.263  26.048  1.00  0.00     0.315 C 
ATOM      9  O   UNL A   1      29.957  26.171  26.379  1.00  0.00    -0.252 OA
BRANCH   8  10
ATOM     10  C   UNL A   1      31.881  27.588  26.039  1.00  0.00     0.163 C 
ATOM     11  N   UNL A   1      32.389  29.669  27.108  1.00  0.00    -0.328 N 
ATOM     12  C   UNL A   1      31.960  28.290  27.395  1.00  0.00     0.278 C 
ATOM     13  C   UNL A   1      31.861  30.002  25.779  1.00  0.00     0.267 C 
ATOM     14  H   UNL A   1      32.013  30.310  27.807  1.00  0.00     0.348 HD
ATOM     15  C   UNL A   1      31.363  28.696  25.112  1.00  0.00     0.067 C 
BRANCH  11  16
ATOM     16  C   UNL A   1      33.847  29.877  27.239  1.00  0.00     0.341 C 
BRANCH  16  17
ATOM     17  C   UNL A   1      34.255  31.246  27.648  1.00  0.00     0.191 A 
ATOM     18  C   UNL A   1      34.338  34.840  28.255  1.00  0.00     0.070 C 
ATOM     19  C   UNL A   1      34.543  33.392  28.042  1.00  0.00     0.081 A 
ATOM     20  C   UNL A   1      33.585  32.355  28.107  1.00  0.00     0.078 A 
ATOM     21  N   UNL A   1      35.742  32.923  27.675  1.00  0.00    -0.085 NA
ATOM     22  O   UNL A   1      35.562  31.572  27.442  1.00  0.00    -0.355 OA
ENDBRANCH  16  17
ENDBRANCH  11  16
BRANCH  15  23
ATOM     23  C   UNL A   1      31.731  28.642  23.645  1.00  0.00    -0.001 C 
ATOM     24  C   UNL A   1      31.370  27.525  22.699  1.00  0.00     0.004 C 
ATOM     25  C   UNL A   1      30.661  28.839  22.592  1.00  0.00     0.004 C 
ENDBRANCH  15  23
ENDBRANCH   8  10
ENDBRANCH   7   8
ENDBRANCH   6   7
ENDBRANCH   5   6
ENDBRANCH   4   5
ENDBRANCH   3   4
ENDBRANCH   2   3
ENDBRANCH   1   2
BRANCH   1  26
ATOM     26  C   UNL A   1      35.226  21.004  24.960  1.00  0.00     0.188 C 
BRANCH  26  27
ATOM     27  C   UNL A   1      36.103  19.741  24.992  1.00  0.00     0.188 C 
BRANCH  27  28
ATOM     28  O   UNL A   1      37.424  19.989  24.511  1.00  0.00    -0.376 OA
BRANCH  28  29
ATOM     29  C   UNL A   1      38.391  20.489  25.420  1.00  0.00     0.202 C 
BRANCH  29  30
ATOM     30  C   UNL A   1      39.560  19.543  25.726  1.00  0.00     0.261 C 
BRANCH  30  31
ATOM     31  O   UNL A   1      40.844  20.164  25.910  1.00  0.00    -0.460 OA
BRANCH  31  32
ATOM     32  C   UNL A   1      41.324  20.277  27.167  1.00  0.00     0.338 C 
ATOM     33  O   UNL A   1      41.684  19.374  27.901  1.00  0.00    -0.246 OA
BRANCH  32  34
ATOM     34  C   UNL A   1      41.570  21.717  27.414  1.00  0.00     0.060 A 
ATOM     35  C   UNL A   1      41.011  22.653  26.535  1.00  0.00     0.016 A 
ATOM     36  C   UNL A   1      42.263  22.144  28.551  1.00  0.00     0.016 A 
ATOM     37  C   UNL A   1      41.136  24.020  26.794  1.00  0.00     0.010 A 
ATOM     38  C   UNL A   1      42.421  23.513  28.789  1.00  0.00     0.010 A 
ATOM     39  C   UNL A   1      41.871  24.455  27.904  1.00  0.00    -0.014 A 
BRANCH  39  40
ATOM     40  C   UNL A   1      42.237  25.887  28.026  1.00  0.00     0.031 A 
ATOM     41  C   UNL A   1      43.543  26.331  27.431  1.00  0.00     0.074 A 
ATOM     42  C   UNL A   1      41.433  26.774  28.636  1.00  0.00     0.049 A 
ATOM     43  N   UNL A   1      44.110  27.509  27.447  1.00  0.00    -0.248 NA
ATOM     44  C   UNL A   1      44.316  25.300  26.719  1.00  0.00     0.031 C 
ATOM     45  C   UNL A   1      40.124  26.476  29.211  1.00  0.00     0.029 A 
ATOM     46  N   UNL A   1      41.613  28.114  28.882  1.00  0.00    -0.354 N 
ATOM     47  C   UNL A   1      45.299  27.362  26.747  1.00  0.00     0.074 A 
ATOM     48  C   UNL A   1      45.389  25.976  26.343  1.00  0.00     0.031 C 
ATOM     49  C   UNL A   1      39.624  27.599  29.759  1.00  0.00     0.029 A 
ATOM     50  C   UNL A   1      40.592  28.684  29.601  1.00  0.00     0.049 A 
ATOM     51  H   UNL A   1      42.399  28.618  28.570  1.00  0.00     0.167 HD
ATOM     52  C   UNL A   1      46.231  28.301  26.461  1.00  0.00     0.037 A 
ATOM     53  C   UNL A   1      40.473  29.933  30.099  1.00  0.00     0.037 A 
ATOM     54  C   UNL A   1      46.149  29.674  26.879  1.00  0.00     0.049 A 
ATOM     55  C   UNL A   1      41.574  30.935  29.851  1.00  0.00     0.074 A 
ATOM     56  C   UNL A   1      47.036  30.706  26.630  1.00  0.00     0.029 A 
ATOM     57  N   UNL A   1      45.124  30.203  27.649  1.00  0.00    -0.354 N 
ATOM     58  N   UNL A   1      42.682  30.800  29.163  1.00  0.00    -0.248 NA
ATOM     59  C   UNL A   1      41.407  32.267  30.454  1.00  0.00     0.031 C 
ATOM     60  C   UNL A   1      46.578  31.845  27.299  1.00  0.00     0.029 A 
ATOM     61  C   UNL A   1      45.374  31.540  27.914  1.00  0.00     0.049 A 
ATOM     62  H   UNL A   1      44.335  29.703  27.960  1.00  0.00     0.167 HD
ATOM     63  C   UNL A   1      43.329  32.028  29.228  1.00  0.00     0.074 A 
ATOM     64  C   UNL A   1      42.481  32.904  30.009  1.00  0.00     0.031 C 
ATOM     65  C   UNL A   1      44.519  32.398  28.692  1.00  0.00     0.037 A 
BRANCH  52  66
ATOM     66  C   UNL A   1      47.438  27.861  25.687  1.00  0.00     0.064 A 
ATOM     67  C   UNL A   1      48.626  27.478  26.328  1.00  0.00     0.173 A 
ATOM     68  C   UNL A   1      47.397  27.800  24.287  1.00  0.00     0.173 A 
ATOM     69  F   UNL A   1      48.722  27.539  27.665  1.00  0.00    -0.203 F 
ATOM     70  C   UNL A   1      49.736  27.071  25.593  1.00  0.00     0.198 A 
ATOM     71  C   UNL A   1      48.499  27.364  23.556  1.00  0.00     0.198 A 
ATOM     72  F   UNL A   1      46.286  28.157  23.625  1.00  0.00    -0.203 F 
ATOM     73  F   UNL A   1      50.875  26.754  26.223  1.00  0.00    -0.200 F 
ATOM     74  C   UNL A   1      49.669  27.006  24.209  1.00  0.00     0.200 A 
ATOM     75  F   UNL A   1      48.429  27.293  22.219  1.00  0.00    -0.200 F 
ATOM     76  F   UNL A   1      50.736  26.607  23.503  1.00  0.00    -0.200 F 
ENDBRANCH  52  66
BRANCH  53  77
ATOM     77  C   UNL A   1      39.281  30.306  30.907  1.00  0.00     0.064 A 
ATOM     78  C   UNL A   1      38.198  30.985  30.332  1.00  0.00     0.173 A 
ATOM     79  C   UNL A   1      39.219  30.027  32.280  1.00  0.00     0.173 A 
ATOM     80  F   UNL A   1      38.223  31.305  29.030  1.00  0.00    -0.203 F 
ATOM     81  C   UNL A   1      37.108  31.388  31.102  1.00  0.00     0.198 A 
ATOM     82  C   UNL A   1      38.115  30.403  33.044  1.00  0.00     0.198 A 
ATOM     83  F   UNL A   1      40.232  29.390  32.884  1.00  0.00    -0.203 F 
ATOM     84  F   UNL A   1      36.112  32.084  30.538  1.00  0.00    -0.200 F 
ATOM     85  C   UNL A   1      37.065  31.091  32.457  1.00  0.00     0.200 A 
ATOM     86  F   UNL A   1      38.076  30.108  34.351  1.00  0.00    -0.200 F 
ATOM     87  F   UNL A   1      36.018  31.479  33.197  1.00  0.00    -0.200 F 
ENDBRANCH  53  77
BRANCH  65  88
ATOM     88  C   UNL A   1      44.964  33.817  28.907  1.00  0.00     0.064 A 
ATOM     89  C   UNL A   1      44.593  34.847  28.030  1.00  0.00     0.173 A 
ATOM     90  C   UNL A   1      45.733  34.157  30.032  1.00  0.00     0.173 A 
ATOM     91  F   UNL A   1      43.870  34.573  26.934  1.00  0.00    -0.203 F 
ATOM     92  C   UNL A   1      44.997  36.161  28.258  1.00  0.00     0.198 A 
ATOM     93  C   UNL A   1      46.107  35.476  30.273  1.00  0.00     0.198 A 
ATOM     94  F   UNL A   1      46.107  33.212  30.907  1.00  0.00    -0.203 F 
ATOM     95  F   UNL A   1      44.670  37.120  27.381  1.00  0.00    -0.200 F 
ATOM     96  C   UNL A   1      45.745  36.476  29.382  1.00  0.00     0.200 A 
ATOM     97  F   UNL A   1      46.816  35.781  31.368  1.00  0.00    -0.200 F 
ATOM     98  F   UNL A   1      46.124  37.742  29.603  1.00  0.00    -0.200 F 
ENDBRANCH  65  88
ENDBRANCH  39  40
ENDBRANCH  32  34
ENDBRANCH  31  32
ENDBRANCH  30  31
ENDBRANCH  29  30
ENDBRANCH  28  29
ENDBRANCH  27  28
ENDBRANCH  26  27
ENDBRANCH   1  26
TORSDOF 23
ENDMDL
MODEL 3
REMARK VINA RESULT:      -9.6      2.576      4.520
REMARK SMILES Cc1cc(C[N@@H+]2C[C@@H](C(=O)OCCOCCOCCOCCOC(=O)c3ccc(-c4c5nc(c(-c6c(F)c(F)c(F)c(F)c6F)c6ccc([nH]6)c(-c6c(F)c(F)c(F)c(F)c6F)c6nc(c(-c7c(F)c(F)c(F)c(F)c7F)c7ccc4[nH]7)C=C6)C=C5)cc3)[C@H](C3CC3)C2)on1
REMARK SMILES IDX 17 1 16 2 15 3 14 4 13 5 12 6 11 7 9 8 10 9 8 10 6 11 7 12
REMARK SMILES IDX 93 13 89 15 5 16 4 17 1 18 2 19 3 20 95 21 94 22 90 23 91 24
REMARK SMILES IDX 92 25 18 26 19 27 20 28 21 29 22 30 23 31 24 32 25 33 26 34
REMARK SMILES IDX 27 35 88 36 28 37 87 38 29 39 30 40 31 41 81 42 32 43 86 44
REMARK SMILES IDX 80 45 82 46 33 47 85 48 79 49 78 50 34 52 66 53 46 54 65 55
REMARK SMILES IDX 47 56 50 57 64 58 83 59 48 60 49 61 63 63 84 64 51 65 35 66
REMARK SMILES IDX 36 67 44 68 37 69 38 70 42 71 45 72 39 73 40 74 43 75 41 76
REMARK SMILES IDX 67 77 68 78 76 79 69 80 70 81 74 82 77 83 71 84 72 85 75 86
REMARK SMILES IDX 73 87 52 88 53 89 61 90 54 91 55 92 59 93 62 94 56 95 57 96
REMARK SMILES IDX 60 97 58 98
REMARK H PARENT 6 14 82 51 50 62
REMARK Flexibility Score: inf
ROOT
ATOM      1  O   UNL A   1      35.850  21.992  24.168  1.00  0.00    -0.377 OA
ENDROOT
BRANCH   1   2
ATOM      2  C   UNL A   1      35.986  23.171  24.938  1.00  0.00     0.188 C 
BRANCH   2   3
ATOM      3  C   UNL A   1      35.387  23.078  26.360  1.00  0.00     0.188 C 
BRANCH   3   4
ATOM      4  O   UNL A   1      34.115  23.628  26.670  1.00  0.00    -0.376 OA
BRANCH   4   5
ATOM      5  C   UNL A   1      33.026  22.773  26.969  1.00  0.00     0.202 C 
BRANCH   5   6
ATOM      6  C   UNL A   1      31.993  22.435  25.881  1.00  0.00     0.261 C 
BRANCH   6   7
ATOM      7  O   UNL A   1      32.392  22.668  24.520  1.00  0.00    -0.463 OA
BRANCH   7   8
ATOM      8  C   UNL A   1      31.568  23.463  23.787  1.00  0.00     0.315 C 
ATOM      9  O   UNL A   1      30.533  23.065  23.263  1.00  0.00    -0.252 OA
BRANCH   8  10
ATOM     10  C   UNL A   1      32.027  24.910  23.698  1.00  0.00     0.163 C 
ATOM     11  N   UNL A   1      33.814  26.491  23.489  1.00  0.00    -0.328 N 
ATOM     12  C   UNL A   1      33.448  25.101  23.166  1.00  0.00     0.278 C 
ATOM     13  C   UNL A   1      33.097  26.834  24.724  1.00  0.00     0.267 C 
ATOM     14  H   UNL A   1      34.821  26.567  23.634  1.00  0.00     0.348 HD
ATOM     15  C   UNL A   1      32.034  25.740  24.990  1.00  0.00     0.067 C 
BRANCH  11  16
ATOM     16  C   UNL A   1      33.580  27.439  22.380  1.00  0.00     0.341 C 
BRANCH  16  17
ATOM     17  C   UNL A   1      32.271  28.142  22.416  1.00  0.00     0.191 A 
ATOM     18  C   UNL A   1      29.373  30.095  23.456  1.00  0.00     0.070 C 
ATOM     19  C   UNL A   1      30.405  29.221  22.859  1.00  0.00     0.081 A 
ATOM     20  C   UNL A   1      31.807  29.283  23.026  1.00  0.00     0.078 A 
ATOM     21  N   UNL A   1      30.052  28.173  22.104  1.00  0.00    -0.085 NA
ATOM     22  O   UNL A   1      31.228  27.506  21.814  1.00  0.00    -0.355 OA
ENDBRANCH  16  17
ENDBRANCH  11  16
BRANCH  15  23
ATOM     23  C   UNL A   1      30.728  26.334  25.474  1.00  0.00    -0.001 C 
ATOM     24  C   UNL A   1      29.373  26.059  24.873  1.00  0.00     0.004 C 
ATOM     25  C   UNL A   1      29.727  25.461  26.199  1.00  0.00     0.004 C 
ENDBRANCH  15  23
ENDBRANCH   8  10
ENDBRANCH   7   8
ENDBRANCH   6   7
ENDBRANCH   5   6
ENDBRANCH   4   5
ENDBRANCH   3   4
ENDBRANCH   2   3
ENDBRANCH   1   2
BRANCH   1  26
ATOM     26  C   UNL A   1      35.391  20.870  24.904  1.00  0.00     0.188 C 
BRANCH  26  27
ATOM     27  C   UNL A   1      36.330  19.652  24.918  1.00  0.00     0.188 C 
BRANCH  27  28
ATOM     28  O   UNL A   1      37.667  19.997  24.558  1.00  0.00    -0.376 OA
BRANCH  28  29
ATOM     29  C   UNL A   1      38.570  20.364  25.587  1.00  0.00     0.202 C 
BRANCH  29  30
ATOM     30  C   UNL A   1      39.755  19.411  25.796  1.00  0.00     0.261 C 
BRANCH  30  31
ATOM     31  O   UNL A   1      41.046  20.028  25.937  1.00  0.00    -0.460 OA
BRANCH  31  32
ATOM     32  C   UNL A   1      41.553  20.168  27.180  1.00  0.00     0.338 C 
ATOM     33  O   UNL A   1      41.959  19.285  27.914  1.00  0.00    -0.246 OA
BRANCH  32  34
ATOM     34  C   UNL A   1      41.759  21.618  27.407  1.00  0.00     0.060 A 
ATOM     35  C   UNL A   1      41.324  22.519  26.426  1.00  0.00     0.016 A 
ATOM     36  C   UNL A   1      42.289  22.090  28.612  1.00  0.00     0.016 A 
ATOM     37  C   UNL A   1      41.409  23.895  26.651  1.00  0.00     0.010 A 
ATOM     38  C   UNL A   1      42.410  23.468  28.820  1.00  0.00     0.010 A 
ATOM     39  C   UNL A   1      41.984  24.375  27.835  1.00  0.00    -0.014 A 
BRANCH  39  40
ATOM     40  C   UNL A   1      42.326  25.812  27.954  1.00  0.00     0.031 A 
ATOM     41  C   UNL A   1      43.636  26.272  27.380  1.00  0.00     0.074 A 
ATOM     42  C   UNL A   1      41.498  26.691  28.545  1.00  0.00     0.049 A 
ATOM     43  N   UNL A   1      44.185  27.459  27.398  1.00  0.00    -0.248 NA
ATOM     44  C   UNL A   1      44.436  25.248  26.688  1.00  0.00     0.031 C 
ATOM     45  C   UNL A   1      40.184  26.376  29.098  1.00  0.00     0.029 A 
ATOM     46  N   UNL A   1      41.654  28.034  28.785  1.00  0.00    -0.354 N 
ATOM     47  C   UNL A   1      45.388  27.325  26.720  1.00  0.00     0.074 A 
ATOM     48  C   UNL A   1      45.506  25.938  26.326  1.00  0.00     0.031 C 
ATOM     49  C   UNL A   1      39.658  27.495  29.630  1.00  0.00     0.029 A 
ATOM     50  C   UNL A   1      40.612  28.594  29.483  1.00  0.00     0.049 A 
ATOM     51  H   UNL A   1      42.438  28.548  28.484  1.00  0.00     0.167 HD
ATOM     52  C   UNL A   1      46.311  28.276  26.444  1.00  0.00     0.037 A 
ATOM     53  C   UNL A   1      40.466  29.843  29.970  1.00  0.00     0.037 A 
ATOM     54  C   UNL A   1      46.201  29.651  26.852  1.00  0.00     0.049 A 
ATOM     55  C   UNL A   1      41.556  30.860  29.735  1.00  0.00     0.074 A 
ATOM     56  C   UNL A   1      47.077  30.694  26.612  1.00  0.00     0.029 A 
ATOM     57  N   UNL A   1      45.155  30.169  27.601  1.00  0.00    -0.354 N 
ATOM     58  N   UNL A   1      42.678  30.738  29.068  1.00  0.00    -0.248 NA
ATOM     59  C   UNL A   1      41.359  32.193  30.327  1.00  0.00     0.031 C 
ATOM     60  C   UNL A   1      46.590  31.830  27.266  1.00  0.00     0.029 A 
ATOM     61  C   UNL A   1      45.381  31.511  27.862  1.00  0.00     0.049 A 
ATOM     62  H   UNL A   1      44.368  29.659  27.901  1.00  0.00     0.167 HD
ATOM     63  C   UNL A   1      43.305  31.976  29.137  1.00  0.00     0.074 A 
ATOM     64  C   UNL A   1      42.430  32.843  29.897  1.00  0.00     0.031 C 
ATOM     65  C   UNL A   1      44.499  32.361  28.619  1.00  0.00     0.037 A 
BRANCH  52  66
ATOM     66  C   UNL A   1      47.537  27.849  25.695  1.00  0.00     0.064 A 
ATOM     67  C   UNL A   1      48.727  27.513  26.357  1.00  0.00     0.173 A 
ATOM     68  C   UNL A   1      47.515  27.755  24.295  1.00  0.00     0.173 A 
ATOM     69  F   UNL A   1      48.806  27.607  27.693  1.00  0.00    -0.203 F 
ATOM     70  C   UNL A   1      49.856  27.117  25.644  1.00  0.00     0.198 A 
ATOM     71  C   UNL A   1      48.636  27.331  23.588  1.00  0.00     0.198 A 
ATOM     72  F   UNL A   1      46.402  28.068  23.613  1.00  0.00    -0.203 F 
ATOM     73  F   UNL A   1      50.996  26.845  26.294  1.00  0.00    -0.200 F 
ATOM     74  C   UNL A   1      49.807  27.019  24.262  1.00  0.00     0.200 A 
ATOM     75  F   UNL A   1      48.583  27.227  22.252  1.00  0.00    -0.200 F 
ATOM     76  F   UNL A   1      50.892  26.631  23.577  1.00  0.00    -0.200 F 
ENDBRANCH  52  66
BRANCH  53  77
ATOM     77  C   UNL A   1      39.254  30.203  30.755  1.00  0.00     0.064 A 
ATOM     78  C   UNL A   1      38.095  30.676  30.125  1.00  0.00     0.173 A 
ATOM     79  C   UNL A   1      39.245  30.121  32.155  1.00  0.00     0.173 A 
ATOM     80  F   UNL A   1      38.064  30.806  28.790  1.00  0.00    -0.203 F 
ATOM     81  C   UNL A   1      36.981  31.071  30.864  1.00  0.00     0.198 A 
ATOM     82  C   UNL A   1      38.120  30.486  32.893  1.00  0.00     0.198 A 
ATOM     83  F   UNL A   1      40.331  29.685  32.810  1.00  0.00    -0.203 F 
ATOM     84  F   UNL A   1      35.907  31.571  30.239  1.00  0.00    -0.200 F 
ATOM     85  C   UNL A   1      36.993  30.970  32.248  1.00  0.00     0.200 A 
ATOM     86  F   UNL A   1      38.135  30.380  34.229  1.00  0.00    -0.200 F 
ATOM     87  F   UNL A   1      35.923  31.350  32.959  1.00  0.00    -0.200 F 
ENDBRANCH  53  77
BRANCH  65  88
ATOM     88  C   UNL A   1      44.919  33.787  28.833  1.00  0.00     0.064 A 
ATOM     89  C   UNL A   1      44.488  34.817  27.985  1.00  0.00     0.173 A 
ATOM     90  C   UNL A   1      45.725  34.133  29.930  1.00  0.00     0.173 A 
ATOM     91  F   UNL A   1      43.728  34.539  26.916  1.00  0.00    -0.203 F 
ATOM     92  C   UNL A   1      44.871  36.138  28.211  1.00  0.00     0.198 A 
ATOM     93  C   UNL A   1      46.077  35.458  30.171  1.00  0.00     0.198 A 
ATOM     94  F   UNL A   1      46.156  33.188  30.777  1.00  0.00    -0.203 F 
ATOM     95  F   UNL A   1      44.486  37.099  27.360  1.00  0.00    -0.200 F 
ATOM     96  C   UNL A   1      45.656  36.459  29.308  1.00  0.00     0.200 A 
ATOM     97  F   UNL A   1      46.823  35.768  31.241  1.00  0.00    -0.200 F 
ATOM     98  F   UNL A   1      46.014  37.731  29.529  1.00  0.00    -0.200 F 
ENDBRANCH  65  88
ENDBRANCH  39  40
ENDBRANCH  32  34
ENDBRANCH  31  32
ENDBRANCH  30  31
ENDBRANCH  29  30
ENDBRANCH  28  29
ENDBRANCH  27  28
ENDBRANCH  26  27
ENDBRANCH   1  26
TORSDOF 23
ENDMDL
