MODEL 1
REMARK VINA RESULT:     -11.1      0.000      0.000
REMARK SMILES Cc1cccc(-n2c(C)cc(/C=N\c3ccc(O)c(C(=O)OCCOCCOCCOCCOC(=O)c4ccc(-c5c6nc(c(-c7c(F)c(F)c(F)c(F)c7F)c7ccc([nH]7)c(-c7c(F)c(F)c(F)c(F)c7F)c7nc(c(-c8c(F)c(F)c(F)c(F)c8F)c8ccc5[nH]8)C=C7)C=C6)cc4)c3)c2C)c1
REMARK SMILES IDX 27 1 26 2 25 3 24 4 23 5 22 6 20 7 21 8 19 9 14 10 15 11
REMARK SMILES IDX 100 12 16 13 17 14 13 15 12 16 11 17 7 18 8 19 101 20 9 21
REMARK SMILES IDX 10 22 102 23 6 24 1 25 2 26 3 27 103 28 4 29 5 30 18 31
REMARK SMILES IDX 28 33 29 34 30 35 31 36 32 37 33 38 34 39 35 40 36 41 37 42
REMARK SMILES IDX 38 43 99 44 39 45 98 46 40 47 41 48 42 49 92 50 43 51 97 52
REMARK SMILES IDX 91 53 93 54 44 55 96 56 90 57 89 58 45 60 77 61 57 62 76 63
REMARK SMILES IDX 58 64 61 65 75 66 94 67 59 68 60 69 74 71 95 72 62 73 46 74
REMARK SMILES IDX 47 75 55 76 48 77 49 78 53 79 56 80 50 81 51 82 54 83 52 84
REMARK SMILES IDX 78 85 79 86 87 87 80 88 81 89 85 90 88 91 82 92 83 93 86 94
REMARK SMILES IDX 84 95 63 96 64 97 72 98 65 99 66 100 70 101 73 102 67 103
REMARK SMILES IDX 68 104 71 105 69 106
REMARK H PARENT 18 32 93 59 61 70
REMARK Flexibility Score: inf
ROOT
ATOM      1  C   UNL A   1      34.829  33.527  30.383  1.00  0.00     0.188 C 
ENDROOT
BRANCH   1   2
ATOM      2  C   UNL A   1      34.035  33.754  29.075  1.00  0.00     0.188 C 
BRANCH   2   3
ATOM      3  O   UNL A   1      34.355  33.062  27.883  1.00  0.00    -0.376 OA
BRANCH   3   4
ATOM      4  C   UNL A   1      33.429  32.094  27.433  1.00  0.00     0.202 C 
BRANCH   4   5
ATOM      5  C   UNL A   1      33.677  30.631  27.718  1.00  0.00     0.261 C 
BRANCH   5   6
ATOM      6  O   UNL A   1      32.882  29.923  26.774  1.00  0.00    -0.460 OA
BRANCH   6   7
ATOM      7  C   UNL A   1      33.643  29.070  26.085  1.00  0.00     0.342 C 
ATOM      8  O   UNL A   1      34.613  28.480  26.505  1.00  0.00    -0.246 OA
BRANCH   7   9
ATOM      9  C   UNL A   1      32.932  28.795  24.822  1.00  0.00     0.103 A 
ATOM     10  C   UNL A   1      30.949  27.757  24.018  1.00  0.00     0.064 A 
ATOM     11  C   UNL A   1      31.408  27.817  22.704  1.00  0.00     0.032 A 
ATOM     12  C   UNL A   1      31.631  28.390  25.038  1.00  0.00     0.048 A 
ATOM     13  C   UNL A   1      32.679  28.339  22.449  1.00  0.00     0.049 A 
ATOM     14  C   UNL A   1      33.471  28.755  23.525  1.00  0.00     0.130 A 
BRANCH  10  15
ATOM     15  N   UNL A   1      29.856  27.022  24.420  1.00  0.00    -0.256 NA
ATOM     16  C   UNL A   1      29.982  25.768  24.751  1.00  0.00     0.121 C 
BRANCH  16  17
ATOM     17  C   UNL A   1      31.032  24.740  24.588  1.00  0.00     0.014 A 
ATOM     18  N   UNL A   1      32.891  23.439  24.336  1.00  0.00    -0.318 N 
ATOM     19  C   UNL A   1      31.977  23.023  23.400  1.00  0.00     0.021 A 
ATOM     20  C   UNL A   1      32.307  24.450  25.097  1.00  0.00     0.029 A 
ATOM     21  C   UNL A   1      32.258  21.984  22.385  1.00  0.00     0.065 C 
ATOM     22  C   UNL A   1      30.813  23.725  23.606  1.00  0.00     0.033 A 
ATOM     23  C   UNL A   1      33.134  25.057  26.157  1.00  0.00     0.065 C 
BRANCH  18  24
ATOM     24  C   UNL A   1      34.278  23.106  24.376  1.00  0.00     0.046 A 
ATOM     25  C   UNL A   1      36.333  19.985  25.079  1.00  0.00     0.044 C 
ATOM     26  C   UNL A   1      35.931  21.349  24.604  1.00  0.00    -0.049 A 
ATOM     27  C   UNL A   1      36.852  22.145  23.909  1.00  0.00     0.003 A 
ATOM     28  C   UNL A   1      34.637  21.833  24.833  1.00  0.00     0.030 A 
ATOM     29  C   UNL A   1      36.501  23.424  23.475  1.00  0.00     0.002 A 
ATOM     30  C   UNL A   1      35.219  23.917  23.725  1.00  0.00     0.026 A 
ENDBRANCH  18  24
ENDBRANCH  16  17
ENDBRANCH  10  15
BRANCH  14  31
ATOM     31  O   UNL A   1      34.781  28.999  23.241  1.00  0.00    -0.507 OA
ATOM     32  H   UNL A   1      35.418  28.320  23.344  1.00  0.00     0.293 HD
ENDBRANCH  14  31
ENDBRANCH   7   9
ENDBRANCH   6   7
ENDBRANCH   5   6
ENDBRANCH   4   5
ENDBRANCH   3   4
ENDBRANCH   2   3
ENDBRANCH   1   2
BRANCH   1  33
ATOM     33  O   UNL A   1      34.298  32.702  31.409  1.00  0.00    -0.377 OA
BRANCH  33  34
ATOM     34  C   UNL A   1      34.837  32.859  32.716  1.00  0.00     0.188 C 
BRANCH  34  35
ATOM     35  C   UNL A   1      36.220  32.344  32.981  1.00  0.00     0.188 C 
BRANCH  35  36
ATOM     36  O   UNL A   1      36.222  31.004  32.500  1.00  0.00    -0.376 OA
BRANCH  36  37
ATOM     37  C   UNL A   1      37.243  30.717  31.562  1.00  0.00     0.202 C 
BRANCH  37  38
ATOM     38  C   UNL A   1      36.688  30.029  30.314  1.00  0.00     0.261 C 
BRANCH  38  39
ATOM     39  O   UNL A   1      37.722  29.173  29.779  1.00  0.00    -0.460 OA
BRANCH  39  40
ATOM     40  C   UNL A   1      38.108  29.443  28.501  1.00  0.00     0.338 C 
ATOM     41  O   UNL A   1      37.477  30.125  27.711  1.00  0.00    -0.246 OA
BRANCH  40  42
ATOM     42  C   UNL A   1      39.271  28.585  28.115  1.00  0.00     0.060 A 
ATOM     43  C   UNL A   1      39.961  27.843  29.089  1.00  0.00     0.016 A 
ATOM     44  C   UNL A   1      39.843  28.733  26.860  1.00  0.00     0.016 A 
ATOM     45  C   UNL A   1      41.286  27.412  28.865  1.00  0.00     0.010 A 
ATOM     46  C   UNL A   1      41.164  28.363  26.671  1.00  0.00     0.010 A 
ATOM     47  C   UNL A   1      41.932  27.752  27.680  1.00  0.00    -0.014 A 
BRANCH  47  48
ATOM     48  C   UNL A   1      43.391  27.616  27.427  1.00  0.00     0.031 A 
ATOM     49  C   UNL A   1      44.254  28.845  27.545  1.00  0.00     0.074 A 
ATOM     50  C   UNL A   1      43.990  26.388  27.485  1.00  0.00     0.049 A 
ATOM     51  N   UNL A   1      45.541  28.845  27.487  1.00  0.00    -0.248 NA
ATOM     52  C   UNL A   1      43.749  30.177  27.861  1.00  0.00     0.031 C 
ATOM     53  C   UNL A   1      45.405  26.087  27.722  1.00  0.00     0.029 A 
ATOM     54  N   UNL A   1      43.452  25.089  27.440  1.00  0.00    -0.354 N 
ATOM     55  C   UNL A   1      46.036  29.990  28.078  1.00  0.00     0.074 A 
ATOM     56  C   UNL A   1      44.869  30.826  28.210  1.00  0.00     0.031 C 
ATOM     57  C   UNL A   1      45.673  24.785  27.565  1.00  0.00     0.029 A 
ATOM     58  C   UNL A   1      44.481  24.224  27.001  1.00  0.00     0.049 A 
ATOM     59  H   UNL A   1      42.531  24.829  27.670  1.00  0.00     0.167 HD
ATOM     60  C   UNL A   1      47.353  30.001  28.472  1.00  0.00     0.037 A 
ATOM     61  C   UNL A   1      44.420  23.647  25.775  1.00  0.00     0.037 A 
ATOM     62  C   UNL A   1      48.045  28.771  27.995  1.00  0.00     0.049 A 
ATOM     63  C   UNL A   1      45.546  24.256  24.945  1.00  0.00     0.074 A 
ATOM     64  C   UNL A   1      48.744  27.733  28.593  1.00  0.00     0.029 A 
ATOM     65  N   UNL A   1      47.852  28.364  26.666  1.00  0.00    -0.354 N 
ATOM     66  N   UNL A   1      45.971  25.498  25.091  1.00  0.00    -0.248 NA
ATOM     67  C   UNL A   1      46.506  23.427  24.220  1.00  0.00     0.031 C 
ATOM     68  C   UNL A   1      48.851  26.662  27.644  1.00  0.00     0.029 A 
ATOM     69  C   UNL A   1      48.248  27.054  26.452  1.00  0.00     0.049 A 
ATOM     70  H   UNL A   1      47.479  28.945  25.964  1.00  0.00     0.167 HD
ATOM     71  C   UNL A   1      47.294  25.569  24.713  1.00  0.00     0.074 A 
ATOM     72  C   UNL A   1      47.555  24.264  24.112  1.00  0.00     0.031 C 
ATOM     73  C   UNL A   1      48.239  26.492  25.103  1.00  0.00     0.037 A 
BRANCH  60  74
ATOM     74  C   UNL A   1      48.036  31.027  29.402  1.00  0.00     0.064 A 
ATOM     75  C   UNL A   1      48.286  32.356  28.970  1.00  0.00     0.173 A 
ATOM     76  C   UNL A   1      48.509  30.775  30.710  1.00  0.00     0.173 A 
ATOM     77  F   UNL A   1      47.898  32.781  27.761  1.00  0.00    -0.203 F 
ATOM     78  C   UNL A   1      48.941  33.317  29.760  1.00  0.00     0.198 A 
ATOM     79  C   UNL A   1      49.129  31.746  31.515  1.00  0.00     0.198 A 
ATOM     80  F   UNL A   1      48.425  29.573  31.280  1.00  0.00    -0.203 F 
ATOM     81  F   UNL A   1      49.165  34.545  29.270  1.00  0.00    -0.200 F 
ATOM     82  C   UNL A   1      49.352  33.017  31.040  1.00  0.00     0.200 A 
ATOM     83  F   UNL A   1      49.512  31.426  32.761  1.00  0.00    -0.200 F 
ATOM     84  F   UNL A   1      49.954  33.936  31.807  1.00  0.00    -0.200 F 
ENDBRANCH  60  74
BRANCH  61  85
ATOM     85  C   UNL A   1      43.024  23.140  25.560  1.00  0.00     0.064 A 
ATOM     86  C   UNL A   1      42.814  21.818  26.052  1.00  0.00     0.173 A 
ATOM     87  C   UNL A   1      41.908  23.989  25.590  1.00  0.00     0.173 A 
ATOM     88  F   UNL A   1      43.833  20.942  26.052  1.00  0.00    -0.203 F 
ATOM     89  C   UNL A   1      41.651  21.458  26.742  1.00  0.00     0.198 A 
ATOM     90  C   UNL A   1      40.724  23.603  26.246  1.00  0.00     0.198 A 
ATOM     91  F   UNL A   1      42.013  25.254  25.160  1.00  0.00    -0.203 F 
ATOM     92  F   UNL A   1      41.585  20.281  27.383  1.00  0.00    -0.200 F 
ATOM     93  C   UNL A   1      40.625  22.371  26.879  1.00  0.00     0.200 A 
ATOM     94  F   UNL A   1      39.712  24.475  26.367  1.00  0.00    -0.200 F 
ATOM     95  F   UNL A   1      39.579  22.093  27.674  1.00  0.00    -0.200 F 
ENDBRANCH  61  85
BRANCH  73  96
ATOM     96  C   UNL A   1      49.295  27.011  24.142  1.00  0.00     0.064 A 
ATOM     97  C   UNL A   1      50.665  26.749  24.288  1.00  0.00     0.173 A 
ATOM     98  C   UNL A   1      48.925  27.612  22.906  1.00  0.00     0.173 A 
ATOM     99  F   UNL A   1      51.153  26.125  25.368  1.00  0.00    -0.203 F 
ATOM    100  C   UNL A   1      51.589  27.077  23.295  1.00  0.00     0.198 A 
ATOM    101  C   UNL A   1      49.840  27.872  21.893  1.00  0.00     0.198 A 
ATOM    102  F   UNL A   1      47.658  27.934  22.610  1.00  0.00    -0.203 F 
ATOM    103  F   UNL A   1      52.889  26.834  23.506  1.00  0.00    -0.200 F 
ATOM    104  C   UNL A   1      51.176  27.616  22.092  1.00  0.00     0.200 A 
ATOM    105  F   UNL A   1      49.409  28.344  20.713  1.00  0.00    -0.200 F 
ATOM    106  F   UNL A   1      52.063  27.873  21.123  1.00  0.00    -0.200 F 
ENDBRANCH  73  96
ENDBRANCH  47  48
ENDBRANCH  40  42
ENDBRANCH  39  40
ENDBRANCH  38  39
ENDBRANCH  37  38
ENDBRANCH  36  37
ENDBRANCH  35  36
ENDBRANCH  34  35
ENDBRANCH  33  34
ENDBRANCH   1  33
TORSDOF 24
ENDMDL
MODEL 2
REMARK VINA RESULT:     -11.0      2.218      6.756
REMARK SMILES Cc1cccc(-n2c(C)cc(/C=N\c3ccc(O)c(C(=O)OCCOCCOCCOCCOC(=O)c4ccc(-c5c6nc(c(-c7c(F)c(F)c(F)c(F)c7F)c7ccc([nH]7)c(-c7c(F)c(F)c(F)c(F)c7F)c7nc(c(-c8c(F)c(F)c(F)c(F)c8F)c8ccc5[nH]8)C=C7)C=C6)cc4)c3)c2C)c1
REMARK SMILES IDX 27 1 26 2 25 3 24 4 23 5 22 6 20 7 21 8 19 9 14 10 15 11
REMARK SMILES IDX 100 12 16 13 17 14 13 15 12 16 11 17 7 18 8 19 101 20 9 21
REMARK SMILES IDX 10 22 102 23 6 24 1 25 2 26 3 27 103 28 4 29 5 30 18 31
REMARK SMILES IDX 28 33 29 34 30 35 31 36 32 37 33 38 34 39 35 40 36 41 37 42
REMARK SMILES IDX 38 43 99 44 39 45 98 46 40 47 41 48 42 49 92 50 43 51 97 52
REMARK SMILES IDX 91 53 93 54 44 55 96 56 90 57 89 58 45 60 77 61 57 62 76 63
REMARK SMILES IDX 58 64 61 65 75 66 94 67 59 68 60 69 74 71 95 72 62 73 46 74
REMARK SMILES IDX 47 75 55 76 48 77 49 78 53 79 56 80 50 81 51 82 54 83 52 84
REMARK SMILES IDX 78 85 79 86 87 87 80 88 81 89 85 90 88 91 82 92 83 93 86 94
REMARK SMILES IDX 84 95 63 96 64 97 72 98 65 99 66 100 70 101 73 102 67 103
REMARK SMILES IDX 68 104 71 105 69 106
REMARK H PARENT 18 32 93 59 61 70
REMARK Flexibility Score: inf
ROOT
ATOM      1  C   UNL A   1      33.946  34.133  29.029  1.00  0.00     0.188 C 
ENDROOT
BRANCH   1   2
ATOM      2  C   UNL A   1      34.506  32.961  28.189  1.00  0.00     0.188 C 
BRANCH   2   3
ATOM      3  O   UNL A   1      34.210  31.614  28.504  1.00  0.00    -0.376 OA
BRANCH   3   4
ATOM      4  C   UNL A   1      34.281  30.676  27.449  1.00  0.00     0.202 C 
BRANCH   4   5
ATOM      5  C   UNL A   1      33.033  30.332  26.668  1.00  0.00     0.261 C 
BRANCH   5   6
ATOM      6  O   UNL A   1      32.631  29.053  27.146  1.00  0.00    -0.460 OA
BRANCH   6   7
ATOM      7  C   UNL A   1      33.041  28.102  26.306  1.00  0.00     0.342 C 
ATOM      8  O   UNL A   1      34.125  27.562  26.313  1.00  0.00    -0.246 OA
BRANCH   7   9
ATOM      9  C   UNL A   1      31.852  27.663  25.551  1.00  0.00     0.103 A 
ATOM     10  C   UNL A   1      30.047  26.121  25.700  1.00  0.00     0.064 A 
ATOM     11  C   UNL A   1      29.705  26.338  24.366  1.00  0.00     0.032 A 
ATOM     12  C   UNL A   1      31.001  26.900  26.324  1.00  0.00     0.048 A 
ATOM     13  C   UNL A   1      30.484  27.206  23.596  1.00  0.00     0.049 A 
ATOM     14  C   UNL A   1      31.607  27.807  24.175  1.00  0.00     0.130 A 
BRANCH  10  15
ATOM     15  N   UNL A   1      29.540  25.097  26.468  1.00  0.00    -0.256 NA
ATOM     16  C   UNL A   1      30.226  24.005  26.657  1.00  0.00     0.121 C 
BRANCH  16  17
ATOM     17  C   UNL A   1      31.420  23.395  26.036  1.00  0.00     0.014 A 
ATOM     18  N   UNL A   1      33.458  22.694  25.283  1.00  0.00    -0.318 N 
ATOM     19  C   UNL A   1      32.663  22.882  24.180  1.00  0.00     0.021 A 
ATOM     20  C   UNL A   1      32.697  22.955  26.421  1.00  0.00     0.029 A 
ATOM     21  C   UNL A   1      33.143  22.733  22.788  1.00  0.00     0.065 C 
ATOM     22  C   UNL A   1      31.401  23.203  24.620  1.00  0.00     0.033 A 
ATOM     23  C   UNL A   1      33.372  22.830  27.725  1.00  0.00     0.065 C 
BRANCH  18  24
ATOM     24  C   UNL A   1      34.875  22.523  25.290  1.00  0.00     0.046 A 
ATOM     25  C   UNL A   1      37.292  19.610  24.931  1.00  0.00     0.044 C 
ATOM     26  C   UNL A   1      36.731  21.000  24.965  1.00  0.00    -0.049 A 
ATOM     27  C   UNL A   1      37.560  22.093  24.674  1.00  0.00     0.003 A 
ATOM     28  C   UNL A   1      35.382  21.220  25.269  1.00  0.00     0.030 A 
ATOM     29  C   UNL A   1      37.059  23.395  24.718  1.00  0.00     0.002 A 
ATOM     30  C   UNL A   1      35.720  23.616  25.046  1.00  0.00     0.026 A 
ENDBRANCH  18  24
ENDBRANCH  16  17
ENDBRANCH  10  15
BRANCH  14  31
ATOM     31  O   UNL A   1      32.466  28.420  23.312  1.00  0.00    -0.507 OA
ATOM     32  H   UNL A   1      32.488  29.355  23.257  1.00  0.00     0.293 HD
ENDBRANCH  14  31
ENDBRANCH   7   9
ENDBRANCH   6   7
ENDBRANCH   5   6
ENDBRANCH   4   5
ENDBRANCH   3   4
ENDBRANCH   2   3
ENDBRANCH   1   2
BRANCH   1  33
ATOM     33  O   UNL A   1      33.769  33.989  30.431  1.00  0.00    -0.377 OA
BRANCH  33  34
ATOM     34  C   UNL A   1      34.841  34.403  31.269  1.00  0.00     0.188 C 
BRANCH  34  35
ATOM     35  C   UNL A   1      35.863  33.382  31.672  1.00  0.00     0.188 C 
BRANCH  35  36
ATOM     36  O   UNL A   1      35.162  32.144  31.716  1.00  0.00    -0.376 OA
BRANCH  36  37
ATOM     37  C   UNL A   1      35.968  31.003  31.488  1.00  0.00     0.202 C 
BRANCH  37  38
ATOM     38  C   UNL A   1      37.248  31.038  32.326  1.00  0.00     0.261 C 
BRANCH  38  39
ATOM     39  O   UNL A   1      37.930  29.775  32.153  1.00  0.00    -0.460 OA
BRANCH  39  40
ATOM     40  C   UNL A   1      39.021  29.581  32.945  1.00  0.00     0.338 C 
ATOM     41  O   UNL A   1      39.275  30.222  33.951  1.00  0.00    -0.246 OA
BRANCH  40  42
ATOM     42  C   UNL A   1      39.992  28.659  32.279  1.00  0.00     0.060 A 
ATOM     43  C   UNL A   1      41.297  28.519  32.780  1.00  0.00     0.016 A 
ATOM     44  C   UNL A   1      39.704  28.160  31.018  1.00  0.00     0.016 A 
ATOM     45  C   UNL A   1      42.341  28.049  31.955  1.00  0.00     0.010 A 
ATOM     46  C   UNL A   1      40.744  27.759  30.195  1.00  0.00     0.010 A 
ATOM     47  C   UNL A   1      42.086  27.751  30.620  1.00  0.00    -0.014 A 
BRANCH  47  48
ATOM     48  C   UNL A   1      43.121  27.522  29.577  1.00  0.00     0.031 A 
ATOM     49  C   UNL A   1      43.602  26.113  29.345  1.00  0.00     0.074 A 
ATOM     50  C   UNL A   1      43.338  28.456  28.603  1.00  0.00     0.049 A 
ATOM     51  N   UNL A   1      44.388  25.755  28.389  1.00  0.00    -0.248 NA
ATOM     52  C   UNL A   1      43.141  24.952  30.100  1.00  0.00     0.031 C 
ATOM     53  C   UNL A   1      43.938  28.254  27.280  1.00  0.00     0.029 A 
ATOM     54  N   UNL A   1      42.981  29.814  28.521  1.00  0.00    -0.354 N 
ATOM     55  C   UNL A   1      44.264  24.398  28.165  1.00  0.00     0.074 A 
ATOM     56  C   UNL A   1      43.541  23.936  29.324  1.00  0.00     0.031 C 
ATOM     57  C   UNL A   1      44.134  29.412  26.638  1.00  0.00     0.029 A 
ATOM     58  C   UNL A   1      43.874  30.429  27.613  1.00  0.00     0.049 A 
ATOM     59  H   UNL A   1      42.247  30.256  29.007  1.00  0.00     0.167 HD
ATOM     60  C   UNL A   1      44.700  23.896  26.962  1.00  0.00     0.037 A 
ATOM     61  C   UNL A   1      44.801  31.316  28.052  1.00  0.00     0.037 A 
ATOM     62  C   UNL A   1      45.406  24.954  26.186  1.00  0.00     0.049 A 
ATOM     63  C   UNL A   1      46.165  30.662  27.853  1.00  0.00     0.074 A 
ATOM     64  C   UNL A   1      45.252  25.535  24.936  1.00  0.00     0.029 A 
ATOM     65  N   UNL A   1      46.353  25.752  26.845  1.00  0.00    -0.354 N 
ATOM     66  N   UNL A   1      46.371  29.360  27.946  1.00  0.00    -0.248 NA
ATOM     67  C   UNL A   1      47.253  31.343  27.157  1.00  0.00     0.031 C 
ATOM     68  C   UNL A   1      46.018  26.748  24.910  1.00  0.00     0.029 A 
ATOM     69  C   UNL A   1      46.669  26.895  26.131  1.00  0.00     0.049 A 
ATOM     70  H   UNL A   1      46.750  25.524  27.718  1.00  0.00     0.167 HD
ATOM     71  C   UNL A   1      47.444  29.016  27.153  1.00  0.00     0.074 A 
ATOM     72  C   UNL A   1      47.999  30.302  26.741  1.00  0.00     0.031 C 
ATOM     73  C   UNL A   1      47.728  27.788  26.599  1.00  0.00     0.037 A 
BRANCH  60  74
ATOM     74  C   UNL A   1      44.401  22.500  26.375  1.00  0.00     0.064 A 
ATOM     75  C   UNL A   1      45.393  21.774  25.665  1.00  0.00     0.173 A 
ATOM     76  C   UNL A   1      43.160  21.825  26.432  1.00  0.00     0.173 A 
ATOM     77  F   UNL A   1      46.635  22.251  25.520  1.00  0.00    -0.203 F 
ATOM     78  C   UNL A   1      45.161  20.518  25.076  1.00  0.00     0.198 A 
ATOM     79  C   UNL A   1      42.938  20.553  25.877  1.00  0.00     0.198 A 
ATOM     80  F   UNL A   1      42.081  22.361  27.003  1.00  0.00    -0.203 F 
ATOM     81  F   UNL A   1      46.143  19.907  24.397  1.00  0.00    -0.200 F 
ATOM     82  C   UNL A   1      43.935  19.900  25.192  1.00  0.00     0.200 A 
ATOM     83  F   UNL A   1      41.735  19.972  26.012  1.00  0.00    -0.200 F 
ATOM     84  F   UNL A   1      43.717  18.693  24.654  1.00  0.00    -0.200 F 
ENDBRANCH  60  74
BRANCH  61  85
ATOM     85  C   UNL A   1      44.142  32.246  29.029  1.00  0.00     0.064 A 
ATOM     86  C   UNL A   1      44.563  32.051  30.377  1.00  0.00     0.173 A 
ATOM     87  C   UNL A   1      43.778  33.556  28.683  1.00  0.00     0.173 A 
ATOM     88  F   UNL A   1      44.922  30.823  30.786  1.00  0.00    -0.203 F 
ATOM     89  C   UNL A   1      44.831  33.124  31.234  1.00  0.00     0.198 A 
ATOM     90  C   UNL A   1      44.008  34.626  29.569  1.00  0.00     0.198 A 
ATOM     91  F   UNL A   1      43.382  33.839  27.435  1.00  0.00    -0.203 F 
ATOM     92  F   UNL A   1      45.437  32.910  32.412  1.00  0.00    -0.200 F 
ATOM     93  C   UNL A   1      44.596  34.416  30.810  1.00  0.00     0.200 A 
ATOM     94  F   UNL A   1      43.764  35.885  29.175  1.00  0.00    -0.200 F 
ATOM     95  F   UNL A   1      45.000  35.454  31.559  1.00  0.00    -0.200 F 
ENDBRANCH  61  85
BRANCH  73  96
ATOM     96  C   UNL A   1      49.153  27.273  26.484  1.00  0.00     0.064 A 
ATOM     97  C   UNL A   1      49.802  26.566  27.507  1.00  0.00     0.173 A 
ATOM     98  C   UNL A   1      49.836  27.287  25.235  1.00  0.00     0.173 A 
ATOM     99  F   UNL A   1      49.248  26.409  28.716  1.00  0.00    -0.203 F 
ATOM    100  C   UNL A   1      51.035  25.945  27.308  1.00  0.00     0.198 A 
ATOM    101  C   UNL A   1      51.030  26.607  25.024  1.00  0.00     0.198 A 
ATOM    102  F   UNL A   1      49.357  27.923  24.157  1.00  0.00    -0.203 F 
ATOM    103  F   UNL A   1      51.623  25.313  28.333  1.00  0.00    -0.200 F 
ATOM    104  C   UNL A   1      51.637  25.946  26.065  1.00  0.00     0.200 A 
ATOM    105  F   UNL A   1      51.568  26.577  23.796  1.00  0.00    -0.200 F 
ATOM    106  F   UNL A   1      52.792  25.298  25.869  1.00  0.00    -0.200 F 
ENDBRANCH  73  96
ENDBRANCH  47  48
ENDBRANCH  40  42
ENDBRANCH  39  40
ENDBRANCH  38  39
ENDBRANCH  37  38
ENDBRANCH  36  37
ENDBRANCH  35  36
ENDBRANCH  34  35
ENDBRANCH  33  34
ENDBRANCH   1  33
TORSDOF 24
ENDMDL
MODEL 3
REMARK VINA RESULT:     -10.7      4.642      9.057
REMARK SMILES Cc1cccc(-n2c(C)cc(/C=N\c3ccc(O)c(C(=O)OCCOCCOCCOCCOC(=O)c4ccc(-c5c6nc(c(-c7c(F)c(F)c(F)c(F)c7F)c7ccc([nH]7)c(-c7c(F)c(F)c(F)c(F)c7F)c7nc(c(-c8c(F)c(F)c(F)c(F)c8F)c8ccc5[nH]8)C=C7)C=C6)cc4)c3)c2C)c1
REMARK SMILES IDX 27 1 26 2 25 3 24 4 23 5 22 6 20 7 21 8 19 9 14 10 15 11
REMARK SMILES IDX 100 12 16 13 17 14 13 15 12 16 11 17 7 18 8 19 101 20 9 21
REMARK SMILES IDX 10 22 102 23 6 24 1 25 2 26 3 27 103 28 4 29 5 30 18 31
REMARK SMILES IDX 28 33 29 34 30 35 31 36 32 37 33 38 34 39 35 40 36 41 37 42
REMARK SMILES IDX 38 43 99 44 39 45 98 46 40 47 41 48 42 49 92 50 43 51 97 52
REMARK SMILES IDX 91 53 93 54 44 55 96 56 90 57 89 58 45 60 77 61 57 62 76 63
REMARK SMILES IDX 58 64 61 65 75 66 94 67 59 68 60 69 74 71 95 72 62 73 46 74
REMARK SMILES IDX 47 75 55 76 48 77 49 78 53 79 56 80 50 81 51 82 54 83 52 84
REMARK SMILES IDX 78 85 79 86 87 87 80 88 81 89 85 90 88 91 82 92 83 93 86 94
REMARK SMILES IDX 84 95 63 96 64 97 72 98 65 99 66 100 70 101 73 102 67 103
REMARK SMILES IDX 68 104 71 105 69 106
REMARK H PARENT 18 32 93 59 61 70
REMARK Flexibility Score: inf
ROOT
ATOM      1  C   UNL A   1      33.162  33.653  27.708  1.00  0.00     0.188 C 
ENDROOT
BRANCH   1   2
ATOM      2  C   UNL A   1      34.442  33.076  28.357  1.00  0.00     0.188 C 
BRANCH   2   3
ATOM      3  O   UNL A   1      34.556  31.704  28.682  1.00  0.00    -0.376 OA
BRANCH   3   4
ATOM      4  C   UNL A   1      34.607  30.790  27.606  1.00  0.00     0.202 C 
BRANCH   4   5
ATOM      5  C   UNL A   1      33.343  30.458  26.846  1.00  0.00     0.261 C 
BRANCH   5   6
ATOM      6  O   UNL A   1      33.093  29.083  27.113  1.00  0.00    -0.460 OA
BRANCH   6   7
ATOM      7  C   UNL A   1      33.549  28.333  26.109  1.00  0.00     0.342 C 
ATOM      8  O   UNL A   1      34.456  27.533  26.171  1.00  0.00    -0.246 OA
BRANCH   7   9
ATOM      9  C   UNL A   1      32.584  28.475  25.002  1.00  0.00     0.103 A 
ATOM     10  C   UNL A   1      30.482  27.629  24.278  1.00  0.00     0.064 A 
ATOM     11  C   UNL A   1      30.645  28.205  23.019  1.00  0.00     0.032 A 
ATOM     12  C   UNL A   1      31.364  27.905  25.303  1.00  0.00     0.048 A 
ATOM     13  C   UNL A   1      31.826  28.894  22.733  1.00  0.00     0.049 A 
ATOM     14  C   UNL A   1      32.829  28.958  23.707  1.00  0.00     0.130 A 
BRANCH  10  15
ATOM     15  N   UNL A   1      29.508  26.705  24.582  1.00  0.00    -0.256 NA
ATOM     16  C   UNL A   1      29.818  25.455  24.785  1.00  0.00     0.121 C 
BRANCH  16  17
ATOM     17  C   UNL A   1      31.008  24.615  24.537  1.00  0.00     0.014 A 
ATOM     18  N   UNL A   1      33.017  23.540  24.398  1.00  0.00    -0.318 N 
ATOM     19  C   UNL A   1      32.587  23.762  23.113  1.00  0.00     0.021 A 
ATOM     20  C   UNL A   1      32.039  24.010  25.273  1.00  0.00     0.029 A 
ATOM     21  C   UNL A   1      33.385  23.427  21.912  1.00  0.00     0.065 C 
ATOM     22  C   UNL A   1      31.331  24.314  23.178  1.00  0.00     0.033 A 
ATOM     23  C   UNL A   1      32.313  23.886  26.716  1.00  0.00     0.065 C 
BRANCH  18  24
ATOM     24  C   UNL A   1      34.329  23.148  24.799  1.00  0.00     0.046 A 
ATOM     25  C   UNL A   1      36.320  19.909  24.888  1.00  0.00     0.044 C 
ATOM     26  C   UNL A   1      35.970  21.367  24.887  1.00  0.00    -0.049 A 
ATOM     27  C   UNL A   1      36.989  22.328  24.952  1.00  0.00     0.003 A 
ATOM     28  C   UNL A   1      34.635  21.783  24.806  1.00  0.00     0.030 A 
ATOM     29  C   UNL A   1      36.682  23.689  24.969  1.00  0.00     0.002 A 
ATOM     30  C   UNL A   1      35.349  24.104  24.914  1.00  0.00     0.026 A 
ENDBRANCH  18  24
ENDBRANCH  16  17
ENDBRANCH  10  15
BRANCH  14  31
ATOM     31  O   UNL A   1      34.044  29.405  23.281  1.00  0.00    -0.507 OA
ATOM     32  H   UNL A   1      34.632  28.820  22.843  1.00  0.00     0.293 HD
ENDBRANCH  14  31
ENDBRANCH   7   9
ENDBRANCH   6   7
ENDBRANCH   5   6
ENDBRANCH   4   5
ENDBRANCH   3   4
ENDBRANCH   2   3
ENDBRANCH   1   2
BRANCH   1  33
ATOM     33  O   UNL A   1      32.552  34.819  28.240  1.00  0.00    -0.377 OA
BRANCH  33  34
ATOM     34  C   UNL A   1      33.293  35.562  29.200  1.00  0.00     0.188 C 
BRANCH  34  35
ATOM     35  C   UNL A   1      32.576  36.062  30.419  1.00  0.00     0.188 C 
BRANCH  35  36
ATOM     36  O   UNL A   1      33.356  37.154  30.894  1.00  0.00    -0.376 OA
BRANCH  36  37
ATOM     37  C   UNL A   1      33.829  37.005  32.220  1.00  0.00     0.202 C 
BRANCH  37  38
ATOM     38  C   UNL A   1      33.852  35.538  32.651  1.00  0.00     0.261 C 
BRANCH  38  39
ATOM     39  O   UNL A   1      35.107  34.965  32.221  1.00  0.00    -0.460 OA
BRANCH  39  40
ATOM     40  C   UNL A   1      35.907  34.484  33.214  1.00  0.00     0.338 C 
ATOM     41  O   UNL A   1      36.126  35.053  34.270  1.00  0.00    -0.246 OA
BRANCH  40  42
ATOM     42  C   UNL A   1      36.679  33.297  32.732  1.00  0.00     0.060 A 
ATOM     43  C   UNL A   1      36.541  32.052  33.370  1.00  0.00     0.016 A 
ATOM     44  C   UNL A   1      37.731  33.481  31.848  1.00  0.00     0.016 A 
ATOM     45  C   UNL A   1      37.546  31.069  33.261  1.00  0.00     0.010 A 
ATOM     46  C   UNL A   1      38.743  32.536  31.797  1.00  0.00     0.010 A 
ATOM     47  C   UNL A   1      38.706  31.343  32.542  1.00  0.00    -0.014 A 
BRANCH  47  48
ATOM     48  C   UNL A   1      39.950  30.529  32.575  1.00  0.00     0.031 A 
ATOM     49  C   UNL A   1      40.027  29.307  31.697  1.00  0.00     0.074 A 
ATOM     50  C   UNL A   1      41.113  31.066  33.055  1.00  0.00     0.049 A 
ATOM     51  N   UNL A   1      41.087  28.595  31.525  1.00  0.00    -0.248 NA
ATOM     52  C   UNL A   1      38.946  28.846  30.833  1.00  0.00     0.031 C 
ATOM     53  C   UNL A   1      42.486  30.639  32.767  1.00  0.00     0.029 A 
ATOM     54  N   UNL A   1      41.354  32.198  33.851  1.00  0.00    -0.354 N 
ATOM     55  C   UNL A   1      40.978  27.870  30.355  1.00  0.00     0.074 A 
ATOM     56  C   UNL A   1      39.583  27.997  30.015  1.00  0.00     0.031 C 
ATOM     57  C   UNL A   1      43.380  31.289  33.522  1.00  0.00     0.029 A 
ATOM     58  C   UNL A   1      42.602  32.005  34.489  1.00  0.00     0.049 A 
ATOM     59  H   UNL A   1      40.765  32.981  33.949  1.00  0.00     0.167 HD
ATOM     60  C   UNL A   1      42.128  27.368  29.792  1.00  0.00     0.037 A 
ATOM     61  C   UNL A   1      42.667  31.790  35.827  1.00  0.00     0.037 A 
ATOM     62  C   UNL A   1      43.285  27.579  30.706  1.00  0.00     0.049 A 
ATOM     63  C   UNL A   1      43.145  30.354  36.018  1.00  0.00     0.074 A 
ATOM     64  C   UNL A   1      44.515  28.214  30.617  1.00  0.00     0.029 A 
ATOM     65  N   UNL A   1      43.133  27.266  32.066  1.00  0.00    -0.354 N 
ATOM     66  N   UNL A   1      42.857  29.371  35.184  1.00  0.00    -0.248 NA
ATOM     67  C   UNL A   1      44.271  30.025  36.888  1.00  0.00     0.031 C 
ATOM     68  C   UNL A   1      45.027  28.384  31.947  1.00  0.00     0.029 A 
ATOM     69  C   UNL A   1      44.129  27.824  32.850  1.00  0.00     0.049 A 
ATOM     70  H   UNL A   1      42.402  26.711  32.422  1.00  0.00     0.167 HD
ATOM     71  C   UNL A   1      43.858  28.426  35.239  1.00  0.00     0.074 A 
ATOM     72  C   UNL A   1      44.677  28.851  36.370  1.00  0.00     0.031 C 
ATOM     73  C   UNL A   1      44.209  27.508  34.275  1.00  0.00     0.037 A 
BRANCH  60  74
ATOM     74  C   UNL A   1      42.292  26.799  28.367  1.00  0.00     0.064 A 
ATOM     75  C   UNL A   1      42.943  27.545  27.350  1.00  0.00     0.173 A 
ATOM     76  C   UNL A   1      41.807  25.552  27.910  1.00  0.00     0.173 A 
ATOM     77  F   UNL A   1      43.478  28.746  27.600  1.00  0.00    -0.203 F 
ATOM     78  C   UNL A   1      43.083  27.091  26.025  1.00  0.00     0.198 A 
ATOM     79  C   UNL A   1      41.980  25.081  26.598  1.00  0.00     0.198 A 
ATOM     80  F   UNL A   1      41.115  24.725  28.694  1.00  0.00    -0.203 F 
ATOM     81  F   UNL A   1      43.687  27.868  25.114  1.00  0.00    -0.200 F 
ATOM     82  C   UNL A   1      42.613  25.852  25.651  1.00  0.00     0.200 A 
ATOM     83  F   UNL A   1      41.518  23.866  26.263  1.00  0.00    -0.200 F 
ATOM     84  F   UNL A   1      42.766  25.405  24.397  1.00  0.00    -0.200 F 
ENDBRANCH  60  74
BRANCH  61  85
ATOM     85  C   UNL A   1      41.745  32.760  36.507  1.00  0.00     0.064 A 
ATOM     86  C   UNL A   1      42.229  34.102  36.510  1.00  0.00     0.173 A 
ATOM     87  C   UNL A   1      40.350  32.611  36.477  1.00  0.00     0.173 A 
ATOM     88  F   UNL A   1      43.553  34.327  36.543  1.00  0.00    -0.203 F 
ATOM     89  C   UNL A   1      41.391  35.194  36.256  1.00  0.00     0.198 A 
ATOM     90  C   UNL A   1      39.511  33.721  36.267  1.00  0.00     0.198 A 
ATOM     91  F   UNL A   1      39.804  31.388  36.458  1.00  0.00    -0.203 F 
ATOM     92  F   UNL A   1      41.916  36.410  36.044  1.00  0.00    -0.200 F 
ATOM     93  C   UNL A   1      40.036  34.994  36.088  1.00  0.00     0.200 A 
ATOM     94  F   UNL A   1      38.189  33.542  36.123  1.00  0.00    -0.200 F 
ATOM     95  F   UNL A   1      39.252  36.006  35.685  1.00  0.00    -0.200 F 
ENDBRANCH  61  85
BRANCH  73  96
ATOM     96  C   UNL A   1      44.657  26.100  34.636  1.00  0.00     0.064 A 
ATOM     97  C   UNL A   1      43.766  25.033  34.823  1.00  0.00     0.173 A 
ATOM     98  C   UNL A   1      46.032  25.736  34.585  1.00  0.00     0.173 A 
ATOM     99  F   UNL A   1      42.439  25.213  34.823  1.00  0.00    -0.203 F 
ATOM    100  C   UNL A   1      44.210  23.719  34.968  1.00  0.00     0.198 A 
ATOM    101  C   UNL A   1      46.462  24.416  34.660  1.00  0.00     0.198 A 
ATOM    102  F   UNL A   1      47.011  26.635  34.419  1.00  0.00    -0.203 F 
ATOM    103  F   UNL A   1      43.314  22.745  35.179  1.00  0.00    -0.200 F 
ATOM    104  C   UNL A   1      45.552  23.408  34.864  1.00  0.00     0.200 A 
ATOM    105  F   UNL A   1      47.764  24.133  34.502  1.00  0.00    -0.200 F 
ATOM    106  F   UNL A   1      45.962  22.136  34.946  1.00  0.00    -0.200 F 
ENDBRANCH  73  96
ENDBRANCH  47  48
ENDBRANCH  40  42
ENDBRANCH  39  40
ENDBRANCH  38  39
ENDBRANCH  37  38
ENDBRANCH  36  37
ENDBRANCH  35  36
ENDBRANCH  34  35
ENDBRANCH  33  34
ENDBRANCH   1  33
TORSDOF 24
ENDMDL
