MODEL 1
REMARK VINA RESULT:     -11.2      0.000      0.000
REMARK SMILES Cc1cc(Cl)cc2c1O[C@H](C(F)(F)F)C(C(=O)OCCOCCOCCOCCOC(=O)c1ccc(-c3c4nc(c(-c5c(F)c(F)c(F)c(F)c5F)c5ccc([nH]5)c(-c5c(F)c(F)c(F)c(F)c5F)c5nc(c(-c6c(F)c(F)c(F)c(F)c6F)c6ccc3[nH]6)C=C5)C=C4)cc1)=C2
REMARK SMILES IDX 25 1 24 2 23 3 22 4 21 5 20 6 19 7 18 8 16 9 17 10 15 11
REMARK SMILES IDX 1 12 2 13 3 14 8 15 4 16 7 17 9 18 5 19 6 20 96 21 10 22
REMARK SMILES IDX 11 23 12 24 13 25 14 26 26 27 27 28 28 29 29 30 30 31 31 32
REMARK SMILES IDX 32 33 33 34 34 35 95 36 35 37 94 38 36 39 37 40 38 41 88 42
REMARK SMILES IDX 39 43 93 44 87 45 89 46 40 47 92 48 86 49 85 50 41 52 73 53
REMARK SMILES IDX 53 54 72 55 54 56 57 57 71 58 90 59 55 60 56 61 70 63 91 64
REMARK SMILES IDX 58 65 42 66 43 67 51 68 44 69 45 70 49 71 52 72 46 73 47 74
REMARK SMILES IDX 50 75 48 76 74 77 75 78 83 79 76 80 77 81 81 82 84 83 78 84
REMARK SMILES IDX 79 85 82 86 80 87 59 88 60 89 68 90 61 91 62 92 66 93 69 94
REMARK SMILES IDX 63 95 64 96 67 97 65 98
REMARK H PARENT 89 51 57 62
REMARK Flexibility Score: inf
ROOT
ATOM      1  C   UNL A   1      43.203  18.572  25.390  1.00  0.00     0.188 C 
ENDROOT
BRANCH   1   2
ATOM      2  O   UNL A   1      42.072  18.863  26.215  1.00  0.00    -0.377 OA
BRANCH   2   3
ATOM      3  C   UNL A   1      41.941  20.181  26.728  1.00  0.00     0.188 C 
BRANCH   3   4
ATOM      4  C   UNL A   1      40.542  20.788  26.506  1.00  0.00     0.188 C 
BRANCH   4   5
ATOM      5  O   UNL A   1      40.449  22.131  26.953  1.00  0.00    -0.376 OA
BRANCH   5   6
ATOM      6  C   UNL A   1      39.286  22.896  26.688  1.00  0.00     0.202 C 
BRANCH   6   7
ATOM      7  C   UNL A   1      38.226  22.460  25.661  1.00  0.00     0.261 C 
BRANCH   7   8
ATOM      8  O   UNL A   1      37.442  23.494  25.057  1.00  0.00    -0.460 OA
BRANCH   8   9
ATOM      9  C   UNL A   1      36.582  23.141  24.086  1.00  0.00     0.338 C 
ATOM     10  O   UNL A   1      36.854  22.587  23.035  1.00  0.00    -0.246 OA
BRANCH   9  11
ATOM     11  C   UNL A   1      35.211  23.385  24.591  1.00  0.00     0.087 C 
ATOM     12  C   UNL A   1      30.431  22.943  26.372  1.00  0.00     0.048 C 
ATOM     13  C   UNL A   1      31.406  24.071  26.181  1.00  0.00    -0.007 A 
ATOM     14  C   UNL A   1      31.078  25.361  26.623  1.00  0.00     0.027 A 
ATOM     15  C   UNL A   1      32.653  23.855  25.569  1.00  0.00     0.131 A 
ATOM     16  C   UNL A   1      31.979  26.412  26.454  1.00  0.00     0.042 A 
ATOM     17  C   UNL A   1      33.572  24.903  25.447  1.00  0.00     0.019 A 
ATOM     18  O   UNL A   1      32.903  22.588  25.121  1.00  0.00    -0.475 OA
ATOM     19  Cl  UNL A   1      31.566  27.988  27.004  1.00  0.00    -0.084 Cl
ATOM     20  C   UNL A   1      33.221  26.189  25.867  1.00  0.00     0.032 A 
ATOM     21  C   UNL A   1      34.911  24.641  24.947  1.00  0.00     0.027 C 
ATOM     22  C   UNL A   1      34.218  22.253  24.602  1.00  0.00     0.316 C 
BRANCH  22  23
ATOM     23  C   UNL A   1      34.735  21.036  25.379  1.00  0.00     0.430 C 
ATOM     24  F   UNL A   1      35.697  20.380  24.685  1.00  0.00    -0.167 F 
ATOM     25  F   UNL A   1      35.286  21.387  26.565  1.00  0.00    -0.167 F 
ATOM     26  F   UNL A   1      33.748  20.150  25.639  1.00  0.00    -0.167 F 
ENDBRANCH  22  23
ENDBRANCH   9  11
ENDBRANCH   8   9
ENDBRANCH   7   8
ENDBRANCH   6   7
ENDBRANCH   5   6
ENDBRANCH   4   5
ENDBRANCH   3   4
ENDBRANCH   2   3
ENDBRANCH   1   2
BRANCH   1  27
ATOM     27  C   UNL A   1      44.458  19.481  25.344  1.00  0.00     0.188 C 
BRANCH  27  28
ATOM     28  O   UNL A   1      44.478  20.396  24.257  1.00  0.00    -0.376 OA
BRANCH  28  29
ATOM     29  C   UNL A   1      44.858  21.736  24.520  1.00  0.00     0.202 C 
BRANCH  29  30
ATOM     30  C   UNL A   1      43.754  22.786  24.340  1.00  0.00     0.261 C 
BRANCH  30  31
ATOM     31  O   UNL A   1      43.539  23.660  25.458  1.00  0.00    -0.460 OA
BRANCH  31  32
ATOM     32  C   UNL A   1      44.094  24.889  25.401  1.00  0.00     0.338 C 
ATOM     33  O   UNL A   1      44.947  25.282  24.624  1.00  0.00    -0.246 OA
BRANCH  32  34
ATOM     34  C   UNL A   1      43.342  25.754  26.332  1.00  0.00     0.060 A 
ATOM     35  C   UNL A   1      43.784  27.065  26.555  1.00  0.00     0.016 A 
ATOM     36  C   UNL A   1      42.195  25.274  26.969  1.00  0.00     0.016 A 
ATOM     37  C   UNL A   1      43.093  27.891  27.440  1.00  0.00     0.010 A 
ATOM     38  C   UNL A   1      41.520  26.093  27.875  1.00  0.00     0.010 A 
ATOM     39  C   UNL A   1      41.985  27.393  28.139  1.00  0.00    -0.014 A 
BRANCH  39  40
ATOM     40  C   UNL A   1      41.455  28.144  29.301  1.00  0.00     0.031 A 
ATOM     41  C   UNL A   1      42.174  28.009  30.615  1.00  0.00     0.074 A 
ATOM     42  C   UNL A   1      40.384  28.949  29.194  1.00  0.00     0.049 A 
ATOM     43  N   UNL A   1      41.886  28.529  31.780  1.00  0.00    -0.248 NA
ATOM     44  C   UNL A   1      43.387  27.174  30.611  1.00  0.00     0.031 C 
ATOM     45  C   UNL A   1      39.638  29.204  27.965  1.00  0.00     0.029 A 
ATOM     46  N   UNL A   1      39.738  29.700  30.144  1.00  0.00    -0.354 N 
ATOM     47  C   UNL A   1      42.882  28.089  32.641  1.00  0.00     0.074 A 
ATOM     48  C   UNL A   1      43.761  27.229  31.880  1.00  0.00     0.031 C 
ATOM     49  C   UNL A   1      38.631  30.053  28.235  1.00  0.00     0.029 A 
ATOM     50  C   UNL A   1      38.642  30.373  29.663  1.00  0.00     0.049 A 
ATOM     51  H   UNL A   1      40.033  29.752  31.082  1.00  0.00     0.167 HD
ATOM     52  C   UNL A   1      43.057  28.389  33.949  1.00  0.00     0.037 A 
ATOM     53  C   UNL A   1      37.744  31.144  30.310  1.00  0.00     0.037 A 
ATOM     54  C   UNL A   1      42.178  29.239  34.707  1.00  0.00     0.049 A 
ATOM     55  C   UNL A   1      37.901  31.378  31.792  1.00  0.00     0.074 A 
ATOM     56  C   UNL A   1      42.269  29.601  36.038  1.00  0.00     0.029 A 
ATOM     57  N   UNL A   1      41.044  29.855  34.198  1.00  0.00    -0.354 N 
ATOM     58  N   UNL A   1      38.850  30.969  32.600  1.00  0.00    -0.248 NA
ATOM     59  C   UNL A   1      36.860  32.181  32.453  1.00  0.00     0.031 C 
ATOM     60  C   UNL A   1      41.159  30.389  36.351  1.00  0.00     0.029 A 
ATOM     61  C   UNL A   1      40.410  30.571  35.199  1.00  0.00     0.049 A 
ATOM     62  H   UNL A   1      40.736  29.791  33.265  1.00  0.00     0.167 HD
ATOM     63  C   UNL A   1      38.537  31.485  33.853  1.00  0.00     0.074 A 
ATOM     64  C   UNL A   1      37.317  32.249  33.696  1.00  0.00     0.031 C 
ATOM     65  C   UNL A   1      39.200  31.336  35.026  1.00  0.00     0.037 A 
BRANCH  52  66
ATOM     66  C   UNL A   1      44.236  27.785  34.651  1.00  0.00     0.064 A 
ATOM     67  C   UNL A   1      45.462  28.460  34.742  1.00  0.00     0.173 A 
ATOM     68  C   UNL A   1      44.122  26.541  35.289  1.00  0.00     0.173 A 
ATOM     69  F   UNL A   1      45.628  29.644  34.133  1.00  0.00    -0.203 F 
ATOM     70  C   UNL A   1      46.534  27.907  35.437  1.00  0.00     0.198 A 
ATOM     71  C   UNL A   1      45.186  26.004  36.009  1.00  0.00     0.198 A 
ATOM     72  F   UNL A   1      42.972  25.853  35.231  1.00  0.00    -0.203 F 
ATOM     73  F   UNL A   1      47.707  28.553  35.480  1.00  0.00    -0.200 F 
ATOM     74  C   UNL A   1      46.393  26.686  36.079  1.00  0.00     0.200 A 
ATOM     75  F   UNL A   1      45.043  24.830  36.639  1.00  0.00    -0.200 F 
ATOM     76  F   UNL A   1      47.420  26.163  36.763  1.00  0.00    -0.200 F 
ENDBRANCH  52  66
BRANCH  53  77
ATOM     77  C   UNL A   1      36.614  31.754  29.560  1.00  0.00     0.064 A 
ATOM     78  C   UNL A   1      35.555  30.966  29.085  1.00  0.00     0.173 A 
ATOM     79  C   UNL A   1      36.567  33.130  29.298  1.00  0.00     0.173 A 
ATOM     80  F   UNL A   1      35.567  29.639  29.282  1.00  0.00    -0.203 F 
ATOM     81  C   UNL A   1      34.499  31.531  28.373  1.00  0.00     0.198 A 
ATOM     82  C   UNL A   1      35.496  33.699  28.611  1.00  0.00     0.198 A 
ATOM     83  F   UNL A   1      37.559  33.929  29.722  1.00  0.00    -0.203 F 
ATOM     84  F   UNL A   1      33.521  30.749  27.897  1.00  0.00    -0.200 F 
ATOM     85  C   UNL A   1      34.465  32.898  28.144  1.00  0.00     0.200 A 
ATOM     86  F   UNL A   1      35.463  35.022  28.401  1.00  0.00    -0.200 F 
ATOM     87  F   UNL A   1      33.444  33.442  27.468  1.00  0.00    -0.200 F 
ENDBRANCH  53  77
BRANCH  65  88
ATOM     88  C   UNL A   1      38.647  32.028  36.239  1.00  0.00     0.064 A 
ATOM     89  C   UNL A   1      37.862  31.346  37.180  1.00  0.00     0.173 A 
ATOM     90  C   UNL A   1      38.983  33.364  36.511  1.00  0.00     0.173 A 
ATOM     91  F   UNL A   1      37.504  30.071  36.964  1.00  0.00    -0.203 F 
ATOM     92  C   UNL A   1      37.422  31.979  38.340  1.00  0.00     0.198 A 
ATOM     93  C   UNL A   1      38.570  33.984  37.687  1.00  0.00     0.198 A 
ATOM     94  F   UNL A   1      39.743  34.059  35.652  1.00  0.00    -0.203 F 
ATOM     95  F   UNL A   1      36.644  31.318  39.208  1.00  0.00    -0.200 F 
ATOM     96  C   UNL A   1      37.786  33.293  38.599  1.00  0.00     0.200 A 
ATOM     97  F   UNL A   1      38.941  35.245  37.945  1.00  0.00    -0.200 F 
ATOM     98  F   UNL A   1      37.380  33.892  39.725  1.00  0.00    -0.200 F 
ENDBRANCH  65  88
ENDBRANCH  39  40
ENDBRANCH  32  34
ENDBRANCH  31  32
ENDBRANCH  30  31
ENDBRANCH  29  30
ENDBRANCH  28  29
ENDBRANCH  27  28
ENDBRANCH   1  27
TORSDOF 21
ENDMDL
MODEL 2
REMARK VINA RESULT:     -10.5      1.278      2.209
REMARK SMILES Cc1cc(Cl)cc2c1O[C@H](C(F)(F)F)C(C(=O)OCCOCCOCCOCCOC(=O)c1ccc(-c3c4nc(c(-c5c(F)c(F)c(F)c(F)c5F)c5ccc([nH]5)c(-c5c(F)c(F)c(F)c(F)c5F)c5nc(c(-c6c(F)c(F)c(F)c(F)c6F)c6ccc3[nH]6)C=C5)C=C4)cc1)=C2
REMARK SMILES IDX 25 1 24 2 23 3 22 4 21 5 20 6 19 7 18 8 16 9 17 10 15 11
REMARK SMILES IDX 1 12 2 13 3 14 8 15 4 16 7 17 9 18 5 19 6 20 96 21 10 22
REMARK SMILES IDX 11 23 12 24 13 25 14 26 26 27 27 28 28 29 29 30 30 31 31 32
REMARK SMILES IDX 32 33 33 34 34 35 95 36 35 37 94 38 36 39 37 40 38 41 88 42
REMARK SMILES IDX 39 43 93 44 87 45 89 46 40 47 92 48 86 49 85 50 41 52 73 53
REMARK SMILES IDX 53 54 72 55 54 56 57 57 71 58 90 59 55 60 56 61 70 63 91 64
REMARK SMILES IDX 58 65 42 66 43 67 51 68 44 69 45 70 49 71 52 72 46 73 47 74
REMARK SMILES IDX 50 75 48 76 74 77 75 78 83 79 76 80 77 81 81 82 84 83 78 84
REMARK SMILES IDX 79 85 82 86 80 87 59 88 60 89 68 90 61 91 62 92 66 93 69 94
REMARK SMILES IDX 63 95 64 96 67 97 65 98
REMARK H PARENT 89 51 57 62
REMARK Flexibility Score: inf
ROOT
ATOM      1  C   UNL A   1      42.838  19.484  25.815  1.00  0.00     0.188 C 
ENDROOT
BRANCH   1   2
ATOM      2  O   UNL A   1      41.803  20.042  26.628  1.00  0.00    -0.377 OA
BRANCH   2   3
ATOM      3  C   UNL A   1      41.470  21.410  26.441  1.00  0.00     0.188 C 
BRANCH   3   4
ATOM      4  C   UNL A   1      40.080  21.782  26.989  1.00  0.00     0.188 C 
BRANCH   4   5
ATOM      5  O   UNL A   1      39.366  22.656  26.129  1.00  0.00    -0.376 OA
BRANCH   5   6
ATOM      6  C   UNL A   1      38.073  22.310  25.666  1.00  0.00     0.202 C 
BRANCH   6   7
ATOM      7  C   UNL A   1      36.890  23.294  25.705  1.00  0.00     0.261 C 
BRANCH   7   8
ATOM      8  O   UNL A   1      35.584  22.748  25.494  1.00  0.00    -0.460 OA
BRANCH   8   9
ATOM      9  C   UNL A   1      34.578  23.222  26.251  1.00  0.00     0.338 C 
ATOM     10  O   UNL A   1      34.370  22.975  27.426  1.00  0.00    -0.246 OA
BRANCH   9  11
ATOM     11  C   UNL A   1      33.858  24.241  25.453  1.00  0.00     0.087 C 
ATOM     12  C   UNL A   1      31.041  26.742  21.985  1.00  0.00     0.048 C 
ATOM     13  C   UNL A   1      31.685  27.089  23.299  1.00  0.00    -0.007 A 
ATOM     14  C   UNL A   1      31.483  28.357  23.863  1.00  0.00     0.027 A 
ATOM     15  C   UNL A   1      32.486  26.157  23.981  1.00  0.00     0.131 A 
ATOM     16  C   UNL A   1      32.073  28.685  25.083  1.00  0.00     0.042 A 
ATOM     17  C   UNL A   1      33.033  26.475  25.230  1.00  0.00     0.019 A 
ATOM     18  O   UNL A   1      32.681  24.952  23.367  1.00  0.00    -0.475 OA
ATOM     19  Cl  UNL A   1      31.814  30.243  25.765  1.00  0.00    -0.084 Cl
ATOM     20  C   UNL A   1      32.848  27.752  25.767  1.00  0.00     0.032 A 
ATOM     21  C   UNL A   1      33.737  25.459  25.994  1.00  0.00     0.027 C 
ATOM     22  C   UNL A   1      33.381  23.889  24.068  1.00  0.00     0.316 C 
BRANCH  22  23
ATOM     23  C   UNL A   1      32.480  22.648  24.063  1.00  0.00     0.430 C 
ATOM     24  F   UNL A   1      31.465  22.780  23.175  1.00  0.00    -0.167 F 
ATOM     25  F   UNL A   1      33.157  21.530  23.713  1.00  0.00    -0.167 F 
ATOM     26  F   UNL A   1      31.929  22.423  25.277  1.00  0.00    -0.167 F 
ENDBRANCH  22  23
ENDBRANCH   9  11
ENDBRANCH   8   9
ENDBRANCH   7   8
ENDBRANCH   6   7
ENDBRANCH   5   6
ENDBRANCH   4   5
ENDBRANCH   3   4
ENDBRANCH   2   3
ENDBRANCH   1   2
BRANCH   1  27
ATOM     27  C   UNL A   1      44.179  20.216  25.553  1.00  0.00     0.188 C 
BRANCH  27  28
ATOM     28  O   UNL A   1      44.409  20.550  24.191  1.00  0.00    -0.376 OA
BRANCH  28  29
ATOM     29  C   UNL A   1      44.922  21.838  23.897  1.00  0.00     0.202 C 
BRANCH  29  30
ATOM     30  C   UNL A   1      44.012  23.015  24.270  1.00  0.00     0.261 C 
BRANCH  30  31
ATOM     31  O   UNL A   1      44.324  23.675  25.506  1.00  0.00    -0.460 OA
BRANCH  31  32
ATOM     32  C   UNL A   1      44.783  24.942  25.435  1.00  0.00     0.338 C 
ATOM     33  O   UNL A   1      45.606  25.389  24.656  1.00  0.00    -0.246 OA
BRANCH  32  34
ATOM     34  C   UNL A   1      43.964  25.759  26.353  1.00  0.00     0.060 A 
ATOM     35  C   UNL A   1      44.172  27.143  26.407  1.00  0.00     0.016 A 
ATOM     36  C   UNL A   1      42.982  25.157  27.144  1.00  0.00     0.016 A 
ATOM     37  C   UNL A   1      43.416  27.927  27.277  1.00  0.00     0.010 A 
ATOM     38  C   UNL A   1      42.244  25.940  28.034  1.00  0.00     0.010 A 
ATOM     39  C   UNL A   1      42.481  27.322  28.128  1.00  0.00    -0.014 A 
BRANCH  39  40
ATOM     40  C   UNL A   1      41.919  28.091  29.262  1.00  0.00     0.031 A 
ATOM     41  C   UNL A   1      42.654  28.052  30.573  1.00  0.00     0.074 A 
ATOM     42  C   UNL A   1      40.803  28.829  29.133  1.00  0.00     0.049 A 
ATOM     43  N   UNL A   1      42.347  28.604  31.718  1.00  0.00    -0.248 NA
ATOM     44  C   UNL A   1      43.912  27.286  30.592  1.00  0.00     0.031 C 
ATOM     45  C   UNL A   1      40.035  28.990  27.901  1.00  0.00     0.029 A 
ATOM     46  N   UNL A   1      40.123  29.584  30.057  1.00  0.00    -0.354 N 
ATOM     47  C   UNL A   1      43.373  28.257  32.587  1.00  0.00     0.074 A 
ATOM     48  C   UNL A   1      44.292  27.416  31.854  1.00  0.00     0.031 C 
ATOM     49  C   UNL A   1      38.984  29.793  28.146  1.00  0.00     0.029 A 
ATOM     50  C   UNL A   1      38.988  30.174  29.559  1.00  0.00     0.049 A 
ATOM     51  H   UNL A   1      40.423  29.692  30.989  1.00  0.00     0.167 HD
ATOM     52  C   UNL A   1      43.540  28.622  33.879  1.00  0.00     0.037 A 
ATOM     53  C   UNL A   1      38.053  30.920  30.182  1.00  0.00     0.037 A 
ATOM     54  C   UNL A   1      42.621  29.452  34.610  1.00  0.00     0.049 A 
ATOM     55  C   UNL A   1      38.208  31.225  31.652  1.00  0.00     0.074 A 
ATOM     56  C   UNL A   1      42.702  29.875  35.923  1.00  0.00     0.029 A 
ATOM     57  N   UNL A   1      41.451  29.982  34.087  1.00  0.00    -0.354 N 
ATOM     58  N   UNL A   1      39.185  30.905  32.466  1.00  0.00    -0.248 NA
ATOM     59  C   UNL A   1      37.130  31.997  32.289  1.00  0.00     0.031 C 
ATOM     60  C   UNL A   1      41.552  30.613  36.215  1.00  0.00     0.029 A 
ATOM     61  C   UNL A   1      40.786  30.704  35.063  1.00  0.00     0.049 A 
ATOM     62  H   UNL A   1      41.140  29.862  33.161  1.00  0.00     0.167 HD
ATOM     63  C   UNL A   1      38.854  31.455  33.699  1.00  0.00     0.074 A 
ATOM     64  C   UNL A   1      37.592  32.143  33.523  1.00  0.00     0.031 C 
ATOM     65  C   UNL A   1      39.534  31.393  34.871  1.00  0.00     0.037 A 
BRANCH  52  66
ATOM     66  C   UNL A   1      44.757  28.114  34.594  1.00  0.00     0.064 A 
ATOM     67  C   UNL A   1      44.811  26.816  35.122  1.00  0.00     0.173 A 
ATOM     68  C   UNL A   1      45.904  28.914  34.701  1.00  0.00     0.173 A 
ATOM     69  F   UNL A   1      43.734  26.017  35.061  1.00  0.00    -0.203 F 
ATOM     70  C   UNL A   1      45.963  26.341  35.741  1.00  0.00     0.198 A 
ATOM     71  C   UNL A   1      47.065  28.427  35.294  1.00  0.00     0.198 A 
ATOM     72  F   UNL A   1      45.905  30.164  34.214  1.00  0.00    -0.203 F 
ATOM     73  F   UNL A   1      45.979  25.110  36.271  1.00  0.00    -0.200 F 
ATOM     74  C   UNL A   1      47.093  27.142  35.817  1.00  0.00     0.200 A 
ATOM     75  F   UNL A   1      48.160  29.198  35.355  1.00  0.00    -0.200 F 
ATOM     76  F   UNL A   1      48.208  26.677  36.398  1.00  0.00    -0.200 F 
ENDBRANCH  52  66
BRANCH  53  77
ATOM     77  C   UNL A   1      36.885  31.434  29.418  1.00  0.00     0.064 A 
ATOM     78  C   UNL A   1      36.808  32.781  29.038  1.00  0.00     0.173 A 
ATOM     79  C   UNL A   1      35.821  30.595  29.055  1.00  0.00     0.173 A 
ATOM     80  F   UNL A   1      37.786  33.632  29.387  1.00  0.00    -0.203 F 
ATOM     81  C   UNL A   1      35.711  33.270  28.332  1.00  0.00     0.198 A 
ATOM     82  C   UNL A   1      34.739  31.078  28.323  1.00  0.00     0.198 A 
ATOM     83  F   UNL A   1      35.840  29.299  29.402  1.00  0.00    -0.203 F 
ATOM     84  F   UNL A   1      35.646  34.570  28.016  1.00  0.00    -0.200 F 
ATOM     85  C   UNL A   1      34.681  32.416  27.967  1.00  0.00     0.200 A 
ATOM     86  F   UNL A   1      33.750  30.247  27.965  1.00  0.00    -0.200 F 
ATOM     87  F   UNL A   1      33.632  32.884  27.278  1.00  0.00    -0.200 F 
ENDBRANCH  53  77
BRANCH  65  88
ATOM     88  C   UNL A   1      38.952  32.104  36.060  1.00  0.00     0.064 A 
ATOM     89  C   UNL A   1      38.137  31.439  36.987  1.00  0.00     0.173 A 
ATOM     90  C   UNL A   1      39.289  33.441  36.324  1.00  0.00     0.173 A 
ATOM     91  F   UNL A   1      37.777  30.164  36.778  1.00  0.00    -0.203 F 
ATOM     92  C   UNL A   1      37.670  32.090  38.126  1.00  0.00     0.198 A 
ATOM     93  C   UNL A   1      38.848  34.079  37.480  1.00  0.00     0.198 A 
ATOM     94  F   UNL A   1      40.077  34.120  35.476  1.00  0.00    -0.203 F 
ATOM     95  F   UNL A   1      36.865  31.445  38.981  1.00  0.00    -0.200 F 
ATOM     96  C   UNL A   1      38.035  33.404  38.378  1.00  0.00     0.200 A 
ATOM     97  F   UNL A   1      39.220  35.341  37.731  1.00  0.00    -0.200 F 
ATOM     98  F   UNL A   1      37.603  34.021  39.486  1.00  0.00    -0.200 F 
ENDBRANCH  65  88
ENDBRANCH  39  40
ENDBRANCH  32  34
ENDBRANCH  31  32
ENDBRANCH  30  31
ENDBRANCH  29  30
ENDBRANCH  28  29
ENDBRANCH  27  28
ENDBRANCH   1  27
TORSDOF 21
ENDMDL
MODEL 3
REMARK VINA RESULT:     -10.5      4.765      9.261
REMARK SMILES Cc1cc(Cl)cc2c1O[C@H](C(F)(F)F)C(C(=O)OCCOCCOCCOCCOC(=O)c1ccc(-c3c4nc(c(-c5c(F)c(F)c(F)c(F)c5F)c5ccc([nH]5)c(-c5c(F)c(F)c(F)c(F)c5F)c5nc(c(-c6c(F)c(F)c(F)c(F)c6F)c6ccc3[nH]6)C=C5)C=C4)cc1)=C2
REMARK SMILES IDX 25 1 24 2 23 3 22 4 21 5 20 6 19 7 18 8 16 9 17 10 15 11
REMARK SMILES IDX 1 12 2 13 3 14 8 15 4 16 7 17 9 18 5 19 6 20 96 21 10 22
REMARK SMILES IDX 11 23 12 24 13 25 14 26 26 27 27 28 28 29 29 30 30 31 31 32
REMARK SMILES IDX 32 33 33 34 34 35 95 36 35 37 94 38 36 39 37 40 38 41 88 42
REMARK SMILES IDX 39 43 93 44 87 45 89 46 40 47 92 48 86 49 85 50 41 52 73 53
REMARK SMILES IDX 53 54 72 55 54 56 57 57 71 58 90 59 55 60 56 61 70 63 91 64
REMARK SMILES IDX 58 65 42 66 43 67 51 68 44 69 45 70 49 71 52 72 46 73 47 74
REMARK SMILES IDX 50 75 48 76 74 77 75 78 83 79 76 80 77 81 81 82 84 83 78 84
REMARK SMILES IDX 79 85 82 86 80 87 59 88 60 89 68 90 61 91 62 92 66 93 69 94
REMARK SMILES IDX 63 95 64 96 67 97 65 98
REMARK H PARENT 89 51 57 62
REMARK Flexibility Score: inf
ROOT
ATOM      1  C   UNL A   1      33.151  18.627  24.350  1.00  0.00     0.188 C 
ENDROOT
BRANCH   1   2
ATOM      2  O   UNL A   1      32.169  19.369  25.078  1.00  0.00    -0.377 OA
BRANCH   2   3
ATOM      3  C   UNL A   1      31.877  20.691  24.649  1.00  0.00     0.188 C 
BRANCH   3   4
ATOM      4  C   UNL A   1      32.151  20.923  23.151  1.00  0.00     0.188 C 
BRANCH   4   5
ATOM      5  O   UNL A   1      32.953  22.068  22.909  1.00  0.00    -0.376 OA
BRANCH   5   6
ATOM      6  C   UNL A   1      33.146  23.036  23.926  1.00  0.00     0.202 C 
BRANCH   6   7
ATOM      7  C   UNL A   1      32.867  24.533  23.706  1.00  0.00     0.261 C 
BRANCH   7   8
ATOM      8  O   UNL A   1      33.886  25.295  23.051  1.00  0.00    -0.460 OA
BRANCH   8   9
ATOM      9  C   UNL A   1      33.505  26.374  22.344  1.00  0.00     0.338 C 
ATOM     10  O   UNL A   1      33.299  26.425  21.144  1.00  0.00    -0.246 OA
BRANCH   9  11
ATOM     11  C   UNL A   1      33.204  27.458  23.307  1.00  0.00     0.087 C 
ATOM     12  C   UNL A   1      31.029  31.203  26.037  1.00  0.00     0.048 C 
ATOM     13  C   UNL A   1      32.295  30.397  26.137  1.00  0.00    -0.007 A 
ATOM     14  C   UNL A   1      33.144  30.563  27.241  1.00  0.00     0.027 A 
ATOM     15  C   UNL A   1      32.642  29.469  25.140  1.00  0.00     0.131 A 
ATOM     16  C   UNL A   1      34.316  29.815  27.343  1.00  0.00     0.042 A 
ATOM     17  C   UNL A   1      33.794  28.686  25.274  1.00  0.00     0.019 A 
ATOM     18  O   UNL A   1      31.799  29.378  24.068  1.00  0.00    -0.475 OA
ATOM     19  Cl  UNL A   1      35.347  30.024  28.704  1.00  0.00    -0.084 Cl
ATOM     20  C   UNL A   1      34.646  28.881  26.365  1.00  0.00     0.032 A 
ATOM     21  C   UNL A   1      34.069  27.629  24.315  1.00  0.00     0.027 C 
ATOM     22  C   UNL A   1      32.015  28.349  23.065  1.00  0.00     0.316 C 
BRANCH  22  23
ATOM     23  C   UNL A   1      30.713  27.551  22.922  1.00  0.00     0.430 C 
ATOM     24  F   UNL A   1      29.629  28.362  22.972  1.00  0.00    -0.167 F 
ATOM     25  F   UNL A   1      30.648  26.891  21.742  1.00  0.00    -0.167 F 
ATOM     26  F   UNL A   1      30.576  26.633  23.906  1.00  0.00    -0.167 F 
ENDBRANCH  22  23
ENDBRANCH   9  11
ENDBRANCH   8   9
ENDBRANCH   7   8
ENDBRANCH   6   7
ENDBRANCH   5   6
ENDBRANCH   4   5
ENDBRANCH   3   4
ENDBRANCH   2   3
ENDBRANCH   1   2
BRANCH   1  27
ATOM     27  C   UNL A   1      34.671  18.760  24.626  1.00  0.00     0.188 C 
BRANCH  27  28
ATOM     28  O   UNL A   1      35.037  19.935  25.337  1.00  0.00    -0.376 OA
BRANCH  28  29
ATOM     29  C   UNL A   1      35.967  20.817  24.733  1.00  0.00     0.202 C 
BRANCH  29  30
ATOM     30  C   UNL A   1      37.445  20.512  25.006  1.00  0.00     0.261 C 
BRANCH  30  31
ATOM     31  O   UNL A   1      38.233  21.619  25.469  1.00  0.00    -0.460 OA
BRANCH  31  32
ATOM     32  C   UNL A   1      39.309  21.339  26.234  1.00  0.00     0.338 C 
ATOM     33  O   UNL A   1      39.846  20.256  26.389  1.00  0.00    -0.246 OA
BRANCH  32  34
ATOM     34  C   UNL A   1      39.855  22.625  26.712  1.00  0.00     0.060 A 
ATOM     35  C   UNL A   1      39.293  23.821  26.247  1.00  0.00     0.016 A 
ATOM     36  C   UNL A   1      40.907  22.645  27.632  1.00  0.00     0.016 A 
ATOM     37  C   UNL A   1      39.805  25.044  26.679  1.00  0.00     0.010 A 
ATOM     38  C   UNL A   1      41.435  23.870  28.043  1.00  0.00     0.010 A 
ATOM     39  C   UNL A   1      40.908  25.074  27.542  1.00  0.00    -0.014 A 
BRANCH  39  40
ATOM     40  C   UNL A   1      41.648  26.341  27.742  1.00  0.00     0.031 A 
ATOM     41  C   UNL A   1      40.976  27.434  28.525  1.00  0.00     0.074 A 
ATOM     42  C   UNL A   1      42.895  26.514  27.269  1.00  0.00     0.049 A 
ATOM     43  N   UNL A   1      41.396  28.642  28.801  1.00  0.00    -0.248 NA
ATOM     44  C   UNL A   1      39.647  27.118  29.076  1.00  0.00     0.031 C 
ATOM     45  C   UNL A   1      43.670  25.511  26.544  1.00  0.00     0.029 A 
ATOM     46  N   UNL A   1      43.726  27.605  27.331  1.00  0.00    -0.354 N 
ATOM     47  C   UNL A   1      40.388  29.223  29.559  1.00  0.00     0.074 A 
ATOM     48  C   UNL A   1      39.319  28.256  29.668  1.00  0.00     0.031 C 
ATOM     49  C   UNL A   1      44.867  26.035  26.225  1.00  0.00     0.029 A 
ATOM     50  C   UNL A   1      44.927  27.420  26.693  1.00  0.00     0.049 A 
ATOM     51  H   UNL A   1      43.483  28.442  27.791  1.00  0.00     0.167 HD
ATOM     52  C   UNL A   1      40.365  30.451  30.126  1.00  0.00     0.037 A 
ATOM     53  C   UNL A   1      45.947  28.279  26.497  1.00  0.00     0.037 A 
ATOM     54  C   UNL A   1      41.425  31.415  30.010  1.00  0.00     0.049 A 
ATOM     55  C   UNL A   1      45.852  29.680  27.050  1.00  0.00     0.074 A 
ATOM     56  C   UNL A   1      41.494  32.688  30.546  1.00  0.00     0.029 A 
ATOM     57  N   UNL A   1      42.602  31.212  29.305  1.00  0.00    -0.354 N 
ATOM     58  N   UNL A   1      44.902  30.223  27.774  1.00  0.00    -0.248 NA
ATOM     59  C   UNL A   1      46.971  30.590  26.757  1.00  0.00     0.031 C 
ATOM     60  C   UNL A   1      42.686  33.277  30.118  1.00  0.00     0.029 A 
ATOM     61  C   UNL A   1      43.390  32.348  29.368  1.00  0.00     0.049 A 
ATOM     62  H   UNL A   1      42.841  30.383  28.830  1.00  0.00     0.167 HD
ATOM     63  C   UNL A   1      45.319  31.521  28.045  1.00  0.00     0.074 A 
ATOM     64  C   UNL A   1      46.615  31.682  27.419  1.00  0.00     0.031 C 
ATOM     65  C   UNL A   1      44.683  32.491  28.747  1.00  0.00     0.037 A 
BRANCH  52  66
ATOM     66  C   UNL A   1      39.146  30.831  30.914  1.00  0.00     0.064 A 
ATOM     67  C   UNL A   1      39.022  30.513  32.274  1.00  0.00     0.173 A 
ATOM     68  C   UNL A   1      38.116  31.573  30.316  1.00  0.00     0.173 A 
ATOM     69  F   UNL A   1      39.972  29.789  32.888  1.00  0.00    -0.203 F 
ATOM     70  C   UNL A   1      37.907  30.912  33.005  1.00  0.00     0.198 A 
ATOM     71  C   UNL A   1      37.016  31.996  31.057  1.00  0.00     0.198 A 
ATOM     72  F   UNL A   1      38.185  31.902  29.018  1.00  0.00    -0.203 F 
ATOM     73  F   UNL A   1      37.793  30.565  34.294  1.00  0.00    -0.200 F 
ATOM     74  C   UNL A   1      36.910  31.662  32.399  1.00  0.00     0.200 A 
ATOM     75  F   UNL A   1      36.061  32.732  30.473  1.00  0.00    -0.200 F 
ATOM     76  F   UNL A   1      35.845  32.062  33.108  1.00  0.00    -0.200 F 
ENDBRANCH  52  66
BRANCH  53  77
ATOM     77  C   UNL A   1      47.152  27.841  25.742  1.00  0.00     0.064 A 
ATOM     78  C   UNL A   1      48.312  27.428  26.413  1.00  0.00     0.173 A 
ATOM     79  C   UNL A   1      47.173  27.828  24.340  1.00  0.00     0.173 A 
ATOM     80  F   UNL A   1      48.354  27.451  27.754  1.00  0.00    -0.203 F 
ATOM     81  C   UNL A   1      49.446  27.026  25.711  1.00  0.00     0.198 A 
ATOM     82  C   UNL A   1      48.297  27.398  23.639  1.00  0.00     0.198 A 
ATOM     83  F   UNL A   1      46.093  28.222  23.648  1.00  0.00    -0.203 F 
ATOM     84  F   UNL A   1      50.554  26.674  26.377  1.00  0.00    -0.200 F 
ATOM     85  C   UNL A   1      49.436  27.003  24.324  1.00  0.00     0.200 A 
ATOM     86  F   UNL A   1      48.279  27.367  22.299  1.00  0.00    -0.200 F 
ATOM     87  F   UNL A   1      50.523  26.606  23.650  1.00  0.00    -0.200 F 
ENDBRANCH  53  77
BRANCH  65  88
ATOM     88  C   UNL A   1      45.379  33.814  28.907  1.00  0.00     0.064 A 
ATOM     89  C   UNL A   1      46.315  34.033  29.928  1.00  0.00     0.173 A 
ATOM     90  C   UNL A   1      45.176  34.841  27.973  1.00  0.00     0.173 A 
ATOM     91  F   UNL A   1      46.541  33.087  30.852  1.00  0.00    -0.203 F 
ATOM     92  C   UNL A   1      47.010  35.236  30.016  1.00  0.00     0.198 A 
ATOM     93  C   UNL A   1      45.896  36.030  28.044  1.00  0.00     0.198 A 
ATOM     94  F   UNL A   1      44.301  34.680  26.968  1.00  0.00    -0.203 F 
ATOM     95  F   UNL A   1      47.875  35.435  31.020  1.00  0.00    -0.200 F 
ATOM     96  C   UNL A   1      46.810  36.229  29.068  1.00  0.00     0.200 A 
ATOM     97  F   UNL A   1      45.716  36.979  27.114  1.00  0.00    -0.200 F 
ATOM     98  F   UNL A   1      47.496  37.376  29.142  1.00  0.00    -0.200 F 
ENDBRANCH  65  88
ENDBRANCH  39  40
ENDBRANCH  32  34
ENDBRANCH  31  32
ENDBRANCH  30  31
ENDBRANCH  29  30
ENDBRANCH  28  29
ENDBRANCH  27  28
ENDBRANCH   1  27
TORSDOF 21
ENDMDL
