MODEL 1
REMARK VINA RESULT:     -11.0      0.000      0.000
REMARK SMILES C[C@H](NC(=O)[C@]1(C)Sc2ccccc2NC1=O)C(=O)OCCOCCOCCOCCOC(=O)c1ccc(-c2c3nc(c(-c4c(F)c(F)c(F)c(F)c4F)c4ccc([nH]4)c(-c4c(F)c(F)c(F)c(F)c4F)c4nc(c(-c5c(F)c(F)c(F)c(F)c5F)c5ccc2[nH]5)C=C4)C=C3)cc1
REMARK SMILES IDX 26 1 25 2 24 3 23 4 22 5 21 6 20 7 18 8 19 9 2 10 1 11 3 12
REMARK SMILES IDX 4 13 5 15 6 16 8 17 16 18 7 19 9 20 15 21 17 22 10 23 14 24
REMARK SMILES IDX 11 26 13 27 12 28 27 29 28 30 29 31 30 32 31 33 32 34 33 35
REMARK SMILES IDX 34 36 35 37 36 38 97 39 37 40 96 41 38 42 39 43 40 44 90 45
REMARK SMILES IDX 41 46 95 47 89 48 91 49 42 50 94 51 88 52 87 53 43 55 75 56
REMARK SMILES IDX 55 57 74 58 56 59 59 60 73 61 92 62 57 63 58 64 72 66 93 67
REMARK SMILES IDX 60 68 44 69 45 70 53 71 46 72 47 73 51 74 54 75 48 76 49 77
REMARK SMILES IDX 52 78 50 79 76 80 77 81 85 82 78 83 79 84 83 85 86 86 80 87
REMARK SMILES IDX 81 88 84 89 82 90 61 91 62 92 70 93 63 94 64 95 68 96 71 97
REMARK SMILES IDX 65 98 66 99 69 100 67 101
REMARK H PARENT 3 14 15 25 91 54 59 65
REMARK Flexibility Score: inf
ROOT
ATOM      1  O   UNL A   1      33.578  31.547  27.298  1.00  0.00    -0.377 OA
ENDROOT
BRANCH   1   2
ATOM      2  C   UNL A   1      32.956  30.287  27.136  1.00  0.00     0.188 C 
BRANCH   2   3
ATOM      3  C   UNL A   1      33.862  29.195  26.538  1.00  0.00     0.188 C 
BRANCH   3   4
ATOM      4  O   UNL A   1      33.593  28.632  25.259  1.00  0.00    -0.376 OA
BRANCH   4   5
ATOM      5  C   UNL A   1      32.550  29.161  24.455  1.00  0.00     0.202 C 
BRANCH   5   6
ATOM      6  C   UNL A   1      31.150  28.525  24.487  1.00  0.00     0.261 C 
BRANCH   6   7
ATOM      7  O   UNL A   1      31.054  27.259  25.165  1.00  0.00    -0.462 OA
BRANCH   7   8
ATOM      8  C   UNL A   1      30.242  26.336  24.589  1.00  0.00     0.328 C 
ATOM      9  O   UNL A   1      29.081  26.547  24.251  1.00  0.00    -0.250 OA
BRANCH   8  10
ATOM     10  C   UNL A   1      30.894  24.947  24.443  1.00  0.00     0.189 C 
ATOM     11  C   UNL A   1      30.425  24.373  23.108  1.00  0.00     0.043 C 
BRANCH  10  12
ATOM     12  N   UNL A   1      30.631  23.939  25.480  1.00  0.00    -0.341 N 
ATOM     13  C   UNL A   1      31.412  22.980  26.070  1.00  0.00     0.246 C 
ATOM     14  H   UNL A   1      29.707  23.955  25.818  1.00  0.00     0.164 HD
ATOM     15  O   UNL A   1      30.804  22.202  26.816  1.00  0.00    -0.273 OA
BRANCH  13  16
ATOM     16  C   UNL A   1      32.953  22.903  25.933  1.00  0.00     0.175 C 
ATOM     17  S   UNL A   1      33.461  22.393  24.247  1.00  0.00    -0.097 SA
ATOM     18  C   UNL A   1      33.537  21.902  26.959  1.00  0.00     0.250 C 
ATOM     19  C   UNL A   1      33.564  24.279  26.227  1.00  0.00     0.045 C 
ATOM     20  C   UNL A   1      32.941  20.698  24.320  1.00  0.00     0.032 A 
ATOM     21  N   UNL A   1      33.447  20.556  26.710  1.00  0.00    -0.323 N 
ATOM     22  O   UNL A   1      34.024  22.261  28.036  1.00  0.00    -0.273 OA
ATOM     23  C   UNL A   1      32.517  20.072  23.146  1.00  0.00     0.017 A 
ATOM     24  C   UNL A   1      33.038  19.963  25.508  1.00  0.00     0.054 A 
ATOM     25  H   UNL A   1      33.692  19.949  27.445  1.00  0.00     0.170 HD
ATOM     26  C   UNL A   1      32.198  18.714  23.153  1.00  0.00     0.001 A 
ATOM     27  C   UNL A   1      32.758  18.595  25.502  1.00  0.00     0.027 A 
ATOM     28  C   UNL A   1      32.330  17.975  24.327  1.00  0.00     0.002 A 
ENDBRANCH  13  16
ENDBRANCH  10  12
ENDBRANCH   8  10
ENDBRANCH   7   8
ENDBRANCH   6   7
ENDBRANCH   5   6
ENDBRANCH   4   5
ENDBRANCH   3   4
ENDBRANCH   2   3
ENDBRANCH   1   2
BRANCH   1  29
ATOM     29  C   UNL A   1      34.718  31.536  28.144  1.00  0.00     0.188 C 
BRANCH  29  30
ATOM     30  C   UNL A   1      35.112  32.888  28.763  1.00  0.00     0.188 C 
BRANCH  30  31
ATOM     31  O   UNL A   1      34.112  33.410  29.638  1.00  0.00    -0.376 OA
BRANCH  31  32
ATOM     32  C   UNL A   1      34.570  34.087  30.806  1.00  0.00     0.202 C 
BRANCH  32  33
ATOM     33  C   UNL A   1      34.579  33.247  32.093  1.00  0.00     0.261 C 
BRANCH  33  34
ATOM     34  O   UNL A   1      35.367  32.044  32.064  1.00  0.00    -0.460 OA
BRANCH  34  35
ATOM     35  C   UNL A   1      36.438  31.939  32.880  1.00  0.00     0.338 C 
ATOM     36  O   UNL A   1      36.473  32.111  34.085  1.00  0.00    -0.246 OA
BRANCH  35  37
ATOM     37  C   UNL A   1      37.533  31.342  32.081  1.00  0.00     0.060 A 
ATOM     38  C   UNL A   1      37.540  31.445  30.687  1.00  0.00     0.016 A 
ATOM     39  C   UNL A   1      38.530  30.610  32.740  1.00  0.00     0.016 A 
ATOM     40  C   UNL A   1      38.558  30.831  29.954  1.00  0.00     0.010 A 
ATOM     41  C   UNL A   1      39.538  29.981  32.003  1.00  0.00     0.010 A 
ATOM     42  C   UNL A   1      39.569  30.105  30.606  1.00  0.00    -0.014 A 
BRANCH  42  43
ATOM     43  C   UNL A   1      40.754  29.647  29.843  1.00  0.00     0.031 A 
ATOM     44  C   UNL A   1      40.864  28.265  29.282  1.00  0.00     0.074 A 
ATOM     45  C   UNL A   1      41.754  30.528  29.662  1.00  0.00     0.049 A 
ATOM     46  N   UNL A   1      41.804  27.760  28.521  1.00  0.00    -0.248 NA
ATOM     47  C   UNL A   1      39.787  27.325  29.618  1.00  0.00     0.031 C 
ATOM     48  C   UNL A   1      41.761  31.896  30.180  1.00  0.00     0.029 A 
ATOM     49  N   UNL A   1      42.942  30.415  28.989  1.00  0.00    -0.354 N 
ATOM     50  C   UNL A   1      41.422  26.453  28.259  1.00  0.00     0.074 A 
ATOM     51  C   UNL A   1      40.189  26.226  28.990  1.00  0.00     0.031 C 
ATOM     52  C   UNL A   1      42.885  32.508  29.781  1.00  0.00     0.029 A 
ATOM     53  C   UNL A   1      43.684  31.568  28.999  1.00  0.00     0.049 A 
ATOM     54  H   UNL A   1      43.235  29.587  28.544  1.00  0.00     0.167 HD
ATOM     55  C   UNL A   1      42.035  25.538  27.466  1.00  0.00     0.037 A 
ATOM     56  C   UNL A   1      44.871  31.847  28.431  1.00  0.00     0.037 A 
ATOM     57  C   UNL A   1      43.283  25.760  26.774  1.00  0.00     0.049 A 
ATOM     58  C   UNL A   1      45.563  30.796  27.615  1.00  0.00     0.074 A 
ATOM     59  C   UNL A   1      43.971  24.901  25.934  1.00  0.00     0.029 A 
ATOM     60  N   UNL A   1      44.043  26.920  26.857  1.00  0.00    -0.354 N 
ATOM     61  N   UNL A   1      45.164  29.583  27.321  1.00  0.00    -0.248 NA
ATOM     62  C   UNL A   1      46.866  31.158  27.044  1.00  0.00     0.031 C 
ATOM     63  C   UNL A   1      45.170  25.517  25.553  1.00  0.00     0.029 A 
ATOM     64  C   UNL A   1      45.206  26.785  26.110  1.00  0.00     0.049 A 
ATOM     65  H   UNL A   1      43.793  27.721  27.372  1.00  0.00     0.167 HD
ATOM     66  C   UNL A   1      46.158  29.038  26.520  1.00  0.00     0.074 A 
ATOM     67  C   UNL A   1      47.170  30.064  26.358  1.00  0.00     0.031 C 
ATOM     68  C   UNL A   1      46.223  27.800  25.972  1.00  0.00     0.037 A 
BRANCH  55  69
ATOM     69  C   UNL A   1      41.361  24.205  27.300  1.00  0.00     0.064 A 
ATOM     70  C   UNL A   1      40.183  24.073  26.546  1.00  0.00     0.173 A 
ATOM     71  C   UNL A   1      41.917  23.042  27.852  1.00  0.00     0.173 A 
ATOM     72  F   UNL A   1      39.607  25.152  25.998  1.00  0.00    -0.203 F 
ATOM     73  C   UNL A   1      39.574  22.831  26.379  1.00  0.00     0.198 A 
ATOM     74  C   UNL A   1      41.321  21.798  27.658  1.00  0.00     0.198 A 
ATOM     75  F   UNL A   1      43.048  23.107  28.571  1.00  0.00    -0.203 F 
ATOM     76  F   UNL A   1      38.425  22.738  25.694  1.00  0.00    -0.200 F 
ATOM     77  C   UNL A   1      40.144  21.695  26.930  1.00  0.00     0.200 A 
ATOM     78  F   UNL A   1      41.882  20.698  28.178  1.00  0.00    -0.200 F 
ATOM     79  F   UNL A   1      39.559  20.500  26.763  1.00  0.00    -0.200 F 
ENDBRANCH  55  69
BRANCH  56  80
ATOM     80  C   UNL A   1      45.431  33.212  28.575  1.00  0.00     0.064 A 
ATOM     81  C   UNL A   1      46.365  33.496  29.580  1.00  0.00     0.173 A 
ATOM     82  C   UNL A   1      45.109  34.233  27.669  1.00  0.00     0.173 A 
ATOM     83  F   UNL A   1      46.690  32.552  30.476  1.00  0.00    -0.203 F 
ATOM     84  C   UNL A   1      46.959  34.751  29.672  1.00  0.00     0.198 A 
ATOM     85  C   UNL A   1      45.722  35.480  27.748  1.00  0.00     0.198 A 
ATOM     86  F   UNL A   1      44.227  34.002  26.685  1.00  0.00    -0.203 F 
ATOM     87  F   UNL A   1      47.840  35.002  30.650  1.00  0.00    -0.200 F 
ATOM     88  C   UNL A   1      46.647  35.738  28.749  1.00  0.00     0.200 A 
ATOM     89  F   UNL A   1      45.432  36.425  26.843  1.00  0.00    -0.200 F 
ATOM     90  F   UNL A   1      47.239  36.937  28.822  1.00  0.00    -0.200 F 
ENDBRANCH  56  80
BRANCH  68  91
ATOM     91  C   UNL A   1      47.436  27.481  25.143  1.00  0.00     0.064 A 
ATOM     92  C   UNL A   1      47.484  27.776  23.771  1.00  0.00     0.173 A 
ATOM     93  C   UNL A   1      48.570  26.898  25.728  1.00  0.00     0.173 A 
ATOM     94  F   UNL A   1      46.421  28.318  23.159  1.00  0.00    -0.203 F 
ATOM     95  C   UNL A   1      48.613  27.473  23.012  1.00  0.00     0.198 A 
ATOM     96  C   UNL A   1      49.707  26.625  24.972  1.00  0.00     0.198 A 
ATOM     97  F   UNL A   1      48.580  26.599  27.035  1.00  0.00    -0.203 F 
ATOM     98  F   UNL A   1      48.615  27.715  21.694  1.00  0.00    -0.200 F 
ATOM     99  C   UNL A   1      49.724  26.904  23.613  1.00  0.00     0.200 A 
ATOM    100  F   UNL A   1      50.786  26.086  25.557  1.00  0.00    -0.200 F 
ATOM    101  F   UNL A   1      50.811  26.617  22.882  1.00  0.00    -0.200 F 
ENDBRANCH  68  91
ENDBRANCH  42  43
ENDBRANCH  35  37
ENDBRANCH  34  35
ENDBRANCH  33  34
ENDBRANCH  32  33
ENDBRANCH  31  32
ENDBRANCH  30  31
ENDBRANCH  29  30
ENDBRANCH   1  29
TORSDOF 22
ENDMDL
MODEL 2
REMARK VINA RESULT:     -10.5      5.349     10.723
REMARK SMILES C[C@H](NC(=O)[C@]1(C)Sc2ccccc2NC1=O)C(=O)OCCOCCOCCOCCOC(=O)c1ccc(-c2c3nc(c(-c4c(F)c(F)c(F)c(F)c4F)c4ccc([nH]4)c(-c4c(F)c(F)c(F)c(F)c4F)c4nc(c(-c5c(F)c(F)c(F)c(F)c5F)c5ccc2[nH]5)C=C4)C=C3)cc1
REMARK SMILES IDX 26 1 25 2 24 3 23 4 22 5 21 6 20 7 18 8 19 9 2 10 1 11 3 12
REMARK SMILES IDX 4 13 5 15 6 16 8 17 16 18 7 19 9 20 15 21 17 22 10 23 14 24
REMARK SMILES IDX 11 26 13 27 12 28 27 29 28 30 29 31 30 32 31 33 32 34 33 35
REMARK SMILES IDX 34 36 35 37 36 38 97 39 37 40 96 41 38 42 39 43 40 44 90 45
REMARK SMILES IDX 41 46 95 47 89 48 91 49 42 50 94 51 88 52 87 53 43 55 75 56
REMARK SMILES IDX 55 57 74 58 56 59 59 60 73 61 92 62 57 63 58 64 72 66 93 67
REMARK SMILES IDX 60 68 44 69 45 70 53 71 46 72 47 73 51 74 54 75 48 76 49 77
REMARK SMILES IDX 52 78 50 79 76 80 77 81 85 82 78 83 79 84 83 85 86 86 80 87
REMARK SMILES IDX 81 88 84 89 82 90 61 91 62 92 70 93 63 94 64 95 68 96 71 97
REMARK SMILES IDX 65 98 66 99 69 100 67 101
REMARK H PARENT 3 14 15 25 91 54 59 65
REMARK Flexibility Score: inf
ROOT
ATOM      1  O   UNL A   1      40.148  21.932  26.115  1.00  0.00    -0.377 OA
ENDROOT
BRANCH   1   2
ATOM      2  C   UNL A   1      38.833  22.294  26.488  1.00  0.00     0.188 C 
BRANCH   2   3
ATOM      3  C   UNL A   1      37.830  22.364  25.321  1.00  0.00     0.188 C 
BRANCH   3   4
ATOM      4  O   UNL A   1      37.270  23.604  24.903  1.00  0.00    -0.376 OA
BRANCH   4   5
ATOM      5  C   UNL A   1      35.880  23.701  24.635  1.00  0.00     0.202 C 
BRANCH   5   6
ATOM      6  C   UNL A   1      35.075  22.444  24.263  1.00  0.00     0.261 C 
BRANCH   6   7
ATOM      7  O   UNL A   1      34.153  22.595  23.168  1.00  0.00    -0.462 OA
BRANCH   7   8
ATOM      8  C   UNL A   1      32.836  22.497  23.483  1.00  0.00     0.328 C 
ATOM      9  O   UNL A   1      32.233  21.437  23.628  1.00  0.00    -0.250 OA
BRANCH   8  10
ATOM     10  C   UNL A   1      32.125  23.861  23.589  1.00  0.00     0.189 C 
ATOM     11  C   UNL A   1      30.668  23.578  23.946  1.00  0.00     0.043 C 
BRANCH  10  12
ATOM     12  N   UNL A   1      32.134  24.746  22.416  1.00  0.00    -0.341 N 
ATOM     13  C   UNL A   1      32.161  26.109  22.275  1.00  0.00     0.246 C 
ATOM     14  H   UNL A   1      32.115  24.263  21.559  1.00  0.00     0.164 HD
ATOM     15  O   UNL A   1      32.012  26.513  21.115  1.00  0.00    -0.273 OA
BRANCH  13  16
ATOM     16  C   UNL A   1      32.461  27.101  23.426  1.00  0.00     0.175 C 
ATOM     17  S   UNL A   1      31.016  27.316  24.533  1.00  0.00    -0.097 SA
ATOM     18  C   UNL A   1      32.870  28.481  22.858  1.00  0.00     0.250 C 
ATOM     19  C   UNL A   1      33.636  26.576  24.261  1.00  0.00     0.045 C 
ATOM     20  C   UNL A   1      29.975  28.231  23.426  1.00  0.00     0.032 A 
ATOM     21  N   UNL A   1      31.898  29.326  22.383  1.00  0.00    -0.323 N 
ATOM     22  O   UNL A   1      34.049  28.833  22.746  1.00  0.00    -0.273 OA
ATOM     23  C   UNL A   1      28.589  28.084  23.528  1.00  0.00     0.017 A 
ATOM     24  C   UNL A   1      30.515  29.158  22.525  1.00  0.00     0.054 A 
ATOM     25  H   UNL A   1      32.202  30.126  21.896  1.00  0.00     0.170 HD
ATOM     26  C   UNL A   1      27.743  28.865  22.740  1.00  0.00     0.001 A 
ATOM     27  C   UNL A   1      29.664  29.966  21.768  1.00  0.00     0.027 A 
ATOM     28  C   UNL A   1      28.281  29.813  21.870  1.00  0.00     0.002 A 
ENDBRANCH  13  16
ENDBRANCH  10  12
ENDBRANCH   8  10
ENDBRANCH   7   8
ENDBRANCH   6   7
ENDBRANCH   5   6
ENDBRANCH   4   5
ENDBRANCH   3   4
ENDBRANCH   2   3
ENDBRANCH   1   2
BRANCH   1  29
ATOM     29  C   UNL A   1      40.479  20.574  26.368  1.00  0.00     0.188 C 
BRANCH  29  30
ATOM     30  C   UNL A   1      41.977  20.266  26.534  1.00  0.00     0.188 C 
BRANCH  30  31
ATOM     31  O   UNL A   1      42.737  20.552  25.360  1.00  0.00    -0.376 OA
BRANCH  31  32
ATOM     32  C   UNL A   1      43.724  21.575  25.465  1.00  0.00     0.202 C 
BRANCH  32  33
ATOM     33  C   UNL A   1      43.348  22.920  24.824  1.00  0.00     0.261 C 
BRANCH  33  34
ATOM     34  O   UNL A   1      44.269  24.006  25.034  1.00  0.00    -0.460 OA
BRANCH  34  35
ATOM     35  C   UNL A   1      45.008  24.034  26.163  1.00  0.00     0.338 C 
ATOM     36  O   UNL A   1      46.122  23.575  26.332  1.00  0.00    -0.246 OA
BRANCH  35  37
ATOM     37  C   UNL A   1      44.315  24.938  27.111  1.00  0.00     0.060 A 
ATOM     38  C   UNL A   1      43.337  24.449  27.981  1.00  0.00     0.016 A 
ATOM     39  C   UNL A   1      44.606  26.309  27.074  1.00  0.00     0.016 A 
ATOM     40  C   UNL A   1      42.664  25.330  28.830  1.00  0.00     0.010 A 
ATOM     41  C   UNL A   1      43.918  27.192  27.912  1.00  0.00     0.010 A 
ATOM     42  C   UNL A   1      42.958  26.705  28.809  1.00  0.00    -0.014 A 
BRANCH  42  43
ATOM     43  C   UNL A   1      42.399  27.591  29.857  1.00  0.00     0.031 A 
ATOM     44  C   UNL A   1      41.144  28.381  29.659  1.00  0.00     0.074 A 
ATOM     45  C   UNL A   1      43.066  27.669  31.023  1.00  0.00     0.049 A 
ATOM     46  N   UNL A   1      40.499  29.126  30.521  1.00  0.00    -0.248 NA
ATOM     47  C   UNL A   1      40.537  28.335  28.323  1.00  0.00     0.031 C 
ATOM     48  C   UNL A   1      44.309  26.957  31.320  1.00  0.00     0.029 A 
ATOM     49  N   UNL A   1      42.792  28.365  32.172  1.00  0.00    -0.354 N 
ATOM     50  C   UNL A   1      39.390  29.616  29.848  1.00  0.00     0.074 A 
ATOM     51  C   UNL A   1      39.482  29.125  28.485  1.00  0.00     0.031 C 
ATOM     52  C   UNL A   1      44.677  27.228  32.580  1.00  0.00     0.029 A 
ATOM     53  C   UNL A   1      43.707  28.147  33.169  1.00  0.00     0.049 A 
ATOM     54  H   UNL A   1      42.016  28.963  32.269  1.00  0.00     0.167 HD
ATOM     55  C   UNL A   1      38.382  30.386  30.330  1.00  0.00     0.037 A 
ATOM     56  C   UNL A   1      43.756  28.624  34.427  1.00  0.00     0.037 A 
ATOM     57  C   UNL A   1      38.319  30.902  31.677  1.00  0.00     0.049 A 
ATOM     58  C   UNL A   1      42.665  29.528  34.916  1.00  0.00     0.074 A 
ATOM     59  C   UNL A   1      37.329  31.674  32.263  1.00  0.00     0.029 A 
ATOM     60  N   UNL A   1      39.297  30.716  32.646  1.00  0.00    -0.354 N 
ATOM     61  N   UNL A   1      41.588  29.936  34.292  1.00  0.00    -0.248 NA
ATOM     62  C   UNL A   1      42.793  30.032  36.289  1.00  0.00     0.031 C 
ATOM     63  C   UNL A   1      37.732  31.999  33.564  1.00  0.00     0.029 A 
ATOM     64  C   UNL A   1      38.948  31.384  33.813  1.00  0.00     0.049 A 
ATOM     65  H   UNL A   1      40.118  30.187  32.524  1.00  0.00     0.167 HD
ATOM     66  C   UNL A   1      40.901  30.733  35.196  1.00  0.00     0.074 A 
ATOM     67  C   UNL A   1      41.675  30.733  36.422  1.00  0.00     0.031 C 
ATOM     68  C   UNL A   1      39.734  31.402  35.023  1.00  0.00     0.037 A 
BRANCH  55  69
ATOM     69  C   UNL A   1      37.256  30.718  29.392  1.00  0.00     0.064 A 
ATOM     70  C   UNL A   1      36.266  29.771  29.077  1.00  0.00     0.173 A 
ATOM     71  C   UNL A   1      37.131  32.001  28.840  1.00  0.00     0.173 A 
ATOM     72  F   UNL A   1      36.338  28.529  29.575  1.00  0.00    -0.203 F 
ATOM     73  C   UNL A   1      35.214  30.091  28.222  1.00  0.00     0.198 A 
ATOM     74  C   UNL A   1      36.061  32.325  28.009  1.00  0.00     0.198 A 
ATOM     75  F   UNL A   1      38.041  32.948  29.115  1.00  0.00    -0.203 F 
ATOM     76  F   UNL A   1      34.307  29.156  27.901  1.00  0.00    -0.200 F 
ATOM     77  C   UNL A   1      35.108  31.367  27.693  1.00  0.00     0.200 A 
ATOM     78  F   UNL A   1      35.952  33.564  27.510  1.00  0.00    -0.200 F 
ATOM     79  F   UNL A   1      34.092  31.674  26.875  1.00  0.00    -0.200 F 
ENDBRANCH  55  69
BRANCH  56  80
ATOM     80  C   UNL A   1      44.858  28.185  35.316  1.00  0.00     0.064 A 
ATOM     81  C   UNL A   1      46.020  28.957  35.445  1.00  0.00     0.173 A 
ATOM     82  C   UNL A   1      44.742  27.034  36.110  1.00  0.00     0.173 A 
ATOM     83  F   UNL A   1      46.177  30.057  34.694  1.00  0.00    -0.203 F 
ATOM     84  C   UNL A   1      47.023  28.598  36.340  1.00  0.00     0.198 A 
ATOM     85  C   UNL A   1      45.736  26.689  37.022  1.00  0.00     0.198 A 
ATOM     86  F   UNL A   1      43.642  26.270  36.026  1.00  0.00    -0.203 F 
ATOM     87  F   UNL A   1      48.131  29.346  36.436  1.00  0.00    -0.200 F 
ATOM     88  C   UNL A   1      46.875  27.472  37.137  1.00  0.00     0.200 A 
ATOM     89  F   UNL A   1      45.581  25.612  37.802  1.00  0.00    -0.200 F 
ATOM     90  F   UNL A   1      47.830  27.141  38.016  1.00  0.00    -0.200 F 
ENDBRANCH  56  80
BRANCH  68  91
ATOM     91  C   UNL A   1      39.222  32.199  36.191  1.00  0.00     0.064 A 
ATOM     92  C   UNL A   1      39.677  33.502  36.444  1.00  0.00     0.173 A 
ATOM     93  C   UNL A   1      38.252  31.664  37.051  1.00  0.00     0.173 A 
ATOM     94  F   UNL A   1      40.616  34.054  35.662  1.00  0.00    -0.203 F 
ATOM     95  C   UNL A   1      39.198  34.230  37.532  1.00  0.00     0.198 A 
ATOM     96  C   UNL A   1      37.754  32.406  38.120  1.00  0.00     0.198 A 
ATOM     97  F   UNL A   1      37.780  30.424  36.854  1.00  0.00    -0.203 F 
ATOM     98  F   UNL A   1      39.685  35.452  37.784  1.00  0.00    -0.200 F 
ATOM     99  C   UNL A   1      38.233  33.684  38.364  1.00  0.00     0.200 A 
ATOM    100  F   UNL A   1      36.812  31.882  38.916  1.00  0.00    -0.200 F 
ATOM    101  F   UNL A   1      37.770  34.387  39.408  1.00  0.00    -0.200 F 
ENDBRANCH  68  91
ENDBRANCH  42  43
ENDBRANCH  35  37
ENDBRANCH  34  35
ENDBRANCH  33  34
ENDBRANCH  32  33
ENDBRANCH  31  32
ENDBRANCH  30  31
ENDBRANCH  29  30
ENDBRANCH   1  29
TORSDOF 22
ENDMDL
MODEL 3
REMARK VINA RESULT:     -10.5      4.931      7.610
REMARK SMILES C[C@H](NC(=O)[C@]1(C)Sc2ccccc2NC1=O)C(=O)OCCOCCOCCOCCOC(=O)c1ccc(-c2c3nc(c(-c4c(F)c(F)c(F)c(F)c4F)c4ccc([nH]4)c(-c4c(F)c(F)c(F)c(F)c4F)c4nc(c(-c5c(F)c(F)c(F)c(F)c5F)c5ccc2[nH]5)C=C4)C=C3)cc1
REMARK SMILES IDX 26 1 25 2 24 3 23 4 22 5 21 6 20 7 18 8 19 9 2 10 1 11 3 12
REMARK SMILES IDX 4 13 5 15 6 16 8 17 16 18 7 19 9 20 15 21 17 22 10 23 14 24
REMARK SMILES IDX 11 26 13 27 12 28 27 29 28 30 29 31 30 32 31 33 32 34 33 35
REMARK SMILES IDX 34 36 35 37 36 38 97 39 37 40 96 41 38 42 39 43 40 44 90 45
REMARK SMILES IDX 41 46 95 47 89 48 91 49 42 50 94 51 88 52 87 53 43 55 75 56
REMARK SMILES IDX 55 57 74 58 56 59 59 60 73 61 92 62 57 63 58 64 72 66 93 67
REMARK SMILES IDX 60 68 44 69 45 70 53 71 46 72 47 73 51 74 54 75 48 76 49 77
REMARK SMILES IDX 52 78 50 79 76 80 77 81 85 82 78 83 79 84 83 85 86 86 80 87
REMARK SMILES IDX 81 88 84 89 82 90 61 91 62 92 70 93 63 94 64 95 68 96 71 97
REMARK SMILES IDX 65 98 66 99 69 100 67 101
REMARK H PARENT 3 14 15 25 91 54 59 65
REMARK Flexibility Score: inf
ROOT
ATOM      1  O   UNL A   1      32.935  31.325  27.712  1.00  0.00    -0.377 OA
ENDROOT
BRANCH   1   2
ATOM      2  C   UNL A   1      32.636  30.219  26.883  1.00  0.00     0.188 C 
BRANCH   2   3
ATOM      3  C   UNL A   1      33.729  29.134  26.839  1.00  0.00     0.188 C 
BRANCH   3   4
ATOM      4  O   UNL A   1      34.035  28.443  25.633  1.00  0.00    -0.376 OA
BRANCH   4   5
ATOM      5  C   UNL A   1      33.095  28.417  24.571  1.00  0.00     0.202 C 
BRANCH   5   6
ATOM      6  C   UNL A   1      32.090  27.259  24.455  1.00  0.00     0.261 C 
BRANCH   6   7
ATOM      7  O   UNL A   1      32.558  25.977  24.916  1.00  0.00    -0.462 OA
BRANCH   7   8
ATOM      8  C   UNL A   1      31.973  25.503  26.045  1.00  0.00     0.328 C 
ATOM      9  O   UNL A   1      31.611  26.202  26.987  1.00  0.00    -0.250 OA
BRANCH   8  10
ATOM     10  C   UNL A   1      31.849  23.966  26.076  1.00  0.00     0.189 C 
ATOM     11  C   UNL A   1      30.406  23.643  26.454  1.00  0.00     0.043 C 
BRANCH  10  12
ATOM     12  N   UNL A   1      32.728  23.213  26.982  1.00  0.00    -0.341 N 
ATOM     13  C   UNL A   1      33.923  22.567  26.800  1.00  0.00     0.246 C 
ATOM     14  H   UNL A   1      32.390  23.161  27.904  1.00  0.00     0.164 HD
ATOM     15  O   UNL A   1      34.308  21.906  27.773  1.00  0.00    -0.273 OA
BRANCH  13  16
ATOM     16  C   UNL A   1      34.810  22.708  25.538  1.00  0.00     0.175 C 
ATOM     17  S   UNL A   1      33.851  22.441  23.999  1.00  0.00    -0.097 SA
ATOM     18  C   UNL A   1      35.980  21.697  25.584  1.00  0.00     0.250 C 
ATOM     19  C   UNL A   1      35.415  24.117  25.493  1.00  0.00     0.045 C 
ATOM     20  C   UNL A   1      33.588  20.694  24.156  1.00  0.00     0.032 A 
ATOM     21  N   UNL A   1      35.744  20.382  25.271  1.00  0.00    -0.323 N 
ATOM     22  O   UNL A   1      37.115  22.008  25.962  1.00  0.00    -0.273 OA
ATOM     23  C   UNL A   1      32.422  20.137  23.626  1.00  0.00     0.017 A 
ATOM     24  C   UNL A   1      34.567  19.863  24.717  1.00  0.00     0.054 A 
ATOM     25  H   UNL A   1      36.470  19.743  25.453  1.00  0.00     0.170 HD
ATOM     26  C   UNL A   1      32.234  18.755  23.646  1.00  0.00     0.001 A 
ATOM     27  C   UNL A   1      34.394  18.478  24.697  1.00  0.00     0.027 A 
ATOM     28  C   UNL A   1      33.225  17.926  24.170  1.00  0.00     0.002 A 
ENDBRANCH  13  16
ENDBRANCH  10  12
ENDBRANCH   8  10
ENDBRANCH   7   8
ENDBRANCH   6   7
ENDBRANCH   5   6
ENDBRANCH   4   5
ENDBRANCH   3   4
ENDBRANCH   2   3
ENDBRANCH   1   2
BRANCH   1  29
ATOM     29  C   UNL A   1      34.321  31.579  27.878  1.00  0.00     0.188 C 
BRANCH  29  30
ATOM     30  C   UNL A   1      34.698  33.007  28.310  1.00  0.00     0.188 C 
BRANCH  30  31
ATOM     31  O   UNL A   1      33.712  33.974  27.949  1.00  0.00    -0.376 OA
BRANCH  31  32
ATOM     32  C   UNL A   1      33.968  35.325  28.326  1.00  0.00     0.202 C 
BRANCH  32  33
ATOM     33  C   UNL A   1      32.891  35.978  29.205  1.00  0.00     0.261 C 
BRANCH  33  34
ATOM     34  O   UNL A   1      32.450  35.219  30.345  1.00  0.00    -0.460 OA
BRANCH  34  35
ATOM     35  C   UNL A   1      32.860  35.584  31.579  1.00  0.00     0.338 C 
ATOM     36  O   UNL A   1      32.273  36.292  32.376  1.00  0.00    -0.246 OA
BRANCH  35  37
ATOM     37  C   UNL A   1      34.060  34.774  31.892  1.00  0.00     0.060 A 
ATOM     38  C   UNL A   1      35.328  35.181  31.468  1.00  0.00     0.016 A 
ATOM     39  C   UNL A   1      33.897  33.554  32.562  1.00  0.00     0.016 A 
ATOM     40  C   UNL A   1      36.437  34.374  31.734  1.00  0.00     0.010 A 
ATOM     41  C   UNL A   1      35.005  32.740  32.812  1.00  0.00     0.010 A 
ATOM     42  C   UNL A   1      36.285  33.154  32.417  1.00  0.00    -0.014 A 
BRANCH  42  43
ATOM     43  C   UNL A   1      37.484  32.419  32.882  1.00  0.00     0.031 A 
ATOM     44  C   UNL A   1      38.126  31.334  32.077  1.00  0.00     0.074 A 
ATOM     45  C   UNL A   1      37.996  32.761  34.079  1.00  0.00     0.049 A 
ATOM     46  N   UNL A   1      39.227  30.669  32.325  1.00  0.00    -0.248 NA
ATOM     47  C   UNL A   1      37.445  30.938  30.838  1.00  0.00     0.031 C 
ATOM     48  C   UNL A   1      37.443  33.792  34.957  1.00  0.00     0.029 A 
ATOM     49  N   UNL A   1      39.093  32.294  34.755  1.00  0.00    -0.354 N 
ATOM     50  C   UNL A   1      39.394  29.796  31.260  1.00  0.00     0.074 A 
ATOM     51  C   UNL A   1      38.246  29.978  30.390  1.00  0.00     0.031 C 
ATOM     52  C   UNL A   1      38.219  33.902  36.043  1.00  0.00     0.029 A 
ATOM     53  C   UNL A   1      39.310  32.937  35.946  1.00  0.00     0.049 A 
ATOM     54  H   UNL A   1      39.667  31.569  34.418  1.00  0.00     0.167 HD
ATOM     55  C   UNL A   1      40.420  28.940  31.025  1.00  0.00     0.037 A 
ATOM     56  C   UNL A   1      40.287  32.778  36.857  1.00  0.00     0.037 A 
ATOM     57  C   UNL A   1      41.538  28.736  31.916  1.00  0.00     0.049 A 
ATOM     58  C   UNL A   1      41.374  31.775  36.607  1.00  0.00     0.074 A 
ATOM     59  C   UNL A   1      42.633  27.905  31.754  1.00  0.00     0.029 A 
ATOM     60  N   UNL A   1      41.694  29.357  33.149  1.00  0.00    -0.354 N 
ATOM     61  N   UNL A   1      41.557  30.998  35.568  1.00  0.00    -0.248 NA
ATOM     62  C   UNL A   1      42.395  31.635  37.653  1.00  0.00     0.031 C 
ATOM     63  C   UNL A   1      43.422  27.981  32.908  1.00  0.00     0.029 A 
ATOM     64  C   UNL A   1      42.851  28.903  33.770  1.00  0.00     0.049 A 
ATOM     65  H   UNL A   1      41.076  30.023  33.527  1.00  0.00     0.167 HD
ATOM     66  C   UNL A   1      42.719  30.285  35.825  1.00  0.00     0.074 A 
ATOM     67  C   UNL A   1      43.210  30.739  37.111  1.00  0.00     0.031 C 
ATOM     68  C   UNL A   1      43.322  29.340  35.062  1.00  0.00     0.037 A 
BRANCH  55  69
ATOM     69  C   UNL A   1      40.383  28.153  29.745  1.00  0.00     0.064 A 
ATOM     70  C   UNL A   1      39.601  26.991  29.625  1.00  0.00     0.173 A 
ATOM     71  C   UNL A   1      41.091  28.582  28.613  1.00  0.00     0.173 A 
ATOM     72  F   UNL A   1      38.906  26.535  30.677  1.00  0.00    -0.203 F 
ATOM     73  C   UNL A   1      39.555  26.277  28.430  1.00  0.00     0.198 A 
ATOM     74  C   UNL A   1      41.020  27.881  27.411  1.00  0.00     0.198 A 
ATOM     75  F   UNL A   1      41.845  29.691  28.667  1.00  0.00    -0.203 F 
ATOM     76  F   UNL A   1      38.838  25.147  28.355  1.00  0.00    -0.200 F 
ATOM     77  C   UNL A   1      40.259  26.724  27.324  1.00  0.00     0.200 A 
ATOM     78  F   UNL A   1      41.689  28.323  26.337  1.00  0.00    -0.200 F 
ATOM     79  F   UNL A   1      40.209  26.038  26.173  1.00  0.00    -0.200 F 
ENDBRANCH  55  69
BRANCH  56  80
ATOM     80  C   UNL A   1      40.297  33.649  38.057  1.00  0.00     0.064 A 
ATOM     81  C   UNL A   1      39.508  33.336  39.171  1.00  0.00     0.173 A 
ATOM     82  C   UNL A   1      41.147  34.761  38.145  1.00  0.00     0.173 A 
ATOM     83  F   UNL A   1      38.670  32.289  39.123  1.00  0.00    -0.203 F 
ATOM     84  C   UNL A   1      39.573  34.100  40.333  1.00  0.00     0.198 A 
ATOM     85  C   UNL A   1      41.228  35.510  39.315  1.00  0.00     0.198 A 
ATOM     86  F   UNL A   1      41.927  35.093  37.105  1.00  0.00    -0.203 F 
ATOM     87  F   UNL A   1      38.799  33.787  41.381  1.00  0.00    -0.200 F 
ATOM     88  C   UNL A   1      40.441  35.179  40.409  1.00  0.00     0.200 A 
ATOM     89  F   UNL A   1      42.082  36.540  39.391  1.00  0.00    -0.200 F 
ATOM     90  F   UNL A   1      40.521  35.897  41.536  1.00  0.00    -0.200 F 
ENDBRANCH  56  80
BRANCH  68  91
ATOM     91  C   UNL A   1      44.584  28.727  35.602  1.00  0.00     0.064 A 
ATOM     92  C   UNL A   1      44.555  27.570  36.396  1.00  0.00     0.173 A 
ATOM     93  C   UNL A   1      45.836  29.286  35.305  1.00  0.00     0.173 A 
ATOM     94  F   UNL A   1      43.383  27.005  36.723  1.00  0.00    -0.203 F 
ATOM     95  C   UNL A   1      45.731  27.012  36.894  1.00  0.00     0.198 A 
ATOM     96  C   UNL A   1      47.011  28.709  35.780  1.00  0.00     0.198 A 
ATOM     97  F   UNL A   1      45.922  30.390  34.548  1.00  0.00    -0.203 F 
ATOM     98  F   UNL A   1      45.674  25.938  37.693  1.00  0.00    -0.200 F 
ATOM     99  C   UNL A   1      46.956  27.578  36.581  1.00  0.00     0.200 A 
ATOM    100  F   UNL A   1      48.196  29.249  35.466  1.00  0.00    -0.200 F 
ATOM    101  F   UNL A   1      48.088  27.038  37.058  1.00  0.00    -0.200 F 
ENDBRANCH  68  91
ENDBRANCH  42  43
ENDBRANCH  35  37
ENDBRANCH  34  35
ENDBRANCH  33  34
ENDBRANCH  32  33
ENDBRANCH  31  32
ENDBRANCH  30  31
ENDBRANCH  29  30
ENDBRANCH   1  29
TORSDOF 22
ENDMDL
