MODEL 1
REMARK VINA RESULT:     -10.2      0.000      0.000
REMARK SMILES C[C@]1(C(=O)OCCOCCOCCOCCOC(=O)c2ccc(-c3c4nc(c(-c5c(F)c(F)c(F)c(F)c5F)c5ccc([nH]5)c(-c5c(F)c(F)c(F)c(F)c5F)c5nc(c(-c6c(F)c(F)c(F)c(F)c6F)c6ccc3[nH]6)C=C5)C=C4)cc2)[NH2+]C2(C(=O)c3ccccc3C2=O)[C@@H]2C(=O)N(c3ccccc3)C(=O)[C@H]21
REMARK SMILES IDX 12 1 11 2 10 3 9 4 8 5 7 6 6 7 5 8 3 9 4 10 2 11 1 12 83 13
REMARK SMILES IDX 107 14 84 15 95 18 105 19 85 20 93 21 96 22 98 23 106 24
REMARK SMILES IDX 86 25 87 26 92 27 94 28 97 29 88 30 91 31 89 32 90 33 99 34
REMARK SMILES IDX 100 35 104 36 101 37 103 38 102 39 13 40 14 41 15 42 16 43
REMARK SMILES IDX 17 44 18 45 19 46 20 47 21 48 82 49 22 50 81 51 23 52 24 53
REMARK SMILES IDX 25 54 75 55 26 56 80 57 74 58 76 59 27 60 79 61 73 62 72 63
REMARK SMILES IDX 28 65 60 66 40 67 59 68 41 69 44 70 58 71 77 72 42 73 43 74
REMARK SMILES IDX 57 76 78 77 45 78 29 79 30 80 38 81 31 82 32 83 36 84 39 85
REMARK SMILES IDX 33 86 34 87 37 88 35 89 61 90 62 91 70 92 63 93 64 94 68 95
REMARK SMILES IDX 71 96 65 97 66 98 69 99 67 100 46 101 47 102 55 103 48 104
REMARK SMILES IDX 49 105 53 106 56 107 50 108 51 109 54 110 52 111
REMARK H PARENT 83 16 83 17 76 64 44 75
REMARK Flexibility Score: inf
ROOT
ATOM      1  C   UNL A   1      41.667  24.972  26.976  1.00  0.00     0.188 C 
ENDROOT
BRANCH   1   2
ATOM      2  O   UNL A   1      42.132  23.952  27.845  1.00  0.00    -0.377 OA
BRANCH   2   3
ATOM      3  C   UNL A   1      41.580  22.657  27.747  1.00  0.00     0.188 C 
BRANCH   3   4
ATOM      4  C   UNL A   1      40.349  22.545  26.837  1.00  0.00     0.188 C 
BRANCH   4   5
ATOM      5  O   UNL A   1      40.179  21.332  26.138  1.00  0.00    -0.376 OA
BRANCH   5   6
ATOM      6  C   UNL A   1      38.910  20.801  25.794  1.00  0.00     0.202 C 
BRANCH   6   7
ATOM      7  C   UNL A   1      37.964  21.266  24.671  1.00  0.00     0.261 C 
BRANCH   7   8
ATOM      8  O   UNL A   1      37.624  22.645  24.585  1.00  0.00    -0.459 OA
BRANCH   8   9
ATOM      9  C   UNL A   1      36.433  22.937  24.019  1.00  0.00     0.368 C 
ATOM     10  O   UNL A   1      36.153  22.652  22.861  1.00  0.00    -0.245 OA
BRANCH   9  11
ATOM     11  C   UNL A   1      35.481  23.710  24.977  1.00  0.00     0.205 C 
ATOM     12  C   UNL A   1      36.313  24.171  26.175  1.00  0.00     0.093 C 
ATOM     13  N   UNL A   1      34.768  24.923  24.375  1.00  0.00    -0.313 N 
ATOM     14  C   UNL A   1      34.304  22.843  25.313  1.00  0.00     0.172 C 
ATOM     15  C   UNL A   1      33.340  24.536  24.030  1.00  0.00     0.237 C 
ATOM     16  H   UNL A   1      35.255  25.221  23.530  1.00  0.00     0.348 HD
ATOM     17  H   UNL A   1      34.765  25.691  25.047  1.00  0.00     0.348 HD
ATOM     18  C   UNL A   1      33.445  23.055  24.074  1.00  0.00     0.177 C 
ATOM     19  C   UNL A   1      34.338  21.360  25.384  1.00  0.00     0.244 C 
ATOM     20  C   UNL A   1      32.374  25.215  25.003  1.00  0.00     0.232 C 
ATOM     21  C   UNL A   1      32.919  25.116  22.674  1.00  0.00     0.232 C 
ATOM     22  C   UNL A   1      32.429  21.994  24.247  1.00  0.00     0.245 C 
ATOM     23  N   UNL A   1      33.160  20.933  24.779  1.00  0.00    -0.250 N 
ATOM     24  O   UNL A   1      35.222  20.721  25.926  1.00  0.00    -0.273 OA
ATOM     25  O   UNL A   1      32.329  25.081  26.213  1.00  0.00    -0.286 OA
ATOM     26  C   UNL A   1      31.574  26.188  24.262  1.00  0.00     0.036 A 
ATOM     27  C   UNL A   1      31.903  26.148  22.914  1.00  0.00     0.036 A 
ATOM     28  O   UNL A   1      33.279  24.785  21.559  1.00  0.00    -0.286 OA
ATOM     29  O   UNL A   1      31.279  22.057  23.851  1.00  0.00    -0.273 OA
ATOM     30  C   UNL A   1      30.632  27.074  24.759  1.00  0.00     0.013 A 
ATOM     31  C   UNL A   1      31.296  26.993  22.000  1.00  0.00     0.013 A 
ATOM     32  C   UNL A   1      30.008  27.932  23.851  1.00  0.00     0.001 A 
ATOM     33  C   UNL A   1      30.337  27.893  22.482  1.00  0.00     0.001 A 
BRANCH  23  34
ATOM     34  C   UNL A   1      32.906  19.568  24.544  1.00  0.00     0.052 A 
ATOM     35  C   UNL A   1      32.846  18.666  25.613  1.00  0.00     0.027 A 
ATOM     36  C   UNL A   1      32.901  19.076  23.232  1.00  0.00     0.027 A 
ATOM     37  C   UNL A   1      32.802  17.294  25.382  1.00  0.00     0.002 A 
ATOM     38  C   UNL A   1      32.900  17.698  23.004  1.00  0.00     0.002 A 
ATOM     39  C   UNL A   1      32.851  16.809  24.078  1.00  0.00     0.000 A 
ENDBRANCH  23  34
ENDBRANCH   9  11
ENDBRANCH   8   9
ENDBRANCH   7   8
ENDBRANCH   6   7
ENDBRANCH   5   6
ENDBRANCH   4   5
ENDBRANCH   3   4
ENDBRANCH   2   3
ENDBRANCH   1   2
BRANCH   1  40
ATOM     40  C   UNL A   1      42.502  25.440  25.762  1.00  0.00     0.188 C 
BRANCH  40  41
ATOM     41  O   UNL A   1      43.185  24.412  25.064  1.00  0.00    -0.376 OA
BRANCH  41  42
ATOM     42  C   UNL A   1      44.563  24.194  25.315  1.00  0.00     0.202 C 
BRANCH  42  43
ATOM     43  C   UNL A   1      45.447  25.404  25.654  1.00  0.00     0.261 C 
BRANCH  43  44
ATOM     44  O   UNL A   1      46.305  25.886  24.611  1.00  0.00    -0.460 OA
BRANCH  44  45
ATOM     45  C   UNL A   1      46.470  27.218  24.481  1.00  0.00     0.338 C 
ATOM     46  O   UNL A   1      46.776  27.830  23.471  1.00  0.00    -0.246 OA
BRANCH  45  47
ATOM     47  C   UNL A   1      46.016  27.836  25.746  1.00  0.00     0.060 A 
ATOM     48  C   UNL A   1      46.933  28.108  26.763  1.00  0.00     0.016 A 
ATOM     49  C   UNL A   1      44.651  28.091  25.937  1.00  0.00     0.016 A 
ATOM     50  C   UNL A   1      46.486  28.671  27.961  1.00  0.00     0.010 A 
ATOM     51  C   UNL A   1      44.204  28.642  27.140  1.00  0.00     0.010 A 
ATOM     52  C   UNL A   1      45.123  28.965  28.149  1.00  0.00    -0.014 A 
BRANCH  52  53
ATOM     53  C   UNL A   1      44.706  29.791  29.309  1.00  0.00     0.031 A 
ATOM     54  C   UNL A   1      44.532  31.275  29.221  1.00  0.00     0.074 A 
ATOM     55  C   UNL A   1      44.483  29.153  30.474  1.00  0.00     0.049 A 
ATOM     56  N   UNL A   1      44.088  32.102  30.137  1.00  0.00    -0.248 NA
ATOM     57  C   UNL A   1      44.906  31.919  27.955  1.00  0.00     0.031 C 
ATOM     58  C   UNL A   1      44.658  27.714  30.682  1.00  0.00     0.029 A 
ATOM     59  N   UNL A   1      44.052  29.617  31.690  1.00  0.00    -0.354 N 
ATOM     60  C   UNL A   1      44.105  33.361  29.554  1.00  0.00     0.074 A 
ATOM     61  C   UNL A   1      44.655  33.196  28.222  1.00  0.00     0.031 C 
ATOM     62  C   UNL A   1      44.300  27.407  31.936  1.00  0.00     0.029 A 
ATOM     63  C   UNL A   1      43.900  28.628  32.630  1.00  0.00     0.049 A 
ATOM     64  H   UNL A   1      43.869  30.568  31.871  1.00  0.00     0.167 HD
ATOM     65  C   UNL A   1      43.676  34.535  30.079  1.00  0.00     0.037 A 
ATOM     66  C   UNL A   1      43.478  28.691  33.907  1.00  0.00     0.037 A 
ATOM     67  C   UNL A   1      43.145  34.690  31.413  1.00  0.00     0.049 A 
ATOM     68  C   UNL A   1      43.057  30.016  34.476  1.00  0.00     0.074 A 
ATOM     69  C   UNL A   1      42.654  35.836  32.018  1.00  0.00     0.029 A 
ATOM     70  N   UNL A   1      43.048  33.675  32.354  1.00  0.00    -0.354 N 
ATOM     71  N   UNL A   1      42.998  31.186  33.890  1.00  0.00    -0.248 NA
ATOM     72  C   UNL A   1      42.640  30.028  35.885  1.00  0.00     0.031 C 
ATOM     73  C   UNL A   1      42.317  35.529  33.338  1.00  0.00     0.029 A 
ATOM     74  C   UNL A   1      42.535  34.176  33.542  1.00  0.00     0.049 A 
ATOM     75  H   UNL A   1      43.305  32.736  32.202  1.00  0.00     0.167 HD
ATOM     76  C   UNL A   1      42.517  32.069  34.847  1.00  0.00     0.074 A 
ATOM     77  C   UNL A   1      42.278  31.294  36.046  1.00  0.00     0.031 C 
ATOM     78  C   UNL A   1      42.298  33.402  34.737  1.00  0.00     0.037 A 
BRANCH  65  79
ATOM     79  C   UNL A   1      43.740  35.761  29.211  1.00  0.00     0.064 A 
ATOM     80  C   UNL A   1      44.898  36.553  29.155  1.00  0.00     0.173 A 
ATOM     81  C   UNL A   1      42.681  36.091  28.351  1.00  0.00     0.173 A 
ATOM     82  F   UNL A   1      45.942  36.279  29.952  1.00  0.00    -0.203 F 
ATOM     83  C   UNL A   1      44.984  37.639  28.286  1.00  0.00     0.198 A 
ATOM     84  C   UNL A   1      42.782  37.158  27.462  1.00  0.00     0.198 A 
ATOM     85  F   UNL A   1      41.556  35.358  28.350  1.00  0.00    -0.203 F 
ATOM     86  F   UNL A   1      46.088  38.398  28.272  1.00  0.00    -0.200 F 
ATOM     87  C   UNL A   1      43.931  37.934  27.434  1.00  0.00     0.200 A 
ATOM     88  F   UNL A   1      41.773  37.428  26.622  1.00  0.00    -0.200 F 
ATOM     89  F   UNL A   1      44.024  38.966  26.584  1.00  0.00    -0.200 F 
ENDBRANCH  65  79
BRANCH  66  90
ATOM     90  C   UNL A   1      43.389  27.445  34.710  1.00  0.00     0.064 A 
ATOM     91  C   UNL A   1      42.195  26.715  34.773  1.00  0.00     0.173 A 
ATOM     92  C   UNL A   1      44.500  26.940  35.402  1.00  0.00     0.173 A 
ATOM     93  F   UNL A   1      41.101  27.165  34.140  1.00  0.00    -0.203 F 
ATOM     94  C   UNL A   1      42.111  25.534  35.507  1.00  0.00     0.198 A 
ATOM     95  C   UNL A   1      44.425  25.744  36.110  1.00  0.00     0.198 A 
ATOM     96  F   UNL A   1      45.669  27.598  35.367  1.00  0.00    -0.203 F 
ATOM     97  F   UNL A   1      40.946  24.876  35.580  1.00  0.00    -0.200 F 
ATOM     98  C   UNL A   1      43.228  25.045  36.168  1.00  0.00     0.200 A 
ATOM     99  F   UNL A   1      45.511  25.264  36.730  1.00  0.00    -0.200 F 
ATOM    100  F   UNL A   1      43.150  23.901  36.861  1.00  0.00    -0.200 F 
ENDBRANCH  66  90
BRANCH  78 101
ATOM    101  C   UNL A   1      41.760  34.121  35.942  1.00  0.00     0.064 A 
ATOM    102  C   UNL A   1      42.602  34.829  36.812  1.00  0.00     0.173 A 
ATOM    103  C   UNL A   1      40.379  34.159  36.194  1.00  0.00     0.173 A 
ATOM    104  F   UNL A   1      43.932  34.814  36.627  1.00  0.00    -0.203 F 
ATOM    105  C   UNL A   1      42.085  35.534  37.896  1.00  0.00     0.198 A 
ATOM    106  C   UNL A   1      39.862  34.892  37.259  1.00  0.00     0.198 A 
ATOM    107  F   UNL A   1      39.527  33.503  35.391  1.00  0.00    -0.203 F 
ATOM    108  F   UNL A   1      42.913  36.170  38.736  1.00  0.00    -0.200 F 
ATOM    109  C   UNL A   1      40.715  35.575  38.111  1.00  0.00     0.200 A 
ATOM    110  F   UNL A   1      38.537  34.944  37.455  1.00  0.00    -0.200 F 
ATOM    111  F   UNL A   1      40.219  36.270  39.143  1.00  0.00    -0.200 F 
ENDBRANCH  78 101
ENDBRANCH  52  53
ENDBRANCH  45  47
ENDBRANCH  44  45
ENDBRANCH  43  44
ENDBRANCH  42  43
ENDBRANCH  41  42
ENDBRANCH  40  41
ENDBRANCH   1  40
TORSDOF 21
ENDMDL
MODEL 2
REMARK VINA RESULT:     -10.0      5.761     11.642
REMARK SMILES C[C@]1(C(=O)OCCOCCOCCOCCOC(=O)c2ccc(-c3c4nc(c(-c5c(F)c(F)c(F)c(F)c5F)c5ccc([nH]5)c(-c5c(F)c(F)c(F)c(F)c5F)c5nc(c(-c6c(F)c(F)c(F)c(F)c6F)c6ccc3[nH]6)C=C5)C=C4)cc2)[NH2+]C2(C(=O)c3ccccc3C2=O)[C@@H]2C(=O)N(c3ccccc3)C(=O)[C@H]21
REMARK SMILES IDX 12 1 11 2 10 3 9 4 8 5 7 6 6 7 5 8 3 9 4 10 2 11 1 12 83 13
REMARK SMILES IDX 107 14 84 15 95 18 105 19 85 20 93 21 96 22 98 23 106 24
REMARK SMILES IDX 86 25 87 26 92 27 94 28 97 29 88 30 91 31 89 32 90 33 99 34
REMARK SMILES IDX 100 35 104 36 101 37 103 38 102 39 13 40 14 41 15 42 16 43
REMARK SMILES IDX 17 44 18 45 19 46 20 47 21 48 82 49 22 50 81 51 23 52 24 53
REMARK SMILES IDX 25 54 75 55 26 56 80 57 74 58 76 59 27 60 79 61 73 62 72 63
REMARK SMILES IDX 28 65 60 66 40 67 59 68 41 69 44 70 58 71 77 72 42 73 43 74
REMARK SMILES IDX 57 76 78 77 45 78 29 79 30 80 38 81 31 82 32 83 36 84 39 85
REMARK SMILES IDX 33 86 34 87 37 88 35 89 61 90 62 91 70 92 63 93 64 94 68 95
REMARK SMILES IDX 71 96 65 97 66 98 69 99 67 100 46 101 47 102 55 103 48 104
REMARK SMILES IDX 49 105 53 106 56 107 50 108 51 109 54 110 52 111
REMARK H PARENT 83 16 83 17 76 64 44 75
REMARK Flexibility Score: inf
ROOT
ATOM      1  C   UNL A   1      42.191  28.036  30.179  1.00  0.00     0.188 C 
ENDROOT
BRANCH   1   2
ATOM      2  O   UNL A   1      42.444  27.725  31.539  1.00  0.00    -0.377 OA
BRANCH   2   3
ATOM      3  C   UNL A   1      43.690  27.170  31.900  1.00  0.00     0.188 C 
BRANCH   3   4
ATOM      4  C   UNL A   1      44.113  27.420  33.354  1.00  0.00     0.188 C 
BRANCH   4   5
ATOM      5  O   UNL A   1      44.185  28.764  33.778  1.00  0.00    -0.376 OA
BRANCH   5   6
ATOM      6  C   UNL A   1      43.285  29.336  34.712  1.00  0.00     0.202 C 
BRANCH   6   7
ATOM      7  C   UNL A   1      41.875  29.895  34.444  1.00  0.00     0.261 C 
BRANCH   7   8
ATOM      8  O   UNL A   1      41.580  30.433  33.160  1.00  0.00    -0.459 OA
BRANCH   8   9
ATOM      9  C   UNL A   1      40.307  30.836  32.954  1.00  0.00     0.368 C 
ATOM     10  O   UNL A   1      39.354  30.399  33.588  1.00  0.00    -0.245 OA
BRANCH   9  11
ATOM     11  C   UNL A   1      40.180  31.875  31.802  1.00  0.00     0.205 C 
ATOM     12  C   UNL A   1      41.468  31.806  30.980  1.00  0.00     0.093 C 
ATOM     13  N   UNL A   1      38.985  31.688  30.864  1.00  0.00    -0.313 N 
ATOM     14  C   UNL A   1      39.863  33.222  32.380  1.00  0.00     0.172 C 
ATOM     15  C   UNL A   1      37.900  32.680  31.244  1.00  0.00     0.237 C 
ATOM     16  H   UNL A   1      38.626  30.738  30.953  1.00  0.00     0.348 HD
ATOM     17  H   UNL A   1      39.275  31.847  29.899  1.00  0.00     0.348 HD
ATOM     18  C   UNL A   1      38.363  33.081  32.597  1.00  0.00     0.177 C 
ATOM     19  C   UNL A   1      40.300  33.692  33.719  1.00  0.00     0.244 C 
ATOM     20  C   UNL A   1      37.797  33.766  30.171  1.00  0.00     0.232 C 
ATOM     21  C   UNL A   1      36.512  32.029  31.201  1.00  0.00     0.232 C 
ATOM     22  C   UNL A   1      38.082  34.271  33.429  1.00  0.00     0.245 C 
ATOM     23  N   UNL A   1      39.202  34.357  34.256  1.00  0.00    -0.250 N 
ATOM     24  O   UNL A   1      41.423  33.539  34.165  1.00  0.00    -0.273 OA
ATOM     25  O   UNL A   1      38.666  34.546  29.825  1.00  0.00    -0.286 OA
ATOM     26  C   UNL A   1      36.504  33.638  29.501  1.00  0.00     0.036 A 
ATOM     27  C   UNL A   1      35.765  32.617  30.082  1.00  0.00     0.036 A 
ATOM     28  O   UNL A   1      36.030  31.209  31.962  1.00  0.00    -0.286 OA
ATOM     29  O   UNL A   1      37.032  34.886  33.436  1.00  0.00    -0.273 OA
ATOM     30  C   UNL A   1      36.026  34.365  28.423  1.00  0.00     0.013 A 
ATOM     31  C   UNL A   1      34.507  32.282  29.611  1.00  0.00     0.013 A 
ATOM     32  C   UNL A   1      34.757  34.042  27.936  1.00  0.00     0.001 A 
ATOM     33  C   UNL A   1      34.003  33.008  28.524  1.00  0.00     0.001 A 
BRANCH  23  34
ATOM     34  C   UNL A   1      39.202  34.829  35.582  1.00  0.00     0.052 A 
ATOM     35  C   UNL A   1      39.922  35.981  35.922  1.00  0.00     0.027 A 
ATOM     36  C   UNL A   1      38.641  34.047  36.601  1.00  0.00     0.027 A 
ATOM     37  C   UNL A   1      40.099  36.339  37.256  1.00  0.00     0.002 A 
ATOM     38  C   UNL A   1      38.857  34.386  37.939  1.00  0.00     0.002 A 
ATOM     39  C   UNL A   1      39.584  35.530  38.264  1.00  0.00     0.000 A 
ENDBRANCH  23  34
ENDBRANCH   9  11
ENDBRANCH   8   9
ENDBRANCH   7   8
ENDBRANCH   6   7
ENDBRANCH   5   6
ENDBRANCH   4   5
ENDBRANCH   3   4
ENDBRANCH   2   3
ENDBRANCH   1   2
BRANCH   1  40
ATOM     40  C   UNL A   1      40.774  28.407  29.685  1.00  0.00     0.188 C 
BRANCH  40  41
ATOM     41  O   UNL A   1      39.911  27.308  29.443  1.00  0.00    -0.376 OA
BRANCH  41  42
ATOM     42  C   UNL A   1      39.743  26.829  28.120  1.00  0.00     0.202 C 
BRANCH  42  43
ATOM     43  C   UNL A   1      39.733  25.311  27.885  1.00  0.00     0.261 C 
BRANCH  43  44
ATOM     44  O   UNL A   1      40.299  24.846  26.652  1.00  0.00    -0.460 OA
BRANCH  44  45
ATOM     45  C   UNL A   1      41.445  24.137  26.701  1.00  0.00     0.338 C 
ATOM     46  O   UNL A   1      41.567  22.925  26.643  1.00  0.00    -0.246 OA
BRANCH  45  47
ATOM     47  C   UNL A   1      42.559  25.108  26.637  1.00  0.00     0.060 A 
ATOM     48  C   UNL A   1      42.882  25.728  25.428  1.00  0.00     0.016 A 
ATOM     49  C   UNL A   1      43.325  25.354  27.784  1.00  0.00     0.016 A 
ATOM     50  C   UNL A   1      43.951  26.625  25.378  1.00  0.00     0.010 A 
ATOM     51  C   UNL A   1      44.402  26.242  27.729  1.00  0.00     0.010 A 
ATOM     52  C   UNL A   1      44.703  26.907  26.533  1.00  0.00    -0.014 A 
BRANCH  52  53
ATOM     53  C   UNL A   1      45.660  28.043  26.525  1.00  0.00     0.031 A 
ATOM     54  C   UNL A   1      45.234  29.456  26.776  1.00  0.00     0.074 A 
ATOM     55  C   UNL A   1      46.953  27.761  26.278  1.00  0.00     0.049 A 
ATOM     56  N   UNL A   1      45.982  30.528  26.882  1.00  0.00    -0.248 NA
ATOM     57  C   UNL A   1      43.794  29.707  26.920  1.00  0.00     0.031 C 
ATOM     58  C   UNL A   1      47.471  26.424  25.983  1.00  0.00     0.029 A 
ATOM     59  N   UNL A   1      48.063  28.565  26.248  1.00  0.00    -0.354 N 
ATOM     60  C   UNL A   1      45.109  31.578  27.131  1.00  0.00     0.074 A 
ATOM     61  C   UNL A   1      43.771  31.022  27.104  1.00  0.00     0.031 C 
ATOM     62  C   UNL A   1      48.802  26.492  25.841  1.00  0.00     0.029 A 
ATOM     63  C   UNL A   1      49.227  27.879  26.004  1.00  0.00     0.049 A 
ATOM     64  H   UNL A   1      48.028  29.539  26.387  1.00  0.00     0.167 HD
ATOM     65  C   UNL A   1      45.408  32.877  27.381  1.00  0.00     0.037 A 
ATOM     66  C   UNL A   1      50.499  28.314  25.928  1.00  0.00     0.037 A 
ATOM     67  C   UNL A   1      46.746  33.423  27.388  1.00  0.00     0.049 A 
ATOM     68  C   UNL A   1      50.793  29.769  26.160  1.00  0.00     0.074 A 
ATOM     69  C   UNL A   1      47.145  34.720  27.666  1.00  0.00     0.029 A 
ATOM     70  N   UNL A   1      47.899  32.709  27.092  1.00  0.00    -0.354 N 
ATOM     71  N   UNL A   1      49.970  30.738  26.476  1.00  0.00    -0.248 NA
ATOM     72  C   UNL A   1      52.194  30.190  26.029  1.00  0.00     0.031 C 
ATOM     73  C   UNL A   1      48.528  34.805  27.481  1.00  0.00     0.029 A 
ATOM     74  C   UNL A   1      49.003  33.546  27.150  1.00  0.00     0.049 A 
ATOM     75  H   UNL A   1      47.929  31.749  26.874  1.00  0.00     0.167 HD
ATOM     76  C   UNL A   1      50.752  31.877  26.605  1.00  0.00     0.074 A 
ATOM     77  C   UNL A   1      52.120  31.474  26.354  1.00  0.00     0.031 C 
ATOM     78  C   UNL A   1      50.366  33.142  26.900  1.00  0.00     0.037 A 
BRANCH  65  79
ATOM     79  C   UNL A   1      44.274  33.815  27.689  1.00  0.00     0.064 A 
ATOM     80  C   UNL A   1      43.790  33.965  28.999  1.00  0.00     0.173 A 
ATOM     81  C   UNL A   1      43.735  34.645  26.694  1.00  0.00     0.173 A 
ATOM     82  F   UNL A   1      44.274  33.200  29.989  1.00  0.00    -0.203 F 
ATOM     83  C   UNL A   1      42.797  34.896  29.294  1.00  0.00     0.198 A 
ATOM     84  C   UNL A   1      42.765  35.596  26.999  1.00  0.00     0.198 A 
ATOM     85  F   UNL A   1      44.173  34.556  25.428  1.00  0.00    -0.203 F 
ATOM     86  F   UNL A   1      42.331  35.001  30.546  1.00  0.00    -0.200 F 
ATOM     87  C   UNL A   1      42.293  35.718  28.297  1.00  0.00     0.200 A 
ATOM     88  F   UNL A   1      42.295  36.405  26.039  1.00  0.00    -0.200 F 
ATOM     89  F   UNL A   1      41.354  36.628  28.588  1.00  0.00    -0.200 F 
ENDBRANCH  65  79
BRANCH  66  90
ATOM     90  C   UNL A   1      51.590  27.341  25.666  1.00  0.00     0.064 A 
ATOM     91  C   UNL A   1      52.275  26.728  26.724  1.00  0.00     0.173 A 
ATOM     92  C   UNL A   1      51.949  26.978  24.360  1.00  0.00     0.173 A 
ATOM     93  F   UNL A   1      51.978  27.053  27.991  1.00  0.00    -0.203 F 
ATOM     94  C   UNL A   1      53.284  25.798  26.485  1.00  0.00     0.198 A 
ATOM     95  C   UNL A   1      52.936  26.026  24.121  1.00  0.00     0.198 A 
ATOM     96  F   UNL A   1      51.318  27.530  23.311  1.00  0.00    -0.203 F 
ATOM     97  F   UNL A   1      53.947  25.256  27.515  1.00  0.00    -0.200 F 
ATOM     98  C   UNL A   1      53.608  25.441  25.185  1.00  0.00     0.200 A 
ATOM     99  F   UNL A   1      53.232  25.669  22.864  1.00  0.00    -0.200 F 
ATOM    100  F   UNL A   1      54.569  24.536  24.957  1.00  0.00    -0.200 F 
ENDBRANCH  66  90
BRANCH  78 101
ATOM    101  C   UNL A   1      51.435  34.196  26.983  1.00  0.00     0.064 A 
ATOM    102  C   UNL A   1      52.141  34.433  28.172  1.00  0.00     0.173 A 
ATOM    103  C   UNL A   1      51.804  34.931  25.846  1.00  0.00     0.173 A 
ATOM    104  F   UNL A   1      51.818  33.770  29.293  1.00  0.00    -0.203 F 
ATOM    105  C   UNL A   1      53.164  35.376  28.222  1.00  0.00     0.198 A 
ATOM    106  C   UNL A   1      52.850  35.849  25.891  1.00  0.00     0.198 A 
ATOM    107  F   UNL A   1      51.165  34.740  24.680  1.00  0.00    -0.203 F 
ATOM    108  F   UNL A   1      53.797  35.615  29.380  1.00  0.00    -0.200 F 
ATOM    109  C   UNL A   1      53.525  36.075  27.080  1.00  0.00     0.200 A 
ATOM    110  F   UNL A   1      53.209  36.510  24.781  1.00  0.00    -0.200 F 
ATOM    111  F   UNL A   1      54.524  36.967  27.126  1.00  0.00    -0.200 F 
ENDBRANCH  78 101
ENDBRANCH  52  53
ENDBRANCH  45  47
ENDBRANCH  44  45
ENDBRANCH  43  44
ENDBRANCH  42  43
ENDBRANCH  41  42
ENDBRANCH  40  41
ENDBRANCH   1  40
TORSDOF 21
ENDMDL
MODEL 3
REMARK VINA RESULT:      -9.9      5.718     10.609
REMARK SMILES C[C@]1(C(=O)OCCOCCOCCOCCOC(=O)c2ccc(-c3c4nc(c(-c5c(F)c(F)c(F)c(F)c5F)c5ccc([nH]5)c(-c5c(F)c(F)c(F)c(F)c5F)c5nc(c(-c6c(F)c(F)c(F)c(F)c6F)c6ccc3[nH]6)C=C5)C=C4)cc2)[NH2+]C2(C(=O)c3ccccc3C2=O)[C@@H]2C(=O)N(c3ccccc3)C(=O)[C@H]21
REMARK SMILES IDX 12 1 11 2 10 3 9 4 8 5 7 6 6 7 5 8 3 9 4 10 2 11 1 12 83 13
REMARK SMILES IDX 107 14 84 15 95 18 105 19 85 20 93 21 96 22 98 23 106 24
REMARK SMILES IDX 86 25 87 26 92 27 94 28 97 29 88 30 91 31 89 32 90 33 99 34
REMARK SMILES IDX 100 35 104 36 101 37 103 38 102 39 13 40 14 41 15 42 16 43
REMARK SMILES IDX 17 44 18 45 19 46 20 47 21 48 82 49 22 50 81 51 23 52 24 53
REMARK SMILES IDX 25 54 75 55 26 56 80 57 74 58 76 59 27 60 79 61 73 62 72 63
REMARK SMILES IDX 28 65 60 66 40 67 59 68 41 69 44 70 58 71 77 72 42 73 43 74
REMARK SMILES IDX 57 76 78 77 45 78 29 79 30 80 38 81 31 82 32 83 36 84 39 85
REMARK SMILES IDX 33 86 34 87 37 88 35 89 61 90 62 91 70 92 63 93 64 94 68 95
REMARK SMILES IDX 71 96 65 97 66 98 69 99 67 100 46 101 47 102 55 103 48 104
REMARK SMILES IDX 49 105 53 106 56 107 50 108 51 109 54 110 52 111
REMARK H PARENT 83 16 83 17 76 64 44 75
REMARK Flexibility Score: inf
ROOT
ATOM      1  C   UNL A   1      36.284  33.013  30.480  1.00  0.00     0.188 C 
ENDROOT
BRANCH   1   2
ATOM      2  O   UNL A   1      37.263  32.079  30.054  1.00  0.00    -0.377 OA
BRANCH   2   3
ATOM      3  C   UNL A   1      37.323  30.813  30.675  1.00  0.00     0.188 C 
BRANCH   3   4
ATOM      4  C   UNL A   1      37.629  29.642  29.730  1.00  0.00     0.188 C 
BRANCH   4   5
ATOM      5  O   UNL A   1      37.624  29.918  28.347  1.00  0.00    -0.376 OA
BRANCH   5   6
ATOM      6  C   UNL A   1      38.582  29.393  27.443  1.00  0.00     0.202 C 
BRANCH   6   7
ATOM      7  C   UNL A   1      39.651  28.318  27.719  1.00  0.00     0.261 C 
BRANCH   7   8
ATOM      8  O   UNL A   1      41.025  28.684  27.666  1.00  0.00    -0.459 OA
BRANCH   8   9
ATOM      9  C   UNL A   1      41.615  28.977  28.845  1.00  0.00     0.368 C 
ATOM     10  O   UNL A   1      41.207  29.850  29.601  1.00  0.00    -0.245 OA
BRANCH   9  11
ATOM     11  C   UNL A   1      42.889  28.122  29.113  1.00  0.00     0.205 C 
ATOM     12  C   UNL A   1      42.936  27.833  30.614  1.00  0.00     0.093 C 
ATOM     13  N   UNL A   1      42.976  26.798  28.352  1.00  0.00    -0.313 N 
ATOM     14  C   UNL A   1      44.089  28.833  28.561  1.00  0.00     0.172 C 
ATOM     15  C   UNL A   1      43.915  26.969  27.170  1.00  0.00     0.237 C 
ATOM     16  H   UNL A   1      42.050  26.534  28.018  1.00  0.00     0.348 HD
ATOM     17  H   UNL A   1      43.330  26.067  28.970  1.00  0.00     0.348 HD
ATOM     18  C   UNL A   1      43.981  28.451  27.092  1.00  0.00     0.177 C 
ATOM     19  C   UNL A   1      44.227  30.308  28.462  1.00  0.00     0.244 C 
ATOM     20  C   UNL A   1      45.215  26.206  27.431  1.00  0.00     0.232 C 
ATOM     21  C   UNL A   1      43.362  26.279  25.917  1.00  0.00     0.232 C 
ATOM     22  C   UNL A   1      44.971  29.368  26.486  1.00  0.00     0.245 C 
ATOM     23  N   UNL A   1      44.813  30.543  27.222  1.00  0.00    -0.250 N 
ATOM     24  O   UNL A   1      43.921  31.086  29.348  1.00  0.00    -0.273 OA
ATOM     25  O   UNL A   1      46.007  26.385  28.340  1.00  0.00    -0.286 OA
ATOM     26  C   UNL A   1      45.306  25.101  26.479  1.00  0.00     0.036 A 
ATOM     27  C   UNL A   1      44.222  25.127  25.613  1.00  0.00     0.036 A 
ATOM     28  O   UNL A   1      42.420  26.607  25.218  1.00  0.00    -0.286 OA
ATOM     29  O   UNL A   1      45.623  29.131  25.486  1.00  0.00    -0.273 OA
ATOM     30  C   UNL A   1      46.278  24.116  26.405  1.00  0.00     0.013 A 
ATOM     31  C   UNL A   1      44.065  24.168  24.626  1.00  0.00     0.013 A 
ATOM     32  C   UNL A   1      46.137  23.141  25.414  1.00  0.00     0.001 A 
ATOM     33  C   UNL A   1      45.039  23.166  24.532  1.00  0.00     0.001 A 
BRANCH  23  34
ATOM     34  C   UNL A   1      44.979  31.848  26.720  1.00  0.00     0.052 A 
ATOM     35  C   UNL A   1      44.009  32.411  25.883  1.00  0.00     0.027 A 
ATOM     36  C   UNL A   1      46.197  32.515  26.902  1.00  0.00     0.027 A 
ATOM     37  C   UNL A   1      44.254  33.610  25.219  1.00  0.00     0.002 A 
ATOM     38  C   UNL A   1      46.457  33.695  26.202  1.00  0.00     0.002 A 
ATOM     39  C   UNL A   1      45.487  34.241  25.362  1.00  0.00     0.000 A 
ENDBRANCH  23  34
ENDBRANCH   9  11
ENDBRANCH   8   9
ENDBRANCH   7   8
ENDBRANCH   6   7
ENDBRANCH   5   6
ENDBRANCH   4   5
ENDBRANCH   3   4
ENDBRANCH   2   3
ENDBRANCH   1   2
BRANCH   1  40
ATOM     40  C   UNL A   1      34.778  32.669  30.462  1.00  0.00     0.188 C 
BRANCH  40  41
ATOM     41  O   UNL A   1      34.035  33.144  31.572  1.00  0.00    -0.376 OA
BRANCH  41  42
ATOM     42  C   UNL A   1      34.624  34.081  32.458  1.00  0.00     0.202 C 
BRANCH  42  43
ATOM     43  C   UNL A   1      34.785  33.693  33.936  1.00  0.00     0.261 C 
BRANCH  43  44
ATOM     44  O   UNL A   1      35.809  34.374  34.672  1.00  0.00    -0.460 OA
BRANCH  44  45
ATOM     45  C   UNL A   1      36.398  33.727  35.698  1.00  0.00     0.338 C 
ATOM     46  O   UNL A   1      35.905  33.453  36.780  1.00  0.00    -0.246 OA
BRANCH  45  47
ATOM     47  C   UNL A   1      37.700  33.226  35.206  1.00  0.00     0.060 A 
ATOM     48  C   UNL A   1      37.746  32.297  34.163  1.00  0.00     0.016 A 
ATOM     49  C   UNL A   1      38.881  33.645  35.832  1.00  0.00     0.016 A 
ATOM     50  C   UNL A   1      38.981  31.815  33.724  1.00  0.00     0.010 A 
ATOM     51  C   UNL A   1      40.115  33.152  35.400  1.00  0.00     0.010 A 
ATOM     52  C   UNL A   1      40.175  32.258  34.322  1.00  0.00    -0.014 A 
BRANCH  52  53
ATOM     53  C   UNL A   1      41.476  31.940  33.682  1.00  0.00     0.031 A 
ATOM     54  C   UNL A   1      42.179  32.894  32.767  1.00  0.00     0.074 A 
ATOM     55  C   UNL A   1      42.021  30.738  33.951  1.00  0.00     0.049 A 
ATOM     56  N   UNL A   1      43.360  32.774  32.211  1.00  0.00    -0.248 NA
ATOM     57  C   UNL A   1      41.473  34.135  32.423  1.00  0.00     0.031 C 
ATOM     58  C   UNL A   1      41.404  29.716  34.799  1.00  0.00     0.029 A 
ATOM     59  N   UNL A   1      43.210  30.177  33.561  1.00  0.00    -0.354 N 
ATOM     60  C   UNL A   1      43.553  33.932  31.471  1.00  0.00     0.074 A 
ATOM     61  C   UNL A   1      42.342  34.718  31.605  1.00  0.00     0.031 C 
ATOM     62  C   UNL A   1      42.236  28.670  34.898  1.00  0.00     0.029 A 
ATOM     63  C   UNL A   1      43.428  28.932  34.096  1.00  0.00     0.049 A 
ATOM     64  H   UNL A   1      43.844  30.623  32.954  1.00  0.00     0.167 HD
ATOM     65  C   UNL A   1      44.651  34.307  30.769  1.00  0.00     0.037 A 
ATOM     66  C   UNL A   1      44.474  28.095  33.967  1.00  0.00     0.037 A 
ATOM     67  C   UNL A   1      45.846  33.508  30.629  1.00  0.00     0.049 A 
ATOM     68  C   UNL A   1      45.655  28.518  33.140  1.00  0.00     0.074 A 
ATOM     69  C   UNL A   1      47.020  33.823  29.966  1.00  0.00     0.029 A 
ATOM     70  N   UNL A   1      46.015  32.231  31.148  1.00  0.00    -0.354 N 
ATOM     71  N   UNL A   1      45.862  29.650  32.514  1.00  0.00    -0.248 NA
ATOM     72  C   UNL A   1      46.751  27.549  33.007  1.00  0.00     0.031 C 
ATOM     73  C   UNL A   1      47.874  32.719  30.032  1.00  0.00     0.029 A 
ATOM     74  C   UNL A   1      47.262  31.736  30.792  1.00  0.00     0.049 A 
ATOM     75  H   UNL A   1      45.350  31.749  31.690  1.00  0.00     0.167 HD
ATOM     76  C   UNL A   1      47.117  29.540  31.932  1.00  0.00     0.074 A 
ATOM     77  C   UNL A   1      47.635  28.239  32.299  1.00  0.00     0.031 C 
ATOM     78  C   UNL A   1      47.775  30.438  31.159  1.00  0.00     0.037 A 
BRANCH  65  79
ATOM     79  C   UNL A   1      44.635  35.655  30.103  1.00  0.00     0.064 A 
ATOM     80  C   UNL A   1      44.107  35.821  28.813  1.00  0.00     0.173 A 
ATOM     81  C   UNL A   1      45.054  36.804  30.791  1.00  0.00     0.173 A 
ATOM     82  F   UNL A   1      43.687  34.757  28.112  1.00  0.00    -0.203 F 
ATOM     83  C   UNL A   1      44.016  37.084  28.232  1.00  0.00     0.198 A 
ATOM     84  C   UNL A   1      44.933  38.068  30.219  1.00  0.00     0.198 A 
ATOM     85  F   UNL A   1      45.552  36.705  32.033  1.00  0.00    -0.203 F 
ATOM     86  F   UNL A   1      43.535  37.215  26.988  1.00  0.00    -0.200 F 
ATOM     87  C   UNL A   1      44.419  38.207  28.939  1.00  0.00     0.200 A 
ATOM     88  F   UNL A   1      45.301  39.155  30.912  1.00  0.00    -0.200 F 
ATOM     89  F   UNL A   1      44.311  39.423  28.386  1.00  0.00    -0.200 F 
ENDBRANCH  65  79
BRANCH  66  90
ATOM     90  C   UNL A   1      44.462  26.793  34.683  1.00  0.00     0.064 A 
ATOM     91  C   UNL A   1      44.130  25.609  34.013  1.00  0.00     0.173 A 
ATOM     92  C   UNL A   1      44.813  26.700  36.038  1.00  0.00     0.173 A 
ATOM     93  F   UNL A   1      43.773  25.649  32.720  1.00  0.00    -0.203 F 
ATOM     94  C   UNL A   1      44.137  24.382  34.673  1.00  0.00     0.198 A 
ATOM     95  C   UNL A   1      44.851  25.470  36.689  1.00  0.00     0.198 A 
ATOM     96  F   UNL A   1      45.147  27.805  36.723  1.00  0.00    -0.203 F 
ATOM     97  F   UNL A   1      43.779  23.270  34.016  1.00  0.00    -0.200 F 
ATOM     98  C   UNL A   1      44.507  24.312  36.007  1.00  0.00     0.200 A 
ATOM     99  F   UNL A   1      45.228  25.405  37.973  1.00  0.00    -0.200 F 
ATOM    100  F   UNL A   1      44.528  23.130  36.637  1.00  0.00    -0.200 F 
ENDBRANCH  66  90
BRANCH  78 101
ATOM    101  C   UNL A   1      49.142  30.060  30.660  1.00  0.00     0.064 A 
ATOM    102  C   UNL A   1      49.318  29.392  29.440  1.00  0.00     0.173 A 
ATOM    103  C   UNL A   1      50.291  30.427  31.377  1.00  0.00     0.173 A 
ATOM    104  F   UNL A   1      48.253  29.004  28.721  1.00  0.00    -0.203 F 
ATOM    105  C   UNL A   1      50.593  29.092  28.964  1.00  0.00     0.198 A 
ATOM    106  C   UNL A   1      51.564  30.156  30.883  1.00  0.00     0.198 A 
ATOM    107  F   UNL A   1      50.180  31.072  32.549  1.00  0.00    -0.203 F 
ATOM    108  F   UNL A   1      50.735  28.418  27.814  1.00  0.00    -0.200 F 
ATOM    109  C   UNL A   1      51.714  29.485  29.680  1.00  0.00     0.200 A 
ATOM    110  F   UNL A   1      52.647  30.551  31.568  1.00  0.00    -0.200 F 
ATOM    111  F   UNL A   1      52.939  29.213  29.209  1.00  0.00    -0.200 F 
ENDBRANCH  78 101
ENDBRANCH  52  53
ENDBRANCH  45  47
ENDBRANCH  44  45
ENDBRANCH  43  44
ENDBRANCH  42  43
ENDBRANCH  41  42
ENDBRANCH  40  41
ENDBRANCH   1  40
TORSDOF 21
ENDMDL
