MODEL 1
REMARK VINA RESULT:     -11.0      0.000      0.000
REMARK SMILES Cc1ccc(S(=O)(=O)n2cc(C(=O)C(=O)N[C@@H](Cc3cnc[nH]3)C(=O)OCCOCCOCCOCCOC(=O)c3ccc(-c4c5nc(c(-c6c(F)c(F)c(F)c(F)c6F)c6ccc([nH]6)c(-c6c(F)c(F)c(F)c(F)c6F)c6nc(c(-c7c(F)c(F)c(F)c(F)c7F)c7ccc4[nH]7)C=C6)C=C5)cc3)c3ccccc32)cc1
REMARK SMILES IDX 30 1 29 2 28 3 27 4 26 5 24 6 25 7 17 8 16 9 14 10 15 11
REMARK SMILES IDX 12 13 13 14 11 15 9 16 10 17 109 18 104 19 108 20 105 21
REMARK SMILES IDX 107 22 106 23 6 24 7 25 8 26 5 27 1 28 2 29 3 30 111 31 4 32
REMARK SMILES IDX 110 33 18 34 19 35 20 36 23 37 21 38 22 39 31 41 32 42 33 43
REMARK SMILES IDX 34 44 35 45 36 46 37 47 38 48 39 49 40 50 41 51 42 52 103 53
REMARK SMILES IDX 43 54 102 55 44 56 45 57 46 58 96 59 47 60 101 61 95 62
REMARK SMILES IDX 97 63 48 64 100 65 94 66 93 67 49 69 81 70 61 71 80 72 62 73
REMARK SMILES IDX 65 74 79 75 98 76 63 77 64 78 78 80 99 81 66 82 50 83 51 84
REMARK SMILES IDX 59 85 52 86 53 87 57 88 60 89 54 90 55 91 58 92 56 93 82 94
REMARK SMILES IDX 83 95 91 96 84 97 85 98 89 99 92 100 86 101 87 102 90 103
REMARK SMILES IDX 88 104 67 105 68 106 76 107 69 108 70 109 74 110 77 111
REMARK SMILES IDX 71 112 72 113 75 114 73 115
REMARK H PARENT 16 12 23 40 97 68 65 79
REMARK Flexibility Score: inf
ROOT
ATOM      1  C   UNL A   1      40.466  22.149  27.001  1.00  0.00     0.188 C 
ENDROOT
BRANCH   1   2
ATOM      2  O   UNL A   1      39.105  22.528  26.869  1.00  0.00    -0.376 OA
BRANCH   2   3
ATOM      3  C   UNL A   1      38.438  21.970  25.735  1.00  0.00     0.202 C 
BRANCH   3   4
ATOM      4  C   UNL A   1      37.245  22.764  25.202  1.00  0.00     0.261 C 
BRANCH   4   5
ATOM      5  O   UNL A   1      36.300  21.856  24.594  1.00  0.00    -0.462 OA
BRANCH   5   6
ATOM      6  C   UNL A   1      35.309  22.463  23.895  1.00  0.00     0.329 C 
ATOM      7  O   UNL A   1      35.470  22.991  22.798  1.00  0.00    -0.250 OA
BRANCH   6   8
ATOM      8  C   UNL A   1      33.972  22.504  24.657  1.00  0.00     0.198 C 
BRANCH   8   9
ATOM      9  N   UNL A   1      32.734  22.754  23.891  1.00  0.00    -0.335 N 
ATOM     10  C   UNL A   1      31.614  23.474  24.277  1.00  0.00     0.293 C 
ATOM     11  O   UNL A   1      30.583  23.405  23.620  1.00  0.00    -0.265 OA
ATOM     12  H   UNL A   1      32.700  22.358  22.991  1.00  0.00     0.164 HD
BRANCH  10  13
ATOM     13  C   UNL A   1      31.709  24.438  25.486  1.00  0.00     0.252 C 
ATOM     14  O   UNL A   1      31.673  23.929  26.605  1.00  0.00    -0.283 OA
BRANCH  13  15
ATOM     15  C   UNL A   1      31.926  25.890  25.370  1.00  0.00     0.054 A 
ATOM     16  N   UNL A   1      32.095  28.092  25.741  1.00  0.00    -0.240 N 
ATOM     17  C   UNL A   1      31.647  26.902  26.274  1.00  0.00     0.117 A 
ATOM     18  C   UNL A   1      32.720  27.886  24.530  1.00  0.00     0.065 A 
ATOM     19  C   UNL A   1      32.508  26.538  24.220  1.00  0.00     0.012 A 
ATOM     20  C   UNL A   1      33.432  28.737  23.665  1.00  0.00     0.028 A 
ATOM     21  C   UNL A   1      32.923  26.066  22.955  1.00  0.00     0.011 A 
ATOM     22  C   UNL A   1      33.852  28.229  22.432  1.00  0.00     0.002 A 
ATOM     23  C   UNL A   1      33.580  26.918  22.068  1.00  0.00     0.001 A 
BRANCH  16  24
ATOM     24  S   UNL A   1      32.040  29.576  26.581  1.00  0.00     0.268 S 
ATOM     25  O   UNL A   1      31.227  29.285  27.762  1.00  0.00    -0.201 OA
ATOM     26  O   UNL A   1      31.660  30.567  25.613  1.00  0.00    -0.201 OA
BRANCH  24  27
ATOM     27  C   UNL A   1      33.668  30.001  27.153  1.00  0.00     0.088 A 
ATOM     28  C   UNL A   1      37.737  30.787  28.333  1.00  0.00     0.044 C 
ATOM     29  C   UNL A   1      36.313  30.519  27.938  1.00  0.00    -0.051 A 
ATOM     30  C   UNL A   1      35.917  29.217  27.612  1.00  0.00     0.005 A 
ATOM     31  C   UNL A   1      35.365  31.550  27.899  1.00  0.00     0.005 A 
ATOM     32  C   UNL A   1      34.604  28.960  27.215  1.00  0.00     0.022 A 
ATOM     33  C   UNL A   1      34.040  31.295  27.523  1.00  0.00     0.022 A 
ENDBRANCH  24  27
ENDBRANCH  16  24
ENDBRANCH  13  15
ENDBRANCH  10  13
ENDBRANCH   8   9
BRANCH   8  34
ATOM     34  C   UNL A   1      33.887  21.260  25.563  1.00  0.00     0.092 C 
BRANCH  34  35
ATOM     35  C   UNL A   1      33.836  19.935  24.881  1.00  0.00     0.037 A 
ATOM     36  C   UNL A   1      32.793  19.237  24.307  1.00  0.00     0.134 A 
ATOM     37  N   UNL A   1      34.905  19.080  24.799  1.00  0.00    -0.348 N 
ATOM     38  N   UNL A   1      33.195  17.991  23.911  1.00  0.00    -0.245 NA
ATOM     39  C   UNL A   1      34.461  17.912  24.247  1.00  0.00     0.196 A 
ATOM     40  H   UNL A   1      35.826  19.272  25.088  1.00  0.00     0.167 HD
ENDBRANCH  34  35
ENDBRANCH   8  34
ENDBRANCH   6   8
ENDBRANCH   5   6
ENDBRANCH   4   5
ENDBRANCH   3   4
ENDBRANCH   2   3
ENDBRANCH   1   2
BRANCH   1  41
ATOM     41  C   UNL A   1      40.955  20.886  26.278  1.00  0.00     0.188 C 
BRANCH  41  42
ATOM     42  O   UNL A   1      42.224  20.895  25.653  1.00  0.00    -0.377 OA
BRANCH  42  43
ATOM     43  C   UNL A   1      43.030  22.014  26.004  1.00  0.00     0.188 C 
BRANCH  43  44
ATOM     44  C   UNL A   1      44.226  22.265  25.092  1.00  0.00     0.188 C 
BRANCH  44  45
ATOM     45  O   UNL A   1      44.724  23.571  25.394  1.00  0.00    -0.376 OA
BRANCH  45  46
ATOM     46  C   UNL A   1      43.875  24.363  26.222  1.00  0.00     0.202 C 
BRANCH  46  47
ATOM     47  C   UNL A   1      44.487  25.710  26.629  1.00  0.00     0.261 C 
BRANCH  47  48
ATOM     48  O   UNL A   1      43.455  26.714  26.573  1.00  0.00    -0.460 OA
BRANCH  48  49
ATOM     49  C   UNL A   1      43.866  27.964  26.233  1.00  0.00     0.338 C 
ATOM     50  O   UNL A   1      44.862  28.233  25.583  1.00  0.00    -0.246 OA
BRANCH  49  51
ATOM     51  C   UNL A   1      43.100  28.971  27.026  1.00  0.00     0.060 A 
ATOM     52  C   UNL A   1      43.794  29.997  27.688  1.00  0.00     0.016 A 
ATOM     53  C   UNL A   1      41.761  28.739  27.344  1.00  0.00     0.016 A 
ATOM     54  C   UNL A   1      43.196  30.685  28.757  1.00  0.00     0.010 A 
ATOM     55  C   UNL A   1      41.191  29.388  28.432  1.00  0.00     0.010 A 
ATOM     56  C   UNL A   1      41.917  30.318  29.193  1.00  0.00    -0.014 A 
BRANCH  56  57
ATOM     57  C   UNL A   1      41.383  30.624  30.539  1.00  0.00     0.031 A 
ATOM     58  C   UNL A   1      40.486  31.791  30.803  1.00  0.00     0.074 A 
ATOM     59  C   UNL A   1      41.437  29.658  31.492  1.00  0.00     0.049 A 
ATOM     60  N   UNL A   1      40.006  32.066  31.972  1.00  0.00    -0.248 NA
ATOM     61  C   UNL A   1      40.051  32.763  29.805  1.00  0.00     0.031 C 
ATOM     62  C   UNL A   1      40.497  29.478  32.603  1.00  0.00     0.029 A 
ATOM     63  N   UNL A   1      42.266  28.561  31.638  1.00  0.00    -0.354 N 
ATOM     64  C   UNL A   1      38.964  32.946  31.829  1.00  0.00     0.074 A 
ATOM     65  C   UNL A   1      39.138  33.466  30.494  1.00  0.00     0.031 C 
ATOM     66  C   UNL A   1      40.809  28.386  33.306  1.00  0.00     0.029 A 
ATOM     67  C   UNL A   1      42.130  27.996  32.908  1.00  0.00     0.049 A 
ATOM     68  H   UNL A   1      42.872  28.223  30.939  1.00  0.00     0.167 HD
ATOM     69  C   UNL A   1      38.023  33.026  32.818  1.00  0.00     0.037 A 
ATOM     70  C   UNL A   1      43.169  27.988  33.794  1.00  0.00     0.037 A 
ATOM     71  C   UNL A   1      38.416  32.290  34.050  1.00  0.00     0.049 A 
ATOM     72  C   UNL A   1      42.988  28.950  34.958  1.00  0.00     0.074 A 
ATOM     73  C   UNL A   1      37.771  31.447  34.943  1.00  0.00     0.029 A 
ATOM     74  N   UNL A   1      39.750  32.330  34.489  1.00  0.00    -0.354 N 
ATOM     75  N   UNL A   1      42.021  29.838  35.003  1.00  0.00    -0.248 NA
ATOM     76  C   UNL A   1      43.809  29.007  36.161  1.00  0.00     0.031 C 
ATOM     77  C   UNL A   1      38.711  31.026  35.928  1.00  0.00     0.029 A 
ATOM     78  C   UNL A   1      39.949  31.566  35.621  1.00  0.00     0.049 A 
ATOM     79  H   UNL A   1      40.460  32.843  34.042  1.00  0.00     0.167 HD
ATOM     80  C   UNL A   1      42.087  30.587  36.141  1.00  0.00     0.074 A 
ATOM     81  C   UNL A   1      43.216  30.005  36.848  1.00  0.00     0.031 C 
ATOM     82  C   UNL A   1      41.213  31.621  36.366  1.00  0.00     0.037 A 
BRANCH  69  83
ATOM     83  C   UNL A   1      36.643  33.686  32.658  1.00  0.00     0.064 A 
ATOM     84  C   UNL A   1      35.827  33.417  31.532  1.00  0.00     0.173 A 
ATOM     85  C   UNL A   1      36.100  34.659  33.530  1.00  0.00     0.173 A 
ATOM     86  F   UNL A   1      36.185  32.513  30.612  1.00  0.00    -0.203 F 
ATOM     87  C   UNL A   1      34.604  34.066  31.300  1.00  0.00     0.198 A 
ATOM     88  C   UNL A   1      34.841  35.247  33.338  1.00  0.00     0.198 A 
ATOM     89  F   UNL A   1      36.783  35.136  34.574  1.00  0.00    -0.203 F 
ATOM     90  F   UNL A   1      33.918  33.814  30.175  1.00  0.00    -0.200 F 
ATOM     91  C   UNL A   1      34.100  34.966  32.213  1.00  0.00     0.200 A 
ATOM     92  F   UNL A   1      34.369  36.113  34.247  1.00  0.00    -0.200 F 
ATOM     93  F   UNL A   1      32.920  35.567  32.007  1.00  0.00    -0.200 F 
ENDBRANCH  69  83
BRANCH  70  94
ATOM     94  C   UNL A   1      44.361  27.314  33.203  1.00  0.00     0.064 A 
ATOM     95  C   UNL A   1      44.244  25.905  33.193  1.00  0.00     0.173 A 
ATOM     96  C   UNL A   1      45.016  27.906  32.109  1.00  0.00     0.173 A 
ATOM     97  F   UNL A   1      43.670  25.283  34.233  1.00  0.00    -0.203 F 
ATOM     98  C   UNL A   1      44.485  25.171  32.032  1.00  0.00     0.198 A 
ATOM     99  C   UNL A   1      45.275  27.159  30.952  1.00  0.00     0.198 A 
ATOM    100  F   UNL A   1      45.176  29.237  32.058  1.00  0.00    -0.203 F 
ATOM    101  F   UNL A   1      44.140  23.877  31.975  1.00  0.00    -0.200 F 
ATOM    102  C   UNL A   1      44.947  25.811  30.894  1.00  0.00     0.200 A 
ATOM    103  F   UNL A   1      45.693  27.779  29.838  1.00  0.00    -0.200 F 
ATOM    104  F   UNL A   1      44.998  25.152  29.728  1.00  0.00    -0.200 F 
ENDBRANCH  70  94
BRANCH  82 105
ATOM    105  C   UNL A   1      41.391  32.782  37.340  1.00  0.00     0.064 A 
ATOM    106  C   UNL A   1      42.458  33.692  37.318  1.00  0.00     0.173 A 
ATOM    107  C   UNL A   1      40.351  33.118  38.254  1.00  0.00     0.173 A 
ATOM    108  F   UNL A   1      43.463  33.582  36.445  1.00  0.00    -0.203 F 
ATOM    109  C   UNL A   1      42.506  34.811  38.159  1.00  0.00     0.198 A 
ATOM    110  C   UNL A   1      40.378  34.261  39.053  1.00  0.00     0.198 A 
ATOM    111  F   UNL A   1      39.243  32.377  38.384  1.00  0.00    -0.203 F 
ATOM    112  F   UNL A   1      43.566  35.629  38.106  1.00  0.00    -0.200 F 
ATOM    113  C   UNL A   1      41.461  35.103  39.013  1.00  0.00     0.200 A 
ATOM    114  F   UNL A   1      39.328  34.546  39.837  1.00  0.00    -0.200 F 
ATOM    115  F   UNL A   1      41.489  36.207  39.772  1.00  0.00    -0.200 F 
ENDBRANCH  82 105
ENDBRANCH  56  57
ENDBRANCH  49  51
ENDBRANCH  48  49
ENDBRANCH  47  48
ENDBRANCH  46  47
ENDBRANCH  45  46
ENDBRANCH  44  45
ENDBRANCH  43  44
ENDBRANCH  42  43
ENDBRANCH  41  42
ENDBRANCH   1  41
TORSDOF 27
ENDMDL
MODEL 2
REMARK VINA RESULT:     -10.2      4.019      7.570
REMARK SMILES Cc1ccc(S(=O)(=O)n2cc(C(=O)C(=O)N[C@@H](Cc3cnc[nH]3)C(=O)OCCOCCOCCOCCOC(=O)c3ccc(-c4c5nc(c(-c6c(F)c(F)c(F)c(F)c6F)c6ccc([nH]6)c(-c6c(F)c(F)c(F)c(F)c6F)c6nc(c(-c7c(F)c(F)c(F)c(F)c7F)c7ccc4[nH]7)C=C6)C=C5)cc3)c3ccccc32)cc1
REMARK SMILES IDX 30 1 29 2 28 3 27 4 26 5 24 6 25 7 17 8 16 9 14 10 15 11
REMARK SMILES IDX 12 13 13 14 11 15 9 16 10 17 109 18 104 19 108 20 105 21
REMARK SMILES IDX 107 22 106 23 6 24 7 25 8 26 5 27 1 28 2 29 3 30 111 31 4 32
REMARK SMILES IDX 110 33 18 34 19 35 20 36 23 37 21 38 22 39 31 41 32 42 33 43
REMARK SMILES IDX 34 44 35 45 36 46 37 47 38 48 39 49 40 50 41 51 42 52 103 53
REMARK SMILES IDX 43 54 102 55 44 56 45 57 46 58 96 59 47 60 101 61 95 62
REMARK SMILES IDX 97 63 48 64 100 65 94 66 93 67 49 69 81 70 61 71 80 72 62 73
REMARK SMILES IDX 65 74 79 75 98 76 63 77 64 78 78 80 99 81 66 82 50 83 51 84
REMARK SMILES IDX 59 85 52 86 53 87 57 88 60 89 54 90 55 91 58 92 56 93 82 94
REMARK SMILES IDX 83 95 91 96 84 97 85 98 89 99 92 100 86 101 87 102 90 103
REMARK SMILES IDX 88 104 67 105 68 106 76 107 69 108 70 109 74 110 77 111
REMARK SMILES IDX 71 112 72 113 75 114 73 115
REMARK H PARENT 16 12 23 40 97 68 65 79
REMARK Flexibility Score: inf
ROOT
ATOM      1  C   UNL A   1      36.399  22.829  23.423  1.00  0.00     0.188 C 
ENDROOT
BRANCH   1   2
ATOM      2  O   UNL A   1      35.548  23.669  22.659  1.00  0.00    -0.376 OA
BRANCH   2   3
ATOM      3  C   UNL A   1      34.152  23.450  22.865  1.00  0.00     0.202 C 
BRANCH   3   4
ATOM      4  C   UNL A   1      33.228  24.608  22.484  1.00  0.00     0.261 C 
BRANCH   4   5
ATOM      5  O   UNL A   1      33.578  25.775  23.260  1.00  0.00    -0.462 OA
BRANCH   5   6
ATOM      6  C   UNL A   1      32.596  26.213  24.087  1.00  0.00     0.329 C 
ATOM      7  O   UNL A   1      31.493  26.589  23.702  1.00  0.00    -0.250 OA
BRANCH   6   8
ATOM      8  C   UNL A   1      33.035  26.275  25.562  1.00  0.00     0.198 C 
BRANCH   8   9
ATOM      9  N   UNL A   1      32.207  27.048  26.510  1.00  0.00    -0.335 N 
ATOM     10  C   UNL A   1      32.474  28.284  27.077  1.00  0.00     0.293 C 
ATOM     11  O   UNL A   1      31.797  28.691  28.012  1.00  0.00    -0.265 OA
ATOM     12  H   UNL A   1      31.356  26.631  26.773  1.00  0.00     0.164 HD
BRANCH  10  13
ATOM     13  C   UNL A   1      33.572  29.184  26.456  1.00  0.00     0.252 C 
ATOM     14  O   UNL A   1      33.815  29.020  25.261  1.00  0.00    -0.283 OA
BRANCH  13  15
ATOM     15  C   UNL A   1      34.263  30.264  27.181  1.00  0.00     0.054 A 
ATOM     16  N   UNL A   1      34.785  32.116  28.326  1.00  0.00    -0.240 N 
ATOM     17  C   UNL A   1      33.771  31.472  27.647  1.00  0.00     0.117 A 
ATOM     18  C   UNL A   1      35.920  31.337  28.374  1.00  0.00     0.065 A 
ATOM     19  C   UNL A   1      35.656  30.235  27.553  1.00  0.00     0.012 A 
ATOM     20  C   UNL A   1      37.154  31.486  29.033  1.00  0.00     0.028 A 
ATOM     21  C   UNL A   1      36.703  29.321  27.297  1.00  0.00     0.011 A 
ATOM     22  C   UNL A   1      38.159  30.548  28.777  1.00  0.00     0.002 A 
ATOM     23  C   UNL A   1      37.948  29.493  27.902  1.00  0.00     0.001 A 
BRANCH  16  24
ATOM     24  S   UNL A   1      34.569  33.595  29.151  1.00  0.00     0.268 S 
ATOM     25  O   UNL A   1      33.116  33.739  29.246  1.00  0.00    -0.201 OA
ATOM     26  O   UNL A   1      35.393  34.554  28.469  1.00  0.00    -0.201 OA
BRANCH  24  27
ATOM     27  C   UNL A   1      35.194  33.453  30.808  1.00  0.00     0.088 A 
ATOM     28  C   UNL A   1      36.731  33.452  34.834  1.00  0.00     0.044 C 
ATOM     29  C   UNL A   1      36.203  33.436  33.428  1.00  0.00    -0.051 A 
ATOM     30  C   UNL A   1      36.622  34.412  32.518  1.00  0.00     0.005 A 
ATOM     31  C   UNL A   1      35.300  32.451  33.004  1.00  0.00     0.005 A 
ATOM     32  C   UNL A   1      36.117  34.426  31.217  1.00  0.00     0.022 A 
ATOM     33  C   UNL A   1      34.805  32.446  31.693  1.00  0.00     0.022 A 
ENDBRANCH  24  27
ENDBRANCH  16  24
ENDBRANCH  13  15
ENDBRANCH  10  13
ENDBRANCH   8   9
BRANCH   8  34
ATOM     34  C   UNL A   1      33.337  24.843  26.043  1.00  0.00     0.092 C 
BRANCH  34  35
ATOM     35  C   UNL A   1      32.186  23.895  26.093  1.00  0.00     0.037 A 
ATOM     36  C   UNL A   1      30.973  23.958  26.747  1.00  0.00     0.134 A 
ATOM     37  N   UNL A   1      32.201  22.650  25.519  1.00  0.00    -0.348 N 
ATOM     38  N   UNL A   1      30.278  22.788  26.605  1.00  0.00    -0.245 NA
ATOM     39  C   UNL A   1      31.053  22.009  25.888  1.00  0.00     0.196 A 
ATOM     40  H   UNL A   1      32.912  22.284  24.946  1.00  0.00     0.167 HD
ENDBRANCH  34  35
ENDBRANCH   8  34
ENDBRANCH   6   8
ENDBRANCH   5   6
ENDBRANCH   4   5
ENDBRANCH   3   4
ENDBRANCH   2   3
ENDBRANCH   1   2
BRANCH   1  41
ATOM     41  C   UNL A   1      35.767  21.854  24.426  1.00  0.00     0.188 C 
BRANCH  41  42
ATOM     42  O   UNL A   1      36.385  21.657  25.683  1.00  0.00    -0.377 OA
BRANCH  42  43
ATOM     43  C   UNL A   1      37.719  22.150  25.751  1.00  0.00     0.188 C 
BRANCH  43  44
ATOM     44  C   UNL A   1      38.785  21.099  26.038  1.00  0.00     0.188 C 
BRANCH  44  45
ATOM     45  O   UNL A   1      39.927  21.784  26.558  1.00  0.00    -0.376 OA
BRANCH  45  46
ATOM     46  C   UNL A   1      41.162  21.472  25.916  1.00  0.00     0.202 C 
BRANCH  46  47
ATOM     47  C   UNL A   1      42.169  22.630  25.908  1.00  0.00     0.261 C 
BRANCH  47  48
ATOM     48  O   UNL A   1      43.148  22.376  24.883  1.00  0.00    -0.460 OA
BRANCH  48  49
ATOM     49  C   UNL A   1      44.384  22.021  25.322  1.00  0.00     0.338 C 
ATOM     50  O   UNL A   1      44.752  20.885  25.568  1.00  0.00    -0.246 OA
BRANCH  49  51
ATOM     51  C   UNL A   1      45.126  23.243  25.755  1.00  0.00     0.060 A 
ATOM     52  C   UNL A   1      45.555  23.349  27.088  1.00  0.00     0.016 A 
ATOM     53  C   UNL A   1      45.143  24.375  24.941  1.00  0.00     0.016 A 
ATOM     54  C   UNL A   1      45.860  24.606  27.638  1.00  0.00     0.010 A 
ATOM     55  C   UNL A   1      45.398  25.621  25.501  1.00  0.00     0.010 A 
ATOM     56  C   UNL A   1      45.694  25.762  26.867  1.00  0.00    -0.014 A 
BRANCH  56  57
ATOM     57  C   UNL A   1      45.534  27.119  27.436  1.00  0.00     0.031 A 
ATOM     58  C   UNL A   1      44.195  27.699  27.769  1.00  0.00     0.074 A 
ATOM     59  C   UNL A   1      46.622  27.732  27.969  1.00  0.00     0.049 A 
ATOM     60  N   UNL A   1      44.040  28.880  28.272  1.00  0.00    -0.248 NA
ATOM     61  C   UNL A   1      42.913  27.034  27.562  1.00  0.00     0.031 C 
ATOM     62  C   UNL A   1      46.624  28.703  29.067  1.00  0.00     0.029 A 
ATOM     63  N   UNL A   1      47.975  27.561  27.736  1.00  0.00    -0.354 N 
ATOM     64  C   UNL A   1      42.774  28.980  28.788  1.00  0.00     0.074 A 
ATOM     65  C   UNL A   1      42.071  27.874  28.182  1.00  0.00     0.031 C 
ATOM     66  C   UNL A   1      47.875  29.047  29.383  1.00  0.00     0.029 A 
ATOM     67  C   UNL A   1      48.717  28.591  28.317  1.00  0.00     0.049 A 
ATOM     68  H   UNL A   1      48.363  26.811  27.227  1.00  0.00     0.167 HD
ATOM     69  C   UNL A   1      42.524  29.915  29.755  1.00  0.00     0.037 A 
ATOM     70  C   UNL A   1      49.434  29.465  27.551  1.00  0.00     0.037 A 
ATOM     71  C   UNL A   1      43.647  30.874  29.935  1.00  0.00     0.049 A 
ATOM     72  C   UNL A   1      48.834  30.861  27.491  1.00  0.00     0.074 A 
ATOM     73  C   UNL A   1      44.291  31.445  31.023  1.00  0.00     0.029 A 
ATOM     74  N   UNL A   1      44.346  31.347  28.812  1.00  0.00    -0.354 N 
ATOM     75  N   UNL A   1      47.644  31.146  27.969  1.00  0.00    -0.248 NA
ATOM     76  C   UNL A   1      49.477  32.050  26.944  1.00  0.00     0.031 C 
ATOM     77  C   UNL A   1      45.338  32.283  30.541  1.00  0.00     0.029 A 
ATOM     78  C   UNL A   1      45.376  32.197  29.159  1.00  0.00     0.049 A 
ATOM     79  H   UNL A   1      44.126  31.102  27.885  1.00  0.00     0.167 HD
ATOM     80  C   UNL A   1      47.332  32.460  27.779  1.00  0.00     0.074 A 
ATOM     81  C   UNL A   1      48.532  32.990  27.153  1.00  0.00     0.031 C 
ATOM     82  C   UNL A   1      46.109  32.962  28.142  1.00  0.00     0.037 A 
BRANCH  69  83
ATOM     83  C   UNL A   1      41.282  29.921  30.662  1.00  0.00     0.064 A 
ATOM     84  C   UNL A   1      40.704  31.136  31.107  1.00  0.00     0.173 A 
ATOM     85  C   UNL A   1      40.662  28.770  31.202  1.00  0.00     0.173 A 
ATOM     86  F   UNL A   1      41.162  32.321  30.684  1.00  0.00    -0.203 F 
ATOM     87  C   UNL A   1      39.629  31.188  32.009  1.00  0.00     0.198 A 
ATOM     88  C   UNL A   1      39.536  28.823  32.039  1.00  0.00     0.198 A 
ATOM     89  F   UNL A   1      41.147  27.542  31.000  1.00  0.00    -0.203 F 
ATOM     90  F   UNL A   1      39.180  32.375  32.443  1.00  0.00    -0.200 F 
ATOM     91  C   UNL A   1      39.031  30.032  32.458  1.00  0.00     0.200 A 
ATOM     92  F   UNL A   1      38.966  27.682  32.454  1.00  0.00    -0.200 F 
ATOM     93  F   UNL A   1      37.987  30.079  33.297  1.00  0.00    -0.200 F 
ENDBRANCH  69  83
BRANCH  70  94
ATOM     94  C   UNL A   1      50.407  28.735  26.687  1.00  0.00     0.064 A 
ATOM     95  C   UNL A   1      51.532  28.269  27.405  1.00  0.00     0.173 A 
ATOM     96  C   UNL A   1      49.929  27.914  25.651  1.00  0.00     0.173 A 
ATOM     97  F   UNL A   1      52.060  29.032  28.374  1.00  0.00    -0.203 F 
ATOM     98  C   UNL A   1      51.954  26.944  27.301  1.00  0.00     0.198 A 
ATOM     99  C   UNL A   1      50.371  26.589  25.537  1.00  0.00     0.198 A 
ATOM    100  F   UNL A   1      48.872  28.299  24.919  1.00  0.00    -0.203 F 
ATOM    101  F   UNL A   1      52.863  26.462  28.161  1.00  0.00    -0.200 F 
ATOM    102  C   UNL A   1      51.333  26.090  26.406  1.00  0.00     0.200 A 
ATOM    103  F   UNL A   1      49.751  25.750  24.694  1.00  0.00    -0.200 F 
ATOM    104  F   UNL A   1      51.600  24.777  26.435  1.00  0.00    -0.200 F 
ENDBRANCH  70  94
BRANCH  82 105
ATOM    105  C   UNL A   1      45.458  34.251  27.647  1.00  0.00     0.064 A 
ATOM    106  C   UNL A   1      44.353  34.311  26.785  1.00  0.00     0.173 A 
ATOM    107  C   UNL A   1      45.848  35.508  28.191  1.00  0.00     0.173 A 
ATOM    108  F   UNL A   1      43.795  33.211  26.271  1.00  0.00    -0.203 F 
ATOM    109  C   UNL A   1      43.721  35.518  26.461  1.00  0.00     0.198 A 
ATOM    110  C   UNL A   1      45.184  36.701  27.908  1.00  0.00     0.198 A 
ATOM    111  F   UNL A   1      46.863  35.631  29.056  1.00  0.00    -0.203 F 
ATOM    112  F   UNL A   1      42.686  35.512  25.611  1.00  0.00    -0.200 F 
ATOM    113  C   UNL A   1      44.125  36.708  27.033  1.00  0.00     0.200 A 
ATOM    114  F   UNL A   1      45.567  37.833  28.515  1.00  0.00    -0.200 F 
ATOM    115  F   UNL A   1      43.479  37.850  26.762  1.00  0.00    -0.200 F 
ENDBRANCH  82 105
ENDBRANCH  56  57
ENDBRANCH  49  51
ENDBRANCH  48  49
ENDBRANCH  47  48
ENDBRANCH  46  47
ENDBRANCH  45  46
ENDBRANCH  44  45
ENDBRANCH  43  44
ENDBRANCH  42  43
ENDBRANCH  41  42
ENDBRANCH   1  41
TORSDOF 27
ENDMDL
MODEL 3
REMARK VINA RESULT:     -10.0      2.950      6.473
REMARK SMILES Cc1ccc(S(=O)(=O)n2cc(C(=O)C(=O)N[C@@H](Cc3cnc[nH]3)C(=O)OCCOCCOCCOCCOC(=O)c3ccc(-c4c5nc(c(-c6c(F)c(F)c(F)c(F)c6F)c6ccc([nH]6)c(-c6c(F)c(F)c(F)c(F)c6F)c6nc(c(-c7c(F)c(F)c(F)c(F)c7F)c7ccc4[nH]7)C=C6)C=C5)cc3)c3ccccc32)cc1
REMARK SMILES IDX 30 1 29 2 28 3 27 4 26 5 24 6 25 7 17 8 16 9 14 10 15 11
REMARK SMILES IDX 12 13 13 14 11 15 9 16 10 17 109 18 104 19 108 20 105 21
REMARK SMILES IDX 107 22 106 23 6 24 7 25 8 26 5 27 1 28 2 29 3 30 111 31 4 32
REMARK SMILES IDX 110 33 18 34 19 35 20 36 23 37 21 38 22 39 31 41 32 42 33 43
REMARK SMILES IDX 34 44 35 45 36 46 37 47 38 48 39 49 40 50 41 51 42 52 103 53
REMARK SMILES IDX 43 54 102 55 44 56 45 57 46 58 96 59 47 60 101 61 95 62
REMARK SMILES IDX 97 63 48 64 100 65 94 66 93 67 49 69 81 70 61 71 80 72 62 73
REMARK SMILES IDX 65 74 79 75 98 76 63 77 64 78 78 80 99 81 66 82 50 83 51 84
REMARK SMILES IDX 59 85 52 86 53 87 57 88 60 89 54 90 55 91 58 92 56 93 82 94
REMARK SMILES IDX 83 95 91 96 84 97 85 98 89 99 92 100 86 101 87 102 90 103
REMARK SMILES IDX 88 104 67 105 68 106 76 107 69 108 70 109 74 110 77 111
REMARK SMILES IDX 71 112 72 113 75 114 73 115
REMARK H PARENT 16 12 23 40 97 68 65 79
REMARK Flexibility Score: inf
ROOT
ATOM      1  C   UNL A   1      40.738  21.718  26.487  1.00  0.00     0.188 C 
ENDROOT
BRANCH   1   2
ATOM      2  O   UNL A   1      39.357  22.040  26.432  1.00  0.00    -0.376 OA
BRANCH   2   3
ATOM      3  C   UNL A   1      38.557  21.113  25.698  1.00  0.00     0.202 C 
BRANCH   3   4
ATOM      4  C   UNL A   1      37.662  21.713  24.612  1.00  0.00     0.261 C 
BRANCH   4   5
ATOM      5  O   UNL A   1      36.286  21.674  25.051  1.00  0.00    -0.462 OA
BRANCH   5   6
ATOM      6  C   UNL A   1      35.447  22.461  24.333  1.00  0.00     0.329 C 
ATOM      7  O   UNL A   1      35.804  23.164  23.392  1.00  0.00    -0.250 OA
BRANCH   6   8
ATOM      8  C   UNL A   1      34.005  22.455  24.874  1.00  0.00     0.198 C 
BRANCH   8   9
ATOM      9  N   UNL A   1      32.899  22.723  23.933  1.00  0.00    -0.335 N 
ATOM     10  C   UNL A   1      31.741  23.452  24.151  1.00  0.00     0.293 C 
ATOM     11  O   UNL A   1      30.820  23.399  23.346  1.00  0.00    -0.265 OA
ATOM     12  H   UNL A   1      32.997  22.334  23.035  1.00  0.00     0.164 HD
BRANCH  10  13
ATOM     13  C   UNL A   1      31.662  24.407  25.368  1.00  0.00     0.252 C 
ATOM     14  O   UNL A   1      31.450  23.892  26.465  1.00  0.00    -0.283 OA
BRANCH  13  15
ATOM     15  C   UNL A   1      31.910  25.858  25.299  1.00  0.00     0.054 A 
ATOM     16  N   UNL A   1      32.131  28.042  25.740  1.00  0.00    -0.240 N 
ATOM     17  C   UNL A   1      31.658  26.845  26.237  1.00  0.00     0.117 A 
ATOM     18  C   UNL A   1      32.744  27.862  24.520  1.00  0.00     0.065 A 
ATOM     19  C   UNL A   1      32.501  26.530  24.167  1.00  0.00     0.012 A 
ATOM     20  C   UNL A   1      33.470  28.726  23.679  1.00  0.00     0.028 A 
ATOM     21  C   UNL A   1      32.898  26.090  22.885  1.00  0.00     0.011 A 
ATOM     22  C   UNL A   1      33.872  28.249  22.428  1.00  0.00     0.002 A 
ATOM     23  C   UNL A   1      33.569  26.957  22.023  1.00  0.00     0.001 A 
BRANCH  16  24
ATOM     24  S   UNL A   1      32.113  29.498  26.629  1.00  0.00     0.268 S 
ATOM     25  O   UNL A   1      31.349  29.170  27.833  1.00  0.00    -0.201 OA
ATOM     26  O   UNL A   1      31.696  30.520  25.710  1.00  0.00    -0.201 OA
BRANCH  24  27
ATOM     27  C   UNL A   1      33.764  29.904  27.148  1.00  0.00     0.088 A 
ATOM     28  C   UNL A   1      37.628  31.122  28.615  1.00  0.00     0.044 C 
ATOM     29  C   UNL A   1      36.289  30.693  28.088  1.00  0.00    -0.051 A 
ATOM     30  C   UNL A   1      35.257  31.630  27.967  1.00  0.00     0.005 A 
ATOM     31  C   UNL A   1      36.053  29.366  27.702  1.00  0.00     0.005 A 
ATOM     32  C   UNL A   1      34.000  31.238  27.507  1.00  0.00     0.022 A 
ATOM     33  C   UNL A   1      34.799  28.970  27.218  1.00  0.00     0.022 A 
ENDBRANCH  24  27
ENDBRANCH  16  24
ENDBRANCH  13  15
ENDBRANCH  10  13
ENDBRANCH   8   9
BRANCH   8  34
ATOM     34  C   UNL A   1      33.801  21.172  25.705  1.00  0.00     0.092 C 
BRANCH  34  35
ATOM     35  C   UNL A   1      33.635  19.900  24.945  1.00  0.00     0.037 A 
ATOM     36  C   UNL A   1      32.520  19.291  24.406  1.00  0.00     0.134 A 
ATOM     37  N   UNL A   1      34.650  19.004  24.732  1.00  0.00    -0.348 N 
ATOM     38  N   UNL A   1      32.830  18.057  23.903  1.00  0.00    -0.245 NA
ATOM     39  C   UNL A   1      34.110  17.898  24.140  1.00  0.00     0.196 A 
ATOM     40  H   UNL A   1      35.597  19.133  24.964  1.00  0.00     0.167 HD
ENDBRANCH  34  35
ENDBRANCH   8  34
ENDBRANCH   6   8
ENDBRANCH   5   6
ENDBRANCH   4   5
ENDBRANCH   3   4
ENDBRANCH   2   3
ENDBRANCH   1   2
BRANCH   1  41
ATOM     41  C   UNL A   1      41.163  20.255  26.295  1.00  0.00     0.188 C 
BRANCH  41  42
ATOM     42  O   UNL A   1      42.370  19.969  25.615  1.00  0.00    -0.377 OA
BRANCH  42  43
ATOM     43  C   UNL A   1      43.257  21.079  25.527  1.00  0.00     0.188 C 
BRANCH  43  44
ATOM     44  C   UNL A   1      44.640  20.762  24.969  1.00  0.00     0.188 C 
BRANCH  44  45
ATOM     45  O   UNL A   1      45.418  21.958  25.059  1.00  0.00    -0.376 OA
BRANCH  45  46
ATOM     46  C   UNL A   1      44.708  23.107  25.518  1.00  0.00     0.202 C 
BRANCH  46  47
ATOM     47  C   UNL A   1      45.612  24.298  25.864  1.00  0.00     0.261 C 
BRANCH  47  48
ATOM     48  O   UNL A   1      45.288  25.388  24.979  1.00  0.00    -0.460 OA
BRANCH  48  49
ATOM     49  C   UNL A   1      46.278  26.295  24.773  1.00  0.00     0.338 C 
ATOM     50  O   UNL A   1      47.312  26.092  24.160  1.00  0.00    -0.246 OA
BRANCH  49  51
ATOM     51  C   UNL A   1      46.064  27.474  25.664  1.00  0.00     0.060 A 
ATOM     52  C   UNL A   1      47.071  27.843  26.571  1.00  0.00     0.016 A 
ATOM     53  C   UNL A   1      44.788  28.023  25.802  1.00  0.00     0.016 A 
ATOM     54  C   UNL A   1      46.765  28.639  27.687  1.00  0.00     0.010 A 
ATOM     55  C   UNL A   1      44.480  28.769  26.933  1.00  0.00     0.010 A 
ATOM     56  C   UNL A   1      45.442  29.032  27.922  1.00  0.00    -0.014 A 
BRANCH  56  57
ATOM     57  C   UNL A   1      44.926  29.453  29.243  1.00  0.00     0.031 A 
ATOM     58  C   UNL A   1      44.311  28.491  30.210  1.00  0.00     0.074 A 
ATOM     59  C   UNL A   1      45.302  30.663  29.731  1.00  0.00     0.049 A 
ATOM     60  N   UNL A   1      43.862  28.844  31.371  1.00  0.00    -0.248 NA
ATOM     61  C   UNL A   1      44.124  27.063  29.976  1.00  0.00     0.031 C 
ATOM     62  C   UNL A   1      45.453  31.025  31.143  1.00  0.00     0.029 A 
ATOM     63  N   UNL A   1      45.735  31.812  29.093  1.00  0.00    -0.354 N 
ATOM     64  C   UNL A   1      43.700  27.722  32.143  1.00  0.00     0.074 A 
ATOM     65  C   UNL A   1      43.722  26.643  31.185  1.00  0.00     0.031 C 
ATOM     66  C   UNL A   1      45.906  32.276  31.259  1.00  0.00     0.029 A 
ATOM     67  C   UNL A   1      45.757  32.895  29.975  1.00  0.00     0.049 A 
ATOM     68  H   UNL A   1      45.993  31.860  28.143  1.00  0.00     0.167 HD
ATOM     69  C   UNL A   1      43.692  27.850  33.505  1.00  0.00     0.037 A 
ATOM     70  C   UNL A   1      44.938  33.972  29.793  1.00  0.00     0.037 A 
ATOM     71  C   UNL A   1      43.619  29.268  33.951  1.00  0.00     0.049 A 
ATOM     72  C   UNL A   1      43.806  34.058  30.804  1.00  0.00     0.074 A 
ATOM     73  C   UNL A   1      44.244  30.027  34.929  1.00  0.00     0.029 A 
ATOM     74  N   UNL A   1      42.798  30.175  33.259  1.00  0.00    -0.354 N 
ATOM     75  N   UNL A   1      43.529  33.089  31.647  1.00  0.00    -0.248 NA
ATOM     76  C   UNL A   1      42.914  35.194  31.000  1.00  0.00     0.031 C 
ATOM     77  C   UNL A   1      43.762  31.365  34.840  1.00  0.00     0.029 A 
ATOM     78  C   UNL A   1      42.876  31.450  33.780  1.00  0.00     0.049 A 
ATOM     79  H   UNL A   1      42.232  29.929  32.493  1.00  0.00     0.167 HD
ATOM     80  C   UNL A   1      42.462  33.405  32.435  1.00  0.00     0.074 A 
ATOM     81  C   UNL A   1      42.128  34.752  32.005  1.00  0.00     0.031 C 
ATOM     82  C   UNL A   1      41.957  32.509  33.344  1.00  0.00     0.037 A 
BRANCH  69  83
ATOM     83  C   UNL A   1      43.868  26.685  34.493  1.00  0.00     0.064 A 
ATOM     84  C   UNL A   1      45.147  26.137  34.761  1.00  0.00     0.173 A 
ATOM     85  C   UNL A   1      42.813  26.002  35.143  1.00  0.00     0.173 A 
ATOM     86  F   UNL A   1      46.257  26.670  34.235  1.00  0.00    -0.203 F 
ATOM     87  C   UNL A   1      45.343  25.015  35.582  1.00  0.00     0.198 A 
ATOM     88  C   UNL A   1      43.019  24.932  36.027  1.00  0.00     0.198 A 
ATOM     89  F   UNL A   1      41.530  26.291  34.910  1.00  0.00    -0.203 F 
ATOM     90  F   UNL A   1      46.575  24.507  35.734  1.00  0.00    -0.200 F 
ATOM     91  C   UNL A   1      44.282  24.425  36.233  1.00  0.00     0.200 A 
ATOM     92  F   UNL A   1      41.970  24.381  36.656  1.00  0.00    -0.200 F 
ATOM     93  F   UNL A   1      44.469  23.371  37.039  1.00  0.00    -0.200 F 
ENDBRANCH  69  83
BRANCH  70  94
ATOM     94  C   UNL A   1      45.150  34.575  28.444  1.00  0.00     0.064 A 
ATOM     95  C   UNL A   1      44.030  34.421  27.595  1.00  0.00     0.173 A 
ATOM     96  C   UNL A   1      45.875  35.774  28.331  1.00  0.00     0.173 A 
ATOM     97  F   UNL A   1      43.330  33.278  27.627  1.00  0.00    -0.203 F 
ATOM     98  C   UNL A   1      43.494  35.510  26.908  1.00  0.00     0.198 A 
ATOM     99  C   UNL A   1      45.342  36.858  27.622  1.00  0.00     0.198 A 
ATOM    100  F   UNL A   1      46.957  35.983  29.096  1.00  0.00    -0.203 F 
ATOM    101  F   UNL A   1      42.302  35.397  26.304  1.00  0.00    -0.200 F 
ATOM    102  C   UNL A   1      44.120  36.742  26.970  1.00  0.00     0.200 A 
ATOM    103  F   UNL A   1      45.928  38.062  27.704  1.00  0.00    -0.200 F 
ATOM    104  F   UNL A   1      43.513  37.830  26.474  1.00  0.00    -0.200 F 
ENDBRANCH  70  94
BRANCH  82 105
ATOM    105  C   UNL A   1      40.573  32.529  33.986  1.00  0.00     0.064 A 
ATOM    106  C   UNL A   1      40.182  33.388  35.023  1.00  0.00     0.173 A 
ATOM    107  C   UNL A   1      39.511  31.762  33.427  1.00  0.00     0.173 A 
ATOM    108  F   UNL A   1      41.033  34.251  35.585  1.00  0.00    -0.203 F 
ATOM    109  C   UNL A   1      38.863  33.447  35.491  1.00  0.00     0.198 A 
ATOM    110  C   UNL A   1      38.189  31.860  33.859  1.00  0.00     0.198 A 
ATOM    111  F   UNL A   1      39.699  30.913  32.408  1.00  0.00    -0.203 F 
ATOM    112  F   UNL A   1      38.560  34.271  36.503  1.00  0.00    -0.200 F 
ATOM    113  C   UNL A   1      37.866  32.696  34.900  1.00  0.00     0.200 A 
ATOM    114  F   UNL A   1      37.233  31.157  33.235  1.00  0.00    -0.200 F 
ATOM    115  F   UNL A   1      36.596  32.801  35.315  1.00  0.00    -0.200 F 
ENDBRANCH  82 105
ENDBRANCH  56  57
ENDBRANCH  49  51
ENDBRANCH  48  49
ENDBRANCH  47  48
ENDBRANCH  46  47
ENDBRANCH  45  46
ENDBRANCH  44  45
ENDBRANCH  43  44
ENDBRANCH  42  43
ENDBRANCH  41  42
ENDBRANCH   1  41
TORSDOF 27
ENDMDL
