MODEL 1
REMARK VINA RESULT:     -11.0      0.000      0.000
REMARK SMILES Cc1cc(C)c2c(=O)n(CCCC(=O)OCCOCCOCCOCCOC(=O)c3ccc(-c4c5nc(c(-c6c(F)c(F)c(F)c(F)c6F)c6ccc([nH]6)c(-c6c(F)c(F)c(F)c(F)c6F)c6nc(c(-c7c(F)c(F)c(F)c(F)c7F)c7ccc4[nH]7)C=C6)C=C5)cc3)sc2n1
REMARK SMILES IDX 20 1 19 2 18 3 17 4 16 5 15 6 13 7 14 8 12 9 11 10 10 11
REMARK SMILES IDX 9 12 1 13 2 14 3 15 95 16 4 17 94 18 5 19 6 20 93 21 7 22
REMARK SMILES IDX 8 23 21 24 22 25 23 26 24 27 25 28 26 29 27 30 28 31 29 32
REMARK SMILES IDX 30 33 31 34 92 35 32 36 91 37 33 38 34 39 35 40 85 41 36 42
REMARK SMILES IDX 90 43 84 44 86 45 37 46 89 47 83 48 82 49 38 51 70 52 50 53
REMARK SMILES IDX 69 54 51 55 54 56 68 57 87 58 52 59 53 60 67 62 88 63 55 64
REMARK SMILES IDX 39 65 40 66 48 67 41 68 42 69 46 70 49 71 43 72 44 73 47 74
REMARK SMILES IDX 45 75 71 76 72 77 80 78 73 79 74 80 78 81 81 82 75 83 76 84
REMARK SMILES IDX 79 85 77 86 56 87 57 88 65 89 58 90 59 91 63 92 66 93 60 94
REMARK SMILES IDX 61 95 64 96 62 97
REMARK H PARENT 86 50 54 61
REMARK Flexibility Score: inf
ROOT
ATOM      1  C   UNL A   1      41.708  20.094  26.471  1.00  0.00     0.188 C 
ENDROOT
BRANCH   1   2
ATOM      2  C   UNL A   1      40.481  21.008  26.303  1.00  0.00     0.188 C 
BRANCH   2   3
ATOM      3  O   UNL A   1      39.327  20.475  25.693  1.00  0.00    -0.376 OA
BRANCH   3   4
ATOM      4  C   UNL A   1      38.166  21.255  25.485  1.00  0.00     0.202 C 
BRANCH   4   5
ATOM      5  C   UNL A   1      36.813  20.711  24.998  1.00  0.00     0.261 C 
BRANCH   5   6
ATOM      6  O   UNL A   1      35.646  21.153  25.698  1.00  0.00    -0.463 OA
BRANCH   6   7
ATOM      7  C   UNL A   1      34.481  21.140  25.016  1.00  0.00     0.305 C 
ATOM      8  O   UNL A   1      33.775  20.146  24.878  1.00  0.00    -0.252 OA
BRANCH   7   9
ATOM      9  C   UNL A   1      34.050  22.499  24.492  1.00  0.00     0.124 C 
BRANCH   9  10
ATOM     10  C   UNL A   1      34.005  22.891  23.002  1.00  0.00     0.035 C 
BRANCH  10  11
ATOM     11  C   UNL A   1      32.724  23.453  22.373  1.00  0.00     0.139 C 
BRANCH  11  12
ATOM     12  N   UNL A   1      32.353  24.741  22.910  1.00  0.00    -0.262 N 
ATOM     13  C   UNL A   1      31.765  28.913  27.257  1.00  0.00     0.067 C 
ATOM     14  C   UNL A   1      32.083  28.256  25.951  1.00  0.00     0.039 A 
ATOM     15  C   UNL A   1      32.893  28.885  24.993  1.00  0.00     0.027 A 
ATOM     16  N   UNL A   1      31.513  27.050  25.749  1.00  0.00    -0.241 NA
ATOM     17  C   UNL A   1      33.216  28.221  23.798  1.00  0.00    -0.033 A 
ATOM     18  C   UNL A   1      31.845  26.440  24.605  1.00  0.00     0.146 A 
ATOM     19  C   UNL A   1      34.048  28.872  22.739  1.00  0.00     0.045 C 
ATOM     20  C   UNL A   1      32.714  26.937  23.651  1.00  0.00     0.081 A 
ATOM     21  S   UNL A   1      31.203  24.864  24.163  1.00  0.00    -0.035 S 
ATOM     22  C   UNL A   1      33.046  25.913  22.640  1.00  0.00     0.270 A 
ATOM     23  O   UNL A   1      33.886  26.077  21.768  1.00  0.00    -0.268 OA
ENDBRANCH  11  12
ENDBRANCH  10  11
ENDBRANCH   9  10
ENDBRANCH   7   9
ENDBRANCH   6   7
ENDBRANCH   5   6
ENDBRANCH   4   5
ENDBRANCH   3   4
ENDBRANCH   2   3
ENDBRANCH   1   2
BRANCH   1  24
ATOM     24  O   UNL A   1      42.215  19.389  25.357  1.00  0.00    -0.377 OA
BRANCH  24  25
ATOM     25  C   UNL A   1      43.480  18.748  25.433  1.00  0.00     0.188 C 
BRANCH  25  26
ATOM     26  C   UNL A   1      44.664  19.127  24.512  1.00  0.00     0.188 C 
BRANCH  26  27
ATOM     27  O   UNL A   1      44.586  20.398  23.884  1.00  0.00    -0.376 OA
BRANCH  27  28
ATOM     28  C   UNL A   1      44.845  21.590  24.607  1.00  0.00     0.202 C 
BRANCH  28  29
ATOM     29  C   UNL A   1      44.140  22.865  24.137  1.00  0.00     0.261 C 
BRANCH  29  30
ATOM     30  O   UNL A   1      43.227  23.386  25.086  1.00  0.00    -0.460 OA
BRANCH  30  31
ATOM     31  C   UNL A   1      43.429  24.686  25.369  1.00  0.00     0.338 C 
ATOM     32  O   UNL A   1      44.346  25.394  25.000  1.00  0.00    -0.246 OA
BRANCH  31  33
ATOM     33  C   UNL A   1      42.408  25.118  26.325  1.00  0.00     0.060 A 
ATOM     34  C   UNL A   1      41.390  25.892  25.775  1.00  0.00     0.016 A 
ATOM     35  C   UNL A   1      42.766  25.168  27.678  1.00  0.00     0.016 A 
ATOM     36  C   UNL A   1      40.985  26.980  26.498  1.00  0.00     0.010 A 
ATOM     37  C   UNL A   1      42.371  26.263  28.395  1.00  0.00     0.010 A 
ATOM     38  C   UNL A   1      41.592  27.209  27.740  1.00  0.00    -0.014 A 
BRANCH  38  39
ATOM     39  C   UNL A   1      41.349  28.483  28.364  1.00  0.00     0.031 A 
ATOM     40  C   UNL A   1      42.419  29.447  28.066  1.00  0.00     0.074 A 
ATOM     41  C   UNL A   1      40.250  28.725  29.100  1.00  0.00     0.049 A 
ATOM     42  N   UNL A   1      43.322  29.884  28.875  1.00  0.00    -0.248 NA
ATOM     43  C   UNL A   1      42.639  29.794  26.653  1.00  0.00     0.031 C 
ATOM     44  C   UNL A   1      39.036  27.920  29.248  1.00  0.00     0.029 A 
ATOM     45  N   UNL A   1      39.974  29.829  29.841  1.00  0.00    -0.354 N 
ATOM     46  C   UNL A   1      44.118  30.723  28.110  1.00  0.00     0.074 A 
ATOM     47  C   UNL A   1      43.781  30.473  26.732  1.00  0.00     0.031 C 
ATOM     48  C   UNL A   1      38.075  28.666  29.846  1.00  0.00     0.029 A 
ATOM     49  C   UNL A   1      38.653  29.938  30.249  1.00  0.00     0.049 A 
ATOM     50  H   UNL A   1      40.658  30.498  30.071  1.00  0.00     0.167 HD
ATOM     51  C   UNL A   1      44.786  31.754  28.684  1.00  0.00     0.037 A 
ATOM     52  C   UNL A   1      38.101  31.043  30.810  1.00  0.00     0.037 A 
ATOM     53  C   UNL A   1      44.932  31.557  30.104  1.00  0.00     0.049 A 
ATOM     54  C   UNL A   1      39.221  31.867  31.334  1.00  0.00     0.074 A 
ATOM     55  C   UNL A   1      45.584  30.631  30.895  1.00  0.00     0.029 A 
ATOM     56  N   UNL A   1      44.023  32.177  30.923  1.00  0.00    -0.354 N 
ATOM     57  N   UNL A   1      39.959  31.529  32.352  1.00  0.00    -0.248 NA
ATOM     58  C   UNL A   1      39.796  32.871  30.450  1.00  0.00     0.031 C 
ATOM     59  C   UNL A   1      44.739  30.439  32.028  1.00  0.00     0.029 A 
ATOM     60  C   UNL A   1      43.642  31.291  31.897  1.00  0.00     0.049 A 
ATOM     61  H   UNL A   1      43.699  33.102  30.827  1.00  0.00     0.167 HD
ATOM     62  C   UNL A   1      41.238  31.942  32.013  1.00  0.00     0.074 A 
ATOM     63  C   UNL A   1      41.059  32.850  30.884  1.00  0.00     0.031 C 
ATOM     64  C   UNL A   1      42.329  31.280  32.498  1.00  0.00     0.037 A 
BRANCH  51  65
ATOM     65  C   UNL A   1      44.932  33.096  28.019  1.00  0.00     0.064 A 
ATOM     66  C   UNL A   1      46.216  33.564  27.692  1.00  0.00     0.173 A 
ATOM     67  C   UNL A   1      43.895  34.056  27.944  1.00  0.00     0.173 A 
ATOM     68  F   UNL A   1      47.279  32.751  27.773  1.00  0.00    -0.203 F 
ATOM     69  C   UNL A   1      46.448  34.902  27.360  1.00  0.00     0.198 A 
ATOM     70  C   UNL A   1      44.120  35.372  27.553  1.00  0.00     0.198 A 
ATOM     71  F   UNL A   1      42.648  33.799  28.355  1.00  0.00    -0.203 F 
ATOM     72  F   UNL A   1      47.703  35.330  27.172  1.00  0.00    -0.200 F 
ATOM     73  C   UNL A   1      45.401  35.802  27.288  1.00  0.00     0.200 A 
ATOM     74  F   UNL A   1      43.093  36.232  27.517  1.00  0.00    -0.200 F 
ATOM     75  F   UNL A   1      45.627  37.094  27.019  1.00  0.00    -0.200 F 
ENDBRANCH  51  65
BRANCH  52  76
ATOM     76  C   UNL A   1      36.754  31.633  30.619  1.00  0.00     0.064 A 
ATOM     77  C   UNL A   1      35.899  31.805  31.724  1.00  0.00     0.173 A 
ATOM     78  C   UNL A   1      36.425  32.349  29.454  1.00  0.00     0.173 A 
ATOM     79  F   UNL A   1      36.159  31.178  32.881  1.00  0.00    -0.203 F 
ATOM     80  C   UNL A   1      34.826  32.698  31.689  1.00  0.00     0.198 A 
ATOM     81  C   UNL A   1      35.346  33.236  29.420  1.00  0.00     0.198 A 
ATOM     82  F   UNL A   1      37.206  32.289  28.366  1.00  0.00    -0.203 F 
ATOM     83  F   UNL A   1      34.093  32.906  32.793  1.00  0.00    -0.200 F 
ATOM     84  C   UNL A   1      34.563  33.428  30.544  1.00  0.00     0.200 A 
ATOM     85  F   UNL A   1      35.119  33.962  28.316  1.00  0.00    -0.200 F 
ATOM     86  F   UNL A   1      33.587  34.347  30.536  1.00  0.00    -0.200 F 
ENDBRANCH  52  76
BRANCH  64  87
ATOM     87  C   UNL A   1      42.089  30.307  33.620  1.00  0.00     0.064 A 
ATOM     88  C   UNL A   1      41.697  28.968  33.437  1.00  0.00     0.173 A 
ATOM     89  C   UNL A   1      42.365  30.724  34.928  1.00  0.00     0.173 A 
ATOM     90  F   UNL A   1      41.504  28.467  32.211  1.00  0.00    -0.203 F 
ATOM     91  C   UNL A   1      41.538  28.106  34.523  1.00  0.00     0.198 A 
ATOM     92  C   UNL A   1      42.242  29.852  36.005  1.00  0.00     0.198 A 
ATOM     93  F   UNL A   1      42.791  31.975  35.157  1.00  0.00    -0.203 F 
ATOM     94  F   UNL A   1      41.140  26.840  34.326  1.00  0.00    -0.200 F 
ATOM     95  C   UNL A   1      41.818  28.548  35.805  1.00  0.00     0.200 A 
ATOM     96  F   UNL A   1      42.559  30.271  37.239  1.00  0.00    -0.200 F 
ATOM     97  F   UNL A   1      41.700  27.712  36.847  1.00  0.00    -0.200 F 
ENDBRANCH  64  87
ENDBRANCH  38  39
ENDBRANCH  31  33
ENDBRANCH  30  31
ENDBRANCH  29  30
ENDBRANCH  28  29
ENDBRANCH  27  28
ENDBRANCH  26  27
ENDBRANCH  25  26
ENDBRANCH  24  25
ENDBRANCH   1  24
TORSDOF 23
ENDMDL
MODEL 2
REMARK VINA RESULT:     -10.5      3.764      9.230
REMARK SMILES Cc1cc(C)c2c(=O)n(CCCC(=O)OCCOCCOCCOCCOC(=O)c3ccc(-c4c5nc(c(-c6c(F)c(F)c(F)c(F)c6F)c6ccc([nH]6)c(-c6c(F)c(F)c(F)c(F)c6F)c6nc(c(-c7c(F)c(F)c(F)c(F)c7F)c7ccc4[nH]7)C=C6)C=C5)cc3)sc2n1
REMARK SMILES IDX 20 1 19 2 18 3 17 4 16 5 15 6 13 7 14 8 12 9 11 10 10 11
REMARK SMILES IDX 9 12 1 13 2 14 3 15 95 16 4 17 94 18 5 19 6 20 93 21 7 22
REMARK SMILES IDX 8 23 21 24 22 25 23 26 24 27 25 28 26 29 27 30 28 31 29 32
REMARK SMILES IDX 30 33 31 34 92 35 32 36 91 37 33 38 34 39 35 40 85 41 36 42
REMARK SMILES IDX 90 43 84 44 86 45 37 46 89 47 83 48 82 49 38 51 70 52 50 53
REMARK SMILES IDX 69 54 51 55 54 56 68 57 87 58 52 59 53 60 67 62 88 63 55 64
REMARK SMILES IDX 39 65 40 66 48 67 41 68 42 69 46 70 49 71 43 72 44 73 47 74
REMARK SMILES IDX 45 75 71 76 72 77 80 78 73 79 74 80 78 81 81 82 75 83 76 84
REMARK SMILES IDX 79 85 77 86 56 87 57 88 65 89 58 90 59 91 63 92 66 93 60 94
REMARK SMILES IDX 61 95 64 96 62 97
REMARK H PARENT 86 50 54 61
REMARK Flexibility Score: inf
ROOT
ATOM      1  C   UNL A   1      33.441  28.705  25.447  1.00  0.00     0.188 C 
ENDROOT
BRANCH   1   2
ATOM      2  C   UNL A   1      31.953  28.698  25.055  1.00  0.00     0.188 C 
BRANCH   2   3
ATOM      3  O   UNL A   1      31.596  28.188  23.790  1.00  0.00    -0.376 OA
BRANCH   3   4
ATOM      4  C   UNL A   1      31.121  26.867  23.626  1.00  0.00     0.202 C 
BRANCH   4   5
ATOM      5  C   UNL A   1      30.222  26.122  24.626  1.00  0.00     0.261 C 
BRANCH   5   6
ATOM      6  O   UNL A   1      30.553  24.758  24.905  1.00  0.00    -0.463 OA
BRANCH   6   7
ATOM      7  C   UNL A   1      30.691  24.415  26.204  1.00  0.00     0.305 C 
ATOM      8  O   UNL A   1      29.752  24.186  26.959  1.00  0.00    -0.252 OA
BRANCH   7   9
ATOM      9  C   UNL A   1      32.132  24.244  26.653  1.00  0.00     0.124 C 
BRANCH   9  10
ATOM     10  C   UNL A   1      33.304  25.137  26.202  1.00  0.00     0.035 C 
BRANCH  10  11
ATOM     11  C   UNL A   1      34.145  24.774  24.972  1.00  0.00     0.139 C 
BRANCH  11  12
ATOM     12  N   UNL A   1      34.110  23.363  24.664  1.00  0.00    -0.262 N 
ATOM     13  C   UNL A   1      32.677  17.564  25.645  1.00  0.00     0.067 C 
ATOM     14  C   UNL A   1      32.867  18.888  24.973  1.00  0.00     0.039 A 
ATOM     15  C   UNL A   1      32.262  19.176  23.740  1.00  0.00     0.027 A 
ATOM     16  N   UNL A   1      33.678  19.756  25.611  1.00  0.00    -0.241 NA
ATOM     17  C   UNL A   1      32.416  20.445  23.160  1.00  0.00    -0.033 A 
ATOM     18  C   UNL A   1      33.800  20.959  25.036  1.00  0.00     0.146 A 
ATOM     19  C   UNL A   1      31.816  20.779  21.831  1.00  0.00     0.045 C 
ATOM     20  C   UNL A   1      33.162  21.366  23.879  1.00  0.00     0.081 A 
ATOM     21  S   UNL A   1      34.815  22.223  25.718  1.00  0.00    -0.035 S 
ATOM     22  C   UNL A   1      33.322  22.818  23.659  1.00  0.00     0.270 A 
ATOM     23  O   UNL A   1      32.748  23.429  22.771  1.00  0.00    -0.268 OA
ENDBRANCH  11  12
ENDBRANCH  10  11
ENDBRANCH   9  10
ENDBRANCH   7   9
ENDBRANCH   6   7
ENDBRANCH   5   6
ENDBRANCH   4   5
ENDBRANCH   3   4
ENDBRANCH   2   3
ENDBRANCH   1   2
BRANCH   1  24
ATOM     24  O   UNL A   1      33.808  28.760  26.810  1.00  0.00    -0.377 OA
BRANCH  24  25
ATOM     25  C   UNL A   1      34.461  29.910  27.329  1.00  0.00     0.188 C 
BRANCH  25  26
ATOM     26  C   UNL A   1      33.707  31.222  27.654  1.00  0.00     0.188 C 
BRANCH  26  27
ATOM     27  O   UNL A   1      34.240  32.001  28.715  1.00  0.00    -0.376 OA
BRANCH  27  28
ATOM     28  C   UNL A   1      34.697  33.325  28.494  1.00  0.00     0.202 C 
BRANCH  28  29
ATOM     29  C   UNL A   1      33.901  34.462  29.140  1.00  0.00     0.261 C 
BRANCH  29  30
ATOM     30  O   UNL A   1      34.540  35.027  30.270  1.00  0.00    -0.460 OA
BRANCH  30  31
ATOM     31  C   UNL A   1      33.924  34.748  31.433  1.00  0.00     0.338 C 
ATOM     32  O   UNL A   1      32.827  35.119  31.800  1.00  0.00    -0.246 OA
BRANCH  31  33
ATOM     33  C   UNL A   1      34.851  34.000  32.282  1.00  0.00     0.060 A 
ATOM     34  C   UNL A   1      36.065  34.638  32.519  1.00  0.00     0.016 A 
ATOM     35  C   UNL A   1      34.686  32.610  32.355  1.00  0.00     0.016 A 
ATOM     36  C   UNL A   1      37.191  33.862  32.461  1.00  0.00     0.010 A 
ATOM     37  C   UNL A   1      35.812  31.838  32.283  1.00  0.00     0.010 A 
ATOM     38  C   UNL A   1      37.035  32.493  32.207  1.00  0.00    -0.014 A 
BRANCH  38  39
ATOM     39  C   UNL A   1      38.223  31.745  31.893  1.00  0.00     0.031 A 
ATOM     40  C   UNL A   1      39.055  31.523  33.085  1.00  0.00     0.074 A 
ATOM     41  C   UNL A   1      38.486  31.301  30.652  1.00  0.00     0.049 A 
ATOM     42  N   UNL A   1      40.186  32.077  33.360  1.00  0.00    -0.248 NA
ATOM     43  C   UNL A   1      38.456  30.764  34.194  1.00  0.00     0.031 C 
ATOM     44  C   UNL A   1      37.615  31.264  29.474  1.00  0.00     0.029 A 
ATOM     45  N   UNL A   1      39.622  30.706  30.207  1.00  0.00    -0.354 N 
ATOM     46  C   UNL A   1      40.537  31.581  34.607  1.00  0.00     0.074 A 
ATOM     47  C   UNL A   1      39.362  30.952  35.151  1.00  0.00     0.031 C 
ATOM     48  C   UNL A   1      38.181  30.479  28.525  1.00  0.00     0.029 A 
ATOM     49  C   UNL A   1      39.506  30.085  28.971  1.00  0.00     0.049 A 
ATOM     50  H   UNL A   1      40.462  30.715  30.720  1.00  0.00     0.167 HD
ATOM     51  C   UNL A   1      41.841  31.483  34.968  1.00  0.00     0.037 A 
ATOM     52  C   UNL A   1      40.433  29.257  28.427  1.00  0.00     0.037 A 
ATOM     53  C   UNL A   1      42.674  32.341  34.163  1.00  0.00     0.049 A 
ATOM     54  C   UNL A   1      41.718  29.530  29.122  1.00  0.00     0.074 A 
ATOM     55  C   UNL A   1      42.776  33.707  33.985  1.00  0.00     0.029 A 
ATOM     56  N   UNL A   1      43.313  31.772  33.091  1.00  0.00    -0.354 N 
ATOM     57  N   UNL A   1      42.398  30.632  28.987  1.00  0.00    -0.248 NA
ATOM     58  C   UNL A   1      42.030  28.743  30.307  1.00  0.00     0.031 C 
ATOM     59  C   UNL A   1      43.087  33.886  32.604  1.00  0.00     0.029 A 
ATOM     60  C   UNL A   1      43.207  32.623  32.022  1.00  0.00     0.049 A 
ATOM     61  H   UNL A   1      43.771  30.901  33.090  1.00  0.00     0.167 HD
ATOM     62  C   UNL A   1      42.900  30.894  30.252  1.00  0.00     0.074 A 
ATOM     63  C   UNL A   1      42.729  29.649  30.995  1.00  0.00     0.031 C 
ATOM     64  C   UNL A   1      43.136  32.178  30.650  1.00  0.00     0.037 A 
BRANCH  51  65
ATOM     65  C   UNL A   1      42.378  30.321  35.759  1.00  0.00     0.064 A 
ATOM     66  C   UNL A   1      43.263  30.565  36.823  1.00  0.00     0.173 A 
ATOM     67  C   UNL A   1      42.279  28.972  35.345  1.00  0.00     0.173 A 
ATOM     68  F   UNL A   1      43.468  31.814  37.267  1.00  0.00    -0.203 F 
ATOM     69  C   UNL A   1      44.025  29.542  37.394  1.00  0.00     0.198 A 
ATOM     70  C   UNL A   1      42.992  27.946  35.957  1.00  0.00     0.198 A 
ATOM     71  F   UNL A   1      41.585  28.603  34.261  1.00  0.00    -0.203 F 
ATOM     72  F   UNL A   1      44.943  29.838  38.324  1.00  0.00    -0.200 F 
ATOM     73  C   UNL A   1      43.886  28.235  36.963  1.00  0.00     0.200 A 
ATOM     74  F   UNL A   1      42.860  26.692  35.504  1.00  0.00    -0.200 F 
ATOM     75  F   UNL A   1      44.650  27.262  37.475  1.00  0.00    -0.200 F 
ENDBRANCH  51  65
BRANCH  52  76
ATOM     76  C   UNL A   1      40.250  28.014  27.639  1.00  0.00     0.064 A 
ATOM     77  C   UNL A   1      41.020  27.796  26.482  1.00  0.00     0.173 A 
ATOM     78  C   UNL A   1      39.601  26.890  28.182  1.00  0.00     0.173 A 
ATOM     79  F   UNL A   1      41.692  28.811  25.919  1.00  0.00    -0.203 F 
ATOM     80  C   UNL A   1      41.193  26.518  25.945  1.00  0.00     0.198 A 
ATOM     81  C   UNL A   1      39.769  25.614  27.638  1.00  0.00     0.198 A 
ATOM     82  F   UNL A   1      38.884  26.988  29.310  1.00  0.00    -0.203 F 
ATOM     83  F   UNL A   1      42.012  26.338  24.899  1.00  0.00    -0.200 F 
ATOM     84  C   UNL A   1      40.584  25.425  26.536  1.00  0.00     0.200 A 
ATOM     85  F   UNL A   1      39.201  24.558  28.237  1.00  0.00    -0.200 F 
ATOM     86  F   UNL A   1      40.817  24.189  26.075  1.00  0.00    -0.200 F 
ENDBRANCH  52  76
BRANCH  64  87
ATOM     87  C   UNL A   1      43.114  33.235  29.579  1.00  0.00     0.064 A 
ATOM     88  C   UNL A   1      42.019  34.081  29.324  1.00  0.00     0.173 A 
ATOM     89  C   UNL A   1      44.287  33.463  28.850  1.00  0.00     0.173 A 
ATOM     90  F   UNL A   1      40.893  33.989  30.042  1.00  0.00    -0.203 F 
ATOM     91  C   UNL A   1      42.085  35.073  28.345  1.00  0.00     0.198 A 
ATOM     92  C   UNL A   1      44.362  34.478  27.901  1.00  0.00     0.198 A 
ATOM     93  F   UNL A   1      45.379  32.720  29.087  1.00  0.00    -0.203 F 
ATOM     94  F   UNL A   1      41.020  35.853  28.103  1.00  0.00    -0.200 F 
ATOM     95  C   UNL A   1      43.259  35.274  27.639  1.00  0.00     0.200 A 
ATOM     96  F   UNL A   1      45.516  34.698  27.254  1.00  0.00    -0.200 F 
ATOM     97  F   UNL A   1      43.336  36.249  26.722  1.00  0.00    -0.200 F 
ENDBRANCH  64  87
ENDBRANCH  38  39
ENDBRANCH  31  33
ENDBRANCH  30  31
ENDBRANCH  29  30
ENDBRANCH  28  29
ENDBRANCH  27  28
ENDBRANCH  26  27
ENDBRANCH  25  26
ENDBRANCH  24  25
ENDBRANCH   1  24
TORSDOF 23
ENDMDL
MODEL 3
REMARK VINA RESULT:     -10.5      3.965      9.942
REMARK SMILES Cc1cc(C)c2c(=O)n(CCCC(=O)OCCOCCOCCOCCOC(=O)c3ccc(-c4c5nc(c(-c6c(F)c(F)c(F)c(F)c6F)c6ccc([nH]6)c(-c6c(F)c(F)c(F)c(F)c6F)c6nc(c(-c7c(F)c(F)c(F)c(F)c7F)c7ccc4[nH]7)C=C6)C=C5)cc3)sc2n1
REMARK SMILES IDX 20 1 19 2 18 3 17 4 16 5 15 6 13 7 14 8 12 9 11 10 10 11
REMARK SMILES IDX 9 12 1 13 2 14 3 15 95 16 4 17 94 18 5 19 6 20 93 21 7 22
REMARK SMILES IDX 8 23 21 24 22 25 23 26 24 27 25 28 26 29 27 30 28 31 29 32
REMARK SMILES IDX 30 33 31 34 92 35 32 36 91 37 33 38 34 39 35 40 85 41 36 42
REMARK SMILES IDX 90 43 84 44 86 45 37 46 89 47 83 48 82 49 38 51 70 52 50 53
REMARK SMILES IDX 69 54 51 55 54 56 68 57 87 58 52 59 53 60 67 62 88 63 55 64
REMARK SMILES IDX 39 65 40 66 48 67 41 68 42 69 46 70 49 71 43 72 44 73 47 74
REMARK SMILES IDX 45 75 71 76 72 77 80 78 73 79 74 80 78 81 81 82 75 83 76 84
REMARK SMILES IDX 79 85 77 86 56 87 57 88 65 89 58 90 59 91 63 92 66 93 60 94
REMARK SMILES IDX 61 95 64 96 62 97
REMARK H PARENT 86 50 54 61
REMARK Flexibility Score: inf
ROOT
ATOM      1  C   UNL A   1      34.204  31.280  27.571  1.00  0.00     0.188 C 
ENDROOT
BRANCH   1   2
ATOM      2  C   UNL A   1      33.840  29.826  27.219  1.00  0.00     0.188 C 
BRANCH   2   3
ATOM      3  O   UNL A   1      32.490  29.431  27.319  1.00  0.00    -0.376 OA
BRANCH   3   4
ATOM      4  C   UNL A   1      31.841  28.726  26.279  1.00  0.00     0.202 C 
BRANCH   4   5
ATOM      5  C   UNL A   1      31.417  29.334  24.933  1.00  0.00     0.261 C 
BRANCH   5   6
ATOM      6  O   UNL A   1      31.801  28.625  23.751  1.00  0.00    -0.463 OA
BRANCH   6   7
ATOM      7  C   UNL A   1      30.810  28.069  23.021  1.00  0.00     0.305 C 
ATOM      8  O   UNL A   1      30.278  28.610  22.058  1.00  0.00    -0.252 OA
BRANCH   7   9
ATOM      9  C   UNL A   1      30.452  26.651  23.435  1.00  0.00     0.124 C 
BRANCH   9  10
ATOM     10  C   UNL A   1      31.422  25.662  24.110  1.00  0.00     0.035 C 
BRANCH  10  11
ATOM     11  C   UNL A   1      31.306  24.153  23.867  1.00  0.00     0.139 C 
BRANCH  11  12
ATOM     12  N   UNL A   1      32.589  23.493  23.807  1.00  0.00    -0.262 N 
ATOM     13  C   UNL A   1      38.160  22.139  25.751  1.00  0.00     0.067 C 
ATOM     14  C   UNL A   1      36.768  22.004  25.220  1.00  0.00     0.039 A 
ATOM     15  C   UNL A   1      36.121  20.759  25.169  1.00  0.00     0.027 A 
ATOM     16  N   UNL A   1      36.202  23.141  24.767  1.00  0.00    -0.241 NA
ATOM     17  C   UNL A   1      34.796  20.673  24.714  1.00  0.00    -0.033 A 
ATOM     18  C   UNL A   1      34.937  23.027  24.345  1.00  0.00     0.146 A 
ATOM     19  C   UNL A   1      34.085  19.360  24.613  1.00  0.00     0.045 C 
ATOM     20  C   UNL A   1      34.187  21.865  24.355  1.00  0.00     0.081 A 
ATOM     21  S   UNL A   1      34.031  24.399  23.719  1.00  0.00    -0.035 S 
ATOM     22  C   UNL A   1      32.766  22.139  24.057  1.00  0.00     0.270 A 
ATOM     23  O   UNL A   1      31.891  21.290  24.127  1.00  0.00    -0.268 OA
ENDBRANCH  11  12
ENDBRANCH  10  11
ENDBRANCH   9  10
ENDBRANCH   7   9
ENDBRANCH   6   7
ENDBRANCH   5   6
ENDBRANCH   4   5
ENDBRANCH   3   4
ENDBRANCH   2   3
ENDBRANCH   1   2
BRANCH   1  24
ATOM     24  O   UNL A   1      33.179  32.214  27.842  1.00  0.00    -0.377 OA
BRANCH  24  25
ATOM     25  C   UNL A   1      33.444  33.607  27.767  1.00  0.00     0.188 C 
BRANCH  25  26
ATOM     26  C   UNL A   1      34.846  34.206  28.037  1.00  0.00     0.188 C 
BRANCH  26  27
ATOM     27  O   UNL A   1      35.310  34.131  29.377  1.00  0.00    -0.376 OA
BRANCH  27  28
ATOM     28  C   UNL A   1      34.426  34.313  30.470  1.00  0.00     0.202 C 
BRANCH  28  29
ATOM     29  C   UNL A   1      34.693  33.492  31.734  1.00  0.00     0.261 C 
BRANCH  29  30
ATOM     30  O   UNL A   1      34.837  32.106  31.486  1.00  0.00    -0.460 OA
BRANCH  30  31
ATOM     31  C   UNL A   1      35.985  31.590  31.961  1.00  0.00     0.338 C 
ATOM     32  O   UNL A   1      36.394  31.617  33.106  1.00  0.00    -0.246 OA
BRANCH  31  33
ATOM     33  C   UNL A   1      36.765  31.074  30.836  1.00  0.00     0.060 A 
ATOM     34  C   UNL A   1      36.516  29.740  30.522  1.00  0.00     0.016 A 
ATOM     35  C   UNL A   1      37.965  31.725  30.525  1.00  0.00     0.016 A 
ATOM     36  C   UNL A   1      37.603  28.962  30.234  1.00  0.00     0.010 A 
ATOM     37  C   UNL A   1      39.053  30.944  30.251  1.00  0.00     0.010 A 
ATOM     38  C   UNL A   1      38.867  29.567  30.240  1.00  0.00    -0.014 A 
BRANCH  38  39
ATOM     39  C   UNL A   1      40.011  28.696  30.194  1.00  0.00     0.031 A 
ATOM     40  C   UNL A   1      40.600  28.502  31.527  1.00  0.00     0.074 A 
ATOM     41  C   UNL A   1      40.440  28.131  29.051  1.00  0.00     0.049 A 
ATOM     42  N   UNL A   1      41.715  28.977  31.964  1.00  0.00    -0.248 NA
ATOM     43  C   UNL A   1      39.746  27.890  32.558  1.00  0.00     0.031 C 
ATOM     44  C   UNL A   1      39.785  28.073  27.742  1.00  0.00     0.029 A 
ATOM     45  N   UNL A   1      41.570  27.406  28.857  1.00  0.00    -0.354 N 
ATOM     46  C   UNL A   1      41.795  28.556  33.283  1.00  0.00     0.074 A 
ATOM     47  C   UNL A   1      40.487  28.077  33.647  1.00  0.00     0.031 C 
ATOM     48  C   UNL A   1      40.425  27.168  26.963  1.00  0.00     0.029 A 
ATOM     49  C   UNL A   1      41.609  26.699  27.664  1.00  0.00     0.049 A 
ATOM     50  H   UNL A   1      42.306  27.386  29.511  1.00  0.00     0.167 HD
ATOM     51  C   UNL A   1      43.001  28.376  33.878  1.00  0.00     0.037 A 
ATOM     52  C   UNL A   1      42.529  25.752  27.350  1.00  0.00     0.037 A 
ATOM     53  C   UNL A   1      44.041  29.090  33.182  1.00  0.00     0.049 A 
ATOM     54  C   UNL A   1      43.695  25.970  28.245  1.00  0.00     0.074 A 
ATOM     55  C   UNL A   1      44.307  30.424  32.936  1.00  0.00     0.029 A 
ATOM     56  N   UNL A   1      44.796  28.383  32.281  1.00  0.00    -0.354 N 
ATOM     57  N   UNL A   1      44.494  26.995  28.163  1.00  0.00    -0.248 NA
ATOM     58  C   UNL A   1      43.718  25.259  29.515  1.00  0.00     0.031 C 
ATOM     59  C   UNL A   1      44.867  30.462  31.624  1.00  0.00     0.029 A 
ATOM     60  C   UNL A   1      44.960  29.151  31.156  1.00  0.00     0.049 A 
ATOM     61  H   UNL A   1      45.159  27.479  32.419  1.00  0.00     0.167 HD
ATOM     62  C   UNL A   1      44.794  27.315  29.477  1.00  0.00     0.074 A 
ATOM     63  C   UNL A   1      44.375  26.154  30.257  1.00  0.00     0.031 C 
ATOM     64  C   UNL A   1      45.084  28.602  29.826  1.00  0.00     0.037 A 
BRANCH  51  65
ATOM     65  C   UNL A   1      43.275  27.241  34.827  1.00  0.00     0.064 A 
ATOM     66  C   UNL A   1      43.572  27.525  36.170  1.00  0.00     0.173 A 
ATOM     67  C   UNL A   1      43.531  25.912  34.414  1.00  0.00     0.173 A 
ATOM     68  F   UNL A   1      43.410  28.765  36.657  1.00  0.00    -0.203 F 
ATOM     69  C   UNL A   1      44.126  26.564  37.020  1.00  0.00     0.198 A 
ATOM     70  C   UNL A   1      44.024  24.941  35.279  1.00  0.00     0.198 A 
ATOM     71  F   UNL A   1      43.429  25.525  33.137  1.00  0.00    -0.203 F 
ATOM     72  F   UNL A   1      44.504  26.911  38.258  1.00  0.00    -0.200 F 
ATOM     73  C   UNL A   1      44.349  25.274  36.575  1.00  0.00     0.200 A 
ATOM     74  F   UNL A   1      44.256  23.705  34.816  1.00  0.00    -0.200 F 
ATOM     75  F   UNL A   1      44.924  24.365  37.372  1.00  0.00    -0.200 F 
ENDBRANCH  51  65
BRANCH  52  76
ATOM     76  C   UNL A   1      42.362  24.470  26.625  1.00  0.00     0.064 A 
ATOM     77  C   UNL A   1      43.198  24.165  25.535  1.00  0.00     0.173 A 
ATOM     78  C   UNL A   1      41.649  23.396  27.188  1.00  0.00     0.173 A 
ATOM     79  F   UNL A   1      43.933  25.129  24.960  1.00  0.00    -0.203 F 
ATOM     80  C   UNL A   1      43.370  22.854  25.085  1.00  0.00     0.198 A 
ATOM     81  C   UNL A   1      41.816  22.087  26.731  1.00  0.00     0.198 A 
ATOM     82  F   UNL A   1      40.864  23.577  28.260  1.00  0.00    -0.203 F 
ATOM     83  F   UNL A   1      44.249  22.592  24.107  1.00  0.00    -0.200 F 
ATOM     84  C   UNL A   1      42.694  21.813  25.697  1.00  0.00     0.200 A 
ATOM     85  F   UNL A   1      41.182  21.081  27.351  1.00  0.00    -0.200 F 
ATOM     86  F   UNL A   1      42.922  20.546  25.324  1.00  0.00    -0.200 F 
ENDBRANCH  52  76
BRANCH  64  87
ATOM     87  C   UNL A   1      45.351  29.567  28.702  1.00  0.00     0.064 A 
ATOM     88  C   UNL A   1      44.354  30.295  28.029  1.00  0.00     0.173 A 
ATOM     89  C   UNL A   1      46.684  29.834  28.363  1.00  0.00     0.173 A 
ATOM     90  F   UNL A   1      43.063  30.165  28.360  1.00  0.00    -0.203 F 
ATOM     91  C   UNL A   1      44.678  31.209  27.026  1.00  0.00     0.198 A 
ATOM     92  C   UNL A   1      47.006  30.773  27.389  1.00  0.00     0.198 A 
ATOM     93  F   UNL A   1      47.678  29.205  29.007  1.00  0.00    -0.203 F 
ATOM     94  F   UNL A   1      43.708  31.875  26.381  1.00  0.00    -0.200 F 
ATOM     95  C   UNL A   1      46.005  31.452  26.712  1.00  0.00     0.200 A 
ATOM     96  F   UNL A   1      48.293  31.038  27.121  1.00  0.00    -0.200 F 
ATOM     97  F   UNL A   1      46.322  32.354  25.773  1.00  0.00    -0.200 F 
ENDBRANCH  64  87
ENDBRANCH  38  39
ENDBRANCH  31  33
ENDBRANCH  30  31
ENDBRANCH  29  30
ENDBRANCH  28  29
ENDBRANCH  27  28
ENDBRANCH  26  27
ENDBRANCH  25  26
ENDBRANCH  24  25
ENDBRANCH   1  24
TORSDOF 23
ENDMDL
