MODEL 1
REMARK VINA RESULT:     -10.8      0.000      0.000
REMARK SMILES CC1=C(CC(=O)OCCOCCOCCOCCOC(=O)c2ccc(-c3c4nc(c(-c5c(F)c(F)c(F)c(F)c5F)c5ccc([nH]5)c(-c5c(F)c(F)c(F)c(F)c5F)c5nc(c(-c6c(F)c(F)c(F)c(F)c6F)c6ccc3[nH]6)C=C5)C=C4)cc2)c2cc(F)ccc2/C1=C\c1ccc([S@@+](C)[O-])cc1
REMARK SMILES IDX 12 1 11 2 10 3 9 4 8 5 7 6 5 7 6 8 4 9 3 10 1 11 2 12 92 13
REMARK SMILES IDX 85 14 91 15 93 16 86 17 90 18 87 19 89 20 88 21 94 22 95 23
REMARK SMILES IDX 102 24 96 25 101 26 97 27 98 28 99 29 100 30 13 31 14 32
REMARK SMILES IDX 15 33 16 34 17 35 18 36 19 37 20 38 21 39 22 40 23 41 84 42
REMARK SMILES IDX 24 43 83 44 25 45 26 46 27 47 77 48 28 49 82 50 76 51 78 52
REMARK SMILES IDX 29 53 81 54 75 55 74 56 30 58 62 59 42 60 61 61 43 62 46 63
REMARK SMILES IDX 60 64 79 65 44 66 45 67 59 69 80 70 47 71 31 72 32 73 40 74
REMARK SMILES IDX 33 75 34 76 38 77 41 78 35 79 36 80 39 81 37 82 63 83 64 84
REMARK SMILES IDX 72 85 65 86 66 87 70 88 73 89 67 90 68 91 71 92 69 93 48 94
REMARK SMILES IDX 49 95 57 96 50 97 51 98 55 99 58 100 52 101 53 102 56 103
REMARK SMILES IDX 54 104
REMARK H PARENT 78 57 46 68
REMARK Flexibility Score: inf
ROOT
ATOM      1  C   UNL A   1      29.547  25.962  24.993  1.00  0.00     0.188 C 
ENDROOT
BRANCH   1   2
ATOM      2  C   UNL A   1      28.903  26.279  23.626  1.00  0.00     0.188 C 
BRANCH   2   3
ATOM      3  O   UNL A   1      29.135  27.606  23.199  1.00  0.00    -0.376 OA
BRANCH   3   4
ATOM      4  C   UNL A   1      30.118  28.364  23.876  1.00  0.00     0.202 C 
BRANCH   4   5
ATOM      5  C   UNL A   1      31.524  28.498  23.265  1.00  0.00     0.261 C 
BRANCH   5   6
ATOM      6  O   UNL A   1      32.251  27.278  23.008  1.00  0.00    -0.463 OA
BRANCH   6   7
ATOM      7  C   UNL A   1      33.535  27.195  23.424  1.00  0.00     0.310 C 
ATOM      8  O   UNL A   1      34.034  27.971  24.233  1.00  0.00    -0.252 OA
BRANCH   7   9
ATOM      9  C   UNL A   1      34.335  26.037  22.797  1.00  0.00     0.159 C 
BRANCH   9  10
ATOM     10  C   UNL A   1      34.063  24.600  23.158  1.00  0.00    -0.025 C 
ATOM     11  C   UNL A   1      31.818  24.226  22.021  1.00  0.00     0.045 C 
ATOM     12  C   UNL A   1      33.004  23.818  22.830  1.00  0.00    -0.039 C 
ATOM     13  C   UNL A   1      33.185  22.452  23.369  1.00  0.00    -0.014 C 
ATOM     14  C   UNL A   1      35.022  23.741  23.891  1.00  0.00    -0.011 A 
ATOM     15  C   UNL A   1      34.495  22.442  24.047  1.00  0.00    -0.010 A 
ATOM     16  C   UNL A   1      32.302  21.439  23.247  1.00  0.00     0.017 C 
ATOM     17  C   UNL A   1      36.263  24.059  24.431  1.00  0.00     0.048 A 
ATOM     18  C   UNL A   1      35.200  21.465  24.743  1.00  0.00     0.012 A 
ATOM     19  C   UNL A   1      36.947  23.078  25.150  1.00  0.00     0.123 A 
ATOM     20  C   UNL A   1      36.431  21.792  25.309  1.00  0.00     0.040 A 
ATOM     21  F   UNL A   1      38.117  23.382  25.728  1.00  0.00    -0.207 F 
BRANCH  16  22
ATOM     22  C   UNL A   1      32.457  20.083  23.797  1.00  0.00    -0.025 A 
ATOM     23  C   UNL A   1      32.350  19.868  25.176  1.00  0.00     0.013 A 
ATOM     24  C   UNL A   1      32.811  19.014  22.967  1.00  0.00     0.013 A 
ATOM     25  C   UNL A   1      32.677  18.624  25.729  1.00  0.00     0.061 A 
ATOM     26  C   UNL A   1      33.126  17.766  23.519  1.00  0.00     0.061 A 
ATOM     27  C   UNL A   1      33.088  17.568  24.906  1.00  0.00     0.152 A 
BRANCH  27  28
ATOM     28  S   UNL A   1      33.735  16.031  25.617  1.00  0.00    -0.018 S 
ATOM     29  C   UNL A   1      32.222  15.050  25.667  1.00  0.00     0.346 C 
ATOM     30  O   UNL A   1      34.688  15.389  24.546  1.00  0.00    -0.612 OA
ENDBRANCH  27  28
ENDBRANCH  16  22
ENDBRANCH   9  10
ENDBRANCH   7   9
ENDBRANCH   6   7
ENDBRANCH   5   6
ENDBRANCH   4   5
ENDBRANCH   3   4
ENDBRANCH   2   3
ENDBRANCH   1   2
BRANCH   1  31
ATOM     31  O   UNL A   1      30.658  25.089  25.161  1.00  0.00    -0.377 OA
BRANCH  31  32
ATOM     32  C   UNL A   1      31.721  25.494  25.995  1.00  0.00     0.188 C 
BRANCH  32  33
ATOM     33  C   UNL A   1      31.417  26.657  26.948  1.00  0.00     0.188 C 
BRANCH  33  34
ATOM     34  O   UNL A   1      32.207  27.818  26.716  1.00  0.00    -0.376 OA
BRANCH  34  35
ATOM     35  C   UNL A   1      31.744  29.026  27.309  1.00  0.00     0.202 C 
BRANCH  35  36
ATOM     36  C   UNL A   1      32.018  30.313  26.517  1.00  0.00     0.261 C 
BRANCH  36  37
ATOM     37  O   UNL A   1      33.378  30.770  26.508  1.00  0.00    -0.460 OA
BRANCH  37  38
ATOM     38  C   UNL A   1      33.735  31.730  27.381  1.00  0.00     0.338 C 
ATOM     39  O   UNL A   1      33.090  32.706  27.721  1.00  0.00    -0.246 OA
BRANCH  38  40
ATOM     40  C   UNL A   1      34.999  31.290  28.005  1.00  0.00     0.060 A 
ATOM     41  C   UNL A   1      36.059  32.187  28.168  1.00  0.00     0.016 A 
ATOM     42  C   UNL A   1      35.142  29.946  28.375  1.00  0.00     0.016 A 
ATOM     43  C   UNL A   1      37.261  31.743  28.716  1.00  0.00     0.010 A 
ATOM     44  C   UNL A   1      36.353  29.496  28.900  1.00  0.00     0.010 A 
ATOM     45  C   UNL A   1      37.410  30.398  29.096  1.00  0.00    -0.014 A 
BRANCH  45  46
ATOM     46  C   UNL A   1      38.585  29.988  29.899  1.00  0.00     0.031 A 
ATOM     47  C   UNL A   1      38.847  30.526  31.269  1.00  0.00     0.074 A 
ATOM     48  C   UNL A   1      39.434  29.114  29.329  1.00  0.00     0.049 A 
ATOM     49  N   UNL A   1      39.816  30.220  32.096  1.00  0.00    -0.248 NA
ATOM     50  C   UNL A   1      37.913  31.538  31.780  1.00  0.00     0.031 C 
ATOM     51  C   UNL A   1      39.275  28.552  27.987  1.00  0.00     0.029 A 
ATOM     52  N   UNL A   1      40.590  28.547  29.795  1.00  0.00    -0.354 N 
ATOM     53  C   UNL A   1      39.600  30.982  33.235  1.00  0.00     0.074 A 
ATOM     54  C   UNL A   1      38.430  31.798  32.976  1.00  0.00     0.031 C 
ATOM     55  C   UNL A   1      40.288  27.710  27.741  1.00  0.00     0.029 A 
ATOM     56  C   UNL A   1      41.176  27.690  28.897  1.00  0.00     0.049 A 
ATOM     57  H   UNL A   1      40.964  28.735  30.686  1.00  0.00     0.167 HD
ATOM     58  C   UNL A   1      40.311  30.981  34.388  1.00  0.00     0.037 A 
ATOM     59  C   UNL A   1      42.307  26.968  28.995  1.00  0.00     0.037 A 
ATOM     60  C   UNL A   1      41.487  30.176  34.619  1.00  0.00     0.049 A 
ATOM     61  C   UNL A   1      43.099  27.025  30.268  1.00  0.00     0.074 A 
ATOM     62  C   UNL A   1      42.254  30.077  35.767  1.00  0.00     0.029 A 
ATOM     63  N   UNL A   1      42.076  29.343  33.676  1.00  0.00    -0.354 N 
ATOM     64  N   UNL A   1      42.846  27.693  31.366  1.00  0.00    -0.248 NA
ATOM     65  C   UNL A   1      44.328  26.224  30.318  1.00  0.00     0.031 C 
ATOM     66  C   UNL A   1      43.334  29.227  35.504  1.00  0.00     0.029 A 
ATOM     67  C   UNL A   1      43.213  28.753  34.207  1.00  0.00     0.049 A 
ATOM     68  H   UNL A   1      41.736  29.194  32.764  1.00  0.00     0.167 HD
ATOM     69  C   UNL A   1      43.872  27.382  32.245  1.00  0.00     0.074 A 
ATOM     70  C   UNL A   1      44.742  26.449  31.558  1.00  0.00     0.031 C 
ATOM     71  C   UNL A   1      44.074  27.832  33.507  1.00  0.00     0.037 A 
BRANCH  58  72
ATOM     72  C   UNL A   1      39.842  31.865  35.508  1.00  0.00     0.064 A 
ATOM     73  C   UNL A   1      40.333  33.170  35.661  1.00  0.00     0.173 A 
ATOM     74  C   UNL A   1      38.823  31.445  36.377  1.00  0.00     0.173 A 
ATOM     75  F   UNL A   1      41.310  33.622  34.859  1.00  0.00    -0.203 F 
ATOM     76  C   UNL A   1      39.831  34.015  36.647  1.00  0.00     0.198 A 
ATOM     77  C   UNL A   1      38.306  32.301  37.345  1.00  0.00     0.198 A 
ATOM     78  F   UNL A   1      38.308  30.210  36.268  1.00  0.00    -0.203 F 
ATOM     79  F   UNL A   1      40.334  35.251  36.788  1.00  0.00    -0.200 F 
ATOM     80  C   UNL A   1      38.812  33.585  37.482  1.00  0.00     0.200 A 
ATOM     81  F   UNL A   1      37.309  31.888  38.141  1.00  0.00    -0.200 F 
ATOM     82  F   UNL A   1      38.316  34.406  38.418  1.00  0.00    -0.200 F 
ENDBRANCH  58  72
BRANCH  59  83
ATOM     83  C   UNL A   1      42.714  26.101  27.863  1.00  0.00     0.064 A 
ATOM     84  C   UNL A   1      42.187  24.811  27.725  1.00  0.00     0.173 A 
ATOM     85  C   UNL A   1      43.589  26.562  26.867  1.00  0.00     0.173 A 
ATOM     86  F   UNL A   1      41.355  24.325  28.658  1.00  0.00    -0.203 F 
ATOM     87  C   UNL A   1      42.526  24.009  26.638  1.00  0.00     0.198 A 
ATOM     88  C   UNL A   1      43.906  25.769  25.767  1.00  0.00     0.198 A 
ATOM     89  F   UNL A   1      44.108  27.796  26.949  1.00  0.00    -0.203 F 
ATOM     90  F   UNL A   1      42.026  22.770  26.542  1.00  0.00    -0.200 F 
ATOM     91  C   UNL A   1      43.377  24.493  25.655  1.00  0.00     0.200 A 
ATOM     92  F   UNL A   1      44.712  26.247  24.810  1.00  0.00    -0.200 F 
ATOM     93  F   UNL A   1      43.687  23.727  24.600  1.00  0.00    -0.200 F 
ENDBRANCH  59  83
BRANCH  71  94
ATOM     94  C   UNL A   1      45.284  27.321  34.233  1.00  0.00     0.064 A 
ATOM     95  C   UNL A   1      46.498  28.024  34.216  1.00  0.00     0.173 A 
ATOM     96  C   UNL A   1      45.215  26.146  34.996  1.00  0.00     0.173 A 
ATOM     97  F   UNL A   1      46.619  29.143  33.486  1.00  0.00    -0.203 F 
ATOM     98  C   UNL A   1      47.603  27.561  34.924  1.00  0.00     0.198 A 
ATOM     99  C   UNL A   1      46.314  25.702  35.728  1.00  0.00     0.198 A 
ATOM    100  F   UNL A   1      44.077  25.439  35.050  1.00  0.00    -0.203 F 
ATOM    101  F   UNL A   1      48.763  28.229  34.863  1.00  0.00    -0.200 F 
ATOM    102  C   UNL A   1      47.507  26.407  35.687  1.00  0.00     0.200 A 
ATOM    103  F   UNL A   1      46.217  24.593  36.475  1.00  0.00    -0.200 F 
ATOM    104  F   UNL A   1      48.568  25.970  36.381  1.00  0.00    -0.200 F 
ENDBRANCH  71  94
ENDBRANCH  45  46
ENDBRANCH  38  40
ENDBRANCH  37  38
ENDBRANCH  36  37
ENDBRANCH  35  36
ENDBRANCH  34  35
ENDBRANCH  33  34
ENDBRANCH  32  33
ENDBRANCH  31  32
ENDBRANCH   1  31
TORSDOF 23
ENDMDL
MODEL 2
REMARK VINA RESULT:     -10.7      0.423      6.919
REMARK SMILES CC1=C(CC(=O)OCCOCCOCCOCCOC(=O)c2ccc(-c3c4nc(c(-c5c(F)c(F)c(F)c(F)c5F)c5ccc([nH]5)c(-c5c(F)c(F)c(F)c(F)c5F)c5nc(c(-c6c(F)c(F)c(F)c(F)c6F)c6ccc3[nH]6)C=C5)C=C4)cc2)c2cc(F)ccc2/C1=C\c1ccc([S@@+](C)[O-])cc1
REMARK SMILES IDX 12 1 11 2 10 3 9 4 8 5 7 6 5 7 6 8 4 9 3 10 1 11 2 12 92 13
REMARK SMILES IDX 85 14 91 15 93 16 86 17 90 18 87 19 89 20 88 21 94 22 95 23
REMARK SMILES IDX 102 24 96 25 101 26 97 27 98 28 99 29 100 30 13 31 14 32
REMARK SMILES IDX 15 33 16 34 17 35 18 36 19 37 20 38 21 39 22 40 23 41 84 42
REMARK SMILES IDX 24 43 83 44 25 45 26 46 27 47 77 48 28 49 82 50 76 51 78 52
REMARK SMILES IDX 29 53 81 54 75 55 74 56 30 58 62 59 42 60 61 61 43 62 46 63
REMARK SMILES IDX 60 64 79 65 44 66 45 67 59 69 80 70 47 71 31 72 32 73 40 74
REMARK SMILES IDX 33 75 34 76 38 77 41 78 35 79 36 80 39 81 37 82 63 83 64 84
REMARK SMILES IDX 72 85 65 86 66 87 70 88 73 89 67 90 68 91 71 92 69 93 48 94
REMARK SMILES IDX 49 95 57 96 50 97 51 98 55 99 58 100 52 101 53 102 56 103
REMARK SMILES IDX 54 104
REMARK H PARENT 78 57 46 68
REMARK Flexibility Score: inf
ROOT
ATOM      1  C   UNL A   1      29.557  26.171  24.703  1.00  0.00     0.188 C 
ENDROOT
BRANCH   1   2
ATOM      2  C   UNL A   1      29.331  26.927  23.377  1.00  0.00     0.188 C 
BRANCH   2   3
ATOM      3  O   UNL A   1      29.441  28.330  23.513  1.00  0.00    -0.376 OA
BRANCH   3   4
ATOM      4  C   UNL A   1      30.713  28.876  23.804  1.00  0.00     0.202 C 
BRANCH   4   5
ATOM      5  C   UNL A   1      31.889  28.604  22.850  1.00  0.00     0.261 C 
BRANCH   5   6
ATOM      6  O   UNL A   1      32.401  27.256  22.800  1.00  0.00    -0.463 OA
BRANCH   6   7
ATOM      7  C   UNL A   1      33.553  26.980  23.453  1.00  0.00     0.310 C 
ATOM      8  O   UNL A   1      33.929  27.596  24.445  1.00  0.00    -0.252 OA
BRANCH   7   9
ATOM      9  C   UNL A   1      34.366  25.818  22.850  1.00  0.00     0.159 C 
BRANCH   9  10
ATOM     10  C   UNL A   1      34.097  24.385  23.226  1.00  0.00    -0.025 C 
ATOM     11  C   UNL A   1      31.820  24.015  22.152  1.00  0.00     0.045 C 
ATOM     12  C   UNL A   1      33.026  23.606  22.930  1.00  0.00    -0.039 C 
ATOM     13  C   UNL A   1      33.215  22.242  23.471  1.00  0.00    -0.014 C 
ATOM     14  C   UNL A   1      35.072  23.525  23.936  1.00  0.00    -0.011 A 
ATOM     15  C   UNL A   1      34.543  22.229  24.113  1.00  0.00    -0.010 A 
ATOM     16  C   UNL A   1      32.325  21.232  23.378  1.00  0.00     0.017 C 
ATOM     17  C   UNL A   1      36.329  23.840  24.440  1.00  0.00     0.048 A 
ATOM     18  C   UNL A   1      35.264  21.252  24.794  1.00  0.00     0.012 A 
ATOM     19  C   UNL A   1      37.028  22.859  25.145  1.00  0.00     0.123 A 
ATOM     20  C   UNL A   1      36.511  21.577  25.324  1.00  0.00     0.040 A 
ATOM     21  F   UNL A   1      38.215  23.161  25.688  1.00  0.00    -0.207 F 
BRANCH  16  22
ATOM     22  C   UNL A   1      32.489  19.878  23.931  1.00  0.00    -0.025 A 
ATOM     23  C   UNL A   1      32.481  19.680  25.317  1.00  0.00     0.013 A 
ATOM     24  C   UNL A   1      32.754  18.793  23.089  1.00  0.00     0.013 A 
ATOM     25  C   UNL A   1      32.820  18.433  25.858  1.00  0.00     0.061 A 
ATOM     26  C   UNL A   1      33.080  17.543  23.630  1.00  0.00     0.061 A 
ATOM     27  C   UNL A   1      33.142  17.360  25.018  1.00  0.00     0.152 A 
BRANCH  27  28
ATOM     28  S   UNL A   1      33.805  15.814  25.696  1.00  0.00    -0.018 S 
ATOM     29  C   UNL A   1      32.408  14.715  25.389  1.00  0.00     0.346 C 
ATOM     30  O   UNL A   1      34.984  15.365  24.760  1.00  0.00    -0.612 OA
ENDBRANCH  27  28
ENDBRANCH  16  22
ENDBRANCH   9  10
ENDBRANCH   7   9
ENDBRANCH   6   7
ENDBRANCH   5   6
ENDBRANCH   4   5
ENDBRANCH   3   4
ENDBRANCH   2   3
ENDBRANCH   1   2
BRANCH   1  31
ATOM     31  O   UNL A   1      30.641  25.278  24.931  1.00  0.00    -0.377 OA
BRANCH  31  32
ATOM     32  C   UNL A   1      31.522  25.536  26.001  1.00  0.00     0.188 C 
BRANCH  32  33
ATOM     33  C   UNL A   1      31.153  26.725  26.898  1.00  0.00     0.188 C 
BRANCH  33  34
ATOM     34  O   UNL A   1      32.135  27.757  26.926  1.00  0.00    -0.376 OA
BRANCH  34  35
ATOM     35  C   UNL A   1      31.746  28.981  27.537  1.00  0.00     0.202 C 
BRANCH  35  36
ATOM     36  C   UNL A   1      31.944  30.248  26.692  1.00  0.00     0.261 C 
BRANCH  36  37
ATOM     37  O   UNL A   1      33.298  30.696  26.536  1.00  0.00    -0.460 OA
BRANCH  37  38
ATOM     38  C   UNL A   1      33.727  31.712  27.309  1.00  0.00     0.338 C 
ATOM     39  O   UNL A   1      33.140  32.745  27.577  1.00  0.00    -0.246 OA
BRANCH  38  40
ATOM     40  C   UNL A   1      34.988  31.267  27.935  1.00  0.00     0.060 A 
ATOM     41  C   UNL A   1      36.037  32.171  28.138  1.00  0.00     0.016 A 
ATOM     42  C   UNL A   1      35.141  29.915  28.267  1.00  0.00     0.016 A 
ATOM     43  C   UNL A   1      37.237  31.723  28.687  1.00  0.00     0.010 A 
ATOM     44  C   UNL A   1      36.351  29.462  28.794  1.00  0.00     0.010 A 
ATOM     45  C   UNL A   1      37.396  30.369  29.030  1.00  0.00    -0.014 A 
BRANCH  45  46
ATOM     46  C   UNL A   1      38.565  29.949  29.835  1.00  0.00     0.031 A 
ATOM     47  C   UNL A   1      39.590  28.990  29.319  1.00  0.00     0.074 A 
ATOM     48  C   UNL A   1      38.662  30.456  31.077  1.00  0.00     0.049 A 
ATOM     49  N   UNL A   1      40.684  28.569  29.904  1.00  0.00    -0.248 NA
ATOM     50  C   UNL A   1      39.362  28.422  27.983  1.00  0.00     0.031 C 
ATOM     51  C   UNL A   1      37.698  31.381  31.676  1.00  0.00     0.029 A 
ATOM     52  N   UNL A   1      39.602  30.271  32.055  1.00  0.00    -0.354 N 
ATOM     53  C   UNL A   1      41.290  27.705  29.004  1.00  0.00     0.074 A 
ATOM     54  C   UNL A   1      40.419  27.628  27.848  1.00  0.00     0.031 C 
ATOM     55  C   UNL A   1      38.103  31.694  32.915  1.00  0.00     0.029 A 
ATOM     56  C   UNL A   1      39.339  30.976  33.203  1.00  0.00     0.049 A 
ATOM     57  H   UNL A   1      40.389  29.690  31.946  1.00  0.00     0.167 HD
ATOM     58  C   UNL A   1      42.472  27.055  29.136  1.00  0.00     0.037 A 
ATOM     59  C   UNL A   1      40.020  31.038  34.361  1.00  0.00     0.037 A 
ATOM     60  C   UNL A   1      43.315  27.128  30.305  1.00  0.00     0.049 A 
ATOM     61  C   UNL A   1      41.301  30.267  34.494  1.00  0.00     0.074 A 
ATOM     62  C   UNL A   1      44.548  26.535  30.519  1.00  0.00     0.029 A 
ATOM     63  N   UNL A   1      43.003  27.824  31.466  1.00  0.00    -0.354 N 
ATOM     64  N   UNL A   1      41.903  29.511  33.609  1.00  0.00    -0.248 NA
ATOM     65  C   UNL A   1      42.000  30.364  35.781  1.00  0.00     0.031 C 
ATOM     66  C   UNL A   1      44.958  26.830  31.824  1.00  0.00     0.029 A 
ATOM     67  C   UNL A   1      44.006  27.650  32.408  1.00  0.00     0.049 A 
ATOM     68  H   UNL A   1      42.190  28.363  31.600  1.00  0.00     0.167 HD
ATOM     69  C   UNL A   1      43.059  29.055  34.223  1.00  0.00     0.074 A 
ATOM     70  C   UNL A   1      43.083  29.634  35.550  1.00  0.00     0.031 C 
ATOM     71  C   UNL A   1      44.012  28.227  33.730  1.00  0.00     0.037 A 
BRANCH  58  72
ATOM     72  C   UNL A   1      42.945  26.210  27.988  1.00  0.00     0.064 A 
ATOM     73  C   UNL A   1      42.491  24.893  27.816  1.00  0.00     0.173 A 
ATOM     74  C   UNL A   1      43.779  26.748  26.996  1.00  0.00     0.173 A 
ATOM     75  F   UNL A   1      41.694  24.330  28.736  1.00  0.00    -0.203 F 
ATOM     76  C   UNL A   1      42.865  24.145  26.703  1.00  0.00     0.198 A 
ATOM     77  C   UNL A   1      44.130  26.006  25.871  1.00  0.00     0.198 A 
ATOM     78  F   UNL A   1      44.233  28.007  27.104  1.00  0.00    -0.203 F 
ATOM     79  F   UNL A   1      42.437  22.881  26.573  1.00  0.00    -0.200 F 
ATOM     80  C   UNL A   1      43.675  24.704  25.726  1.00  0.00     0.200 A 
ATOM     81  F   UNL A   1      44.901  26.553  24.921  1.00  0.00    -0.200 F 
ATOM     82  F   UNL A   1      44.018  23.989  24.646  1.00  0.00    -0.200 F 
ENDBRANCH  58  72
BRANCH  59  83
ATOM     83  C   UNL A   1      39.513  31.900  35.456  1.00  0.00     0.064 A 
ATOM     84  C   UNL A   1      38.579  31.410  36.376  1.00  0.00     0.173 A 
ATOM     85  C   UNL A   1      39.993  33.206  35.639  1.00  0.00     0.173 A 
ATOM     86  F   UNL A   1      38.085  30.172  36.234  1.00  0.00    -0.203 F 
ATOM     87  C   UNL A   1      38.136  32.198  37.437  1.00  0.00     0.198 A 
ATOM     88  C   UNL A   1      39.569  33.982  36.715  1.00  0.00     0.198 A 
ATOM     89  F   UNL A   1      40.900  33.714  34.791  1.00  0.00    -0.203 F 
ATOM     90  F   UNL A   1      37.223  31.714  38.290  1.00  0.00    -0.200 F 
ATOM     91  C   UNL A   1      38.638  33.479  37.610  1.00  0.00     0.200 A 
ATOM     92  F   UNL A   1      40.072  35.212  36.891  1.00  0.00    -0.200 F 
ATOM     93  F   UNL A   1      38.225  34.227  38.642  1.00  0.00    -0.200 F 
ENDBRANCH  59  83
BRANCH  71  94
ATOM     94  C   UNL A   1      45.167  27.898  34.629  1.00  0.00     0.064 A 
ATOM     95  C   UNL A   1      45.178  26.730  35.407  1.00  0.00     0.173 A 
ATOM     96  C   UNL A   1      46.298  28.728  34.673  1.00  0.00     0.173 A 
ATOM     97  F   UNL A   1      44.113  25.914  35.414  1.00  0.00    -0.203 F 
ATOM     98  C   UNL A   1      46.272  26.414  36.208  1.00  0.00     0.198 A 
ATOM     99  C   UNL A   1      47.402  28.393  35.452  1.00  0.00     0.198 A 
ATOM    100  F   UNL A   1      46.340  29.853  33.944  1.00  0.00    -0.203 F 
ATOM    101  F   UNL A   1      46.244  25.314  36.972  1.00  0.00    -0.200 F 
ATOM    102  C   UNL A   1      47.385  27.240  36.222  1.00  0.00     0.200 A 
ATOM    103  F   UNL A   1      48.483  29.185  35.455  1.00  0.00    -0.200 F 
ATOM    104  F   UNL A   1      48.445  26.927  36.982  1.00  0.00    -0.200 F 
ENDBRANCH  71  94
ENDBRANCH  45  46
ENDBRANCH  38  40
ENDBRANCH  37  38
ENDBRANCH  36  37
ENDBRANCH  35  36
ENDBRANCH  34  35
ENDBRANCH  33  34
ENDBRANCH  32  33
ENDBRANCH  31  32
ENDBRANCH   1  31
TORSDOF 23
ENDMDL
MODEL 3
REMARK VINA RESULT:     -10.4      2.648      8.539
REMARK SMILES CC1=C(CC(=O)OCCOCCOCCOCCOC(=O)c2ccc(-c3c4nc(c(-c5c(F)c(F)c(F)c(F)c5F)c5ccc([nH]5)c(-c5c(F)c(F)c(F)c(F)c5F)c5nc(c(-c6c(F)c(F)c(F)c(F)c6F)c6ccc3[nH]6)C=C5)C=C4)cc2)c2cc(F)ccc2/C1=C\c1ccc([S@@+](C)[O-])cc1
REMARK SMILES IDX 12 1 11 2 10 3 9 4 8 5 7 6 5 7 6 8 4 9 3 10 1 11 2 12 92 13
REMARK SMILES IDX 85 14 91 15 93 16 86 17 90 18 87 19 89 20 88 21 94 22 95 23
REMARK SMILES IDX 102 24 96 25 101 26 97 27 98 28 99 29 100 30 13 31 14 32
REMARK SMILES IDX 15 33 16 34 17 35 18 36 19 37 20 38 21 39 22 40 23 41 84 42
REMARK SMILES IDX 24 43 83 44 25 45 26 46 27 47 77 48 28 49 82 50 76 51 78 52
REMARK SMILES IDX 29 53 81 54 75 55 74 56 30 58 62 59 42 60 61 61 43 62 46 63
REMARK SMILES IDX 60 64 79 65 44 66 45 67 59 69 80 70 47 71 31 72 32 73 40 74
REMARK SMILES IDX 33 75 34 76 38 77 41 78 35 79 36 80 39 81 37 82 63 83 64 84
REMARK SMILES IDX 72 85 65 86 66 87 70 88 73 89 67 90 68 91 71 92 69 93 48 94
REMARK SMILES IDX 49 95 57 96 50 97 51 98 55 99 58 100 52 101 53 102 56 103
REMARK SMILES IDX 54 104
REMARK H PARENT 78 57 46 68
REMARK Flexibility Score: inf
ROOT
ATOM      1  C   UNL A   1      34.280  27.678  26.301  1.00  0.00     0.188 C 
ENDROOT
BRANCH   1   2
ATOM      2  C   UNL A   1      33.526  26.539  25.583  1.00  0.00     0.188 C 
BRANCH   2   3
ATOM      3  O   UNL A   1      33.707  25.280  26.199  1.00  0.00    -0.376 OA
BRANCH   3   4
ATOM      4  C   UNL A   1      34.662  24.396  25.646  1.00  0.00     0.202 C 
BRANCH   4   5
ATOM      5  C   UNL A   1      34.742  22.949  26.163  1.00  0.00     0.261 C 
BRANCH   5   6
ATOM      6  O   UNL A   1      34.459  21.893  25.220  1.00  0.00    -0.463 OA
BRANCH   6   7
ATOM      7  C   UNL A   1      33.436  21.051  25.486  1.00  0.00     0.310 C 
ATOM      8  O   UNL A   1      33.490  20.172  26.341  1.00  0.00    -0.252 OA
BRANCH   7   9
ATOM      9  C   UNL A   1      32.180  21.280  24.622  1.00  0.00     0.159 C 
BRANCH   9  10
ATOM     10  C   UNL A   1      31.664  22.664  24.327  1.00  0.00    -0.025 C 
ATOM     11  C   UNL A   1      30.350  23.160  26.448  1.00  0.00     0.045 C 
ATOM     12  C   UNL A   1      30.894  23.475  25.095  1.00  0.00    -0.039 C 
ATOM     13  C   UNL A   1      30.670  24.769  24.414  1.00  0.00    -0.014 C 
ATOM     14  C   UNL A   1      32.028  23.435  23.115  1.00  0.00    -0.011 A 
ATOM     15  C   UNL A   1      31.414  24.705  23.141  1.00  0.00    -0.010 A 
ATOM     16  C   UNL A   1      29.923  25.787  24.892  1.00  0.00     0.017 C 
ATOM     17  C   UNL A   1      32.809  23.060  22.028  1.00  0.00     0.048 A 
ATOM     18  C   UNL A   1      31.576  25.597  22.086  1.00  0.00     0.012 A 
ATOM     19  C   UNL A   1      32.940  23.953  20.964  1.00  0.00     0.123 A 
ATOM     20  C   UNL A   1      32.336  25.210  20.983  1.00  0.00     0.040 A 
ATOM     21  F   UNL A   1      33.640  23.588  19.882  1.00  0.00    -0.207 F 
BRANCH  16  22
ATOM     22  C   UNL A   1      29.673  27.070  24.216  1.00  0.00    -0.025 A 
ATOM     23  C   UNL A   1      30.651  28.072  24.228  1.00  0.00     0.013 A 
ATOM     24  C   UNL A   1      28.426  27.341  23.644  1.00  0.00     0.013 A 
ATOM     25  C   UNL A   1      30.357  29.356  23.753  1.00  0.00     0.061 A 
ATOM     26  C   UNL A   1      28.137  28.622  23.157  1.00  0.00     0.061 A 
ATOM     27  C   UNL A   1      29.090  29.647  23.232  1.00  0.00     0.152 A 
BRANCH  27  28
ATOM     28  S   UNL A   1      28.618  31.351  22.829  1.00  0.00    -0.018 S 
ATOM     29  C   UNL A   1      28.439  31.210  21.040  1.00  0.00     0.346 C 
ATOM     30  O   UNL A   1      27.189  31.592  23.437  1.00  0.00    -0.612 OA
ENDBRANCH  27  28
ENDBRANCH  16  22
ENDBRANCH   9  10
ENDBRANCH   7   9
ENDBRANCH   6   7
ENDBRANCH   5   6
ENDBRANCH   4   5
ENDBRANCH   3   4
ENDBRANCH   2   3
ENDBRANCH   1   2
BRANCH   1  31
ATOM     31  O   UNL A   1      33.766  28.381  27.427  1.00  0.00    -0.377 OA
BRANCH  31  32
ATOM     32  C   UNL A   1      32.509  29.012  27.319  1.00  0.00     0.188 C 
BRANCH  32  33
ATOM     33  C   UNL A   1      32.513  30.404  26.673  1.00  0.00     0.188 C 
BRANCH  33  34
ATOM     34  O   UNL A   1      31.336  31.164  26.926  1.00  0.00    -0.376 OA
BRANCH  34  35
ATOM     35  C   UNL A   1      31.231  32.409  26.247  1.00  0.00     0.202 C 
BRANCH  35  36
ATOM     36  C   UNL A   1      31.792  33.630  26.989  1.00  0.00     0.261 C 
BRANCH  36  37
ATOM     37  O   UNL A   1      33.003  33.418  27.728  1.00  0.00    -0.460 OA
BRANCH  37  38
ATOM     38  C   UNL A   1      33.376  34.350  28.625  1.00  0.00     0.338 C 
ATOM     39  O   UNL A   1      32.807  35.392  28.898  1.00  0.00    -0.246 OA
BRANCH  38  40
ATOM     40  C   UNL A   1      34.525  33.792  29.366  1.00  0.00     0.060 A 
ATOM     41  C   UNL A   1      34.320  32.904  30.427  1.00  0.00     0.016 A 
ATOM     42  C   UNL A   1      35.819  34.212  29.030  1.00  0.00     0.016 A 
ATOM     43  C   UNL A   1      35.414  32.423  31.145  1.00  0.00     0.010 A 
ATOM     44  C   UNL A   1      36.911  33.750  29.765  1.00  0.00     0.010 A 
ATOM     45  C   UNL A   1      36.716  32.834  30.810  1.00  0.00    -0.014 A 
BRANCH  45  46
ATOM     46  C   UNL A   1      37.880  32.139  31.403  1.00  0.00     0.031 A 
ATOM     47  C   UNL A   1      38.619  31.056  30.684  1.00  0.00     0.074 A 
ATOM     48  C   UNL A   1      38.243  32.512  32.644  1.00  0.00     0.049 A 
ATOM     49  N   UNL A   1      39.680  30.393  31.072  1.00  0.00    -0.248 NA
ATOM     50  C   UNL A   1      38.105  30.656  29.367  1.00  0.00     0.031 C 
ATOM     51  C   UNL A   1      37.568  33.543  33.434  1.00  0.00     0.029 A 
ATOM     52  N   UNL A   1      39.254  32.074  33.457  1.00  0.00    -0.354 N 
ATOM     53  C   UNL A   1      39.978  29.513  30.043  1.00  0.00     0.074 A 
ATOM     54  C   UNL A   1      38.959  29.696  29.028  1.00  0.00     0.031 C 
ATOM     55  C   UNL A   1      38.191  33.669  34.614  1.00  0.00     0.029 A 
ATOM     56  C   UNL A   1      39.293  32.715  34.670  1.00  0.00     0.049 A 
ATOM     57  H   UNL A   1      39.891  31.371  33.197  1.00  0.00     0.167 HD
ATOM     58  C   UNL A   1      41.018  28.648  29.957  1.00  0.00     0.037 A 
ATOM     59  C   UNL A   1      40.125  32.552  35.714  1.00  0.00     0.037 A 
ATOM     60  C   UNL A   1      42.012  28.465  30.989  1.00  0.00     0.049 A 
ATOM     61  C   UNL A   1      41.238  31.551  35.608  1.00  0.00     0.074 A 
ATOM     62  C   UNL A   1      43.124  27.640  30.980  1.00  0.00     0.029 A 
ATOM     63  N   UNL A   1      42.003  29.105  32.221  1.00  0.00    -0.354 N 
ATOM     64  N   UNL A   1      41.555  30.776  34.600  1.00  0.00    -0.248 NA
ATOM     65  C   UNL A   1      42.111  31.407  36.778  1.00  0.00     0.031 C 
ATOM     66  C   UNL A   1      43.757  27.742  32.223  1.00  0.00     0.029 A 
ATOM     67  C   UNL A   1      43.072  28.670  32.990  1.00  0.00     0.049 A 
ATOM     68  H   UNL A   1      41.336  29.770  32.507  1.00  0.00     0.167 HD
ATOM     69  C   UNL A   1      42.673  30.064  35.005  1.00  0.00     0.074 A 
ATOM     70  C   UNL A   1      42.991  30.513  36.345  1.00  0.00     0.031 C 
ATOM     71  C   UNL A   1      43.371  29.121  34.327  1.00  0.00     0.037 A 
BRANCH  58  72
ATOM     72  C   UNL A   1      41.157  27.832  28.704  1.00  0.00     0.064 A 
ATOM     73  C   UNL A   1      40.436  26.642  28.526  1.00  0.00     0.173 A 
ATOM     74  C   UNL A   1      41.937  28.291  27.631  1.00  0.00     0.173 A 
ATOM     75  F   UNL A   1      39.677  26.158  29.520  1.00  0.00    -0.203 F 
ATOM     76  C   UNL A   1      40.502  25.936  27.327  1.00  0.00     0.198 A 
ATOM     77  C   UNL A   1      41.980  27.595  26.425  1.00  0.00     0.198 A 
ATOM     78  F   UNL A   1      42.638  29.430  27.743  1.00  0.00    -0.203 F 
ATOM     79  F   UNL A   1      39.822  24.788  27.190  1.00  0.00    -0.200 F 
ATOM     80  C   UNL A   1      41.265  26.417  26.275  1.00  0.00     0.200 A 
ATOM     81  F   UNL A   1      42.706  28.071  25.403  1.00  0.00    -0.200 F 
ATOM     82  F   UNL A   1      41.311  25.746  25.115  1.00  0.00    -0.200 F 
ENDBRANCH  58  72
BRANCH  59  83
ATOM     83  C   UNL A   1      39.950  33.396  36.921  1.00  0.00     0.064 A 
ATOM     84  C   UNL A   1      39.046  33.027  37.925  1.00  0.00     0.173 A 
ATOM     85  C   UNL A   1      40.719  34.552  37.122  1.00  0.00     0.173 A 
ATOM     86  F   UNL A   1      38.282  31.936  37.771  1.00  0.00    -0.203 F 
ATOM     87  C   UNL A   1      38.913  33.788  39.085  1.00  0.00     0.198 A 
ATOM     88  C   UNL A   1      40.603  35.296  38.293  1.00  0.00     0.198 A 
ATOM     89  F   UNL A   1      41.608  34.937  36.194  1.00  0.00    -0.203 F 
ATOM     90  F   UNL A   1      38.024  33.426  40.020  1.00  0.00    -0.200 F 
ATOM     91  C   UNL A   1      39.698  34.916  39.271  1.00  0.00     0.200 A 
ATOM     92  F   UNL A   1      41.378  36.373  38.480  1.00  0.00    -0.200 F 
ATOM     93  F   UNL A   1      39.582  35.635  40.395  1.00  0.00    -0.200 F 
ENDBRANCH  59  83
BRANCH  71  94
ATOM     94  C   UNL A   1      44.552  28.509  35.021  1.00  0.00     0.064 A 
ATOM     95  C   UNL A   1      44.435  27.317  35.751  1.00  0.00     0.173 A 
ATOM     96  C   UNL A   1      45.825  29.090  34.911  1.00  0.00     0.173 A 
ATOM     97  F   UNL A   1      43.236  26.734  35.901  1.00  0.00    -0.203 F 
ATOM     98  C   UNL A   1      45.544  26.737  36.359  1.00  0.00     0.198 A 
ATOM     99  C   UNL A   1      46.938  28.491  35.494  1.00  0.00     0.198 A 
ATOM    100  F   UNL A   1      45.992  30.227  34.219  1.00  0.00    -0.203 F 
ATOM    101  F   UNL A   1      45.402  25.619  37.083  1.00  0.00    -0.200 F 
ATOM    102  C   UNL A   1      46.796  27.319  36.221  1.00  0.00     0.200 A 
ATOM    103  F   UNL A   1      48.149  29.047  35.351  1.00  0.00    -0.200 F 
ATOM    104  F   UNL A   1      47.867  26.752  36.794  1.00  0.00    -0.200 F 
ENDBRANCH  71  94
ENDBRANCH  45  46
ENDBRANCH  38  40
ENDBRANCH  37  38
ENDBRANCH  36  37
ENDBRANCH  35  36
ENDBRANCH  34  35
ENDBRANCH  33  34
ENDBRANCH  32  33
ENDBRANCH  31  32
ENDBRANCH   1  31
TORSDOF 23
ENDMDL
