MODEL 1
REMARK VINA RESULT:     -11.2      0.000      0.000
REMARK SMILES Cc1ccc(C)c(-n2nc(C)c(C=C(C#N)C(=O)OCCOCCOCCOCCOC(=O)c3ccc(-c4c5nc(c(-c6c(F)c(F)c(F)c(F)c6F)c6ccc([nH]6)c(-c6c(F)c(F)c(F)c(F)c6F)c6nc(c(-c7c(F)c(F)c(F)c(F)c7F)c7ccc4[nH]7)C=C6)C=C5)cc3)c2Cl)c1
REMARK SMILES IDX 25 1 24 2 23 3 22 4 21 5 20 6 19 7 17 8 18 9 14 10 13 11
REMARK SMILES IDX 12 12 8 13 9 14 97 15 10 16 98 17 11 18 7 19 1 20 2 21 3 22
REMARK SMILES IDX 99 23 4 24 5 25 6 26 15 27 16 28 26 29 27 30 28 31 29 32
REMARK SMILES IDX 30 33 31 34 32 35 33 36 34 37 35 38 96 39 36 40 95 41 37 42
REMARK SMILES IDX 38 43 39 44 89 45 40 46 94 47 88 48 90 49 41 50 93 51 87 52
REMARK SMILES IDX 86 53 42 55 74 56 54 57 73 58 55 59 58 60 72 61 91 62 56 63
REMARK SMILES IDX 57 64 71 66 92 67 59 68 43 69 44 70 52 71 45 72 46 73 50 74
REMARK SMILES IDX 53 75 47 76 48 77 51 78 49 79 75 80 76 81 84 82 77 83 78 84
REMARK SMILES IDX 82 85 85 86 79 87 80 88 83 89 81 90 60 91 61 92 69 93 62 94
REMARK SMILES IDX 63 95 67 96 70 97 64 98 65 99 68 100 66 101
REMARK H PARENT 90 54 58 65
REMARK Flexibility Score: inf
ROOT
ATOM      1  O   UNL A   1      41.003  21.369  26.198  1.00  0.00    -0.377 OA
ENDROOT
BRANCH   1   2
ATOM      2  C   UNL A   1      40.148  22.466  26.491  1.00  0.00     0.188 C 
BRANCH   2   3
ATOM      3  C   UNL A   1      38.618  22.473  26.160  1.00  0.00     0.188 C 
BRANCH   3   4
ATOM      4  O   UNL A   1      37.934  21.501  25.356  1.00  0.00    -0.376 OA
BRANCH   4   5
ATOM      5  C   UNL A   1      36.635  21.566  24.753  1.00  0.00     0.202 C 
BRANCH   5   6
ATOM      6  C   UNL A   1      35.396  21.017  25.492  1.00  0.00     0.261 C 
BRANCH   6   7
ATOM      7  O   UNL A   1      34.671  20.076  24.704  1.00  0.00    -0.459 OA
BRANCH   7   8
ATOM      8  C   UNL A   1      33.386  20.013  25.056  1.00  0.00     0.348 C 
ATOM      9  O   UNL A   1      33.092  19.245  25.980  1.00  0.00    -0.245 OA
BRANCH   8  10
ATOM     10  C   UNL A   1      32.283  21.016  24.224  1.00  0.00     0.138 C 
ATOM     11  C   UNL A   1      32.625  22.279  23.633  1.00  0.00     0.040 C 
BRANCH  11  12
ATOM     12  C   UNL A   1      32.033  23.755  23.799  1.00  0.00     0.037 A 
ATOM     13  N   UNL A   1      31.340  25.940  23.461  1.00  0.00    -0.221 N 
ATOM     14  N   UNL A   1      30.351  25.266  24.041  1.00  0.00    -0.171 NA
ATOM     15  C   UNL A   1      32.420  25.027  23.290  1.00  0.00     0.140 A 
ATOM     16  C   UNL A   1      31.081  24.360  24.681  1.00  0.00     0.069 A 
ATOM     17  Cl  UNL A   1      33.855  25.605  22.592  1.00  0.00    -0.061 Cl
ATOM     18  C   UNL A   1      30.626  24.168  26.033  1.00  0.00     0.069 C 
BRANCH  13  19
ATOM     19  C   UNL A   1      31.069  27.339  23.405  1.00  0.00     0.069 A 
ATOM     20  C   UNL A   1      27.841  29.271  22.552  1.00  0.00     0.044 C 
ATOM     21  C   UNL A   1      29.203  28.939  23.092  1.00  0.00    -0.049 A 
ATOM     22  C   UNL A   1      29.893  29.883  23.850  1.00  0.00     0.004 A 
ATOM     23  C   UNL A   1      29.800  27.684  22.869  1.00  0.00     0.032 A 
ATOM     24  C   UNL A   1      31.090  29.533  24.472  1.00  0.00     0.006 A 
ATOM     25  C   UNL A   1      31.650  28.241  24.327  1.00  0.00    -0.025 A 
ATOM     26  C   UNL A   1      32.748  27.900  25.300  1.00  0.00     0.047 C 
ENDBRANCH  13  19
ENDBRANCH  11  12
BRANCH  10  27
ATOM     27  C   UNL A   1      32.310  19.707  23.448  1.00  0.00     0.107 C 
ATOM     28  N   UNL A   1      32.333  18.624  22.804  1.00  0.00    -0.192 NA
ENDBRANCH  10  27
ENDBRANCH   8  10
ENDBRANCH   7   8
ENDBRANCH   6   7
ENDBRANCH   5   6
ENDBRANCH   4   5
ENDBRANCH   3   4
ENDBRANCH   2   3
ENDBRANCH   1   2
BRANCH   1  29
ATOM     29  C   UNL A   1      41.034  20.366  27.195  1.00  0.00     0.188 C 
BRANCH  29  30
ATOM     30  C   UNL A   1      42.068  19.295  26.845  1.00  0.00     0.188 C 
BRANCH  30  31
ATOM     31  O   UNL A   1      42.775  19.633  25.670  1.00  0.00    -0.376 OA
BRANCH  31  32
ATOM     32  C   UNL A   1      44.082  19.159  25.455  1.00  0.00     0.202 C 
BRANCH  32  33
ATOM     33  C   UNL A   1      44.860  20.352  24.935  1.00  0.00     0.261 C 
BRANCH  33  34
ATOM     34  O   UNL A   1      44.182  21.582  25.346  1.00  0.00    -0.460 OA
BRANCH  34  35
ATOM     35  C   UNL A   1      44.055  22.602  24.440  1.00  0.00     0.338 C 
ATOM     36  O   UNL A   1      43.971  22.441  23.215  1.00  0.00    -0.246 OA
BRANCH  35  37
ATOM     37  C   UNL A   1      44.162  23.947  25.125  1.00  0.00     0.060 A 
ATOM     38  C   UNL A   1      45.153  24.315  26.043  1.00  0.00     0.016 A 
ATOM     39  C   UNL A   1      43.092  24.814  25.027  1.00  0.00     0.016 A 
ATOM     40  C   UNL A   1      44.965  25.434  26.944  1.00  0.00     0.010 A 
ATOM     41  C   UNL A   1      42.865  25.811  26.002  1.00  0.00     0.010 A 
ATOM     42  C   UNL A   1      43.732  26.138  27.080  1.00  0.00    -0.014 A 
BRANCH  42  43
ATOM     43  C   UNL A   1      43.619  27.419  28.162  1.00  0.00     0.031 A 
ATOM     44  C   UNL A   1      44.909  28.087  27.889  1.00  0.00     0.074 A 
ATOM     45  C   UNL A   1      42.693  28.305  28.878  1.00  0.00     0.049 A 
ATOM     46  N   UNL A   1      45.756  28.439  28.791  1.00  0.00    -0.248 NA
ATOM     47  C   UNL A   1      45.419  28.305  26.512  1.00  0.00     0.031 C 
ATOM     48  C   UNL A   1      42.195  28.000  30.227  1.00  0.00     0.029 A 
ATOM     49  N   UNL A   1      41.735  29.389  28.664  1.00  0.00    -0.354 N 
ATOM     50  C   UNL A   1      46.393  29.469  28.139  1.00  0.00     0.074 A 
ATOM     51  C   UNL A   1      46.463  29.097  26.754  1.00  0.00     0.031 C 
ATOM     52  C   UNL A   1      41.016  28.592  30.557  1.00  0.00     0.029 A 
ATOM     53  C   UNL A   1      40.521  29.427  29.462  1.00  0.00     0.049 A 
ATOM     54  H   UNL A   1      41.911  30.085  27.989  1.00  0.00     0.167 HD
ATOM     55  C   UNL A   1      46.138  30.705  28.648  1.00  0.00     0.037 A 
ATOM     56  C   UNL A   1      39.441  30.293  29.690  1.00  0.00     0.037 A 
ATOM     57  C   UNL A   1      45.709  30.639  30.038  1.00  0.00     0.049 A 
ATOM     58  C   UNL A   1      40.062  31.325  30.571  1.00  0.00     0.074 A 
ATOM     59  C   UNL A   1      46.220  29.934  31.117  1.00  0.00     0.029 A 
ATOM     60  N   UNL A   1      44.406  30.949  30.365  1.00  0.00    -0.354 N 
ATOM     61  N   UNL A   1      40.474  31.077  31.788  1.00  0.00    -0.248 NA
ATOM     62  C   UNL A   1      40.773  32.388  29.862  1.00  0.00     0.031 C 
ATOM     63  C   UNL A   1      45.188  29.789  32.067  1.00  0.00     0.029 A 
ATOM     64  C   UNL A   1      44.098  30.533  31.653  1.00  0.00     0.049 A 
ATOM     65  H   UNL A   1      43.775  31.407  29.764  1.00  0.00     0.167 HD
ATOM     66  C   UNL A   1      41.811  31.446  31.708  1.00  0.00     0.074 A 
ATOM     67  C   UNL A   1      41.885  32.401  30.600  1.00  0.00     0.031 C 
ATOM     68  C   UNL A   1      42.788  30.658  32.253  1.00  0.00     0.037 A 
BRANCH  55  69
ATOM     69  C   UNL A   1      45.975  31.906  27.779  1.00  0.00     0.064 A 
ATOM     70  C   UNL A   1      46.979  32.872  27.814  1.00  0.00     0.173 A 
ATOM     71  C   UNL A   1      44.824  32.220  27.020  1.00  0.00     0.173 A 
ATOM     72  F   UNL A   1      48.095  32.651  28.521  1.00  0.00    -0.203 F 
ATOM     73  C   UNL A   1      46.840  34.086  27.144  1.00  0.00     0.198 A 
ATOM     74  C   UNL A   1      44.697  33.420  26.328  1.00  0.00     0.198 A 
ATOM     75  F   UNL A   1      43.770  31.401  26.955  1.00  0.00    -0.203 F 
ATOM     76  F   UNL A   1      47.806  35.006  27.243  1.00  0.00    -0.200 F 
ATOM     77  C   UNL A   1      45.701  34.359  26.402  1.00  0.00     0.200 A 
ATOM     78  F   UNL A   1      43.583  33.666  25.621  1.00  0.00    -0.200 F 
ATOM     79  F   UNL A   1      45.563  35.537  25.780  1.00  0.00    -0.200 F 
ENDBRANCH  55  69
BRANCH  56  80
ATOM     80  C   UNL A   1      38.018  30.557  29.091  1.00  0.00     0.064 A 
ATOM     81  C   UNL A   1      37.214  31.673  29.456  1.00  0.00     0.173 A 
ATOM     82  C   UNL A   1      37.304  29.672  28.251  1.00  0.00     0.173 A 
ATOM     83  F   UNL A   1      37.625  32.508  30.420  1.00  0.00    -0.203 F 
ATOM     84  C   UNL A   1      35.945  31.966  28.885  1.00  0.00     0.198 A 
ATOM     85  C   UNL A   1      36.056  29.976  27.639  1.00  0.00     0.198 A 
ATOM     86  F   UNL A   1      37.762  28.436  28.039  1.00  0.00    -0.203 F 
ATOM     87  F   UNL A   1      35.256  33.047  29.284  1.00  0.00    -0.200 F 
ATOM     88  C   UNL A   1      35.396  31.147  27.923  1.00  0.00     0.200 A 
ATOM     89  F   UNL A   1      35.498  29.114  26.774  1.00  0.00    -0.200 F 
ATOM     90  F   UNL A   1      34.236  31.455  27.322  1.00  0.00    -0.200 F 
ENDBRANCH  56  80
BRANCH  68  91
ATOM     91  C   UNL A   1      42.445  29.787  33.458  1.00  0.00     0.064 A 
ATOM     92  C   UNL A   1      42.401  28.386  33.478  1.00  0.00     0.173 A 
ATOM     93  C   UNL A   1      42.452  30.333  34.733  1.00  0.00     0.173 A 
ATOM     94  F   UNL A   1      43.389  27.734  32.863  1.00  0.00    -0.203 F 
ATOM     95  C   UNL A   1      41.890  27.624  34.518  1.00  0.00     0.198 A 
ATOM     96  C   UNL A   1      42.243  29.533  35.870  1.00  0.00     0.198 A 
ATOM     97  F   UNL A   1      42.823  31.610  34.898  1.00  0.00    -0.203 F 
ATOM     98  F   UNL A   1      41.749  26.297  34.370  1.00  0.00    -0.200 F 
ATOM     99  C   UNL A   1      41.872  28.200  35.755  1.00  0.00     0.200 A 
ATOM    100  F   UNL A   1      42.491  30.036  37.085  1.00  0.00    -0.200 F 
ATOM    101  F   UNL A   1      41.678  27.436  36.838  1.00  0.00    -0.200 F 
ENDBRANCH  68  91
ENDBRANCH  42  43
ENDBRANCH  35  37
ENDBRANCH  34  35
ENDBRANCH  33  34
ENDBRANCH  32  33
ENDBRANCH  31  32
ENDBRANCH  30  31
ENDBRANCH  29  30
ENDBRANCH   1  29
TORSDOF 23
ENDMDL
MODEL 2
REMARK VINA RESULT:     -11.1      4.595      9.753
REMARK SMILES Cc1ccc(C)c(-n2nc(C)c(C=C(C#N)C(=O)OCCOCCOCCOCCOC(=O)c3ccc(-c4c5nc(c(-c6c(F)c(F)c(F)c(F)c6F)c6ccc([nH]6)c(-c6c(F)c(F)c(F)c(F)c6F)c6nc(c(-c7c(F)c(F)c(F)c(F)c7F)c7ccc4[nH]7)C=C6)C=C5)cc3)c2Cl)c1
REMARK SMILES IDX 25 1 24 2 23 3 22 4 21 5 20 6 19 7 17 8 18 9 14 10 13 11
REMARK SMILES IDX 12 12 8 13 9 14 97 15 10 16 98 17 11 18 7 19 1 20 2 21 3 22
REMARK SMILES IDX 99 23 4 24 5 25 6 26 15 27 16 28 26 29 27 30 28 31 29 32
REMARK SMILES IDX 30 33 31 34 32 35 33 36 34 37 35 38 96 39 36 40 95 41 37 42
REMARK SMILES IDX 38 43 39 44 89 45 40 46 94 47 88 48 90 49 41 50 93 51 87 52
REMARK SMILES IDX 86 53 42 55 74 56 54 57 73 58 55 59 58 60 72 61 91 62 56 63
REMARK SMILES IDX 57 64 71 66 92 67 59 68 43 69 44 70 52 71 45 72 46 73 50 74
REMARK SMILES IDX 53 75 47 76 48 77 51 78 49 79 75 80 76 81 84 82 77 83 78 84
REMARK SMILES IDX 82 85 85 86 79 87 80 88 83 89 81 90 60 91 61 92 69 93 62 94
REMARK SMILES IDX 63 95 67 96 70 97 64 98 65 99 68 100 66 101
REMARK H PARENT 90 54 58 65
REMARK Flexibility Score: inf
ROOT
ATOM      1  O   UNL A   1      35.656  32.669  28.851  1.00  0.00    -0.377 OA
ENDROOT
BRANCH   1   2
ATOM      2  C   UNL A   1      35.308  31.787  27.793  1.00  0.00     0.188 C 
BRANCH   2   3
ATOM      3  C   UNL A   1      33.881  31.163  27.630  1.00  0.00     0.188 C 
BRANCH   3   4
ATOM      4  O   UNL A   1      33.468  30.292  26.568  1.00  0.00    -0.376 OA
BRANCH   4   5
ATOM      5  C   UNL A   1      32.166  30.101  25.997  1.00  0.00     0.202 C 
BRANCH   5   6
ATOM      6  C   UNL A   1      31.974  29.192  24.765  1.00  0.00     0.261 C 
BRANCH   6   7
ATOM      7  O   UNL A   1      30.597  28.972  24.467  1.00  0.00    -0.459 OA
BRANCH   7   8
ATOM      8  C   UNL A   1      30.433  28.151  23.429  1.00  0.00     0.348 C 
ATOM      9  O   UNL A   1      30.667  28.613  22.304  1.00  0.00    -0.245 OA
BRANCH   8  10
ATOM     10  C   UNL A   1      29.953  26.545  23.751  1.00  0.00     0.138 C 
ATOM     11  C   UNL A   1      30.221  25.852  24.980  1.00  0.00     0.040 C 
BRANCH  11  12
ATOM     12  C   UNL A   1      30.937  24.463  25.313  1.00  0.00     0.037 A 
ATOM     13  N   UNL A   1      32.431  22.700  25.489  1.00  0.00    -0.221 N 
ATOM     14  N   UNL A   1      31.935  22.958  26.696  1.00  0.00    -0.171 NA
ATOM     15  C   UNL A   1      31.830  23.623  24.587  1.00  0.00     0.140 A 
ATOM     16  C   UNL A   1      30.764  23.462  26.322  1.00  0.00     0.069 A 
ATOM     17  Cl  UNL A   1      32.246  23.526  22.944  1.00  0.00    -0.061 Cl
ATOM     18  C   UNL A   1      29.684  22.944  27.119  1.00  0.00     0.069 C 
BRANCH  13  19
ATOM     19  C   UNL A   1      33.201  21.500  25.477  1.00  0.00     0.069 A 
ATOM     20  C   UNL A   1      32.195  17.841  24.780  1.00  0.00     0.044 C 
ATOM     21  C   UNL A   1      33.020  19.088  24.940  1.00  0.00    -0.049 A 
ATOM     22  C   UNL A   1      34.382  19.055  24.651  1.00  0.00     0.004 A 
ATOM     23  C   UNL A   1      32.446  20.303  25.358  1.00  0.00     0.032 A 
ATOM     24  C   UNL A   1      35.122  20.236  24.660  1.00  0.00     0.006 A 
ATOM     25  C   UNL A   1      34.529  21.479  24.991  1.00  0.00    -0.025 A 
ATOM     26  C   UNL A   1      35.345  22.696  24.644  1.00  0.00     0.047 C 
ENDBRANCH  13  19
ENDBRANCH  11  12
BRANCH  10  27
ATOM     27  C   UNL A   1      28.665  27.314  23.500  1.00  0.00     0.107 C 
ATOM     28  N   UNL A   1      27.597  27.951  23.293  1.00  0.00    -0.192 NA
ENDBRANCH  10  27
ENDBRANCH   8  10
ENDBRANCH   7   8
ENDBRANCH   6   7
ENDBRANCH   5   6
ENDBRANCH   4   5
ENDBRANCH   3   4
ENDBRANCH   2   3
ENDBRANCH   1   2
BRANCH   1  29
ATOM     29  C   UNL A   1      34.587  32.998  29.718  1.00  0.00     0.188 C 
BRANCH  29  30
ATOM     30  C   UNL A   1      34.807  32.378  31.099  1.00  0.00     0.188 C 
BRANCH  30  31
ATOM     31  O   UNL A   1      34.987  33.376  32.082  1.00  0.00    -0.376 OA
BRANCH  31  32
ATOM     32  C   UNL A   1      36.191  33.465  32.803  1.00  0.00     0.202 C 
BRANCH  32  33
ATOM     33  C   UNL A   1      37.091  34.360  31.973  1.00  0.00     0.261 C 
BRANCH  33  34
ATOM     34  O   UNL A   1      38.117  33.540  31.326  1.00  0.00    -0.460 OA
BRANCH  34  35
ATOM     35  C   UNL A   1      39.320  33.367  31.958  1.00  0.00     0.338 C 
ATOM     36  O   UNL A   1      39.718  34.061  32.904  1.00  0.00    -0.246 OA
BRANCH  35  37
ATOM     37  C   UNL A   1      40.144  32.304  31.265  1.00  0.00     0.060 A 
ATOM     38  C   UNL A   1      39.778  30.960  31.118  1.00  0.00     0.016 A 
ATOM     39  C   UNL A   1      41.452  32.602  30.942  1.00  0.00     0.016 A 
ATOM     40  C   UNL A   1      40.764  29.941  30.820  1.00  0.00     0.010 A 
ATOM     41  C   UNL A   1      42.420  31.583  30.790  1.00  0.00     0.010 A 
ATOM     42  C   UNL A   1      42.169  30.184  30.807  1.00  0.00    -0.014 A 
BRANCH  42  43
ATOM     43  C   UNL A   1      43.228  28.927  30.455  1.00  0.00     0.031 A 
ATOM     44  C   UNL A   1      43.967  28.861  31.733  1.00  0.00     0.074 A 
ATOM     45  C   UNL A   1      43.419  27.710  29.657  1.00  0.00     0.049 A 
ATOM     46  N   UNL A   1      45.249  28.853  31.837  1.00  0.00    -0.248 NA
ATOM     47  C   UNL A   1      43.288  28.929  33.052  1.00  0.00     0.031 C 
ATOM     48  C   UNL A   1      44.064  27.727  28.335  1.00  0.00     0.029 A 
ATOM     49  N   UNL A   1      42.937  26.337  29.511  1.00  0.00    -0.354 N 
ATOM     50  C   UNL A   1      45.392  28.205  33.041  1.00  0.00     0.074 A 
ATOM     51  C   UNL A   1      44.298  28.628  33.868  1.00  0.00     0.031 C 
ATOM     52  C   UNL A   1      43.738  26.689  27.519  1.00  0.00     0.029 A 
ATOM     53  C   UNL A   1      42.810  25.770  28.179  1.00  0.00     0.049 A 
ATOM     54  H   UNL A   1      42.701  25.804  30.305  1.00  0.00     0.167 HD
ATOM     55  C   UNL A   1      45.921  26.954  32.951  1.00  0.00     0.037 A 
ATOM     56  C   UNL A   1      42.536  24.528  27.589  1.00  0.00     0.037 A 
ATOM     57  C   UNL A   1      46.695  26.780  31.730  1.00  0.00     0.049 A 
ATOM     58  C   UNL A   1      43.828  23.808  27.782  1.00  0.00     0.074 A 
ATOM     59  C   UNL A   1      47.651  27.588  31.135  1.00  0.00     0.029 A 
ATOM     60  N   UNL A   1      46.224  25.947  30.736  1.00  0.00    -0.354 N 
ATOM     61  N   UNL A   1      44.939  24.154  27.183  1.00  0.00    -0.248 NA
ATOM     62  C   UNL A   1      43.981  23.162  29.085  1.00  0.00     0.031 C 
ATOM     63  C   UNL A   1      47.707  27.257  29.765  1.00  0.00     0.029 A 
ATOM     64  C   UNL A   1      46.910  26.147  29.547  1.00  0.00     0.049 A 
ATOM     65  H   UNL A   1      45.496  25.295  30.856  1.00  0.00     0.167 HD
ATOM     66  C   UNL A   1      45.781  24.371  28.266  1.00  0.00     0.074 A 
ATOM     67  C   UNL A   1      45.219  23.578  29.361  1.00  0.00     0.031 C 
ATOM     68  C   UNL A   1      46.597  25.470  28.308  1.00  0.00     0.037 A 
BRANCH  55  69
ATOM     69  C   UNL A   1      45.454  25.828  33.812  1.00  0.00     0.064 A 
ATOM     70  C   UNL A   1      46.365  25.282  34.714  1.00  0.00     0.173 A 
ATOM     71  C   UNL A   1      44.206  25.174  33.702  1.00  0.00     0.173 A 
ATOM     72  F   UNL A   1      47.573  25.841  34.865  1.00  0.00    -0.203 F 
ATOM     73  C   UNL A   1      46.059  24.141  35.453  1.00  0.00     0.198 A 
ATOM     74  C   UNL A   1      43.888  24.052  34.460  1.00  0.00     0.198 A 
ATOM     75  F   UNL A   1      43.271  25.567  32.832  1.00  0.00    -0.203 F 
ATOM     76  F   UNL A   1      46.979  23.621  36.271  1.00  0.00    -0.200 F 
ATOM     77  C   UNL A   1      44.821  23.527  35.326  1.00  0.00     0.200 A 
ATOM     78  F   UNL A   1      42.688  23.469  34.318  1.00  0.00    -0.200 F 
ATOM     79  F   UNL A   1      44.541  22.418  36.022  1.00  0.00    -0.200 F 
ENDBRANCH  55  69
BRANCH  56  80
ATOM     80  C   UNL A   1      41.280  23.726  27.103  1.00  0.00     0.064 A 
ATOM     81  C   UNL A   1      41.344  22.377  26.651  1.00  0.00     0.173 A 
ATOM     82  C   UNL A   1      39.987  24.262  26.913  1.00  0.00     0.173 A 
ATOM     83  F   UNL A   1      42.530  21.765  26.537  1.00  0.00    -0.203 F 
ATOM     84  C   UNL A   1      40.213  21.610  26.260  1.00  0.00     0.198 A 
ATOM     85  C   UNL A   1      38.840  23.493  26.567  1.00  0.00     0.198 A 
ATOM     86  F   UNL A   1      39.792  25.580  26.992  1.00  0.00    -0.203 F 
ATOM     87  F   UNL A   1      40.364  20.340  25.853  1.00  0.00    -0.200 F 
ATOM     88  C   UNL A   1      38.947  22.153  26.283  1.00  0.00     0.200 A 
ATOM     89  F   UNL A   1      37.630  24.071  26.506  1.00  0.00    -0.200 F 
ATOM     90  F   UNL A   1      37.864  21.415  25.992  1.00  0.00    -0.200 F 
ENDBRANCH  56  80
BRANCH  68  91
ATOM     91  C   UNL A   1      47.089  26.072  26.995  1.00  0.00     0.064 A 
ATOM     92  C   UNL A   1      46.689  27.299  26.449  1.00  0.00     0.173 A 
ATOM     93  C   UNL A   1      48.231  25.570  26.387  1.00  0.00     0.173 A 
ATOM     94  F   UNL A   1      46.595  28.337  27.280  1.00  0.00    -0.203 F 
ATOM     95  C   UNL A   1      46.988  27.730  25.165  1.00  0.00     0.198 A 
ATOM     96  C   UNL A   1      48.767  26.172  25.235  1.00  0.00     0.198 A 
ATOM     97  F   UNL A   1      48.927  24.600  26.995  1.00  0.00    -0.203 F 
ATOM     98  F   UNL A   1      46.422  28.849  24.686  1.00  0.00    -0.200 F 
ATOM     99  C   UNL A   1      48.094  27.191  24.575  1.00  0.00     0.200 A 
ATOM    100  F   UNL A   1      49.987  25.820  24.814  1.00  0.00    -0.200 F 
ATOM    101  F   UNL A   1      48.607  27.768  23.480  1.00  0.00    -0.200 F 
ENDBRANCH  68  91
ENDBRANCH  42  43
ENDBRANCH  35  37
ENDBRANCH  34  35
ENDBRANCH  33  34
ENDBRANCH  32  33
ENDBRANCH  31  32
ENDBRANCH  30  31
ENDBRANCH  29  30
ENDBRANCH   1  29
TORSDOF 23
ENDMDL
MODEL 3
REMARK VINA RESULT:     -10.1      2.371      5.447
REMARK SMILES Cc1ccc(C)c(-n2nc(C)c(C=C(C#N)C(=O)OCCOCCOCCOCCOC(=O)c3ccc(-c4c5nc(c(-c6c(F)c(F)c(F)c(F)c6F)c6ccc([nH]6)c(-c6c(F)c(F)c(F)c(F)c6F)c6nc(c(-c7c(F)c(F)c(F)c(F)c7F)c7ccc4[nH]7)C=C6)C=C5)cc3)c2Cl)c1
REMARK SMILES IDX 25 1 24 2 23 3 22 4 21 5 20 6 19 7 17 8 18 9 14 10 13 11
REMARK SMILES IDX 12 12 8 13 9 14 97 15 10 16 98 17 11 18 7 19 1 20 2 21 3 22
REMARK SMILES IDX 99 23 4 24 5 25 6 26 15 27 16 28 26 29 27 30 28 31 29 32
REMARK SMILES IDX 30 33 31 34 32 35 33 36 34 37 35 38 96 39 36 40 95 41 37 42
REMARK SMILES IDX 38 43 39 44 89 45 40 46 94 47 88 48 90 49 41 50 93 51 87 52
REMARK SMILES IDX 86 53 42 55 74 56 54 57 73 58 55 59 58 60 72 61 91 62 56 63
REMARK SMILES IDX 57 64 71 66 92 67 59 68 43 69 44 70 52 71 45 72 46 73 50 74
REMARK SMILES IDX 53 75 47 76 48 77 51 78 49 79 75 80 76 81 84 82 77 83 78 84
REMARK SMILES IDX 82 85 85 86 79 87 80 88 83 89 81 90 60 91 61 92 69 93 62 94
REMARK SMILES IDX 63 95 67 96 70 97 64 98 65 99 68 100 66 101
REMARK H PARENT 90 54 58 65
REMARK Flexibility Score: inf
ROOT
ATOM      1  O   UNL A   1      42.103  21.497  26.488  1.00  0.00    -0.377 OA
ENDROOT
BRANCH   1   2
ATOM      2  C   UNL A   1      40.952  22.317  26.637  1.00  0.00     0.188 C 
BRANCH   2   3
ATOM      3  C   UNL A   1      39.489  21.770  26.531  1.00  0.00     0.188 C 
BRANCH   3   4
ATOM      4  O   UNL A   1      38.813  21.426  25.313  1.00  0.00    -0.376 OA
BRANCH   4   5
ATOM      5  C   UNL A   1      37.489  21.764  24.877  1.00  0.00     0.202 C 
BRANCH   5   6
ATOM      6  C   UNL A   1      36.268  20.966  25.381  1.00  0.00     0.261 C 
BRANCH   6   7
ATOM      7  O   UNL A   1      35.070  21.323  24.695  1.00  0.00    -0.459 OA
BRANCH   7   8
ATOM      8  C   UNL A   1      34.142  21.804  25.524  1.00  0.00     0.348 C 
ATOM      9  O   UNL A   1      34.339  21.656  26.737  1.00  0.00    -0.245 OA
BRANCH   8  10
ATOM     10  C   UNL A   1      32.797  22.600  24.838  1.00  0.00     0.138 C 
ATOM     11  C   UNL A   1      32.852  23.397  23.644  1.00  0.00     0.040 C 
BRANCH  11  12
ATOM     12  C   UNL A   1      32.426  24.903  23.320  1.00  0.00     0.037 A 
ATOM     13  N   UNL A   1      31.848  27.143  23.449  1.00  0.00    -0.221 N 
ATOM     14  N   UNL A   1      32.785  27.000  22.516  1.00  0.00    -0.171 NA
ATOM     15  C   UNL A   1      31.590  25.848  23.981  1.00  0.00     0.140 A 
ATOM     16  C   UNL A   1      32.522  25.746  22.167  1.00  0.00     0.069 A 
ATOM     17  Cl  UNL A   1      30.405  25.697  25.188  1.00  0.00    -0.061 Cl
ATOM     18  C   UNL A   1      32.529  25.580  20.737  1.00  0.00     0.069 C 
BRANCH  13  19
ATOM     19  C   UNL A   1      31.293  28.457  23.448  1.00  0.00     0.069 A 
ATOM     20  C   UNL A   1      27.942  29.801  22.088  1.00  0.00     0.044 C 
ATOM     21  C   UNL A   1      29.217  29.682  22.876  1.00  0.00    -0.049 A 
ATOM     22  C   UNL A   1      29.528  30.646  23.833  1.00  0.00     0.004 A 
ATOM     23  C   UNL A   1      30.104  28.606  22.686  1.00  0.00     0.032 A 
ATOM     24  C   UNL A   1      30.633  30.467  24.663  1.00  0.00     0.006 A 
ATOM     25  C   UNL A   1      31.478  29.338  24.539  1.00  0.00    -0.025 A 
ATOM     26  C   UNL A   1      32.420  29.106  25.691  1.00  0.00     0.047 C 
ENDBRANCH  13  19
ENDBRANCH  11  12
BRANCH  10  27
ATOM     27  C   UNL A   1      32.444  21.120  24.827  1.00  0.00     0.107 C 
ATOM     28  N   UNL A   1      32.152  19.894  24.818  1.00  0.00    -0.192 NA
ENDBRANCH  10  27
ENDBRANCH   8  10
ENDBRANCH   7   8
ENDBRANCH   6   7
ENDBRANCH   5   6
ENDBRANCH   4   5
ENDBRANCH   3   4
ENDBRANCH   2   3
ENDBRANCH   1   2
BRANCH   1  29
ATOM     29  C   UNL A   1      41.850  20.108  26.586  1.00  0.00     0.188 C 
BRANCH  29  30
ATOM     30  C   UNL A   1      42.760  19.330  25.634  1.00  0.00     0.188 C 
BRANCH  30  31
ATOM     31  O   UNL A   1      43.757  20.166  25.085  1.00  0.00    -0.376 OA
BRANCH  31  32
ATOM     32  C   UNL A   1      45.107  19.772  25.086  1.00  0.00     0.202 C 
BRANCH  32  33
ATOM     33  C   UNL A   1      45.880  20.991  24.619  1.00  0.00     0.261 C 
BRANCH  33  34
ATOM     34  O   UNL A   1      45.542  22.129  25.476  1.00  0.00    -0.460 OA
BRANCH  34  35
ATOM     35  C   UNL A   1      45.619  23.394  24.955  1.00  0.00     0.338 C 
ATOM     36  O   UNL A   1      46.292  23.700  23.962  1.00  0.00    -0.246 OA
BRANCH  35  37
ATOM     37  C   UNL A   1      44.876  24.381  25.829  1.00  0.00     0.060 A 
ATOM     38  C   UNL A   1      44.991  25.775  25.759  1.00  0.00     0.016 A 
ATOM     39  C   UNL A   1      44.199  23.895  26.930  1.00  0.00     0.016 A 
ATOM     40  C   UNL A   1      44.580  26.620  26.863  1.00  0.00     0.010 A 
ATOM     41  C   UNL A   1      43.934  24.718  28.048  1.00  0.00     0.010 A 
ATOM     42  C   UNL A   1      44.184  26.114  28.136  1.00  0.00    -0.014 A 
BRANCH  42  43
ATOM     43  C   UNL A   1      43.732  27.183  29.352  1.00  0.00     0.031 A 
ATOM     44  C   UNL A   1      44.302  26.483  30.522  1.00  0.00     0.074 A 
ATOM     45  C   UNL A   1      43.421  28.584  29.661  1.00  0.00     0.049 A 
ATOM     46  N   UNL A   1      43.659  26.224  31.605  1.00  0.00    -0.248 NA
ATOM     47  C   UNL A   1      45.662  25.884  30.509  1.00  0.00     0.031 C 
ATOM     48  C   UNL A   1      42.051  29.117  29.609  1.00  0.00     0.029 A 
ATOM     49  N   UNL A   1      44.035  29.907  29.767  1.00  0.00    -0.354 N 
ATOM     50  C   UNL A   1      44.702  26.156  32.498  1.00  0.00     0.074 A 
ATOM     51  C   UNL A   1      45.807  25.567  31.795  1.00  0.00     0.031 C 
ATOM     52  C   UNL A   1      41.960  30.461  29.420  1.00  0.00     0.029 A 
ATOM     53  C   UNL A   1      43.285  31.072  29.326  1.00  0.00     0.049 A 
ATOM     54  H   UNL A   1      44.944  30.008  30.132  1.00  0.00     0.167 HD
ATOM     55  C   UNL A   1      44.747  27.178  33.395  1.00  0.00     0.037 A 
ATOM     56  C   UNL A   1      43.403  32.469  29.357  1.00  0.00     0.037 A 
ATOM     57  C   UNL A   1      43.443  27.802  33.570  1.00  0.00     0.049 A 
ATOM     58  C   UNL A   1      43.056  32.771  30.776  1.00  0.00     0.074 A 
ATOM     59  C   UNL A   1      42.186  27.249  33.759  1.00  0.00     0.029 A 
ATOM     60  N   UNL A   1      43.231  29.083  33.103  1.00  0.00    -0.354 N 
ATOM     61  N   UNL A   1      41.861  32.588  31.276  1.00  0.00    -0.248 NA
ATOM     62  C   UNL A   1      44.167  32.650  31.718  1.00  0.00     0.031 C 
ATOM     63  C   UNL A   1      41.228  28.201  33.354  1.00  0.00     0.029 A 
ATOM     64  C   UNL A   1      41.878  29.388  33.068  1.00  0.00     0.049 A 
ATOM     65  H   UNL A   1      43.948  29.701  32.832  1.00  0.00     0.167 HD
ATOM     66  C   UNL A   1      42.132  31.725  32.331  1.00  0.00     0.074 A 
ATOM     67  C   UNL A   1      43.540  31.953  32.667  1.00  0.00     0.031 C 
ATOM     68  C   UNL A   1      41.341  30.631  32.562  1.00  0.00     0.037 A 
BRANCH  55  69
ATOM     69  C   UNL A   1      46.033  27.789  33.843  1.00  0.00     0.064 A 
ATOM     70  C   UNL A   1      46.515  27.433  35.101  1.00  0.00     0.173 A 
ATOM     71  C   UNL A   1      46.741  28.804  33.161  1.00  0.00     0.173 A 
ATOM     72  F   UNL A   1      45.889  26.485  35.813  1.00  0.00    -0.203 F 
ATOM     73  C   UNL A   1      47.629  28.060  35.655  1.00  0.00     0.198 A 
ATOM     74  C   UNL A   1      47.870  29.411  33.700  1.00  0.00     0.198 A 
ATOM     75  F   UNL A   1      46.344  29.273  31.974  1.00  0.00    -0.203 F 
ATOM     76  F   UNL A   1      48.030  27.722  36.885  1.00  0.00    -0.200 F 
ATOM     77  C   UNL A   1      48.306  29.047  34.955  1.00  0.00     0.200 A 
ATOM     78  F   UNL A   1      48.506  30.369  33.009  1.00  0.00    -0.200 F 
ATOM     79  F   UNL A   1      49.362  29.663  35.501  1.00  0.00    -0.200 F 
ENDBRANCH  55  69
BRANCH  56  80
ATOM     80  C   UNL A   1      44.010  33.603  28.461  1.00  0.00     0.064 A 
ATOM     81  C   UNL A   1      45.400  33.706  28.171  1.00  0.00     0.173 A 
ATOM     82  C   UNL A   1      43.305  34.721  27.964  1.00  0.00     0.173 A 
ATOM     83  F   UNL A   1      46.269  32.864  28.747  1.00  0.00    -0.203 F 
ATOM     84  C   UNL A   1      45.968  34.690  27.316  1.00  0.00     0.198 A 
ATOM     85  C   UNL A   1      43.853  35.685  27.071  1.00  0.00     0.198 A 
ATOM     86  F   UNL A   1      42.061  34.966  28.380  1.00  0.00    -0.203 F 
ATOM     87  F   UNL A   1      47.292  34.709  27.092  1.00  0.00    -0.200 F 
ATOM     88  C   UNL A   1      45.179  35.643  26.712  1.00  0.00     0.200 A 
ATOM     89  F   UNL A   1      43.079  36.661  26.569  1.00  0.00    -0.200 F 
ATOM     90  F   UNL A   1      45.692  36.527  25.842  1.00  0.00    -0.200 F 
ENDBRANCH  56  80
BRANCH  68  91
ATOM     91  C   UNL A   1      39.872  30.687  32.154  1.00  0.00     0.064 A 
ATOM     92  C   UNL A   1      39.270  29.937  31.134  1.00  0.00     0.173 A 
ATOM     93  C   UNL A   1      38.940  31.278  32.995  1.00  0.00     0.173 A 
ATOM     94  F   UNL A   1      39.593  28.646  31.052  1.00  0.00    -0.203 F 
ATOM     95  C   UNL A   1      37.990  30.149  30.644  1.00  0.00     0.198 A 
ATOM     96  C   UNL A   1      37.567  31.251  32.695  1.00  0.00     0.198 A 
ATOM     97  F   UNL A   1      39.334  31.740  34.190  1.00  0.00    -0.203 F 
ATOM     98  F   UNL A   1      37.568  29.480  29.560  1.00  0.00    -0.200 F 
ATOM     99  C   UNL A   1      37.105  30.769  31.478  1.00  0.00     0.200 A 
ATOM    100  F   UNL A   1      36.681  31.612  33.630  1.00  0.00    -0.200 F 
ATOM    101  F   UNL A   1      35.796  30.738  31.195  1.00  0.00    -0.200 F 
ENDBRANCH  68  91
ENDBRANCH  42  43
ENDBRANCH  35  37
ENDBRANCH  34  35
ENDBRANCH  33  34
ENDBRANCH  32  33
ENDBRANCH  31  32
ENDBRANCH  30  31
ENDBRANCH  29  30
ENDBRANCH   1  29
TORSDOF 23
ENDMDL
