MODEL 1
REMARK VINA RESULT:     -12.4      0.000      0.000
REMARK SMILES O=C(OCCOCCOCCOCCOC(=O)c1ccccc1C(=O)Nc1ccc(N2C(=O)[C@H]3[C@@H]4CC[C@@H](C4)[C@@H]3C2=O)cc1)c1ccc(-c2c3nc(c(-c4c(F)c(F)c(F)c(F)c4F)c4ccc([nH]4)c(-c4c(F)c(F)c(F)c(F)c4F)c4nc(c(-c5c(F)c(F)c(F)c(F)c5F)c5ccc2[nH]5)C=C4)C=C3)cc1
REMARK SMILES IDX 10 1 9 2 8 3 7 4 6 5 5 6 4 7 3 8 2 9 1 10 45 11 46 12 107 13
REMARK SMILES IDX 47 14 106 15 48 16 49 17 50 18 100 19 51 20 105 21 99 22
REMARK SMILES IDX 101 23 52 24 104 25 98 26 97 27 53 29 85 30 65 31 84 32
REMARK SMILES IDX 66 33 69 34 83 35 102 36 67 37 68 38 82 40 103 41 70 42
REMARK SMILES IDX 54 43 55 44 63 45 56 46 57 47 61 48 64 49 58 50 59 51 62 52
REMARK SMILES IDX 60 53 86 54 87 55 95 56 88 57 89 58 93 59 96 60 90 61 91 62
REMARK SMILES IDX 94 63 92 64 71 65 72 66 80 67 73 68 74 69 78 70 81 71 75 72
REMARK SMILES IDX 76 73 79 74 77 75 11 76 12 77 13 78 14 79 15 80 16 81 17 82
REMARK SMILES IDX 18 83 19 84 23 85 20 86 22 87 21 88 24 89 25 90 26 91 27 93
REMARK SMILES IDX 28 94 44 95 29 96 43 97 30 98 31 99 32 100 41 101 33 102
REMARK SMILES IDX 34 103 40 104 42 105 35 106 38 107 36 108 39 109 37 110
REMARK H PARENT 101 28 69 39 26 92
REMARK Flexibility Score: inf
ROOT
ATOM      1  C   UNL A   1      36.954  23.067  24.829  1.00  0.00     0.188 C 
ENDROOT
BRANCH   1   2
ATOM      2  O   UNL A   1      37.782  21.906  24.752  1.00  0.00    -0.377 OA
BRANCH   2   3
ATOM      3  C   UNL A   1      38.578  21.616  25.903  1.00  0.00     0.188 C 
BRANCH   3   4
ATOM      4  C   UNL A   1      39.623  22.682  26.224  1.00  0.00     0.188 C 
BRANCH   4   5
ATOM      5  O   UNL A   1      40.791  22.056  26.745  1.00  0.00    -0.376 OA
BRANCH   5   6
ATOM      6  C   UNL A   1      41.853  21.881  25.810  1.00  0.00     0.202 C 
BRANCH   6   7
ATOM      7  C   UNL A   1      42.895  22.979  25.975  1.00  0.00     0.261 C 
BRANCH   7   8
ATOM      8  O   UNL A   1      42.595  24.017  25.025  1.00  0.00    -0.460 OA
BRANCH   8   9
ATOM      9  C   UNL A   1      43.393  25.118  25.055  1.00  0.00     0.338 C 
ATOM     10  O   UNL A   1      44.554  25.220  24.703  1.00  0.00    -0.246 OA
BRANCH   9  11
ATOM     11  C   UNL A   1      42.572  26.162  25.693  1.00  0.00     0.060 A 
ATOM     12  C   UNL A   1      43.220  27.348  26.032  1.00  0.00     0.016 A 
ATOM     13  C   UNL A   1      41.277  25.917  26.135  1.00  0.00     0.016 A 
ATOM     14  C   UNL A   1      42.666  28.206  26.961  1.00  0.00     0.010 A 
ATOM     15  C   UNL A   1      40.694  26.808  27.049  1.00  0.00     0.010 A 
ATOM     16  C   UNL A   1      41.431  27.906  27.539  1.00  0.00    -0.014 A 
BRANCH  16  17
ATOM     17  C   UNL A   1      41.099  28.571  28.829  1.00  0.00     0.031 A 
ATOM     18  C   UNL A   1      39.801  29.340  28.923  1.00  0.00     0.074 A 
ATOM     19  C   UNL A   1      41.772  28.286  29.962  1.00  0.00     0.049 A 
ATOM     20  N   UNL A   1      39.327  30.056  29.911  1.00  0.00    -0.248 NA
ATOM     21  C   UNL A   1      38.901  29.270  27.758  1.00  0.00     0.031 C 
ATOM     22  C   UNL A   1      42.892  27.351  30.068  1.00  0.00     0.029 A 
ATOM     23  N   UNL A   1      41.537  28.670  31.260  1.00  0.00    -0.354 N 
ATOM     24  C   UNL A   1      38.126  30.584  29.453  1.00  0.00     0.074 A 
ATOM     25  C   UNL A   1      37.917  30.080  28.116  1.00  0.00     0.031 C 
ATOM     26  C   UNL A   1      43.164  27.144  31.367  1.00  0.00     0.029 A 
ATOM     27  C   UNL A   1      42.332  28.027  32.177  1.00  0.00     0.049 A 
ATOM     28  H   UNL A   1      40.861  29.341  31.509  1.00  0.00     0.167 HD
ATOM     29  C   UNL A   1      37.283  31.431  30.086  1.00  0.00     0.037 A 
ATOM     30  C   UNL A   1      42.398  28.164  33.517  1.00  0.00     0.037 A 
ATOM     31  C   UNL A   1      37.463  31.879  31.438  1.00  0.00     0.049 A 
ATOM     32  C   UNL A   1      41.525  29.200  34.179  1.00  0.00     0.074 A 
ATOM     33  C   UNL A   1      36.758  32.843  32.137  1.00  0.00     0.029 A 
ATOM     34  N   UNL A   1      38.402  31.356  32.312  1.00  0.00    -0.354 N 
ATOM     35  N   UNL A   1      40.516  29.876  33.686  1.00  0.00    -0.248 NA
ATOM     36  C   UNL A   1      41.844  29.533  35.576  1.00  0.00     0.031 C 
ATOM     37  C   UNL A   1      37.291  32.920  33.429  1.00  0.00     0.029 A 
ATOM     38  C   UNL A   1      38.301  31.979  33.543  1.00  0.00     0.049 A 
ATOM     39  H   UNL A   1      39.046  30.645  32.089  1.00  0.00     0.167 HD
ATOM     40  C   UNL A   1      40.086  30.714  34.707  1.00  0.00     0.074 A 
ATOM     41  C   UNL A   1      40.906  30.424  35.862  1.00  0.00     0.031 C 
ATOM     42  C   UNL A   1      39.121  31.668  34.683  1.00  0.00     0.037 A 
BRANCH  29  43
ATOM     43  C   UNL A   1      36.146  31.998  29.293  1.00  0.00     0.064 A 
ATOM     44  C   UNL A   1      36.091  33.347  28.922  1.00  0.00     0.173 A 
ATOM     45  C   UNL A   1      35.099  31.156  28.885  1.00  0.00     0.173 A 
ATOM     46  F   UNL A   1      37.052  34.196  29.313  1.00  0.00    -0.203 F 
ATOM     47  C   UNL A   1      35.019  33.836  28.175  1.00  0.00     0.198 A 
ATOM     48  C   UNL A   1      34.043  31.643  28.122  1.00  0.00     0.198 A 
ATOM     49  F   UNL A   1      35.106  29.858  29.222  1.00  0.00    -0.203 F 
ATOM     50  F   UNL A   1      34.964  35.138  27.859  1.00  0.00    -0.200 F 
ATOM     51  C   UNL A   1      34.003  32.984  27.770  1.00  0.00     0.200 A 
ATOM     52  F   UNL A   1      33.065  30.817  27.729  1.00  0.00    -0.200 F 
ATOM     53  F   UNL A   1      32.976  33.456  27.049  1.00  0.00    -0.200 F 
ENDBRANCH  29  43
BRANCH  30  54
ATOM     54  C   UNL A   1      43.377  27.383  34.326  1.00  0.00     0.064 A 
ATOM     55  C   UNL A   1      42.992  26.209  34.993  1.00  0.00     0.173 A 
ATOM     56  C   UNL A   1      44.689  27.838  34.525  1.00  0.00     0.173 A 
ATOM     57  F   UNL A   1      41.733  25.761  34.885  1.00  0.00    -0.203 F 
ATOM     58  C   UNL A   1      43.875  25.537  35.838  1.00  0.00     0.198 A 
ATOM     59  C   UNL A   1      45.583  27.143  35.337  1.00  0.00     0.198 A 
ATOM     60  F   UNL A   1      45.107  28.972  33.943  1.00  0.00    -0.203 F 
ATOM     61  F   UNL A   1      43.456  24.467  36.529  1.00  0.00    -0.200 F 
ATOM     62  C   UNL A   1      45.172  26.001  36.003  1.00  0.00     0.200 A 
ATOM     63  F   UNL A   1      46.835  27.597  35.490  1.00  0.00    -0.200 F 
ATOM     64  F   UNL A   1      46.015  25.366  36.828  1.00  0.00    -0.200 F 
ENDBRANCH  30  54
BRANCH  42  65
ATOM     65  C   UNL A   1      38.907  32.461  35.937  1.00  0.00     0.064 A 
ATOM     66  C   UNL A   1      38.228  31.913  37.036  1.00  0.00     0.173 A 
ATOM     67  C   UNL A   1      39.419  33.760  36.060  1.00  0.00     0.173 A 
ATOM     68  F   UNL A   1      37.710  30.677  36.961  1.00  0.00    -0.203 F 
ATOM     69  C   UNL A   1      38.044  32.648  38.202  1.00  0.00     0.198 A 
ATOM     70  C   UNL A   1      39.259  34.482  37.239  1.00  0.00     0.198 A 
ATOM     71  F   UNL A   1      40.086  34.325  35.043  1.00  0.00    -0.203 F 
ATOM     72  F   UNL A   1      37.351  32.122  39.221  1.00  0.00    -0.200 F 
ATOM     73  C   UNL A   1      38.565  33.929  38.306  1.00  0.00     0.200 A 
ATOM     74  F   UNL A   1      39.776  35.714  37.345  1.00  0.00    -0.200 F 
ATOM     75  F   UNL A   1      38.393  34.634  39.432  1.00  0.00    -0.200 F 
ENDBRANCH  42  65
ENDBRANCH  16  17
ENDBRANCH   9  11
ENDBRANCH   8   9
ENDBRANCH   7   8
ENDBRANCH   6   7
ENDBRANCH   5   6
ENDBRANCH   4   5
ENDBRANCH   3   4
ENDBRANCH   2   3
ENDBRANCH   1   2
BRANCH   1  76
ATOM     76  C   UNL A   1      36.113  23.270  26.105  1.00  0.00     0.188 C 
BRANCH  76  77
ATOM     77  O   UNL A   1      34.708  23.395  25.920  1.00  0.00    -0.376 OA
BRANCH  77  78
ATOM     78  C   UNL A   1      34.218  24.720  25.750  1.00  0.00     0.202 C 
BRANCH  78  79
ATOM     79  C   UNL A   1      33.146  25.120  26.773  1.00  0.00     0.261 C 
BRANCH  79  80
ATOM     80  O   UNL A   1      31.841  25.589  26.359  1.00  0.00    -0.460 OA
BRANCH  80  81
ATOM     81  C   UNL A   1      31.525  26.889  26.332  1.00  0.00     0.339 C 
ATOM     82  O   UNL A   1      30.990  27.560  27.187  1.00  0.00    -0.246 OA
BRANCH  81  83
ATOM     83  C   UNL A   1      31.943  27.500  25.080  1.00  0.00     0.072 A 
ATOM     84  C   UNL A   1      33.089  28.312  25.091  1.00  0.00     0.016 A 
ATOM     85  C   UNL A   1      31.193  27.320  23.920  1.00  0.00     0.054 A 
ATOM     86  C   UNL A   1      33.559  28.862  23.904  1.00  0.00     0.001 A 
ATOM     87  C   UNL A   1      31.717  27.820  22.718  1.00  0.00     0.015 A 
ATOM     88  C   UNL A   1      32.893  28.584  22.712  1.00  0.00     0.001 A 
BRANCH  85  89
ATOM     89  C   UNL A   1      29.939  26.526  23.872  1.00  0.00     0.256 C 
ATOM     90  O   UNL A   1      28.881  27.158  23.838  1.00  0.00    -0.269 OA
ATOM     91  N   UNL A   1      29.889  25.146  23.780  1.00  0.00    -0.322 N 
ATOM     92  H   UNL A   1      28.998  24.803  23.538  1.00  0.00     0.170 HD
BRANCH  91  93
ATOM     93  C   UNL A   1      30.851  24.129  23.958  1.00  0.00     0.041 A 
ATOM     94  C   UNL A   1      30.676  23.256  25.047  1.00  0.00     0.028 A 
ATOM     95  C   UNL A   1      31.891  23.880  23.065  1.00  0.00     0.028 A 
ATOM     96  C   UNL A   1      31.402  22.053  25.132  1.00  0.00     0.029 A 
ATOM     97  C   UNL A   1      32.595  22.665  23.130  1.00  0.00     0.029 A 
ATOM     98  C   UNL A   1      32.313  21.723  24.126  1.00  0.00     0.052 A 
BRANCH  98  99
ATOM     99  N   UNL A   1      32.826  20.417  24.018  1.00  0.00    -0.250 N 
ATOM    100  C   UNL A   1      32.427  19.461  23.063  1.00  0.00     0.237 C 
ATOM    101  C   UNL A   1      33.717  19.845  24.944  1.00  0.00     0.237 C 
ATOM    102  O   UNL A   1      31.843  19.596  22.006  1.00  0.00    -0.274 OA
ATOM    103  C   UNL A   1      32.803  18.171  23.761  1.00  0.00     0.095 C 
ATOM    104  C   UNL A   1      34.189  18.632  24.207  1.00  0.00     0.095 C 
ATOM    105  O   UNL A   1      34.069  20.185  26.057  1.00  0.00    -0.274 OA
ATOM    106  C   UNL A   1      33.042  16.697  23.448  1.00  0.00     0.002 C 
ATOM    107  C   UNL A   1      34.883  17.341  24.590  1.00  0.00     0.002 C 
ATOM    108  C   UNL A   1      32.913  15.966  24.822  1.00  0.00     0.005 C 
ATOM    109  C   UNL A   1      34.561  16.562  23.292  1.00  0.00     0.009 C 
ATOM    110  C   UNL A   1      34.109  16.525  25.629  1.00  0.00     0.005 C 
ENDBRANCH  98  99
ENDBRANCH  91  93
ENDBRANCH  85  89
ENDBRANCH  81  83
ENDBRANCH  80  81
ENDBRANCH  79  80
ENDBRANCH  78  79
ENDBRANCH  77  78
ENDBRANCH  76  77
ENDBRANCH   1  76
TORSDOF 23
ENDMDL
MODEL 2
REMARK VINA RESULT:     -12.1      3.999      7.770
REMARK SMILES O=C(OCCOCCOCCOCCOC(=O)c1ccccc1C(=O)Nc1ccc(N2C(=O)[C@H]3[C@@H]4CC[C@@H](C4)[C@@H]3C2=O)cc1)c1ccc(-c2c3nc(c(-c4c(F)c(F)c(F)c(F)c4F)c4ccc([nH]4)c(-c4c(F)c(F)c(F)c(F)c4F)c4nc(c(-c5c(F)c(F)c(F)c(F)c5F)c5ccc2[nH]5)C=C4)C=C3)cc1
REMARK SMILES IDX 10 1 9 2 8 3 7 4 6 5 5 6 4 7 3 8 2 9 1 10 45 11 46 12 107 13
REMARK SMILES IDX 47 14 106 15 48 16 49 17 50 18 100 19 51 20 105 21 99 22
REMARK SMILES IDX 101 23 52 24 104 25 98 26 97 27 53 29 85 30 65 31 84 32
REMARK SMILES IDX 66 33 69 34 83 35 102 36 67 37 68 38 82 40 103 41 70 42
REMARK SMILES IDX 54 43 55 44 63 45 56 46 57 47 61 48 64 49 58 50 59 51 62 52
REMARK SMILES IDX 60 53 86 54 87 55 95 56 88 57 89 58 93 59 96 60 90 61 91 62
REMARK SMILES IDX 94 63 92 64 71 65 72 66 80 67 73 68 74 69 78 70 81 71 75 72
REMARK SMILES IDX 76 73 79 74 77 75 11 76 12 77 13 78 14 79 15 80 16 81 17 82
REMARK SMILES IDX 18 83 19 84 23 85 20 86 22 87 21 88 24 89 25 90 26 91 27 93
REMARK SMILES IDX 28 94 44 95 29 96 43 97 30 98 31 99 32 100 41 101 33 102
REMARK SMILES IDX 34 103 40 104 42 105 35 106 38 107 36 108 39 109 37 110
REMARK H PARENT 101 28 69 39 26 92
REMARK Flexibility Score: inf
ROOT
ATOM      1  C   UNL A   1      34.507  25.379  25.327  1.00  0.00     0.188 C 
ENDROOT
BRANCH   1   2
ATOM      2  O   UNL A   1      33.900  24.318  26.066  1.00  0.00    -0.377 OA
BRANCH   2   3
ATOM      3  C   UNL A   1      34.778  23.309  26.569  1.00  0.00     0.188 C 
BRANCH   3   4
ATOM      4  C   UNL A   1      36.121  23.233  25.846  1.00  0.00     0.188 C 
BRANCH   4   5
ATOM      5  O   UNL A   1      36.558  21.879  25.801  1.00  0.00    -0.376 OA
BRANCH   5   6
ATOM      6  C   UNL A   1      37.345  21.533  24.665  1.00  0.00     0.202 C 
BRANCH   6   7
ATOM      7  C   UNL A   1      38.387  20.486  25.036  1.00  0.00     0.261 C 
BRANCH   7   8
ATOM      8  O   UNL A   1      39.007  20.899  26.267  1.00  0.00    -0.460 OA
BRANCH   8   9
ATOM      9  C   UNL A   1      40.319  21.251  26.199  1.00  0.00     0.338 C 
ATOM     10  O   UNL A   1      41.205  20.744  25.537  1.00  0.00    -0.246 OA
BRANCH   9  11
ATOM     11  C   UNL A   1      40.467  22.343  27.178  1.00  0.00     0.060 A 
ATOM     12  C   UNL A   1      39.613  23.435  27.032  1.00  0.00     0.016 A 
ATOM     13  C   UNL A   1      41.533  22.397  28.069  1.00  0.00     0.016 A 
ATOM     14  C   UNL A   1      39.920  24.645  27.620  1.00  0.00     0.010 A 
ATOM     15  C   UNL A   1      41.824  23.616  28.701  1.00  0.00     0.010 A 
ATOM     16  C   UNL A   1      41.072  24.770  28.400  1.00  0.00    -0.014 A 
BRANCH  16  17
ATOM     17  C   UNL A   1      41.606  26.143  28.616  1.00  0.00     0.031 A 
ATOM     18  C   UNL A   1      42.899  26.522  27.931  1.00  0.00     0.074 A 
ATOM     19  C   UNL A   1      40.852  27.114  29.168  1.00  0.00     0.049 A 
ATOM     20  N   UNL A   1      43.595  27.627  28.018  1.00  0.00    -0.248 NA
ATOM     21  C   UNL A   1      43.471  25.535  26.998  1.00  0.00     0.031 C 
ATOM     22  C   UNL A   1      39.477  26.952  29.640  1.00  0.00     0.029 A 
ATOM     23  N   UNL A   1      41.098  28.457  29.320  1.00  0.00    -0.354 N 
ATOM     24  C   UNL A   1      44.719  27.430  27.225  1.00  0.00     0.074 A 
ATOM     25  C   UNL A   1      44.601  26.120  26.630  1.00  0.00     0.031 C 
ATOM     26  C   UNL A   1      38.964  28.163  29.913  1.00  0.00     0.029 A 
ATOM     27  C   UNL A   1      40.010  29.170  29.765  1.00  0.00     0.049 A 
ATOM     28  H   UNL A   1      41.970  28.870  29.128  1.00  0.00     0.167 HD
ATOM     29  C   UNL A   1      45.767  28.262  27.027  1.00  0.00     0.037 A 
ATOM     30  C   UNL A   1      39.888  30.482  30.048  1.00  0.00     0.037 A 
ATOM     31  C   UNL A   1      45.850  29.589  27.570  1.00  0.00     0.049 A 
ATOM     32  C   UNL A   1      41.107  31.361  29.926  1.00  0.00     0.074 A 
ATOM     33  C   UNL A   1      46.917  30.469  27.558  1.00  0.00     0.029 A 
ATOM     34  N   UNL A   1      44.798  30.241  28.193  1.00  0.00    -0.354 N 
ATOM     35  N   UNL A   1      42.265  31.107  29.368  1.00  0.00    -0.248 NA
ATOM     36  C   UNL A   1      41.015  32.699  30.531  1.00  0.00     0.031 C 
ATOM     37  C   UNL A   1      46.516  31.647  28.199  1.00  0.00     0.029 A 
ATOM     38  C   UNL A   1      45.190  31.511  28.576  1.00  0.00     0.049 A 
ATOM     39  H   UNL A   1      43.904  29.857  28.341  1.00  0.00     0.167 HD
ATOM     40  C   UNL A   1      43.038  32.245  29.560  1.00  0.00     0.074 A 
ATOM     41  C   UNL A   1      42.200  33.211  30.236  1.00  0.00     0.031 C 
ATOM     42  C   UNL A   1      44.338  32.461  29.239  1.00  0.00     0.037 A 
BRANCH  29  43
ATOM     43  C   UNL A   1      46.943  27.727  26.270  1.00  0.00     0.064 A 
ATOM     44  C   UNL A   1      47.009  27.755  24.872  1.00  0.00     0.173 A 
ATOM     45  C   UNL A   1      48.032  27.190  26.974  1.00  0.00     0.173 A 
ATOM     46  F   UNL A   1      45.980  28.230  24.155  1.00  0.00    -0.203 F 
ATOM     47  C   UNL A   1      48.125  27.254  24.203  1.00  0.00     0.198 A 
ATOM     48  C   UNL A   1      49.153  26.711  26.303  1.00  0.00     0.198 A 
ATOM     49  F   UNL A   1      48.012  27.136  28.314  1.00  0.00    -0.203 F 
ATOM     50  F   UNL A   1      48.157  27.255  22.862  1.00  0.00    -0.200 F 
ATOM     51  C   UNL A   1      49.197  26.740  24.917  1.00  0.00     0.200 A 
ATOM     52  F   UNL A   1      50.189  26.219  26.997  1.00  0.00    -0.200 F 
ATOM     53  F   UNL A   1      50.271  26.263  24.272  1.00  0.00    -0.200 F 
ENDBRANCH  29  43
BRANCH  30  54
ATOM     54  C   UNL A   1      38.607  31.046  30.561  1.00  0.00     0.064 A 
ATOM     55  C   UNL A   1      38.307  31.033  31.933  1.00  0.00     0.173 A 
ATOM     56  C   UNL A   1      37.618  31.527  29.689  1.00  0.00     0.173 A 
ATOM     57  F   UNL A   1      39.192  30.528  32.806  1.00  0.00    -0.203 F 
ATOM     58  C   UNL A   1      37.066  31.458  32.404  1.00  0.00     0.198 A 
ATOM     59  C   UNL A   1      36.394  31.992  30.165  1.00  0.00     0.198 A 
ATOM     60  F   UNL A   1      37.831  31.535  28.365  1.00  0.00    -0.203 F 
ATOM     61  F   UNL A   1      36.774  31.354  33.708  1.00  0.00    -0.200 F 
ATOM     62  C   UNL A   1      36.113  31.945  31.521  1.00  0.00     0.200 A 
ATOM     63  F   UNL A   1      35.480  32.461  29.306  1.00  0.00    -0.200 F 
ATOM     64  F   UNL A   1      34.915  32.338  31.971  1.00  0.00    -0.200 F 
ENDBRANCH  30  54
BRANCH  42  65
ATOM     65  C   UNL A   1      44.928  33.786  29.617  1.00  0.00     0.064 A 
ATOM     66  C   UNL A   1      45.537  33.980  30.867  1.00  0.00     0.173 A 
ATOM     67  C   UNL A   1      44.926  34.857  28.713  1.00  0.00     0.173 A 
ATOM     68  F   UNL A   1      45.554  32.987  31.770  1.00  0.00    -0.203 F 
ATOM     69  C   UNL A   1      46.096  35.207  31.208  1.00  0.00     0.198 A 
ATOM     70  C   UNL A   1      45.513  36.075  29.046  1.00  0.00     0.198 A 
ATOM     71  F   UNL A   1      44.367  34.720  27.502  1.00  0.00    -0.203 F 
ATOM     72  F   UNL A   1      46.630  35.382  32.425  1.00  0.00    -0.200 F 
ATOM     73  C   UNL A   1      46.090  36.251  30.296  1.00  0.00     0.200 A 
ATOM     74  F   UNL A   1      45.520  37.079  28.159  1.00  0.00    -0.200 F 
ATOM     75  F   UNL A   1      46.635  37.431  30.623  1.00  0.00    -0.200 F 
ENDBRANCH  42  65
ENDBRANCH  16  17
ENDBRANCH   9  11
ENDBRANCH   8   9
ENDBRANCH   7   8
ENDBRANCH   6   7
ENDBRANCH   5   6
ENDBRANCH   4   5
ENDBRANCH   3   4
ENDBRANCH   2   3
ENDBRANCH   1   2
BRANCH   1  76
ATOM     76  C   UNL A   1      34.206  25.472  23.819  1.00  0.00     0.188 C 
BRANCH  76  77
ATOM     77  O   UNL A   1      33.859  26.759  23.324  1.00  0.00    -0.376 OA
BRANCH  77  78
ATOM     78  C   UNL A   1      33.308  26.796  22.013  1.00  0.00     0.202 C 
BRANCH  78  79
ATOM     79  C   UNL A   1      31.844  27.255  21.968  1.00  0.00     0.261 C 
BRANCH  79  80
ATOM     80  O   UNL A   1      31.455  28.587  22.380  1.00  0.00    -0.460 OA
BRANCH  80  81
ATOM     81  C   UNL A   1      30.575  28.800  23.367  1.00  0.00     0.339 C 
ATOM     82  O   UNL A   1      29.507  29.370  23.324  1.00  0.00    -0.246 OA
BRANCH  81  83
ATOM     83  C   UNL A   1      31.038  28.209  24.612  1.00  0.00     0.072 A 
ATOM     84  C   UNL A   1      32.062  28.863  25.314  1.00  0.00     0.016 A 
ATOM     85  C   UNL A   1      30.510  27.000  25.061  1.00  0.00     0.054 A 
ATOM     86  C   UNL A   1      32.489  28.366  26.541  1.00  0.00     0.001 A 
ATOM     87  C   UNL A   1      30.896  26.549  26.332  1.00  0.00     0.015 A 
ATOM     88  C   UNL A   1      31.878  27.230  27.066  1.00  0.00     0.001 A 
BRANCH  85  89
ATOM     89  C   UNL A   1      29.473  26.237  24.321  1.00  0.00     0.256 C 
ATOM     90  O   UNL A   1      28.390  26.797  24.142  1.00  0.00    -0.269 OA
ATOM     91  N   UNL A   1      29.673  24.989  23.756  1.00  0.00    -0.322 N 
ATOM     92  H   UNL A   1      28.965  24.728  23.123  1.00  0.00     0.170 HD
BRANCH  91  93
ATOM     93  C   UNL A   1      30.684  24.014  23.898  1.00  0.00     0.041 A 
ATOM     94  C   UNL A   1      30.671  23.233  25.069  1.00  0.00     0.028 A 
ATOM     95  C   UNL A   1      31.617  23.713  22.907  1.00  0.00     0.028 A 
ATOM     96  C   UNL A   1      31.442  22.059  25.163  1.00  0.00     0.029 A 
ATOM     97  C   UNL A   1      32.364  22.525  22.985  1.00  0.00     0.029 A 
ATOM     98  C   UNL A   1      32.236  21.665  24.083  1.00  0.00     0.052 A 
BRANCH  98  99
ATOM     99  N   UNL A   1      32.775  20.368  24.021  1.00  0.00    -0.250 N 
ATOM    100  C   UNL A   1      32.466  19.402  23.043  1.00  0.00     0.237 C 
ATOM    101  C   UNL A   1      33.602  19.813  25.015  1.00  0.00     0.237 C 
ATOM    102  O   UNL A   1      31.963  19.525  21.943  1.00  0.00    -0.274 OA
ATOM    103  C   UNL A   1      32.808  18.121  23.773  1.00  0.00     0.095 C 
ATOM    104  C   UNL A   1      34.148  18.606  24.322  1.00  0.00     0.095 C 
ATOM    105  O   UNL A   1      33.862  20.163  26.150  1.00  0.00    -0.274 OA
ATOM    106  C   UNL A   1      33.093  16.649  23.487  1.00  0.00     0.002 C 
ATOM    107  C   UNL A   1      34.831  17.327  24.763  1.00  0.00     0.002 C 
ATOM    108  C   UNL A   1      32.871  15.922  24.850  1.00  0.00     0.005 C 
ATOM    109  C   UNL A   1      34.622  16.539  23.448  1.00  0.00     0.009 C 
ATOM    110  C   UNL A   1      33.993  16.503  25.744  1.00  0.00     0.005 C 
ENDBRANCH  98  99
ENDBRANCH  91  93
ENDBRANCH  85  89
ENDBRANCH  81  83
ENDBRANCH  80  81
ENDBRANCH  79  80
ENDBRANCH  78  79
ENDBRANCH  77  78
ENDBRANCH  76  77
ENDBRANCH   1  76
TORSDOF 23
ENDMDL
MODEL 3
REMARK VINA RESULT:     -12.1      4.127      6.618
REMARK SMILES O=C(OCCOCCOCCOCCOC(=O)c1ccccc1C(=O)Nc1ccc(N2C(=O)[C@H]3[C@@H]4CC[C@@H](C4)[C@@H]3C2=O)cc1)c1ccc(-c2c3nc(c(-c4c(F)c(F)c(F)c(F)c4F)c4ccc([nH]4)c(-c4c(F)c(F)c(F)c(F)c4F)c4nc(c(-c5c(F)c(F)c(F)c(F)c5F)c5ccc2[nH]5)C=C4)C=C3)cc1
REMARK SMILES IDX 10 1 9 2 8 3 7 4 6 5 5 6 4 7 3 8 2 9 1 10 45 11 46 12 107 13
REMARK SMILES IDX 47 14 106 15 48 16 49 17 50 18 100 19 51 20 105 21 99 22
REMARK SMILES IDX 101 23 52 24 104 25 98 26 97 27 53 29 85 30 65 31 84 32
REMARK SMILES IDX 66 33 69 34 83 35 102 36 67 37 68 38 82 40 103 41 70 42
REMARK SMILES IDX 54 43 55 44 63 45 56 46 57 47 61 48 64 49 58 50 59 51 62 52
REMARK SMILES IDX 60 53 86 54 87 55 95 56 88 57 89 58 93 59 96 60 90 61 91 62
REMARK SMILES IDX 94 63 92 64 71 65 72 66 80 67 73 68 74 69 78 70 81 71 75 72
REMARK SMILES IDX 76 73 79 74 77 75 11 76 12 77 13 78 14 79 15 80 16 81 17 82
REMARK SMILES IDX 18 83 19 84 23 85 20 86 22 87 21 88 24 89 25 90 26 91 27 93
REMARK SMILES IDX 28 94 44 95 29 96 43 97 30 98 31 99 32 100 41 101 33 102
REMARK SMILES IDX 34 103 40 104 42 105 35 106 38 107 36 108 39 109 37 110
REMARK H PARENT 101 28 69 39 26 92
REMARK Flexibility Score: inf
ROOT
ATOM      1  C   UNL A   1      34.414  25.496  25.373  1.00  0.00     0.188 C 
ENDROOT
BRANCH   1   2
ATOM      2  O   UNL A   1      33.863  24.390  26.089  1.00  0.00    -0.377 OA
BRANCH   2   3
ATOM      3  C   UNL A   1      34.766  23.334  26.422  1.00  0.00     0.188 C 
BRANCH   3   4
ATOM      4  C   UNL A   1      35.888  23.128  25.406  1.00  0.00     0.188 C 
BRANCH   4   5
ATOM      5  O   UNL A   1      36.534  21.885  25.662  1.00  0.00    -0.376 OA
BRANCH   5   6
ATOM      6  C   UNL A   1      37.191  21.302  24.540  1.00  0.00     0.202 C 
BRANCH   6   7
ATOM      7  C   UNL A   1      38.104  20.167  24.987  1.00  0.00     0.261 C 
BRANCH   7   8
ATOM      8  O   UNL A   1      38.725  20.562  26.223  1.00  0.00    -0.460 OA
BRANCH   8   9
ATOM      9  C   UNL A   1      40.060  20.818  26.180  1.00  0.00     0.338 C 
ATOM     10  O   UNL A   1      40.941  20.148  25.673  1.00  0.00    -0.246 OA
BRANCH   9  11
ATOM     11  C   UNL A   1      40.233  22.054  26.962  1.00  0.00     0.060 A 
ATOM     12  C   UNL A   1      39.592  23.194  26.481  1.00  0.00     0.016 A 
ATOM     13  C   UNL A   1      41.153  22.149  28.000  1.00  0.00     0.016 A 
ATOM     14  C   UNL A   1      39.996  24.448  26.891  1.00  0.00     0.010 A 
ATOM     15  C   UNL A   1      41.537  23.422  28.449  1.00  0.00     0.010 A 
ATOM     16  C   UNL A   1      41.027  24.579  27.824  1.00  0.00    -0.014 A 
BRANCH  16  17
ATOM     17  C   UNL A   1      41.734  25.889  27.884  1.00  0.00     0.031 A 
ATOM     18  C   UNL A   1      41.140  26.980  28.745  1.00  0.00     0.074 A 
ATOM     19  C   UNL A   1      42.992  26.033  27.424  1.00  0.00     0.049 A 
ATOM     20  N   UNL A   1      41.531  28.220  28.904  1.00  0.00    -0.248 NA
ATOM     21  C   UNL A   1      39.965  26.621  29.558  1.00  0.00     0.031 C 
ATOM     22  C   UNL A   1      43.791  24.978  26.800  1.00  0.00     0.029 A 
ATOM     23  N   UNL A   1      43.859  27.094  27.515  1.00  0.00    -0.354 N 
ATOM     24  C   UNL A   1      40.604  28.801  29.762  1.00  0.00     0.074 A 
ATOM     25  C   UNL A   1      39.653  27.777  30.125  1.00  0.00     0.031 C 
ATOM     26  C   UNL A   1      45.058  25.405  26.676  1.00  0.00     0.029 A 
ATOM     27  C   UNL A   1      45.132  26.804  27.086  1.00  0.00     0.049 A 
ATOM     28  H   UNL A   1      43.594  27.979  27.855  1.00  0.00     0.167 HD
ATOM     29  C   UNL A   1      40.542  30.082  30.192  1.00  0.00     0.037 A 
ATOM     30  C   UNL A   1      46.223  27.592  27.007  1.00  0.00     0.037 A 
ATOM     31  C   UNL A   1      41.526  31.080  29.880  1.00  0.00     0.049 A 
ATOM     32  C   UNL A   1      46.090  29.045  27.387  1.00  0.00     0.074 A 
ATOM     33  C   UNL A   1      41.499  32.439  30.139  1.00  0.00     0.029 A 
ATOM     34  N   UNL A   1      42.740  30.810  29.271  1.00  0.00    -0.354 N 
ATOM     35  N   UNL A   1      45.112  29.658  28.008  1.00  0.00    -0.248 NA
ATOM     36  C   UNL A   1      47.199  29.930  26.999  1.00  0.00     0.031 C 
ATOM     37  C   UNL A   1      42.691  32.996  29.659  1.00  0.00     0.029 A 
ATOM     38  C   UNL A   1      43.471  31.978  29.137  1.00  0.00     0.049 A 
ATOM     39  H   UNL A   1      43.039  29.920  28.976  1.00  0.00     0.167 HD
ATOM     40  C   UNL A   1      45.484  30.995  28.078  1.00  0.00     0.074 A 
ATOM     41  C   UNL A   1      46.800  31.095  27.487  1.00  0.00     0.031 C 
ATOM     42  C   UNL A   1      44.784  32.054  28.555  1.00  0.00     0.037 A 
BRANCH  29  43
ATOM     43  C   UNL A   1      39.328  30.495  30.965  1.00  0.00     0.064 A 
ATOM     44  C   UNL A   1      38.177  30.992  30.343  1.00  0.00     0.173 A 
ATOM     45  C   UNL A   1      39.322  30.369  32.364  1.00  0.00     0.173 A 
ATOM     46  F   UNL A   1      38.146  31.159  29.013  1.00  0.00    -0.203 F 
ATOM     47  C   UNL A   1      37.062  31.359  31.097  1.00  0.00     0.198 A 
ATOM     48  C   UNL A   1      38.201  30.715  33.110  1.00  0.00     0.198 A 
ATOM     49  F   UNL A   1      40.404  29.903  33.005  1.00  0.00    -0.203 F 
ATOM     50  F   UNL A   1      35.982  31.867  30.488  1.00  0.00    -0.200 F 
ATOM     51  C   UNL A   1      37.072  31.213  32.476  1.00  0.00     0.200 A 
ATOM     52  F   UNL A   1      38.212  30.569  34.442  1.00  0.00    -0.200 F 
ATOM     53  F   UNL A   1      35.998  31.562  33.198  1.00  0.00    -0.200 F 
ENDBRANCH  29  43
BRANCH  30  54
ATOM     54  C   UNL A   1      47.513  27.075  26.468  1.00  0.00     0.064 A 
ATOM     55  C   UNL A   1      48.544  26.660  27.326  1.00  0.00     0.173 A 
ATOM     56  C   UNL A   1      47.779  27.068  25.090  1.00  0.00     0.173 A 
ATOM     57  F   UNL A   1      48.365  26.703  28.655  1.00  0.00    -0.203 F 
ATOM     58  C   UNL A   1      49.789  26.280  26.827  1.00  0.00     0.198 A 
ATOM     59  C   UNL A   1      49.009  26.648  24.590  1.00  0.00     0.198 A 
ATOM     60  F   UNL A   1      46.847  27.484  24.220  1.00  0.00    -0.203 F 
ATOM     61  F   UNL A   1      50.783  25.971  27.673  1.00  0.00    -0.200 F 
ATOM     62  C   UNL A   1      50.018  26.267  25.459  1.00  0.00     0.200 A 
ATOM     63  F   UNL A   1      49.222  26.636  23.267  1.00  0.00    -0.200 F 
ATOM     64  F   UNL A   1      51.219  25.918  24.980  1.00  0.00    -0.200 F 
ENDBRANCH  30  54
BRANCH  42  65
ATOM     65  C   UNL A   1      45.427  33.405  28.454  1.00  0.00     0.064 A 
ATOM     66  C   UNL A   1      45.208  34.232  27.342  1.00  0.00     0.173 A 
ATOM     67  C   UNL A   1      46.232  33.895  29.491  1.00  0.00     0.173 A 
ATOM     68  F   UNL A   1      44.454  33.801  26.319  1.00  0.00    -0.203 F 
ATOM     69  C   UNL A   1      45.795  35.490  27.259  1.00  0.00     0.198 A 
ATOM     70  C   UNL A   1      46.794  35.167  29.419  1.00  0.00     0.198 A 
ATOM     71  F   UNL A   1      46.463  33.149  30.581  1.00  0.00    -0.203 F 
ATOM     72  F   UNL A   1      45.610  36.243  26.166  1.00  0.00    -0.200 F 
ATOM     73  C   UNL A   1      46.582  35.960  28.300  1.00  0.00     0.200 A 
ATOM     74  F   UNL A   1      47.542  35.627  30.432  1.00  0.00    -0.200 F 
ATOM     75  F   UNL A   1      47.142  37.174  28.222  1.00  0.00    -0.200 F 
ENDBRANCH  42  65
ENDBRANCH  16  17
ENDBRANCH   9  11
ENDBRANCH   8   9
ENDBRANCH   7   8
ENDBRANCH   6   7
ENDBRANCH   5   6
ENDBRANCH   4   5
ENDBRANCH   3   4
ENDBRANCH   2   3
ENDBRANCH   1   2
BRANCH   1  76
ATOM     76  C   UNL A   1      34.092  25.615  23.871  1.00  0.00     0.188 C 
BRANCH  76  77
ATOM     77  O   UNL A   1      33.877  26.931  23.375  1.00  0.00    -0.376 OA
BRANCH  77  78
ATOM     78  C   UNL A   1      33.341  27.022  22.061  1.00  0.00     0.202 C 
BRANCH  78  79
ATOM     79  C   UNL A   1      31.855  27.405  22.022  1.00  0.00     0.261 C 
BRANCH  79  80
ATOM     80  O   UNL A   1      31.404  28.729  22.394  1.00  0.00    -0.460 OA
BRANCH  80  81
ATOM     81  C   UNL A   1      30.542  28.933  23.397  1.00  0.00     0.339 C 
ATOM     82  O   UNL A   1      29.486  29.527  23.384  1.00  0.00    -0.246 OA
BRANCH  81  83
ATOM     83  C   UNL A   1      31.007  28.298  24.619  1.00  0.00     0.072 A 
ATOM     84  C   UNL A   1      32.014  28.941  25.357  1.00  0.00     0.016 A 
ATOM     85  C   UNL A   1      30.500  27.061  25.012  1.00  0.00     0.054 A 
ATOM     86  C   UNL A   1      32.442  28.400  26.564  1.00  0.00     0.001 A 
ATOM     87  C   UNL A   1      30.886  26.563  26.266  1.00  0.00     0.015 A 
ATOM     88  C   UNL A   1      31.850  27.230  27.036  1.00  0.00     0.001 A 
BRANCH  85  89
ATOM     89  C   UNL A   1      29.483  26.311  24.232  1.00  0.00     0.256 C 
ATOM     90  O   UNL A   1      28.408  26.878  24.027  1.00  0.00    -0.269 OA
ATOM     91  N   UNL A   1      29.695  25.068  23.659  1.00  0.00    -0.322 N 
ATOM     92  H   UNL A   1      29.006  24.819  23.002  1.00  0.00     0.170 HD
BRANCH  91  93
ATOM     93  C   UNL A   1      30.697  24.088  23.820  1.00  0.00     0.041 A 
ATOM     94  C   UNL A   1      30.660  23.310  24.992  1.00  0.00     0.028 A 
ATOM     95  C   UNL A   1      31.645  23.779  22.846  1.00  0.00     0.028 A 
ATOM     96  C   UNL A   1      31.422  22.132  25.102  1.00  0.00     0.029 A 
ATOM     97  C   UNL A   1      32.383  22.587  22.939  1.00  0.00     0.029 A 
ATOM     98  C   UNL A   1      32.231  21.730  24.036  1.00  0.00     0.052 A 
BRANCH  98  99
ATOM     99  N   UNL A   1      32.764  20.429  23.987  1.00  0.00    -0.250 N 
ATOM    100  C   UNL A   1      32.443  19.453  23.023  1.00  0.00     0.237 C 
ATOM    101  C   UNL A   1      33.594  19.883  24.981  1.00  0.00     0.237 C 
ATOM    102  O   UNL A   1      31.933  19.565  21.925  1.00  0.00    -0.274 OA
ATOM    103  C   UNL A   1      32.783  18.180  23.766  1.00  0.00     0.095 C 
ATOM    104  C   UNL A   1      34.129  18.664  24.300  1.00  0.00     0.095 C 
ATOM    105  O   UNL A   1      33.864  20.245  26.110  1.00  0.00    -0.274 OA
ATOM    106  C   UNL A   1      33.058  16.703  23.496  1.00  0.00     0.002 C 
ATOM    107  C   UNL A   1      34.808  17.387  24.752  1.00  0.00     0.002 C 
ATOM    108  C   UNL A   1      32.841  15.993  24.870  1.00  0.00     0.005 C 
ATOM    109  C   UNL A   1      34.586  16.583  23.448  1.00  0.00     0.009 C 
ATOM    110  C   UNL A   1      33.973  16.579  25.749  1.00  0.00     0.005 C 
ENDBRANCH  98  99
ENDBRANCH  91  93
ENDBRANCH  85  89
ENDBRANCH  81  83
ENDBRANCH  80  81
ENDBRANCH  79  80
ENDBRANCH  78  79
ENDBRANCH  77  78
ENDBRANCH  76  77
ENDBRANCH   1  76
TORSDOF 23
ENDMDL
