MODEL 1
REMARK VINA RESULT:     -12.9      0.000      0.000
REMARK SMILES O=C(OCCOCCOCCOCCOC(=O)[C@H]1CC=CC[C@H]1C(=O)N[C@@H]1CCN(c2cccc(Cl)c2)C1)c1ccc(-c2c3nc(c(-c4c(F)c(F)c(F)c(F)c4F)c4ccc([nH]4)c(-c4c(F)c(F)c(F)c(F)c4F)c4nc(c(-c5c(F)c(F)c(F)c(F)c5F)c5ccc2[nH]5)C=C4)C=C3)cc1
REMARK SMILES IDX 10 1 9 2 8 3 7 4 6 5 5 6 4 7 3 8 2 9 1 10 39 11 40 12 101 13
REMARK SMILES IDX 41 14 100 15 42 16 43 17 44 18 94 19 45 20 99 21 93 22 95 23
REMARK SMILES IDX 46 24 98 25 92 26 91 27 47 29 79 30 59 31 78 32 60 33 63 34
REMARK SMILES IDX 77 35 96 36 61 37 62 38 76 40 97 41 64 42 48 43 49 44 57 45
REMARK SMILES IDX 50 46 51 47 55 48 58 49 52 50 53 51 56 52 54 53 80 54 81 55
REMARK SMILES IDX 89 56 82 57 83 58 87 59 90 60 84 61 85 62 88 63 86 64 65 65
REMARK SMILES IDX 66 66 74 67 67 68 68 69 72 70 75 71 69 72 70 73 73 74 71 75
REMARK SMILES IDX 11 76 12 77 13 78 14 79 15 80 16 81 17 82 18 83 19 84 23 85
REMARK SMILES IDX 20 86 22 87 21 88 24 89 25 90 26 91 27 93 28 94 38 95 29 96
REMARK SMILES IDX 30 97 31 98 32 99 37 100 33 101 35 102 34 103 36 104
REMARK H PARENT 95 28 63 39 26 92
REMARK Flexibility Score: inf
ROOT
ATOM      1  C   UNL A   1      39.504  21.834  26.122  1.00  0.00     0.188 C 
ENDROOT
BRANCH   1   2
ATOM      2  O   UNL A   1      40.204  20.699  26.657  1.00  0.00    -0.377 OA
BRANCH   2   3
ATOM      3  C   UNL A   1      41.518  20.474  26.127  1.00  0.00     0.188 C 
BRANCH   3   4
ATOM      4  C   UNL A   1      42.118  18.957  26.127  1.00  0.00     0.188 C 
BRANCH   4   5
ATOM      5  O   UNL A   1      43.488  18.683  25.641  1.00  0.00    -0.376 OA
BRANCH   5   6
ATOM      6  C   UNL A   1      44.216  19.507  24.622  1.00  0.00     0.202 C 
BRANCH   6   7
ATOM      7  C   UNL A   1      45.416  20.860  24.993  1.00  0.00     0.261 C 
BRANCH   7   8
ATOM      8  O   UNL A   1      45.182  22.569  25.346  1.00  0.00    -0.460 OA
BRANCH   8   9
ATOM      9  C   UNL A   1      45.004  23.977  25.007  1.00  0.00     0.338 C 
ATOM     10  O   UNL A   1      45.859  24.475  24.252  1.00  0.00    -0.246 OA
BRANCH   9  11
ATOM     11  C   UNL A   1      43.895  25.076  25.500  1.00  0.00     0.060 A 
ATOM     12  C   UNL A   1      44.214  26.428  25.658  1.00  0.00     0.016 A 
ATOM     13  C   UNL A   1      42.578  24.831  25.908  1.00  0.00     0.016 A 
ATOM     14  C   UNL A   1      43.565  27.271  26.643  1.00  0.00     0.010 A 
ATOM     15  C   UNL A   1      41.835  25.771  26.760  1.00  0.00     0.010 A 
ATOM     16  C   UNL A   1      42.398  26.927  27.351  1.00  0.00    -0.014 A 
BRANCH  16  17
ATOM     17  C   UNL A   1      41.885  27.658  28.705  1.00  0.00     0.031 A 
ATOM     18  C   UNL A   1      40.566  28.520  28.759  1.00  0.00     0.074 A 
ATOM     19  C   UNL A   1      42.398  27.485  29.971  1.00  0.00     0.049 A 
ATOM     20  N   UNL A   1      40.041  29.212  29.767  1.00  0.00    -0.248 NA
ATOM     21  C   UNL A   1      39.718  28.582  27.567  1.00  0.00     0.031 C 
ATOM     22  C   UNL A   1      43.565  26.697  30.353  1.00  0.00     0.029 A 
ATOM     23  N   UNL A   1      41.962  27.961  31.224  1.00  0.00    -0.354 N 
ATOM     24  C   UNL A   1      38.849  29.788  29.310  1.00  0.00     0.074 A 
ATOM     25  C   UNL A   1      38.710  29.359  27.939  1.00  0.00     0.031 C 
ATOM     26  C   UNL A   1      43.688  26.647  31.689  1.00  0.00     0.029 A 
ATOM     27  C   UNL A   1      42.710  27.532  32.312  1.00  0.00     0.049 A 
ATOM     28  H   UNL A   1      41.183  28.556  31.321  1.00  0.00     0.167 HD
ATOM     29  C   UNL A   1      37.928  30.593  29.914  1.00  0.00     0.037 A 
ATOM     30  C   UNL A   1      42.720  27.824  33.641  1.00  0.00     0.037 A 
ATOM     31  C   UNL A   1      37.940  31.095  31.268  1.00  0.00     0.049 A 
ATOM     32  C   UNL A   1      41.813  28.865  34.260  1.00  0.00     0.074 A 
ATOM     33  C   UNL A   1      37.068  32.005  31.858  1.00  0.00     0.029 A 
ATOM     34  N   UNL A   1      38.837  30.732  32.247  1.00  0.00    -0.354 N 
ATOM     35  N   UNL A   1      40.791  29.487  33.739  1.00  0.00    -0.248 NA
ATOM     36  C   UNL A   1      42.102  29.277  35.652  1.00  0.00     0.031 C 
ATOM     37  C   UNL A   1      37.465  32.222  33.183  1.00  0.00     0.029 A 
ATOM     38  C   UNL A   1      38.557  31.416  33.428  1.00  0.00     0.049 A 
ATOM     39  H   UNL A   1      39.570  30.084  32.131  1.00  0.00     0.167 HD
ATOM     40  C   UNL A   1      40.330  30.359  34.724  1.00  0.00     0.074 A 
ATOM     41  C   UNL A   1      41.144  30.159  35.896  1.00  0.00     0.031 C 
ATOM     42  C   UNL A   1      39.326  31.262  34.629  1.00  0.00     0.037 A 
BRANCH  29  43
ATOM     43  C   UNL A   1      36.773  31.074  29.073  1.00  0.00     0.064 A 
ATOM     44  C   UNL A   1      35.685  30.243  28.768  1.00  0.00     0.173 A 
ATOM     45  C   UNL A   1      36.711  32.418  28.670  1.00  0.00     0.173 A 
ATOM     46  F   UNL A   1      35.699  28.953  29.134  1.00  0.00    -0.203 F 
ATOM     47  C   UNL A   1      34.581  30.740  28.078  1.00  0.00     0.198 A 
ATOM     48  C   UNL A   1      35.598  32.914  27.998  1.00  0.00     0.198 A 
ATOM     49  F   UNL A   1      37.716  33.257  28.964  1.00  0.00    -0.203 F 
ATOM     50  F   UNL A   1      33.557  29.927  27.779  1.00  0.00    -0.200 F 
ATOM     51  C   UNL A   1      34.535  32.074  27.700  1.00  0.00     0.200 A 
ATOM     52  F   UNL A   1      35.547  34.208  27.652  1.00  0.00    -0.200 F 
ATOM     53  F   UNL A   1      33.465  32.553  27.049  1.00  0.00    -0.200 F 
ENDBRANCH  29  43
BRANCH  30  54
ATOM     54  C   UNL A   1      43.742  27.202  34.551  1.00  0.00     0.064 A 
ATOM     55  C   UNL A   1      45.032  27.742  34.689  1.00  0.00     0.173 A 
ATOM     56  C   UNL A   1      43.484  25.985  35.201  1.00  0.00     0.173 A 
ATOM     57  F   UNL A   1      45.362  28.866  34.032  1.00  0.00    -0.203 F 
ATOM     58  C   UNL A   1      46.016  27.090  35.436  1.00  0.00     0.198 A 
ATOM     59  C   UNL A   1      44.452  25.358  35.983  1.00  0.00     0.198 A 
ATOM     60  F   UNL A   1      42.286  25.397  35.070  1.00  0.00    -0.203 F 
ATOM     61  F   UNL A   1      47.256  27.592  35.493  1.00  0.00    -0.200 F 
ATOM     62  C   UNL A   1      45.720  25.904  36.092  1.00  0.00     0.200 A 
ATOM     63  F   UNL A   1      44.158  24.214  36.615  1.00  0.00    -0.200 F 
ATOM     64  F   UNL A   1      46.661  25.278  36.811  1.00  0.00    -0.200 F 
ENDBRANCH  30  54
BRANCH  42  65
ATOM     65  C   UNL A   1      39.022  32.126  35.823  1.00  0.00     0.064 A 
ATOM     66  C   UNL A   1      39.484  33.449  35.902  1.00  0.00     0.173 A 
ATOM     67  C   UNL A   1      38.250  31.644  36.891  1.00  0.00     0.173 A 
ATOM     68  F   UNL A   1      40.237  33.960  34.916  1.00  0.00    -0.203 F 
ATOM     69  C   UNL A   1      39.206  34.247  37.012  1.00  0.00     0.198 A 
ATOM     70  C   UNL A   1      37.958  32.451  37.991  1.00  0.00     0.198 A 
ATOM     71  F   UNL A   1      37.779  30.388  36.871  1.00  0.00    -0.203 F 
ATOM     72  F   UNL A   1      39.695  35.493  37.081  1.00  0.00    -0.200 F 
ATOM     73  C   UNL A   1      38.441  33.749  38.055  1.00  0.00     0.200 A 
ATOM     74  F   UNL A   1      37.211  31.968  38.995  1.00  0.00    -0.200 F 
ATOM     75  F   UNL A   1      38.177  34.514  39.123  1.00  0.00    -0.200 F 
ENDBRANCH  42  65
ENDBRANCH  16  17
ENDBRANCH   9  11
ENDBRANCH   8   9
ENDBRANCH   7   8
ENDBRANCH   6   7
ENDBRANCH   5   6
ENDBRANCH   4   5
ENDBRANCH   3   4
ENDBRANCH   2   3
ENDBRANCH   1   2
BRANCH   1  76
ATOM     76  C   UNL A   1      38.149  21.611  25.410  1.00  0.00     0.188 C 
BRANCH  76  77
ATOM     77  O   UNL A   1      37.388  22.821  25.336  1.00  0.00    -0.376 OA
BRANCH  77  78
ATOM     78  C   UNL A   1      36.371  22.829  24.336  1.00  0.00     0.202 C 
BRANCH  78  79
ATOM     79  C   UNL A   1      35.579  24.132  24.429  1.00  0.00     0.261 C 
BRANCH  79  80
ATOM     80  O   UNL A   1      34.755  24.254  23.257  1.00  0.00    -0.463 OA
BRANCH  80  81
ATOM     81  C   UNL A   1      34.033  25.384  23.140  1.00  0.00     0.310 C 
ATOM     82  O   UNL A   1      33.758  25.932  22.076  1.00  0.00    -0.252 OA
BRANCH  81  83
ATOM     83  C   UNL A   1      33.511  25.915  24.455  1.00  0.00     0.115 C 
ATOM     84  C   UNL A   1      34.027  27.360  24.650  1.00  0.00     0.043 C 
ATOM     85  C   UNL A   1      32.054  25.609  24.902  1.00  0.00     0.096 C 
ATOM     86  C   UNL A   1      32.993  28.403  24.906  1.00  0.00    -0.030 C 
ATOM     87  C   UNL A   1      31.499  26.692  25.869  1.00  0.00     0.041 C 
ATOM     88  C   UNL A   1      31.830  28.102  25.490  1.00  0.00    -0.030 C 
BRANCH  85  89
ATOM     89  C   UNL A   1      31.069  24.733  24.009  1.00  0.00     0.224 C 
ATOM     90  O   UNL A   1      30.101  25.326  23.501  1.00  0.00    -0.275 OA
ATOM     91  N   UNL A   1      31.131  23.390  23.689  1.00  0.00    -0.351 N 
ATOM     92  H   UNL A   1      30.410  23.065  23.103  1.00  0.00     0.163 HD
BRANCH  91  93
ATOM     93  C   UNL A   1      32.113  22.376  24.094  1.00  0.00     0.103 C 
ATOM     94  C   UNL A   1      32.586  21.797  22.821  1.00  0.00     0.048 C 
ATOM     95  C   UNL A   1      31.782  21.037  24.960  1.00  0.00     0.141 C 
ATOM     96  C   UNL A   1      32.102  20.380  22.843  1.00  0.00     0.119 C 
ATOM     97  N   UNL A   1      32.405  19.825  24.224  1.00  0.00    -0.369 N 
BRANCH  97  98
ATOM     98  C   UNL A   1      33.130  18.640  24.617  1.00  0.00     0.038 A 
ATOM     99  C   UNL A   1      34.507  18.426  24.540  1.00  0.00     0.026 A 
ATOM    100  C   UNL A   1      32.616  17.391  25.180  1.00  0.00     0.046 A 
ATOM    101  C   UNL A   1      35.153  17.124  24.648  1.00  0.00     0.004 A 
ATOM    102  C   UNL A   1      33.202  16.117  25.372  1.00  0.00     0.043 A 
ATOM    103  C   UNL A   1      34.488  15.955  25.001  1.00  0.00     0.020 A 
ATOM    104  Cl  UNL A   1      32.280  14.822  26.059  1.00  0.00    -0.084 Cl
ENDBRANCH  97  98
ENDBRANCH  91  93
ENDBRANCH  85  89
ENDBRANCH  81  83
ENDBRANCH  80  81
ENDBRANCH  79  80
ENDBRANCH  78  79
ENDBRANCH  77  78
ENDBRANCH  76  77
ENDBRANCH   1  76
TORSDOF 23
ENDMDL
MODEL 2
REMARK VINA RESULT:     -11.9      3.585      8.681
REMARK SMILES O=C(OCCOCCOCCOCCOC(=O)[C@H]1CC=CC[C@H]1C(=O)N[C@@H]1CCN(c2cccc(Cl)c2)C1)c1ccc(-c2c3nc(c(-c4c(F)c(F)c(F)c(F)c4F)c4ccc([nH]4)c(-c4c(F)c(F)c(F)c(F)c4F)c4nc(c(-c5c(F)c(F)c(F)c(F)c5F)c5ccc2[nH]5)C=C4)C=C3)cc1
REMARK SMILES IDX 10 1 9 2 8 3 7 4 6 5 5 6 4 7 3 8 2 9 1 10 39 11 40 12 101 13
REMARK SMILES IDX 41 14 100 15 42 16 43 17 44 18 94 19 45 20 99 21 93 22 95 23
REMARK SMILES IDX 46 24 98 25 92 26 91 27 47 29 79 30 59 31 78 32 60 33 63 34
REMARK SMILES IDX 77 35 96 36 61 37 62 38 76 40 97 41 64 42 48 43 49 44 57 45
REMARK SMILES IDX 50 46 51 47 55 48 58 49 52 50 53 51 56 52 54 53 80 54 81 55
REMARK SMILES IDX 89 56 82 57 83 58 87 59 90 60 84 61 85 62 88 63 86 64 65 65
REMARK SMILES IDX 66 66 74 67 67 68 68 69 72 70 75 71 69 72 70 73 73 74 71 75
REMARK SMILES IDX 11 76 12 77 13 78 14 79 15 80 16 81 17 82 18 83 19 84 23 85
REMARK SMILES IDX 20 86 22 87 21 88 24 89 25 90 26 91 27 93 28 94 38 95 29 96
REMARK SMILES IDX 30 97 31 98 32 99 37 100 33 101 35 102 34 103 36 104
REMARK H PARENT 95 28 63 39 26 92
REMARK Flexibility Score: inf
ROOT
ATOM      1  C   UNL A   1      34.000  28.984  23.684  1.00  0.00     0.188 C 
ENDROOT
BRANCH   1   2
ATOM      2  O   UNL A   1      34.017  28.029  24.756  1.00  0.00    -0.377 OA
BRANCH   2   3
ATOM      3  C   UNL A   1      34.003  28.580  26.080  1.00  0.00     0.188 C 
BRANCH   3   4
ATOM      4  C   UNL A   1      32.645  28.448  26.975  1.00  0.00     0.188 C 
BRANCH   4   5
ATOM      5  O   UNL A   1      31.393  29.117  26.558  1.00  0.00    -0.376 OA
BRANCH   5   6
ATOM      6  C   UNL A   1      31.322  30.336  25.689  1.00  0.00     0.202 C 
BRANCH   6   7
ATOM      7  C   UNL A   1      30.976  32.054  26.274  1.00  0.00     0.261 C 
BRANCH   7   8
ATOM      8  O   UNL A   1      31.905  33.156  27.283  1.00  0.00    -0.460 OA
BRANCH   8   9
ATOM      9  C   UNL A   1      33.092  33.612  28.000  1.00  0.00     0.338 C 
ATOM     10  O   UNL A   1      32.947  34.610  28.729  1.00  0.00    -0.246 OA
BRANCH   9  11
ATOM     11  C   UNL A   1      34.641  33.081  27.974  1.00  0.00     0.060 A 
ATOM     12  C   UNL A   1      34.961  31.748  27.702  1.00  0.00     0.016 A 
ATOM     13  C   UNL A   1      35.794  33.806  28.299  1.00  0.00     0.016 A 
ATOM     14  C   UNL A   1      36.123  31.094  28.272  1.00  0.00     0.010 A 
ATOM     15  C   UNL A   1      37.045  33.148  28.702  1.00  0.00     0.010 A 
ATOM     16  C   UNL A   1      37.178  31.758  28.926  1.00  0.00    -0.014 A 
BRANCH  16  17
ATOM     17  C   UNL A   1      38.265  31.042  29.894  1.00  0.00     0.031 A 
ATOM     18  C   UNL A   1      39.384  30.075  29.347  1.00  0.00     0.074 A 
ATOM     19  C   UNL A   1      38.471  31.308  31.229  1.00  0.00     0.049 A 
ATOM     20  N   UNL A   1      40.309  29.383  30.007  1.00  0.00    -0.248 NA
ATOM     21  C   UNL A   1      39.510  29.894  27.899  1.00  0.00     0.031 C 
ATOM     22  C   UNL A   1      37.699  32.206  32.081  1.00  0.00     0.029 A 
ATOM     23  N   UNL A   1      39.455  30.849  32.128  1.00  0.00    -0.354 N 
ATOM     24  C   UNL A   1      41.076  28.691  29.061  1.00  0.00     0.074 A 
ATOM     25  C   UNL A   1      40.526  29.051  27.776  1.00  0.00     0.031 C 
ATOM     26  C   UNL A   1      38.270  32.321  33.291  1.00  0.00     0.029 A 
ATOM     27  C   UNL A   1      39.381  31.383  33.407  1.00  0.00     0.049 A 
ATOM     28  H   UNL A   1      40.144  30.195  31.868  1.00  0.00     0.167 HD
ATOM     29  C   UNL A   1      42.132  27.837  29.183  1.00  0.00     0.037 A 
ATOM     30  C   UNL A   1      40.028  31.146  34.581  1.00  0.00     0.037 A 
ATOM     31  C   UNL A   1      42.779  27.393  30.395  1.00  0.00     0.049 A 
ATOM     32  C   UNL A   1      41.069  30.059  34.740  1.00  0.00     0.074 A 
ATOM     33  C   UNL A   1      43.781  26.437  30.538  1.00  0.00     0.029 A 
ATOM     34  N   UNL A   1      42.519  27.869  31.661  1.00  0.00    -0.354 N 
ATOM     35  N   UNL A   1      41.653  29.333  33.829  1.00  0.00    -0.248 NA
ATOM     36  C   UNL A   1      41.501  29.730  36.118  1.00  0.00     0.031 C 
ATOM     37  C   UNL A   1      44.097  26.309  31.896  1.00  0.00     0.029 A 
ATOM     38  C   UNL A   1      43.321  27.212  32.591  1.00  0.00     0.049 A 
ATOM     39  H   UNL A   1      41.863  28.571  31.877  1.00  0.00     0.167 HD
ATOM     40  C   UNL A   1      42.503  28.467  34.514  1.00  0.00     0.074 A 
ATOM     41  C   UNL A   1      42.403  28.781  35.917  1.00  0.00     0.031 C 
ATOM     42  C   UNL A   1      43.273  27.480  34.000  1.00  0.00     0.037 A 
BRANCH  29  43
ATOM     43  C   UNL A   1      42.678  27.227  27.916  1.00  0.00     0.064 A 
ATOM     44  C   UNL A   1      43.874  27.674  27.338  1.00  0.00     0.173 A 
ATOM     45  C   UNL A   1      42.048  26.108  27.349  1.00  0.00     0.173 A 
ATOM     46  F   UNL A   1      44.513  28.739  27.846  1.00  0.00    -0.203 F 
ATOM     47  C   UNL A   1      44.413  27.027  26.227  1.00  0.00     0.198 A 
ATOM     48  C   UNL A   1      42.600  25.453  26.251  1.00  0.00     0.198 A 
ATOM     49  F   UNL A   1      40.916  25.627  27.886  1.00  0.00    -0.203 F 
ATOM     50  F   UNL A   1      45.549  27.479  25.675  1.00  0.00    -0.200 F 
ATOM     51  C   UNL A   1      43.780  25.915  25.690  1.00  0.00     0.200 A 
ATOM     52  F   UNL A   1      41.997  24.368  25.747  1.00  0.00    -0.200 F 
ATOM     53  F   UNL A   1      44.309  25.287  24.630  1.00  0.00    -0.200 F 
ENDBRANCH  29  43
BRANCH  30  54
ATOM     54  C   UNL A   1      39.640  31.889  35.829  1.00  0.00     0.064 A 
ATOM     55  C   UNL A   1      40.429  32.933  36.341  1.00  0.00     0.173 A 
ATOM     56  C   UNL A   1      38.538  31.482  36.597  1.00  0.00     0.173 A 
ATOM     57  F   UNL A   1      41.537  33.317  35.688  1.00  0.00    -0.203 F 
ATOM     58  C   UNL A   1      40.131  33.534  37.566  1.00  0.00     0.198 A 
ATOM     59  C   UNL A   1      38.215  32.112  37.798  1.00  0.00     0.198 A 
ATOM     60  F   UNL A   1      37.773  30.462  36.183  1.00  0.00    -0.203 F 
ATOM     61  F   UNL A   1      40.940  34.479  38.063  1.00  0.00    -0.200 F 
ATOM     62  C   UNL A   1      39.017  33.130  38.287  1.00  0.00     0.200 A 
ATOM     63  F   UNL A   1      37.136  31.718  38.487  1.00  0.00    -0.200 F 
ATOM     64  F   UNL A   1      38.728  33.707  39.461  1.00  0.00    -0.200 F 
ENDBRANCH  30  54
BRANCH  42  65
ATOM     65  C   UNL A   1      44.093  26.642  34.943  1.00  0.00     0.064 A 
ATOM     66  C   UNL A   1      45.277  27.133  35.514  1.00  0.00     0.173 A 
ATOM     67  C   UNL A   1      43.692  25.345  35.298  1.00  0.00     0.173 A 
ATOM     68  F   UNL A   1      45.717  28.361  35.202  1.00  0.00    -0.203 F 
ATOM     69  C   UNL A   1      46.040  26.352  36.384  1.00  0.00     0.198 A 
ATOM     70  C   UNL A   1      44.446  24.573  36.183  1.00  0.00     0.198 A 
ATOM     71  F   UNL A   1      42.568  24.821  34.787  1.00  0.00    -0.203 F 
ATOM     72  F   UNL A   1      47.188  26.831  36.881  1.00  0.00    -0.200 F 
ATOM     73  C   UNL A   1      45.622  25.074  36.720  1.00  0.00     0.200 A 
ATOM     74  F   UNL A   1      44.036  23.339  36.512  1.00  0.00    -0.200 F 
ATOM     75  F   UNL A   1      46.356  24.323  37.552  1.00  0.00    -0.200 F 
ENDBRANCH  42  65
ENDBRANCH  16  17
ENDBRANCH   9  11
ENDBRANCH   8   9
ENDBRANCH   7   8
ENDBRANCH   6   7
ENDBRANCH   5   6
ENDBRANCH   4   5
ENDBRANCH   3   4
ENDBRANCH   2   3
ENDBRANCH   1   2
BRANCH   1  76
ATOM     76  C   UNL A   1      33.252  28.632  22.378  1.00  0.00     0.188 C 
BRANCH  76  77
ATOM     77  O   UNL A   1      31.846  28.873  22.495  1.00  0.00    -0.376 OA
BRANCH  77  78
ATOM     78  C   UNL A   1      31.023  27.721  22.319  1.00  0.00     0.202 C 
BRANCH  78  79
ATOM     79  C   UNL A   1      30.846  27.015  23.661  1.00  0.00     0.261 C 
BRANCH  79  80
ATOM     80  O   UNL A   1      31.147  25.619  23.488  1.00  0.00    -0.463 OA
BRANCH  80  81
ATOM     81  C   UNL A   1      32.341  25.196  23.945  1.00  0.00     0.310 C 
ATOM     82  O   UNL A   1      33.403  25.314  23.340  1.00  0.00    -0.252 OA
BRANCH  81  83
ATOM     83  C   UNL A   1      32.289  24.602  25.334  1.00  0.00     0.115 C 
ATOM     84  C   UNL A   1      30.974  25.045  26.017  1.00  0.00     0.043 C 
ATOM     85  C   UNL A   1      32.767  23.143  25.582  1.00  0.00     0.096 C 
ATOM     86  C   UNL A   1      30.104  23.956  26.548  1.00  0.00    -0.030 C 
ATOM     87  C   UNL A   1      32.080  22.504  26.820  1.00  0.00     0.041 C 
ATOM     88  C   UNL A   1      30.614  22.786  26.941  1.00  0.00    -0.030 C 
BRANCH  85  89
ATOM     89  C   UNL A   1      33.329  22.234  24.402  1.00  0.00     0.224 C 
ATOM     90  O   UNL A   1      32.612  22.126  23.391  1.00  0.00    -0.275 OA
ATOM     91  N   UNL A   1      34.521  21.540  24.317  1.00  0.00    -0.351 N 
ATOM     92  H   UNL A   1      34.662  21.050  23.475  1.00  0.00     0.163 HD
BRANCH  91  93
ATOM     93  C   UNL A   1      35.610  21.426  25.296  1.00  0.00     0.103 C 
ATOM     94  C   UNL A   1      36.150  22.796  25.403  1.00  0.00     0.048 C 
ATOM     95  C   UNL A   1      36.969  20.552  25.096  1.00  0.00     0.141 C 
ATOM     96  C   UNL A   1      37.535  22.704  24.843  1.00  0.00     0.119 C 
ATOM     97  N   UNL A   1      38.176  21.462  25.435  1.00  0.00    -0.369 N 
BRANCH  97  98
ATOM     98  C   UNL A   1      39.420  21.301  26.152  1.00  0.00     0.038 A 
ATOM     99  C   UNL A   1      39.987  22.185  27.071  1.00  0.00     0.026 A 
ATOM    100  C   UNL A   1      40.379  20.198  26.093  1.00  0.00     0.046 A 
ATOM    101  C   UNL A   1      41.371  22.137  27.525  1.00  0.00     0.004 A 
ATOM    102  C   UNL A   1      41.707  20.062  26.564  1.00  0.00     0.043 A 
ATOM    103  C   UNL A   1      42.253  21.107  27.218  1.00  0.00     0.020 A 
ATOM    104  Cl  UNL A   1      42.585  18.593  26.297  1.00  0.00    -0.084 Cl
ENDBRANCH  97  98
ENDBRANCH  91  93
ENDBRANCH  85  89
ENDBRANCH  81  83
ENDBRANCH  80  81
ENDBRANCH  79  80
ENDBRANCH  78  79
ENDBRANCH  77  78
ENDBRANCH  76  77
ENDBRANCH   1  76
TORSDOF 23
ENDMDL
MODEL 3
REMARK VINA RESULT:     -11.8      4.742      9.570
REMARK SMILES O=C(OCCOCCOCCOCCOC(=O)[C@H]1CC=CC[C@H]1C(=O)N[C@@H]1CCN(c2cccc(Cl)c2)C1)c1ccc(-c2c3nc(c(-c4c(F)c(F)c(F)c(F)c4F)c4ccc([nH]4)c(-c4c(F)c(F)c(F)c(F)c4F)c4nc(c(-c5c(F)c(F)c(F)c(F)c5F)c5ccc2[nH]5)C=C4)C=C3)cc1
REMARK SMILES IDX 10 1 9 2 8 3 7 4 6 5 5 6 4 7 3 8 2 9 1 10 39 11 40 12 101 13
REMARK SMILES IDX 41 14 100 15 42 16 43 17 44 18 94 19 45 20 99 21 93 22 95 23
REMARK SMILES IDX 46 24 98 25 92 26 91 27 47 29 79 30 59 31 78 32 60 33 63 34
REMARK SMILES IDX 77 35 96 36 61 37 62 38 76 40 97 41 64 42 48 43 49 44 57 45
REMARK SMILES IDX 50 46 51 47 55 48 58 49 52 50 53 51 56 52 54 53 80 54 81 55
REMARK SMILES IDX 89 56 82 57 83 58 87 59 90 60 84 61 85 62 88 63 86 64 65 65
REMARK SMILES IDX 66 66 74 67 67 68 68 69 72 70 75 71 69 72 70 73 73 74 71 75
REMARK SMILES IDX 11 76 12 77 13 78 14 79 15 80 16 81 17 82 18 83 19 84 23 85
REMARK SMILES IDX 20 86 22 87 21 88 24 89 25 90 26 91 27 93 28 94 38 95 29 96
REMARK SMILES IDX 30 97 31 98 32 99 37 100 33 101 35 102 34 103 36 104
REMARK H PARENT 95 28 63 39 26 92
REMARK Flexibility Score: inf
ROOT
ATOM      1  C   UNL A   1      39.889  27.644  28.614  1.00  0.00     0.188 C 
ENDROOT
BRANCH   1   2
ATOM      2  O   UNL A   1      39.992  26.212  28.641  1.00  0.00    -0.377 OA
BRANCH   2   3
ATOM      3  C   UNL A   1      39.402  25.526  27.528  1.00  0.00     0.188 C 
BRANCH   3   4
ATOM      4  C   UNL A   1      39.768  23.955  27.286  1.00  0.00     0.188 C 
BRANCH   4   5
ATOM      5  O   UNL A   1      40.911  23.326  27.982  1.00  0.00    -0.376 OA
BRANCH   5   6
ATOM      6  C   UNL A   1      41.525  22.011  27.605  1.00  0.00     0.202 C 
BRANCH   6   7
ATOM      7  C   UNL A   1      42.515  21.686  26.080  1.00  0.00     0.261 C 
BRANCH   7   8
ATOM      8  O   UNL A   1      43.696  22.667  25.220  1.00  0.00    -0.460 OA
BRANCH   8   9
ATOM      9  C   UNL A   1      44.356  23.912  24.839  1.00  0.00     0.338 C 
ATOM     10  O   UNL A   1      45.425  23.800  24.211  1.00  0.00    -0.246 OA
BRANCH   9  11
ATOM     11  C   UNL A   1      43.978  25.476  25.146  1.00  0.00     0.060 A 
ATOM     12  C   UNL A   1      44.959  26.464  25.261  1.00  0.00     0.016 A 
ATOM     13  C   UNL A   1      42.712  26.005  25.423  1.00  0.00     0.016 A 
ATOM     14  C   UNL A   1      44.802  27.621  26.121  1.00  0.00     0.010 A 
ATOM     15  C   UNL A   1      42.535  27.279  26.135  1.00  0.00     0.010 A 
ATOM     16  C   UNL A   1      43.591  28.020  26.717  1.00  0.00    -0.014 A 
BRANCH  16  17
ATOM     17  C   UNL A   1      43.466  29.048  27.965  1.00  0.00     0.031 A 
ATOM     18  C   UNL A   1      43.381  28.563  29.462  1.00  0.00     0.074 A 
ATOM     19  C   UNL A   1      43.599  30.418  27.911  1.00  0.00     0.049 A 
ATOM     20  N   UNL A   1      43.231  29.269  30.581  1.00  0.00    -0.248 NA
ATOM     21  C   UNL A   1      43.519  27.132  29.746  1.00  0.00     0.031 C 
ATOM     22  C   UNL A   1      43.776  31.244  26.722  1.00  0.00     0.029 A 
ATOM     23  N   UNL A   1      43.636  31.390  28.932  1.00  0.00    -0.354 N 
ATOM     24  C   UNL A   1      43.234  28.369  31.653  1.00  0.00     0.074 A 
ATOM     25  C   UNL A   1      43.415  27.063  31.065  1.00  0.00     0.031 C 
ATOM     26  C   UNL A   1      44.006  32.522  27.061  1.00  0.00     0.029 A 
ATOM     27  C   UNL A   1      43.841  32.692  28.500  1.00  0.00     0.049 A 
ATOM     28  H   UNL A   1      43.524  31.160  29.883  1.00  0.00     0.167 HD
ATOM     29  C   UNL A   1      43.106  28.546  33.000  1.00  0.00     0.037 A 
ATOM     30  C   UNL A   1      43.832  33.913  29.103  1.00  0.00     0.037 A 
ATOM     31  C   UNL A   1      42.922  29.784  33.719  1.00  0.00     0.049 A 
ATOM     32  C   UNL A   1      43.498  34.103  30.567  1.00  0.00     0.074 A 
ATOM     33  C   UNL A   1      42.677  29.965  35.077  1.00  0.00     0.029 A 
ATOM     34  N   UNL A   1      42.977  31.045  33.167  1.00  0.00    -0.354 N 
ATOM     35  N   UNL A   1      43.367  33.210  31.508  1.00  0.00    -0.248 NA
ATOM     36  C   UNL A   1      43.264  35.487  31.035  1.00  0.00     0.031 C 
ATOM     37  C   UNL A   1      42.545  31.334  35.337  1.00  0.00     0.029 A 
ATOM     38  C   UNL A   1      42.748  32.005  34.149  1.00  0.00     0.049 A 
ATOM     39  H   UNL A   1      43.153  31.239  32.218  1.00  0.00     0.167 HD
ATOM     40  C   UNL A   1      43.030  33.916  32.662  1.00  0.00     0.074 A 
ATOM     41  C   UNL A   1      43.021  35.317  32.327  1.00  0.00     0.031 C 
ATOM     42  C   UNL A   1      42.728  33.415  33.883  1.00  0.00     0.037 A 
BRANCH  29  43
ATOM     43  C   UNL A   1      43.101  27.309  33.862  1.00  0.00     0.064 A 
ATOM     44  C   UNL A   1      44.290  26.723  34.321  1.00  0.00     0.173 A 
ATOM     45  C   UNL A   1      41.884  26.780  34.323  1.00  0.00     0.173 A 
ATOM     46  F   UNL A   1      45.476  27.195  33.910  1.00  0.00    -0.203 F 
ATOM     47  C   UNL A   1      44.258  25.643  35.201  1.00  0.00     0.198 A 
ATOM     48  C   UNL A   1      41.858  25.714  35.217  1.00  0.00     0.198 A 
ATOM     49  F   UNL A   1      40.722  27.326  33.933  1.00  0.00    -0.203 F 
ATOM     50  F   UNL A   1      45.404  25.085  35.616  1.00  0.00    -0.200 F 
ATOM     51  C   UNL A   1      43.045  25.144  35.653  1.00  0.00     0.200 A 
ATOM     52  F   UNL A   1      40.685  25.247  35.667  1.00  0.00    -0.200 F 
ATOM     53  F   UNL A   1      43.018  24.115  36.511  1.00  0.00    -0.200 F 
ENDBRANCH  29  43
BRANCH  30  54
ATOM     54  C   UNL A   1      44.036  35.164  28.295  1.00  0.00     0.064 A 
ATOM     55  C   UNL A   1      45.304  35.755  28.160  1.00  0.00     0.173 A 
ATOM     56  C   UNL A   1      42.944  35.857  27.749  1.00  0.00     0.173 A 
ATOM     57  F   UNL A   1      46.376  35.177  28.724  1.00  0.00    -0.203 F 
ATOM     58  C   UNL A   1      45.466  36.983  27.515  1.00  0.00     0.198 A 
ATOM     59  C   UNL A   1      43.113  37.060  27.067  1.00  0.00     0.198 A 
ATOM     60  F   UNL A   1      41.704  35.365  27.885  1.00  0.00    -0.203 F 
ATOM     61  F   UNL A   1      46.676  37.557  27.462  1.00  0.00    -0.200 F 
ATOM     62  C   UNL A   1      44.371  37.628  26.959  1.00  0.00     0.200 A 
ATOM     63  F   UNL A   1      42.051  37.675  26.531  1.00  0.00    -0.200 F 
ATOM     64  F   UNL A   1      44.525  38.805  26.338  1.00  0.00    -0.200 F 
ENDBRANCH  30  54
BRANCH  42  65
ATOM     65  C   UNL A   1      42.359  34.374  34.982  1.00  0.00     0.064 A 
ATOM     66  C   UNL A   1      41.045  34.847  35.127  1.00  0.00     0.173 A 
ATOM     67  C   UNL A   1      43.313  34.815  35.911  1.00  0.00     0.173 A 
ATOM     68  F   UNL A   1      40.093  34.469  34.259  1.00  0.00    -0.203 F 
ATOM     69  C   UNL A   1      40.705  35.741  36.142  1.00  0.00     0.198 A 
ATOM     70  C   UNL A   1      42.966  35.695  36.938  1.00  0.00     0.198 A 
ATOM     71  F   UNL A   1      44.584  34.397  35.826  1.00  0.00    -0.203 F 
ATOM     72  F   UNL A   1      39.453  36.209  36.231  1.00  0.00    -0.200 F 
ATOM     73  C   UNL A   1      41.665  36.162  37.049  1.00  0.00     0.200 A 
ATOM     74  F   UNL A   1      43.895  36.096  37.818  1.00  0.00    -0.200 F 
ATOM     75  F   UNL A   1      41.340  37.024  38.022  1.00  0.00    -0.200 F 
ENDBRANCH  42  65
ENDBRANCH  16  17
ENDBRANCH   9  11
ENDBRANCH   8   9
ENDBRANCH   7   8
ENDBRANCH   6   7
ENDBRANCH   5   6
ENDBRANCH   4   5
ENDBRANCH   3   4
ENDBRANCH   2   3
ENDBRANCH   1   2
BRANCH   1  76
ATOM     76  C   UNL A   1      38.658  28.320  29.263  1.00  0.00     0.188 C 
BRANCH  76  77
ATOM     77  O   UNL A   1      38.425  27.828  30.587  1.00  0.00    -0.376 OA
BRANCH  77  78
ATOM     78  C   UNL A   1      38.307  28.837  31.589  1.00  0.00     0.202 C 
BRANCH  78  79
ATOM     79  C   UNL A   1      39.614  29.621  31.675  1.00  0.00     0.261 C 
BRANCH  79  80
ATOM     80  O   UNL A   1      39.659  30.302  32.942  1.00  0.00    -0.463 OA
BRANCH  80  81
ATOM     81  C   UNL A   1      39.206  31.569  32.964  1.00  0.00     0.310 C 
ATOM     82  O   UNL A   1      39.622  32.473  32.244  1.00  0.00    -0.252 OA
BRANCH  81  83
ATOM     83  C   UNL A   1      38.064  31.794  33.928  1.00  0.00     0.115 C 
ATOM     84  C   UNL A   1      38.567  31.531  35.367  1.00  0.00     0.043 C 
ATOM     85  C   UNL A   1      37.082  32.981  33.719  1.00  0.00     0.096 C 
ATOM     86  C   UNL A   1      38.362  32.633  36.351  1.00  0.00    -0.030 C 
ATOM     87  C   UNL A   1      36.427  33.440  35.052  1.00  0.00     0.041 C 
ATOM     88  C   UNL A   1      37.360  33.506  36.221  1.00  0.00    -0.030 C 
BRANCH  85  89
ATOM     89  C   UNL A   1      37.234  33.989  32.496  1.00  0.00     0.224 C 
ATOM     90  O   UNL A   1      37.591  35.149  32.771  1.00  0.00    -0.275 OA
ATOM     91  N   UNL A   1      37.042  33.769  31.145  1.00  0.00    -0.351 N 
ATOM     92  H   UNL A   1      37.209  34.547  30.566  1.00  0.00     0.163 HD
BRANCH  91  93
ATOM     93  C   UNL A   1      36.625  32.547  30.446  1.00  0.00     0.103 C 
ATOM     94  C   UNL A   1      37.256  32.655  29.115  1.00  0.00     0.048 C 
ATOM     95  C   UNL A   1      35.093  32.163  30.053  1.00  0.00     0.141 C 
ATOM     96  C   UNL A   1      36.110  32.797  28.161  1.00  0.00     0.119 C 
ATOM     97  N   UNL A   1      35.069  31.765  28.555  1.00  0.00    -0.369 N 
BRANCH  97  98
ATOM     98  C   UNL A   1      34.427  30.736  27.771  1.00  0.00     0.038 A 
ATOM     99  C   UNL A   1      34.863  29.425  27.577  1.00  0.00     0.026 A 
ATOM    100  C   UNL A   1      33.188  30.808  26.996  1.00  0.00     0.046 A 
ATOM    101  C   UNL A   1      34.366  28.529  26.541  1.00  0.00     0.004 A 
ATOM    102  C   UNL A   1      32.616  29.949  26.028  1.00  0.00     0.043 A 
ATOM    103  C   UNL A   1      33.281  28.817  25.721  1.00  0.00     0.020 A 
ATOM    104  Cl  UNL A   1      31.113  30.358  25.271  1.00  0.00    -0.084 Cl
ENDBRANCH  97  98
ENDBRANCH  91  93
ENDBRANCH  85  89
ENDBRANCH  81  83
ENDBRANCH  80  81
ENDBRANCH  79  80
ENDBRANCH  78  79
ENDBRANCH  77  78
ENDBRANCH  76  77
ENDBRANCH   1  76
TORSDOF 23
ENDMDL
