MODEL 1
REMARK VINA RESULT:     -11.0      0.000      0.000
REMARK SMILES Cc1cc(C(=O)NNC(=O)[C@H]2[C@@H](C(=O)OCCOCCOCCOCCOC(=O)c3ccc(-c4c5nc(c(-c6c(F)c(F)c(F)c(F)c6F)c6ccc([nH]6)c(-c6c(F)c(F)c(F)c(F)c6F)c6nc(c(-c7c(F)c(F)c(F)c(F)c7F)c7ccc4[nH]7)C=C6)C=C5)cc3)[C@@H]3C=C[C@H]2C3)cs1
REMARK SMILES IDX 20 1 19 2 18 3 17 4 16 5 15 6 13 7 14 8 12 9 11 10 96 11
REMARK SMILES IDX 93 12 95 13 97 14 94 15 9 16 8 17 10 19 7 20 5 21 6 22 4 24
REMARK SMILES IDX 1 25 2 26 3 27 99 28 98 29 21 30 22 31 23 32 24 33 25 34
REMARK SMILES IDX 26 35 27 36 28 37 29 38 30 39 31 40 92 41 32 42 91 43 33 44
REMARK SMILES IDX 34 45 35 46 85 47 36 48 90 49 84 50 86 51 37 52 89 53 83 54
REMARK SMILES IDX 82 55 38 57 70 58 50 59 69 60 51 61 54 62 68 63 87 64 52 65
REMARK SMILES IDX 53 66 67 68 88 69 55 70 39 71 40 72 48 73 41 74 42 75 46 76
REMARK SMILES IDX 49 77 43 78 44 79 47 80 45 81 71 82 72 83 80 84 73 85 74 86
REMARK SMILES IDX 78 87 81 88 75 89 76 90 79 91 77 92 56 93 57 94 65 95 58 96
REMARK SMILES IDX 59 97 63 98 66 99 60 100 61 101 64 102 62 103
REMARK H PARENT 8 18 7 23 86 56 54 67
REMARK Flexibility Score: inf
ROOT
ATOM      1  C   UNL A   1      33.754  34.317  28.696  1.00  0.00     0.188 C 
ENDROOT
BRANCH   1   2
ATOM      2  C   UNL A   1      33.991  32.798  28.567  1.00  0.00     0.188 C 
BRANCH   2   3
ATOM      3  O   UNL A   1      33.376  32.207  27.439  1.00  0.00    -0.376 OA
BRANCH   3   4
ATOM      4  C   UNL A   1      33.341  30.805  27.263  1.00  0.00     0.202 C 
BRANCH   4   5
ATOM      5  C   UNL A   1      33.047  30.047  25.951  1.00  0.00     0.261 C 
BRANCH   5   6
ATOM      6  O   UNL A   1      33.820  28.903  25.587  1.00  0.00    -0.463 OA
BRANCH   6   7
ATOM      7  C   UNL A   1      33.265  28.022  24.727  1.00  0.00     0.310 C 
ATOM      8  O   UNL A   1      33.876  27.121  24.171  1.00  0.00    -0.252 OA
BRANCH   7   9
ATOM      9  C   UNL A   1      31.786  28.330  24.552  1.00  0.00     0.119 C 
ATOM     10  C   UNL A   1      30.791  27.405  25.336  1.00  0.00     0.102 C 
ATOM     11  C   UNL A   1      30.215  26.523  24.194  1.00  0.00     0.025 C 
ATOM     12  C   UNL A   1      31.420  28.053  23.080  1.00  0.00     0.027 C 
ATOM     13  C   UNL A   1      29.235  27.432  23.472  1.00  0.00    -0.027 C 
ATOM     14  C   UNL A   1      31.297  26.526  23.107  1.00  0.00     0.017 C 
ATOM     15  C   UNL A   1      29.958  28.379  22.850  1.00  0.00    -0.027 C 
BRANCH  10  16
ATOM     16  C   UNL A   1      31.312  26.814  26.639  1.00  0.00     0.242 C 
ATOM     17  N   UNL A   1      31.771  25.525  26.682  1.00  0.00    -0.267 N 
ATOM     18  H   UNL A   1      32.725  25.305  26.580  1.00  0.00     0.191 HD
ATOM     19  O   UNL A   1      31.343  27.502  27.662  1.00  0.00    -0.273 OA
BRANCH  17  20
ATOM     20  N   UNL A   1      30.795  24.540  26.879  1.00  0.00    -0.263 N 
ATOM     21  C   UNL A   1      30.826  23.195  26.556  1.00  0.00     0.270 C 
ATOM     22  O   UNL A   1      29.801  22.564  26.839  1.00  0.00    -0.267 OA
ATOM     23  H   UNL A   1      29.966  24.850  27.310  1.00  0.00     0.191 HD
BRANCH  21  24
ATOM     24  C   UNL A   1      31.947  22.520  25.879  1.00  0.00     0.052 A 
ATOM     25  C   UNL A   1      35.399  20.964  25.367  1.00  0.00     0.056 C 
ATOM     26  C   UNL A   1      34.005  21.496  25.320  1.00  0.00     0.002 A 
ATOM     27  C   UNL A   1      33.253  22.098  26.317  1.00  0.00     0.029 A 
ATOM     28  S   UNL A   1      33.127  21.364  23.863  1.00  0.00    -0.148 S 
ATOM     29  C   UNL A   1      31.771  22.121  24.557  1.00  0.00     0.079 A 
ENDBRANCH  21  24
ENDBRANCH  17  20
ENDBRANCH  10  16
ENDBRANCH   7   9
ENDBRANCH   6   7
ENDBRANCH   5   6
ENDBRANCH   4   5
ENDBRANCH   3   4
ENDBRANCH   2   3
ENDBRANCH   1   2
BRANCH   1  30
ATOM     30  O   UNL A   1      32.886  34.645  29.769  1.00  0.00    -0.377 OA
BRANCH  30  31
ATOM     31  C   UNL A   1      33.238  35.768  30.572  1.00  0.00     0.188 C 
BRANCH  31  32
ATOM     32  C   UNL A   1      33.752  35.595  32.024  1.00  0.00     0.188 C 
BRANCH  32  33
ATOM     33  O   UNL A   1      33.161  34.516  32.730  1.00  0.00    -0.376 OA
BRANCH  33  34
ATOM     34  C   UNL A   1      33.945  33.411  33.132  1.00  0.00     0.202 C 
BRANCH  34  35
ATOM     35  C   UNL A   1      35.450  33.627  33.337  1.00  0.00     0.261 C 
BRANCH  35  36
ATOM     36  O   UNL A   1      36.325  32.722  32.651  1.00  0.00    -0.460 OA
BRANCH  36  37
ATOM     37  C   UNL A   1      37.137  31.941  33.391  1.00  0.00     0.338 C 
ATOM     38  O   UNL A   1      37.025  31.661  34.573  1.00  0.00    -0.246 OA
BRANCH  37  39
ATOM     39  C   UNL A   1      38.096  31.313  32.459  1.00  0.00     0.060 A 
ATOM     40  C   UNL A   1      39.252  30.699  32.965  1.00  0.00     0.016 A 
ATOM     41  C   UNL A   1      37.829  31.303  31.089  1.00  0.00     0.016 A 
ATOM     42  C   UNL A   1      40.166  30.108  32.092  1.00  0.00     0.010 A 
ATOM     43  C   UNL A   1      38.756  30.736  30.215  1.00  0.00     0.010 A 
ATOM     44  C   UNL A   1      39.946  30.174  30.711  1.00  0.00    -0.014 A 
BRANCH  44  45
ATOM     45  C   UNL A   1      41.057  29.904  29.771  1.00  0.00     0.031 A 
ATOM     46  C   UNL A   1      41.118  28.539  29.143  1.00  0.00     0.074 A 
ATOM     47  C   UNL A   1      41.990  30.827  29.488  1.00  0.00     0.049 A 
ATOM     48  N   UNL A   1      42.042  28.006  28.388  1.00  0.00    -0.248 NA
ATOM     49  C   UNL A   1      39.976  27.650  29.418  1.00  0.00     0.031 C 
ATOM     50  C   UNL A   1      42.008  32.197  29.993  1.00  0.00     0.029 A 
ATOM     51  N   UNL A   1      43.121  30.735  28.715  1.00  0.00    -0.354 N 
ATOM     52  C   UNL A   1      41.603  26.717  28.115  1.00  0.00     0.074 A 
ATOM     53  C   UNL A   1      40.347  26.536  28.807  1.00  0.00     0.031 C 
ATOM     54  C   UNL A   1      43.111  32.814  29.533  1.00  0.00     0.029 A 
ATOM     55  C   UNL A   1      43.893  31.870  28.737  1.00  0.00     0.049 A 
ATOM     56  H   UNL A   1      43.355  29.933  28.195  1.00  0.00     0.167 HD
ATOM     57  C   UNL A   1      42.194  25.771  27.349  1.00  0.00     0.037 A 
ATOM     58  C   UNL A   1      45.109  32.098  28.202  1.00  0.00     0.037 A 
ATOM     59  C   UNL A   1      43.447  25.957  26.669  1.00  0.00     0.049 A 
ATOM     60  C   UNL A   1      45.790  30.999  27.422  1.00  0.00     0.074 A 
ATOM     61  C   UNL A   1      44.130  25.069  25.859  1.00  0.00     0.029 A 
ATOM     62  N   UNL A   1      44.212  27.113  26.732  1.00  0.00    -0.354 N 
ATOM     63  N   UNL A   1      45.366  29.787  27.149  1.00  0.00    -0.248 NA
ATOM     64  C   UNL A   1      47.120  31.301  26.873  1.00  0.00     0.031 C 
ATOM     65  C   UNL A   1      45.338  25.663  25.484  1.00  0.00     0.029 A 
ATOM     66  C   UNL A   1      45.374  26.950  25.997  1.00  0.00     0.049 A 
ATOM     67  H   UNL A   1      43.964  27.928  27.226  1.00  0.00     0.167 HD
ATOM     68  C   UNL A   1      46.354  29.201  26.368  1.00  0.00     0.074 A 
ATOM     69  C   UNL A   1      47.397  30.191  26.203  1.00  0.00     0.031 C 
ATOM     70  C   UNL A   1      46.393  27.956  25.829  1.00  0.00     0.037 A 
BRANCH  57  71
ATOM     71  C   UNL A   1      41.508  24.440  27.242  1.00  0.00     0.064 A 
ATOM     72  C   UNL A   1      40.334  24.267  26.493  1.00  0.00     0.173 A 
ATOM     73  C   UNL A   1      42.042  23.315  27.890  1.00  0.00     0.173 A 
ATOM     74  F   UNL A   1      39.769  25.313  25.870  1.00  0.00    -0.203 F 
ATOM     75  C   UNL A   1      39.704  23.027  26.423  1.00  0.00     0.198 A 
ATOM     76  C   UNL A   1      41.430  22.069  27.787  1.00  0.00     0.198 A 
ATOM     77  F   UNL A   1      43.162  23.423  28.620  1.00  0.00    -0.203 F 
ATOM     78  F   UNL A   1      38.552  22.900  25.749  1.00  0.00    -0.200 F 
ATOM     79  C   UNL A   1      40.257  21.928  27.063  1.00  0.00     0.200 A 
ATOM     80  F   UNL A   1      41.974  21.006  28.395  1.00  0.00    -0.200 F 
ATOM     81  F   UNL A   1      39.654  20.733  26.987  1.00  0.00    -0.200 F 
ENDBRANCH  57  71
BRANCH  58  82
ATOM     82  C   UNL A   1      45.775  33.415  28.393  1.00  0.00     0.064 A 
ATOM     83  C   UNL A   1      46.564  33.669  29.523  1.00  0.00     0.173 A 
ATOM     84  C   UNL A   1      45.615  34.454  27.463  1.00  0.00     0.173 A 
ATOM     85  F   UNL A   1      46.726  32.718  30.454  1.00  0.00    -0.203 F 
ATOM     86  C   UNL A   1      47.148  34.918  29.728  1.00  0.00     0.198 A 
ATOM     87  C   UNL A   1      46.226  35.692  27.654  1.00  0.00     0.198 A 
ATOM     88  F   UNL A   1      44.867  34.267  26.366  1.00  0.00    -0.203 F 
ATOM     89  F   UNL A   1      47.852  35.150  30.845  1.00  0.00    -0.200 F 
ATOM     90  C   UNL A   1      46.984  35.926  28.791  1.00  0.00     0.200 A 
ATOM     91  F   UNL A   1      46.076  36.659  26.738  1.00  0.00    -0.200 F 
ATOM     92  F   UNL A   1      47.549  37.125  28.987  1.00  0.00    -0.200 F 
ENDBRANCH  58  82
BRANCH  70  93
ATOM     93  C   UNL A   1      47.568  27.609  24.957  1.00  0.00     0.064 A 
ATOM     94  C   UNL A   1      48.724  27.004  25.470  1.00  0.00     0.173 A 
ATOM     95  C   UNL A   1      47.506  27.836  23.572  1.00  0.00     0.173 A 
ATOM     96  F   UNL A   1      48.839  26.776  26.788  1.00  0.00    -0.203 F 
ATOM     97  C   UNL A   1      49.785  26.664  24.635  1.00  0.00     0.198 A 
ATOM     98  C   UNL A   1      48.553  27.461  22.736  1.00  0.00     0.198 A 
ATOM     99  F   UNL A   1      46.419  28.402  23.026  1.00  0.00    -0.203 F 
ATOM    100  F   UNL A   1      50.900  26.134  25.154  1.00  0.00    -0.200 F 
ATOM    101  C   UNL A   1      49.695  26.884  23.268  1.00  0.00     0.200 A 
ATOM    102  F   UNL A   1      48.454  27.656  21.413  1.00  0.00    -0.200 F 
ATOM    103  F   UNL A   1      50.712  26.544  22.464  1.00  0.00    -0.200 F 
ENDBRANCH  70  93
ENDBRANCH  44  45
ENDBRANCH  37  39
ENDBRANCH  36  37
ENDBRANCH  35  36
ENDBRANCH  34  35
ENDBRANCH  33  34
ENDBRANCH  32  33
ENDBRANCH  31  32
ENDBRANCH  30  31
ENDBRANCH   1  30
TORSDOF 23
ENDMDL
MODEL 2
REMARK VINA RESULT:     -10.9      0.443      1.571
REMARK SMILES Cc1cc(C(=O)NNC(=O)[C@H]2[C@@H](C(=O)OCCOCCOCCOCCOC(=O)c3ccc(-c4c5nc(c(-c6c(F)c(F)c(F)c(F)c6F)c6ccc([nH]6)c(-c6c(F)c(F)c(F)c(F)c6F)c6nc(c(-c7c(F)c(F)c(F)c(F)c7F)c7ccc4[nH]7)C=C6)C=C5)cc3)[C@@H]3C=C[C@H]2C3)cs1
REMARK SMILES IDX 20 1 19 2 18 3 17 4 16 5 15 6 13 7 14 8 12 9 11 10 96 11
REMARK SMILES IDX 93 12 95 13 97 14 94 15 9 16 8 17 10 19 7 20 5 21 6 22 4 24
REMARK SMILES IDX 1 25 2 26 3 27 99 28 98 29 21 30 22 31 23 32 24 33 25 34
REMARK SMILES IDX 26 35 27 36 28 37 29 38 30 39 31 40 92 41 32 42 91 43 33 44
REMARK SMILES IDX 34 45 35 46 85 47 36 48 90 49 84 50 86 51 37 52 89 53 83 54
REMARK SMILES IDX 82 55 38 57 70 58 50 59 69 60 51 61 54 62 68 63 87 64 52 65
REMARK SMILES IDX 53 66 67 68 88 69 55 70 39 71 40 72 48 73 41 74 42 75 46 76
REMARK SMILES IDX 49 77 43 78 44 79 47 80 45 81 71 82 72 83 80 84 73 85 74 86
REMARK SMILES IDX 78 87 81 88 75 89 76 90 79 91 77 92 56 93 57 94 65 95 58 96
REMARK SMILES IDX 59 97 63 98 66 99 60 100 61 101 64 102 62 103
REMARK H PARENT 8 18 7 23 86 56 54 67
REMARK Flexibility Score: inf
ROOT
ATOM      1  C   UNL A   1      33.706  34.355  28.680  1.00  0.00     0.188 C 
ENDROOT
BRANCH   1   2
ATOM      2  C   UNL A   1      33.988  32.848  28.502  1.00  0.00     0.188 C 
BRANCH   2   3
ATOM      3  O   UNL A   1      33.265  32.241  27.450  1.00  0.00    -0.376 OA
BRANCH   3   4
ATOM      4  C   UNL A   1      33.284  30.842  27.248  1.00  0.00     0.202 C 
BRANCH   4   5
ATOM      5  C   UNL A   1      33.030  30.099  25.919  1.00  0.00     0.261 C 
BRANCH   5   6
ATOM      6  O   UNL A   1      33.817  28.962  25.564  1.00  0.00    -0.463 OA
BRANCH   6   7
ATOM      7  C   UNL A   1      33.244  28.029  24.772  1.00  0.00     0.310 C 
ATOM      8  O   UNL A   1      33.831  27.063  24.305  1.00  0.00    -0.252 OA
BRANCH   7   9
ATOM      9  C   UNL A   1      31.779  28.370  24.545  1.00  0.00     0.119 C 
ATOM     10  C   UNL A   1      30.739  27.522  25.358  1.00  0.00     0.102 C 
ATOM     11  C   UNL A   1      30.162  26.592  24.257  1.00  0.00     0.025 C 
ATOM     12  C   UNL A   1      31.436  28.017  23.083  1.00  0.00     0.027 C 
ATOM     13  C   UNL A   1      29.226  27.485  23.461  1.00  0.00    -0.027 C 
ATOM     14  C   UNL A   1      31.266  26.499  23.196  1.00  0.00     0.017 C 
ATOM     15  C   UNL A   1      29.990  28.373  22.801  1.00  0.00    -0.027 C 
BRANCH  10  16
ATOM     16  C   UNL A   1      31.214  26.993  26.706  1.00  0.00     0.242 C 
ATOM     17  N   UNL A   1      31.870  25.795  26.789  1.00  0.00    -0.267 N 
ATOM     18  H   UNL A   1      32.853  25.733  26.785  1.00  0.00     0.191 HD
ATOM     19  O   UNL A   1      31.029  27.655  27.730  1.00  0.00    -0.273 OA
BRANCH  17  20
ATOM     20  N   UNL A   1      31.052  24.661  26.877  1.00  0.00    -0.263 N 
ATOM     21  C   UNL A   1      31.165  23.443  26.231  1.00  0.00     0.270 C 
ATOM     22  O   UNL A   1      30.278  22.624  26.497  1.00  0.00    -0.267 OA
ATOM     23  H   UNL A   1      30.285  24.744  27.489  1.00  0.00     0.191 HD
BRANCH  21  24
ATOM     24  C   UNL A   1      32.211  23.107  25.250  1.00  0.00     0.052 A 
ATOM     25  C   UNL A   1      35.684  22.353  23.845  1.00  0.00     0.056 C 
ATOM     26  C   UNL A   1      34.243  22.601  24.150  1.00  0.00     0.002 A 
ATOM     27  C   UNL A   1      33.632  22.893  25.360  1.00  0.00     0.029 A 
ATOM     28  S   UNL A   1      33.110  22.509  22.878  1.00  0.00    -0.148 S 
ATOM     29  C   UNL A   1      31.827  22.876  23.933  1.00  0.00     0.079 A 
ENDBRANCH  21  24
ENDBRANCH  17  20
ENDBRANCH  10  16
ENDBRANCH   7   9
ENDBRANCH   6   7
ENDBRANCH   5   6
ENDBRANCH   4   5
ENDBRANCH   3   4
ENDBRANCH   2   3
ENDBRANCH   1   2
BRANCH   1  30
ATOM     30  O   UNL A   1      32.857  34.625  29.784  1.00  0.00    -0.377 OA
BRANCH  30  31
ATOM     31  C   UNL A   1      33.175  35.757  30.589  1.00  0.00     0.188 C 
BRANCH  31  32
ATOM     32  C   UNL A   1      33.666  35.599  32.050  1.00  0.00     0.188 C 
BRANCH  32  33
ATOM     33  O   UNL A   1      33.050  34.539  32.764  1.00  0.00    -0.376 OA
BRANCH  33  34
ATOM     34  C   UNL A   1      33.826  33.464  33.254  1.00  0.00     0.202 C 
BRANCH  34  35
ATOM     35  C   UNL A   1      35.330  33.687  33.455  1.00  0.00     0.261 C 
BRANCH  35  36
ATOM     36  O   UNL A   1      36.207  32.772  32.786  1.00  0.00    -0.460 OA
BRANCH  36  37
ATOM     37  C   UNL A   1      37.094  32.083  33.533  1.00  0.00     0.338 C 
ATOM     38  O   UNL A   1      37.045  31.865  34.732  1.00  0.00    -0.246 OA
BRANCH  37  39
ATOM     39  C   UNL A   1      38.052  31.459  32.596  1.00  0.00     0.060 A 
ATOM     40  C   UNL A   1      39.164  30.770  33.101  1.00  0.00     0.016 A 
ATOM     41  C   UNL A   1      37.824  31.529  31.221  1.00  0.00     0.016 A 
ATOM     42  C   UNL A   1      40.077  30.181  32.225  1.00  0.00     0.010 A 
ATOM     43  C   UNL A   1      38.751  30.964  30.345  1.00  0.00     0.010 A 
ATOM     44  C   UNL A   1      39.900  30.325  30.844  1.00  0.00    -0.014 A 
BRANCH  44  45
ATOM     45  C   UNL A   1      41.026  30.052  29.921  1.00  0.00     0.031 A 
ATOM     46  C   UNL A   1      41.077  28.697  29.273  1.00  0.00     0.074 A 
ATOM     47  C   UNL A   1      41.979  30.964  29.673  1.00  0.00     0.049 A 
ATOM     48  N   UNL A   1      42.007  28.161  28.527  1.00  0.00    -0.248 NA
ATOM     49  C   UNL A   1      39.915  27.823  29.509  1.00  0.00     0.031 C 
ATOM     50  C   UNL A   1      42.009  32.325  30.201  1.00  0.00     0.029 A 
ATOM     51  N   UNL A   1      43.124  30.865  28.921  1.00  0.00    -0.354 N 
ATOM     52  C   UNL A   1      41.552  26.884  28.224  1.00  0.00     0.074 A 
ATOM     53  C   UNL A   1      40.279  26.712  28.887  1.00  0.00     0.031 C 
ATOM     54  C   UNL A   1      43.131  32.931  29.773  1.00  0.00     0.029 A 
ATOM     55  C   UNL A   1      43.914  31.986  28.977  1.00  0.00     0.049 A 
ATOM     56  H   UNL A   1      43.355  30.068  28.393  1.00  0.00     0.167 HD
ATOM     57  C   UNL A   1      42.142  25.941  27.454  1.00  0.00     0.037 A 
ATOM     58  C   UNL A   1      45.144  32.203  28.471  1.00  0.00     0.037 A 
ATOM     59  C   UNL A   1      43.412  26.117  26.803  1.00  0.00     0.049 A 
ATOM     60  C   UNL A   1      45.822  31.105  27.687  1.00  0.00     0.074 A 
ATOM     61  C   UNL A   1      44.096  25.231  25.991  1.00  0.00     0.029 A 
ATOM     62  N   UNL A   1      44.195  27.259  26.900  1.00  0.00    -0.354 N 
ATOM     63  N   UNL A   1      45.385  29.906  27.385  1.00  0.00    -0.248 NA
ATOM     64  C   UNL A   1      47.168  31.394  27.170  1.00  0.00     0.031 C 
ATOM     65  C   UNL A   1      45.322  25.811  25.651  1.00  0.00     0.029 A 
ATOM     66  C   UNL A   1      45.368  27.088  26.186  1.00  0.00     0.049 A 
ATOM     67  H   UNL A   1      43.950  28.070  27.403  1.00  0.00     0.167 HD
ATOM     68  C   UNL A   1      46.378  29.316  26.614  1.00  0.00     0.074 A 
ATOM     69  C   UNL A   1      47.440  30.291  26.487  1.00  0.00     0.031 C 
ATOM     70  C   UNL A   1      46.407  28.080  26.055  1.00  0.00     0.037 A 
BRANCH  57  71
ATOM     71  C   UNL A   1      41.437  24.624  27.311  1.00  0.00     0.064 A 
ATOM     72  C   UNL A   1      41.888  23.464  27.961  1.00  0.00     0.173 A 
ATOM     73  C   UNL A   1      40.280  24.523  26.522  1.00  0.00     0.173 A 
ATOM     74  F   UNL A   1      42.999  23.500  28.713  1.00  0.00    -0.203 F 
ATOM     75  C   UNL A   1      41.228  22.249  27.800  1.00  0.00     0.198 A 
ATOM     76  C   UNL A   1      39.602  23.315  26.392  1.00  0.00     0.198 A 
ATOM     77  F   UNL A   1      39.805  25.600  25.878  1.00  0.00    -0.203 F 
ATOM     78  F   UNL A   1      41.711  21.143  28.382  1.00  0.00    -0.200 F 
ATOM     79  C   UNL A   1      40.081  22.177  27.023  1.00  0.00     0.200 A 
ATOM     80  F   UNL A   1      38.487  23.251  25.652  1.00  0.00    -0.200 F 
ATOM     81  F   UNL A   1      39.442  21.008  26.875  1.00  0.00    -0.200 F 
ENDBRANCH  57  71
BRANCH  58  82
ATOM     82  C   UNL A   1      45.828  33.505  28.697  1.00  0.00     0.064 A 
ATOM     83  C   UNL A   1      45.631  34.586  27.827  1.00  0.00     0.173 A 
ATOM     84  C   UNL A   1      46.710  33.688  29.773  1.00  0.00     0.173 A 
ATOM     85  F   UNL A   1      44.818  34.454  26.768  1.00  0.00    -0.203 F 
ATOM     86  C   UNL A   1      46.308  35.790  28.008  1.00  0.00     0.198 A 
ATOM     87  C   UNL A   1      47.362  34.904  29.972  1.00  0.00     0.198 A 
ATOM     88  F   UNL A   1      46.938  32.686  30.635  1.00  0.00    -0.203 F 
ATOM     89  F   UNL A   1      46.143  36.788  27.129  1.00  0.00    -0.200 F 
ATOM     90  C   UNL A   1      47.167  35.951  29.084  1.00  0.00     0.200 A 
ATOM     91  F   UNL A   1      48.181  35.059  31.021  1.00  0.00    -0.200 F 
ATOM     92  F   UNL A   1      47.816  37.111  29.260  1.00  0.00    -0.200 F 
ENDBRANCH  58  82
BRANCH  70  93
ATOM     93  C   UNL A   1      47.594  27.727  25.201  1.00  0.00     0.064 A 
ATOM     94  C   UNL A   1      48.790  27.243  25.750  1.00  0.00     0.173 A 
ATOM     95  C   UNL A   1      47.506  27.823  23.802  1.00  0.00     0.173 A 
ATOM     96  F   UNL A   1      48.930  27.143  27.081  1.00  0.00    -0.203 F 
ATOM     97  C   UNL A   1      49.862  26.894  24.933  1.00  0.00     0.198 A 
ATOM     98  C   UNL A   1      48.566  27.439  22.988  1.00  0.00     0.198 A 
ATOM     99  F   UNL A   1      46.380  28.270  23.223  1.00  0.00    -0.203 F 
ATOM    100  F   UNL A   1      51.013  26.482  25.482  1.00  0.00    -0.200 F 
ATOM    101  C   UNL A   1      49.746  26.983  23.554  1.00  0.00     0.200 A 
ATOM    102  F   UNL A   1      48.444  27.506  21.654  1.00  0.00    -0.200 F 
ATOM    103  F   UNL A   1      50.776  26.634  22.769  1.00  0.00    -0.200 F 
ENDBRANCH  70  93
ENDBRANCH  44  45
ENDBRANCH  37  39
ENDBRANCH  36  37
ENDBRANCH  35  36
ENDBRANCH  34  35
ENDBRANCH  33  34
ENDBRANCH  32  33
ENDBRANCH  31  32
ENDBRANCH  30  31
ENDBRANCH   1  30
TORSDOF 23
ENDMDL
MODEL 3
REMARK VINA RESULT:     -10.8      5.146      9.991
REMARK SMILES Cc1cc(C(=O)NNC(=O)[C@H]2[C@@H](C(=O)OCCOCCOCCOCCOC(=O)c3ccc(-c4c5nc(c(-c6c(F)c(F)c(F)c(F)c6F)c6ccc([nH]6)c(-c6c(F)c(F)c(F)c(F)c6F)c6nc(c(-c7c(F)c(F)c(F)c(F)c7F)c7ccc4[nH]7)C=C6)C=C5)cc3)[C@@H]3C=C[C@H]2C3)cs1
REMARK SMILES IDX 20 1 19 2 18 3 17 4 16 5 15 6 13 7 14 8 12 9 11 10 96 11
REMARK SMILES IDX 93 12 95 13 97 14 94 15 9 16 8 17 10 19 7 20 5 21 6 22 4 24
REMARK SMILES IDX 1 25 2 26 3 27 99 28 98 29 21 30 22 31 23 32 24 33 25 34
REMARK SMILES IDX 26 35 27 36 28 37 29 38 30 39 31 40 92 41 32 42 91 43 33 44
REMARK SMILES IDX 34 45 35 46 85 47 36 48 90 49 84 50 86 51 37 52 89 53 83 54
REMARK SMILES IDX 82 55 38 57 70 58 50 59 69 60 51 61 54 62 68 63 87 64 52 65
REMARK SMILES IDX 53 66 67 68 88 69 55 70 39 71 40 72 48 73 41 74 42 75 46 76
REMARK SMILES IDX 49 77 43 78 44 79 47 80 45 81 71 82 72 83 80 84 73 85 74 86
REMARK SMILES IDX 78 87 81 88 75 89 76 90 79 91 77 92 56 93 57 94 65 95 58 96
REMARK SMILES IDX 59 97 63 98 66 99 60 100 61 101 64 102 62 103
REMARK H PARENT 8 18 7 23 86 56 54 67
REMARK Flexibility Score: inf
ROOT
ATOM      1  C   UNL A   1      34.093  29.998  27.241  1.00  0.00     0.188 C 
ENDROOT
BRANCH   1   2
ATOM      2  C   UNL A   1      32.732  29.418  26.804  1.00  0.00     0.188 C 
BRANCH   2   3
ATOM      3  O   UNL A   1      32.694  28.006  26.739  1.00  0.00    -0.376 OA
BRANCH   3   4
ATOM      4  C   UNL A   1      31.486  27.289  26.892  1.00  0.00     0.202 C 
BRANCH   4   5
ATOM      5  C   UNL A   1      31.038  26.053  26.083  1.00  0.00     0.261 C 
BRANCH   5   6
ATOM      6  O   UNL A   1      31.533  24.754  26.412  1.00  0.00    -0.463 OA
BRANCH   6   7
ATOM      7  C   UNL A   1      31.646  23.857  25.408  1.00  0.00     0.310 C 
ATOM      8  O   UNL A   1      31.075  23.950  24.331  1.00  0.00    -0.252 OA
BRANCH   7   9
ATOM      9  C   UNL A   1      32.571  22.724  25.826  1.00  0.00     0.119 C 
ATOM     10  C   UNL A   1      34.035  22.786  25.265  1.00  0.00     0.102 C 
ATOM     11  C   UNL A   1      34.003  21.673  24.182  1.00  0.00     0.025 C 
ATOM     12  C   UNL A   1      32.025  21.421  25.209  1.00  0.00     0.027 C 
ATOM     13  C   UNL A   1      34.066  20.377  24.972  1.00  0.00    -0.027 C 
ATOM     14  C   UNL A   1      32.530  21.561  23.770  1.00  0.00     0.017 C 
ATOM     15  C   UNL A   1      32.899  20.256  25.629  1.00  0.00    -0.027 C 
BRANCH  10  16
ATOM     16  C   UNL A   1      34.587  24.178  24.988  1.00  0.00     0.242 C 
ATOM     17  N   UNL A   1      33.812  25.121  24.368  1.00  0.00    -0.267 N 
ATOM     18  H   UNL A   1      33.289  25.785  24.874  1.00  0.00     0.191 HD
ATOM     19  O   UNL A   1      35.732  24.471  25.340  1.00  0.00    -0.273 OA
BRANCH  17  20
ATOM     20  N   UNL A   1      33.810  25.080  22.969  1.00  0.00    -0.263 N 
ATOM     21  C   UNL A   1      33.084  25.839  22.068  1.00  0.00     0.270 C 
ATOM     22  O   UNL A   1      33.278  25.569  20.878  1.00  0.00    -0.267 OA
ATOM     23  H   UNL A   1      34.414  24.415  22.567  1.00  0.00     0.191 HD
BRANCH  21  24
ATOM     24  C   UNL A   1      32.098  26.869  22.441  1.00  0.00     0.052 A 
ATOM     25  C   UNL A   1      28.704  28.541  22.979  1.00  0.00     0.056 C 
ATOM     26  C   UNL A   1      30.129  28.108  22.871  1.00  0.00     0.002 A 
ATOM     27  C   UNL A   1      30.657  26.900  22.442  1.00  0.00     0.029 A 
ATOM     28  S   UNL A   1      31.354  29.197  23.346  1.00  0.00    -0.148 S 
ATOM     29  C   UNL A   1      32.569  28.071  22.961  1.00  0.00     0.079 A 
ENDBRANCH  21  24
ENDBRANCH  17  20
ENDBRANCH  10  16
ENDBRANCH   7   9
ENDBRANCH   6   7
ENDBRANCH   5   6
ENDBRANCH   4   5
ENDBRANCH   3   4
ENDBRANCH   2   3
ENDBRANCH   1   2
BRANCH   1  30
ATOM     30  O   UNL A   1      34.036  31.392  27.496  1.00  0.00    -0.377 OA
BRANCH  30  31
ATOM     31  C   UNL A   1      35.087  31.955  28.277  1.00  0.00     0.188 C 
BRANCH  31  32
ATOM     32  C   UNL A   1      34.794  32.943  29.434  1.00  0.00     0.188 C 
BRANCH  32  33
ATOM     33  O   UNL A   1      33.619  33.719  29.260  1.00  0.00    -0.376 OA
BRANCH  33  34
ATOM     34  C   UNL A   1      33.708  35.058  28.817  1.00  0.00     0.202 C 
BRANCH  34  35
ATOM     35  C   UNL A   1      32.863  36.117  29.538  1.00  0.00     0.261 C 
BRANCH  35  36
ATOM     36  O   UNL A   1      33.241  36.428  30.885  1.00  0.00    -0.460 OA
BRANCH  36  37
ATOM     37  C   UNL A   1      32.760  35.648  31.874  1.00  0.00     0.338 C 
ATOM     38  O   UNL A   1      31.593  35.401  32.125  1.00  0.00    -0.246 OA
BRANCH  37  39
ATOM     39  C   UNL A   1      33.921  34.975  32.493  1.00  0.00     0.060 A 
ATOM     40  C   UNL A   1      35.183  35.584  32.440  1.00  0.00     0.016 A 
ATOM     41  C   UNL A   1      33.747  33.759  33.157  1.00  0.00     0.016 A 
ATOM     42  C   UNL A   1      36.287  34.954  33.017  1.00  0.00     0.010 A 
ATOM     43  C   UNL A   1      34.854  33.116  33.710  1.00  0.00     0.010 A 
ATOM     44  C   UNL A   1      36.133  33.693  33.605  1.00  0.00    -0.014 A 
BRANCH  44  45
ATOM     45  C   UNL A   1      37.322  32.852  33.874  1.00  0.00     0.031 A 
ATOM     46  C   UNL A   1      38.080  33.110  35.146  1.00  0.00     0.074 A 
ATOM     47  C   UNL A   1      37.728  31.899  33.019  1.00  0.00     0.049 A 
ATOM     48  N   UNL A   1      39.212  32.606  35.562  1.00  0.00    -0.248 NA
ATOM     49  C   UNL A   1      37.475  34.083  36.073  1.00  0.00     0.031 C 
ATOM     50  C   UNL A   1      37.048  31.524  31.783  1.00  0.00     0.029 A 
ATOM     51  N   UNL A   1      38.834  31.087  33.059  1.00  0.00    -0.354 N 
ATOM     52  C   UNL A   1      39.463  33.214  36.786  1.00  0.00     0.074 A 
ATOM     53  C   UNL A   1      38.385  34.144  37.033  1.00  0.00     0.031 C 
ATOM     54  C   UNL A   1      37.764  30.566  31.168  1.00  0.00     0.029 A 
ATOM     55  C   UNL A   1      38.971  30.293  31.947  1.00  0.00     0.049 A 
ATOM     56  H   UNL A   1      39.467  31.075  33.812  1.00  0.00     0.167 HD
ATOM     57  C   UNL A   1      40.500  33.009  37.631  1.00  0.00     0.037 A 
ATOM     58  C   UNL A   1      39.977  29.471  31.591  1.00  0.00     0.037 A 
ATOM     59  C   UNL A   1      41.573  32.086  37.374  1.00  0.00     0.049 A 
ATOM     60  C   UNL A   1      41.167  29.321  32.509  1.00  0.00     0.074 A 
ATOM     61  C   UNL A   1      42.667  31.792  38.167  1.00  0.00     0.029 A 
ATOM     62  N   UNL A   1      41.689  31.314  36.227  1.00  0.00    -0.354 N 
ATOM     63  N   UNL A   1      41.395  29.881  33.673  1.00  0.00    -0.248 NA
ATOM     64  C   UNL A   1      42.239  28.420  32.063  1.00  0.00     0.031 C 
ATOM     65  C   UNL A   1      43.479  30.892  37.471  1.00  0.00     0.029 A 
ATOM     66  C   UNL A   1      42.852  30.565  36.278  1.00  0.00     0.049 A 
ATOM     67  H   UNL A   1      41.040  31.301  35.486  1.00  0.00     0.167 HD
ATOM     68  C   UNL A   1      42.611  29.373  34.115  1.00  0.00     0.074 A 
ATOM     69  C   UNL A   1      43.070  28.453  33.096  1.00  0.00     0.031 C 
ATOM     70  C   UNL A   1      43.284  29.639  35.262  1.00  0.00     0.037 A 
BRANCH  57  71
ATOM     71  C   UNL A   1      40.540  33.827  38.889  1.00  0.00     0.064 A 
ATOM     72  C   UNL A   1      39.849  33.440  40.048  1.00  0.00     0.173 A 
ATOM     73  C   UNL A   1      41.293  35.010  38.939  1.00  0.00     0.173 A 
ATOM     74  F   UNL A   1      39.098  32.328  40.049  1.00  0.00    -0.203 F 
ATOM     75  C   UNL A   1      39.885  34.224  41.198  1.00  0.00     0.198 A 
ATOM     76  C   UNL A   1      41.356  35.772  40.102  1.00  0.00     0.198 A 
ATOM     77  F   UNL A   1      41.972  35.427  37.860  1.00  0.00    -0.203 F 
ATOM     78  F   UNL A   1      39.170  33.866  42.274  1.00  0.00    -0.200 F 
ATOM     79  C   UNL A   1      40.645  35.384  41.227  1.00  0.00     0.200 A 
ATOM     80  F   UNL A   1      42.102  36.885  40.132  1.00  0.00    -0.200 F 
ATOM     81  F   UNL A   1      40.685  36.134  42.338  1.00  0.00    -0.200 F 
ENDBRANCH  57  71
BRANCH  58  82
ATOM     82  C   UNL A   1      39.919  28.732  30.301  1.00  0.00     0.064 A 
ATOM     83  C   UNL A   1      39.353  27.452  30.226  1.00  0.00     0.173 A 
ATOM     84  C   UNL A   1      40.450  29.279  29.123  1.00  0.00     0.173 A 
ATOM     85  F   UNL A   1      38.856  26.874  31.329  1.00  0.00    -0.203 F 
ATOM     86  C   UNL A   1      39.342  26.738  29.029  1.00  0.00     0.198 A 
ATOM     87  C   UNL A   1      40.409  28.577  27.920  1.00  0.00     0.198 A 
ATOM     88  F   UNL A   1      41.007  30.499  29.139  1.00  0.00    -0.203 F 
ATOM     89  F   UNL A   1      38.844  25.494  28.999  1.00  0.00    -0.200 F 
ATOM     90  C   UNL A   1      39.863  27.303  27.876  1.00  0.00     0.200 A 
ATOM     91  F   UNL A   1      40.902  29.134  26.805  1.00  0.00    -0.200 F 
ATOM     92  F   UNL A   1      39.849  26.618  26.724  1.00  0.00    -0.200 F 
ENDBRANCH  58  82
BRANCH  70  93
ATOM     93  C   UNL A   1      44.559  28.881  35.514  1.00  0.00     0.064 A 
ATOM     94  C   UNL A   1      44.570  27.631  36.148  1.00  0.00     0.173 A 
ATOM     95  C   UNL A   1      45.784  29.395  35.058  1.00  0.00     0.173 A 
ATOM     96  F   UNL A   1      43.428  27.100  36.613  1.00  0.00    -0.203 F 
ATOM     97  C   UNL A   1      45.761  26.936  36.341  1.00  0.00     0.198 A 
ATOM     98  C   UNL A   1      46.967  28.682  35.219  1.00  0.00     0.198 A 
ATOM     99  F   UNL A   1      45.830  30.584  34.434  1.00  0.00    -0.203 F 
ATOM    100  F   UNL A   1      45.754  25.766  36.994  1.00  0.00    -0.200 F 
ATOM    101  C   UNL A   1      46.957  27.457  35.868  1.00  0.00     0.200 A 
ATOM    102  F   UNL A   1      48.118  29.178  34.743  1.00  0.00    -0.200 F 
ATOM    103  F   UNL A   1      48.100  26.781  36.042  1.00  0.00    -0.200 F 
ENDBRANCH  70  93
ENDBRANCH  44  45
ENDBRANCH  37  39
ENDBRANCH  36  37
ENDBRANCH  35  36
ENDBRANCH  34  35
ENDBRANCH  33  34
ENDBRANCH  32  33
ENDBRANCH  31  32
ENDBRANCH  30  31
ENDBRANCH   1  30
TORSDOF 23
ENDMDL
