MODEL 1
REMARK VINA RESULT:     -10.2      0.000      0.000
REMARK SMILES O=C(OCCOCCOCCOCCOC(=O)[C@H]1CSCN1C(=O)c1cnc2ccccn2c1=O)c1ccc(-c2c3nc(c(-c4c(F)c(F)c(F)c(F)c4F)c4ccc([nH]4)c(-c4c(F)c(F)c(F)c(F)c4F)c4nc(c(-c5c(F)c(F)c(F)c(F)c5F)c5ccc2[nH]5)C=C4)C=C3)cc1
REMARK SMILES IDX 9 1 8 2 7 3 6 4 5 5 4 6 3 7 2 8 1 9 36 10 37 11 98 12 38 13
REMARK SMILES IDX 97 14 39 15 40 16 41 17 91 18 42 19 96 20 90 21 92 22 43 23
REMARK SMILES IDX 95 24 89 25 88 26 44 28 76 29 56 30 75 31 57 32 60 33 74 34
REMARK SMILES IDX 93 35 58 36 59 37 73 39 94 40 61 41 45 42 46 43 54 44 47 45
REMARK SMILES IDX 48 46 52 47 55 48 49 49 50 50 53 51 51 52 77 53 78 54 86 55
REMARK SMILES IDX 79 56 80 57 84 58 87 59 81 60 82 61 85 62 83 63 62 64 63 65
REMARK SMILES IDX 71 66 64 67 65 68 69 69 72 70 66 71 67 72 70 73 68 74 10 75
REMARK SMILES IDX 11 76 12 77 13 78 14 79 15 80 16 81 17 82 18 83 19 84 22 85
REMARK SMILES IDX 20 86 21 87 23 88 24 89 25 90 26 91 34 92 27 93 33 94 35 95
REMARK SMILES IDX 28 96 32 97 29 98 31 99 30 100
REMARK H PARENT 92 27 60 38
REMARK Flexibility Score: inf
ROOT
ATOM      1  O   UNL A   1      33.710  33.058  27.863  1.00  0.00    -0.377 OA
ENDROOT
BRANCH   1   2
ATOM      2  C   UNL A   1      34.487  32.948  29.058  1.00  0.00     0.188 C 
BRANCH   2   3
ATOM      3  C   UNL A   1      35.397  34.148  29.313  1.00  0.00     0.188 C 
BRANCH   3   4
ATOM      4  O   UNL A   1      35.244  34.578  30.672  1.00  0.00    -0.376 OA
BRANCH   4   5
ATOM      5  C   UNL A   1      34.141  33.995  31.362  1.00  0.00     0.202 C 
BRANCH   5   6
ATOM      6  C   UNL A   1      34.531  33.351  32.692  1.00  0.00     0.261 C 
BRANCH   6   7
ATOM      7  O   UNL A   1      35.939  33.458  32.943  1.00  0.00    -0.460 OA
BRANCH   7   8
ATOM      8  C   UNL A   1      36.781  32.511  33.427  1.00  0.00     0.338 C 
ATOM      9  O   UNL A   1      36.691  32.221  34.621  1.00  0.00    -0.246 OA
BRANCH   8  10
ATOM     10  C   UNL A   1      37.800  31.766  32.612  1.00  0.00     0.060 A 
ATOM     11  C   UNL A   1      38.758  30.872  33.098  1.00  0.00     0.016 A 
ATOM     12  C   UNL A   1      37.749  31.960  31.218  1.00  0.00     0.016 A 
ATOM     13  C   UNL A   1      39.670  30.245  32.256  1.00  0.00     0.010 A 
ATOM     14  C   UNL A   1      38.650  31.324  30.357  1.00  0.00     0.010 A 
ATOM     15  C   UNL A   1      39.635  30.487  30.887  1.00  0.00    -0.014 A 
BRANCH  15  16
ATOM     16  C   UNL A   1      40.753  29.985  30.069  1.00  0.00     0.031 A 
ATOM     17  C   UNL A   1      41.943  30.878  29.892  1.00  0.00     0.074 A 
ATOM     18  C   UNL A   1      40.750  28.717  29.625  1.00  0.00     0.049 A 
ATOM     19  N   UNL A   1      43.031  30.686  29.198  1.00  0.00    -0.248 NA
ATOM     20  C   UNL A   1      41.912  32.159  30.622  1.00  0.00     0.031 C 
ATOM     21  C   UNL A   1      39.690  27.739  29.876  1.00  0.00     0.029 A 
ATOM     22  N   UNL A   1      41.679  28.026  28.894  1.00  0.00    -0.354 N 
ATOM     23  C   UNL A   1      43.799  31.827  29.386  1.00  0.00     0.074 A 
ATOM     24  C   UNL A   1      43.063  32.707  30.264  1.00  0.00     0.031 C 
ATOM     25  C   UNL A   1      40.032  26.570  29.309  1.00  0.00     0.029 A 
ATOM     26  C   UNL A   1      41.302  26.736  28.610  1.00  0.00     0.049 A 
ATOM     27  H   UNL A   1      42.534  28.415  28.601  1.00  0.00     0.167 HD
ATOM     28  C   UNL A   1      45.009  32.112  28.853  1.00  0.00     0.037 A 
ATOM     29  C   UNL A   1      41.910  25.817  27.835  1.00  0.00     0.037 A 
ATOM     30  C   UNL A   1      45.715  31.218  27.980  1.00  0.00     0.049 A 
ATOM     31  C   UNL A   1      43.209  26.201  27.173  1.00  0.00     0.074 A 
ATOM     32  C   UNL A   1      46.912  31.415  27.319  1.00  0.00     0.029 A 
ATOM     33  N   UNL A   1      45.273  29.943  27.648  1.00  0.00    -0.354 N 
ATOM     34  N   UNL A   1      43.904  27.308  27.293  1.00  0.00    -0.248 NA
ATOM     35  C   UNL A   1      43.798  25.222  26.251  1.00  0.00     0.031 C 
ATOM     36  C   UNL A   1      47.174  30.273  26.554  1.00  0.00     0.029 A 
ATOM     37  C   UNL A   1      46.163  29.348  26.774  1.00  0.00     0.049 A 
ATOM     38  H   UNL A   1      44.448  29.526  27.986  1.00  0.00     0.167 HD
ATOM     39  C   UNL A   1      45.014  27.155  26.475  1.00  0.00     0.074 A 
ATOM     40  C   UNL A   1      44.913  25.836  25.883  1.00  0.00     0.031 C 
ATOM     41  C   UNL A   1      46.022  28.026  26.221  1.00  0.00     0.037 A 
BRANCH  28  42
ATOM     42  C   UNL A   1      45.584  33.464  29.145  1.00  0.00     0.064 A 
ATOM     43  C   UNL A   1      45.278  34.587  28.365  1.00  0.00     0.173 A 
ATOM     44  C   UNL A   1      46.477  33.629  30.214  1.00  0.00     0.173 A 
ATOM     45  F   UNL A   1      44.453  34.475  27.312  1.00  0.00    -0.203 F 
ATOM     46  C   UNL A   1      45.860  35.824  28.633  1.00  0.00     0.198 A 
ATOM     47  C   UNL A   1      47.041  34.871  30.492  1.00  0.00     0.198 A 
ATOM     48  F   UNL A   1      46.812  32.582  30.983  1.00  0.00    -0.203 F 
ATOM     49  F   UNL A   1      45.592  36.875  27.845  1.00  0.00    -0.200 F 
ATOM     50  C   UNL A   1      46.738  35.966  29.698  1.00  0.00     0.200 A 
ATOM     51  F   UNL A   1      47.890  35.005  31.521  1.00  0.00    -0.200 F 
ATOM     52  F   UNL A   1      47.302  37.155  29.951  1.00  0.00    -0.200 F 
ENDBRANCH  28  42
BRANCH  29  53
ATOM     53  C   UNL A   1      41.276  24.493  27.586  1.00  0.00     0.064 A 
ATOM     54  C   UNL A   1      41.789  23.317  28.150  1.00  0.00     0.173 A 
ATOM     55  C   UNL A   1      40.160  24.371  26.741  1.00  0.00     0.173 A 
ATOM     56  F   UNL A   1      42.869  23.371  28.943  1.00  0.00    -0.203 F 
ATOM     57  C   UNL A   1      41.230  22.073  27.861  1.00  0.00     0.198 A 
ATOM     58  C   UNL A   1      39.581  23.131  26.479  1.00  0.00     0.198 A 
ATOM     59  F   UNL A   1      39.630  25.460  26.165  1.00  0.00    -0.203 F 
ATOM     60  F   UNL A   1      41.778  20.960  28.367  1.00  0.00    -0.200 F 
ATOM     61  C   UNL A   1      40.123  21.981  27.030  1.00  0.00     0.200 A 
ATOM     62  F   UNL A   1      38.506  23.051  25.684  1.00  0.00    -0.200 F 
ATOM     63  F   UNL A   1      39.589  20.785  26.749  1.00  0.00    -0.200 F 
ENDBRANCH  29  53
BRANCH  41  64
ATOM     64  C   UNL A   1      47.094  27.564  25.282  1.00  0.00     0.064 A 
ATOM     65  C   UNL A   1      47.055  27.885  23.918  1.00  0.00     0.173 A 
ATOM     66  C   UNL A   1      48.196  26.845  25.764  1.00  0.00     0.173 A 
ATOM     67  F   UNL A   1      46.012  28.560  23.412  1.00  0.00    -0.203 F 
ATOM     68  C   UNL A   1      48.077  27.485  23.064  1.00  0.00     0.198 A 
ATOM     69  C   UNL A   1      49.230  26.470  24.913  1.00  0.00     0.198 A 
ATOM     70  F   UNL A   1      48.278  26.523  27.064  1.00  0.00    -0.203 F 
ATOM     71  F   UNL A   1      48.005  27.768  21.756  1.00  0.00    -0.200 F 
ATOM     72  C   UNL A   1      49.167  26.786  23.563  1.00  0.00     0.200 A 
ATOM     73  F   UNL A   1      50.288  25.807  25.398  1.00  0.00    -0.200 F 
ATOM     74  F   UNL A   1      50.157  26.411  22.741  1.00  0.00    -0.200 F 
ENDBRANCH  41  64
ENDBRANCH  15  16
ENDBRANCH   8  10
ENDBRANCH   7   8
ENDBRANCH   6   7
ENDBRANCH   5   6
ENDBRANCH   4   5
ENDBRANCH   3   4
ENDBRANCH   2   3
ENDBRANCH   1   2
BRANCH   1  75
ATOM     75  C   UNL A   1      33.159  31.849  27.352  1.00  0.00     0.188 C 
BRANCH  75  76
ATOM     76  C   UNL A   1      33.971  30.558  27.562  1.00  0.00     0.188 C 
BRANCH  76  77
ATOM     77  O   UNL A   1      33.669  29.527  26.649  1.00  0.00    -0.376 OA
BRANCH  77  78
ATOM     78  C   UNL A   1      34.189  28.225  26.845  1.00  0.00     0.202 C 
BRANCH  78  79
ATOM     79  C   UNL A   1      33.739  26.953  26.096  1.00  0.00     0.261 C 
BRANCH  79  80
ATOM     80  O   UNL A   1      32.363  26.823  25.732  1.00  0.00    -0.462 OA
BRANCH  80  81
ATOM     81  C   UNL A   1      31.772  25.615  25.898  1.00  0.00     0.329 C 
ATOM     82  O   UNL A   1      31.071  25.319  26.861  1.00  0.00    -0.250 OA
BRANCH  81  83
ATOM     83  C   UNL A   1      31.945  24.681  24.677  1.00  0.00     0.206 C 
ATOM     84  C   UNL A   1      31.595  25.525  23.449  1.00  0.00     0.108 C 
ATOM     85  N   UNL A   1      33.232  23.988  24.450  1.00  0.00    -0.314 N 
ATOM     86  S   UNL A   1      32.569  24.920  22.060  1.00  0.00    -0.138 SA
ATOM     87  C   UNL A   1      33.694  23.960  23.077  1.00  0.00     0.191 C 
BRANCH  85  88
ATOM     88  C   UNL A   1      33.681  23.115  25.429  1.00  0.00     0.262 C 
ATOM     89  O   UNL A   1      33.998  23.524  26.550  1.00  0.00    -0.269 OA
BRANCH  88  90
ATOM     90  C   UNL A   1      33.567  21.653  25.210  1.00  0.00     0.124 A 
ATOM     91  C   UNL A   1      32.312  21.204  25.082  1.00  0.00     0.133 A 
ATOM     92  C   UNL A   1      34.661  20.666  25.086  1.00  0.00     0.270 A 
ATOM     93  N   UNL A   1      31.951  19.919  24.800  1.00  0.00    -0.237 NA
ATOM     94  N   UNL A   1      34.260  19.361  24.783  1.00  0.00    -0.267 N 
ATOM     95  O   UNL A   1      35.833  21.015  25.216  1.00  0.00    -0.268 OA
ATOM     96  C   UNL A   1      32.908  19.057  24.654  1.00  0.00     0.139 A 
ATOM     97  C   UNL A   1      35.225  18.370  24.606  1.00  0.00     0.096 A 
ATOM     98  C   UNL A   1      32.549  17.652  24.316  1.00  0.00     0.048 A 
ATOM     99  C   UNL A   1      34.895  17.109  24.295  1.00  0.00     0.019 A 
ATOM    100  C   UNL A   1      33.512  16.742  24.141  1.00  0.00     0.005 A 
ENDBRANCH  88  90
ENDBRANCH  85  88
ENDBRANCH  81  83
ENDBRANCH  80  81
ENDBRANCH  79  80
ENDBRANCH  78  79
ENDBRANCH  77  78
ENDBRANCH  76  77
ENDBRANCH  75  76
ENDBRANCH   1  75
TORSDOF 22
ENDMDL
MODEL 2
REMARK VINA RESULT:     -10.1      5.320     10.483
REMARK SMILES O=C(OCCOCCOCCOCCOC(=O)[C@H]1CSCN1C(=O)c1cnc2ccccn2c1=O)c1ccc(-c2c3nc(c(-c4c(F)c(F)c(F)c(F)c4F)c4ccc([nH]4)c(-c4c(F)c(F)c(F)c(F)c4F)c4nc(c(-c5c(F)c(F)c(F)c(F)c5F)c5ccc2[nH]5)C=C4)C=C3)cc1
REMARK SMILES IDX 9 1 8 2 7 3 6 4 5 5 4 6 3 7 2 8 1 9 36 10 37 11 98 12 38 13
REMARK SMILES IDX 97 14 39 15 40 16 41 17 91 18 42 19 96 20 90 21 92 22 43 23
REMARK SMILES IDX 95 24 89 25 88 26 44 28 76 29 56 30 75 31 57 32 60 33 74 34
REMARK SMILES IDX 93 35 58 36 59 37 73 39 94 40 61 41 45 42 46 43 54 44 47 45
REMARK SMILES IDX 48 46 52 47 55 48 49 49 50 50 53 51 51 52 77 53 78 54 86 55
REMARK SMILES IDX 79 56 80 57 84 58 87 59 81 60 82 61 85 62 83 63 62 64 63 65
REMARK SMILES IDX 71 66 64 67 65 68 69 69 72 70 66 71 67 72 70 73 68 74 10 75
REMARK SMILES IDX 11 76 12 77 13 78 14 79 15 80 16 81 17 82 18 83 19 84 22 85
REMARK SMILES IDX 20 86 21 87 23 88 24 89 25 90 26 91 34 92 27 93 33 94 35 95
REMARK SMILES IDX 28 96 32 97 29 98 31 99 30 100
REMARK H PARENT 92 27 60 38
REMARK Flexibility Score: inf
ROOT
ATOM      1  O   UNL A   1      39.512  19.327  25.645  1.00  0.00    -0.377 OA
ENDROOT
BRANCH   1   2
ATOM      2  C   UNL A   1      40.362  20.013  26.567  1.00  0.00     0.188 C 
BRANCH   2   3
ATOM      3  C   UNL A   1      41.526  20.746  25.904  1.00  0.00     0.188 C 
BRANCH   3   4
ATOM      4  O   UNL A   1      42.450  19.786  25.374  1.00  0.00    -0.376 OA
BRANCH   4   5
ATOM      5  C   UNL A   1      43.763  20.288  25.137  1.00  0.00     0.202 C 
BRANCH   5   6
ATOM      6  C   UNL A   1      44.174  21.394  26.108  1.00  0.00     0.261 C 
BRANCH   6   7
ATOM      7  O   UNL A   1      44.390  22.641  25.434  1.00  0.00    -0.460 OA
BRANCH   7   8
ATOM      8  C   UNL A   1      43.590  23.735  25.414  1.00  0.00     0.338 C 
ATOM      9  O   UNL A   1      43.092  24.061  24.335  1.00  0.00    -0.246 OA
BRANCH   8  10
ATOM     10  C   UNL A   1      43.239  24.569  26.613  1.00  0.00     0.060 A 
ATOM     11  C   UNL A   1      42.533  24.143  27.742  1.00  0.00     0.016 A 
ATOM     12  C   UNL A   1      43.710  25.897  26.612  1.00  0.00     0.016 A 
ATOM     13  C   UNL A   1      42.245  25.003  28.796  1.00  0.00     0.010 A 
ATOM     14  C   UNL A   1      43.441  26.769  27.672  1.00  0.00     0.010 A 
ATOM     15  C   UNL A   1      42.678  26.325  28.754  1.00  0.00    -0.014 A 
BRANCH  15  16
ATOM     16  C   UNL A   1      42.159  27.253  29.774  1.00  0.00     0.031 A 
ATOM     17  C   UNL A   1      42.963  27.433  31.025  1.00  0.00     0.074 A 
ATOM     18  C   UNL A   1      41.079  28.009  29.514  1.00  0.00     0.049 A 
ATOM     19  N   UNL A   1      42.710  28.159  32.080  1.00  0.00    -0.248 NA
ATOM     20  C   UNL A   1      44.248  26.712  31.086  1.00  0.00     0.031 C 
ATOM     21  C   UNL A   1      40.322  27.993  28.261  1.00  0.00     0.029 A 
ATOM     22  N   UNL A   1      40.448  28.954  30.277  1.00  0.00    -0.354 N 
ATOM     23  C   UNL A   1      43.785  27.962  32.935  1.00  0.00     0.074 A 
ATOM     24  C   UNL A   1      44.701  27.057  32.281  1.00  0.00     0.031 C 
ATOM     25  C   UNL A   1      39.328  28.894  28.341  1.00  0.00     0.029 A 
ATOM     26  C   UNL A   1      39.345  29.502  29.668  1.00  0.00     0.049 A 
ATOM     27  H   UNL A   1      40.753  29.216  31.175  1.00  0.00     0.167 HD
ATOM     28  C   UNL A   1      43.974  28.486  34.167  1.00  0.00     0.037 A 
ATOM     29  C   UNL A   1      38.438  30.368  30.158  1.00  0.00     0.037 A 
ATOM     30  C   UNL A   1      43.042  29.382  34.794  1.00  0.00     0.049 A 
ATOM     31  C   UNL A   1      38.621  30.857  31.572  1.00  0.00     0.074 A 
ATOM     32  C   UNL A   1      43.082  29.927  36.062  1.00  0.00     0.029 A 
ATOM     33  N   UNL A   1      41.892  29.862  34.180  1.00  0.00    -0.354 N 
ATOM     34  N   UNL A   1      39.603  30.617  32.410  1.00  0.00    -0.248 NA
ATOM     35  C   UNL A   1      37.564  31.717  32.118  1.00  0.00     0.031 C 
ATOM     36  C   UNL A   1      41.932  30.707  36.230  1.00  0.00     0.029 A 
ATOM     37  C   UNL A   1      41.201  30.683  35.051  1.00  0.00     0.049 A 
ATOM     38  H   UNL A   1      41.612  29.650  33.260  1.00  0.00     0.167 HD
ATOM     39  C   UNL A   1      39.289  31.303  33.574  1.00  0.00     0.074 A 
ATOM     40  C   UNL A   1      38.038  31.991  33.325  1.00  0.00     0.031 C 
ATOM     41  C   UNL A   1      39.962  31.354  34.751  1.00  0.00     0.037 A 
BRANCH  28  42
ATOM     42  C   UNL A   1      45.185  28.037  34.924  1.00  0.00     0.064 A 
ATOM     43  C   UNL A   1      45.174  26.895  35.737  1.00  0.00     0.173 A 
ATOM     44  C   UNL A   1      46.374  28.779  34.849  1.00  0.00     0.173 A 
ATOM     45  F   UNL A   1      44.053  26.169  35.867  1.00  0.00    -0.203 F 
ATOM     46  C   UNL A   1      46.303  26.524  36.464  1.00  0.00     0.198 A 
ATOM     47  C   UNL A   1      47.507  28.393  35.560  1.00  0.00     0.198 A 
ATOM     48  F   UNL A   1      46.432  29.887  34.095  1.00  0.00    -0.203 F 
ATOM     49  F   UNL A   1      46.256  25.456  37.273  1.00  0.00    -0.200 F 
ATOM     50  C   UNL A   1      47.468  27.270  36.371  1.00  0.00     0.200 A 
ATOM     51  F   UNL A   1      48.631  29.117  35.470  1.00  0.00    -0.200 F 
ATOM     52  F   UNL A   1      48.552  26.914  37.075  1.00  0.00    -0.200 F 
ENDBRANCH  28  42
BRANCH  29  53
ATOM     53  C   UNL A   1      37.254  30.768  29.348  1.00  0.00     0.064 A 
ATOM     54  C   UNL A   1      36.222  29.864  29.061  1.00  0.00     0.173 A 
ATOM     55  C   UNL A   1      37.151  32.060  28.806  1.00  0.00     0.173 A 
ATOM     56  F   UNL A   1      36.282  28.609  29.531  1.00  0.00    -0.203 F 
ATOM     57  C   UNL A   1      35.149  30.227  28.247  1.00  0.00     0.198 A 
ATOM     58  C   UNL A   1      36.061  32.432  28.020  1.00  0.00     0.198 A 
ATOM     59  F   UNL A   1      38.111  32.966  29.037  1.00  0.00    -0.203 F 
ATOM     60  F   UNL A   1      34.207  29.323  27.942  1.00  0.00    -0.200 F 
ATOM     61  C   UNL A   1      35.067  31.512  27.732  1.00  0.00     0.200 A 
ATOM     62  F   UNL A   1      35.982  33.677  27.534  1.00  0.00    -0.200 F 
ATOM     63  F   UNL A   1      34.038  31.857  26.946  1.00  0.00    -0.200 F 
ENDBRANCH  29  53
BRANCH  41  64
ATOM     64  C   UNL A   1      39.363  32.194  35.837  1.00  0.00     0.064 A 
ATOM     65  C   UNL A   1      38.410  31.671  36.720  1.00  0.00     0.173 A 
ATOM     66  C   UNL A   1      39.793  33.515  36.028  1.00  0.00     0.173 A 
ATOM     67  F   UNL A   1      37.960  30.417  36.565  1.00  0.00    -0.203 F 
ATOM     68  C   UNL A   1      37.892  32.450  37.749  1.00  0.00     0.198 A 
ATOM     69  C   UNL A   1      39.293  34.282  37.074  1.00  0.00     0.198 A 
ATOM     70  F   UNL A   1      40.711  34.053  35.210  1.00  0.00    -0.203 F 
ATOM     71  F   UNL A   1      36.952  31.946  38.562  1.00  0.00    -0.200 F 
ATOM     72  C   UNL A   1      38.340  33.751  37.930  1.00  0.00     0.200 A 
ATOM     73  F   UNL A   1      39.737  35.533  37.258  1.00  0.00    -0.200 F 
ATOM     74  F   UNL A   1      37.848  34.496  38.930  1.00  0.00    -0.200 F 
ENDBRANCH  41  64
ENDBRANCH  15  16
ENDBRANCH   8  10
ENDBRANCH   7   8
ENDBRANCH   6   7
ENDBRANCH   5   6
ENDBRANCH   4   5
ENDBRANCH   3   4
ENDBRANCH   2   3
ENDBRANCH   1   2
BRANCH   1  75
ATOM     75  C   UNL A   1      38.313  19.996  25.271  1.00  0.00     0.188 C 
BRANCH  75  76
ATOM     76  C   UNL A   1      38.263  21.523  25.467  1.00  0.00     0.188 C 
BRANCH  76  77
ATOM     77  O   UNL A   1      37.482  22.206  24.514  1.00  0.00    -0.376 OA
BRANCH  77  78
ATOM     78  C   UNL A   1      37.039  23.528  24.769  1.00  0.00     0.202 C 
BRANCH  78  79
ATOM     79  C   UNL A   1      35.714  23.915  25.458  1.00  0.00     0.261 C 
BRANCH  79  80
ATOM     80  O   UNL A   1      35.456  23.422  26.775  1.00  0.00    -0.462 OA
BRANCH  80  81
ATOM     81  C   UNL A   1      34.511  22.462  26.922  1.00  0.00     0.329 C 
ATOM     82  O   UNL A   1      34.286  21.875  27.976  1.00  0.00    -0.250 OA
BRANCH  81  83
ATOM     83  C   UNL A   1      33.634  22.274  25.662  1.00  0.00     0.206 C 
ATOM     84  C   UNL A   1      33.999  20.897  25.100  1.00  0.00     0.108 C 
ATOM     85  N   UNL A   1      32.163  22.394  25.757  1.00  0.00    -0.314 N 
ATOM     86  S   UNL A   1      32.539  20.222  24.288  1.00  0.00    -0.138 SA
ATOM     87  C   UNL A   1      31.405  21.405  25.018  1.00  0.00     0.191 C 
BRANCH  85  88
ATOM     88  C   UNL A   1      31.637  23.606  26.180  1.00  0.00     0.262 C 
ATOM     89  O   UNL A   1      30.935  23.676  27.193  1.00  0.00    -0.269 OA
BRANCH  88  90
ATOM     90  C   UNL A   1      32.103  24.863  25.547  1.00  0.00     0.124 A 
ATOM     91  C   UNL A   1      32.400  25.844  26.408  1.00  0.00     0.133 A 
ATOM     92  C   UNL A   1      32.301  25.134  24.107  1.00  0.00     0.270 A 
ATOM     93  N   UNL A   1      32.917  27.063  26.078  1.00  0.00    -0.237 NA
ATOM     94  N   UNL A   1      32.846  26.386  23.802  1.00  0.00    -0.267 N 
ATOM     95  O   UNL A   1      32.025  24.279  23.268  1.00  0.00    -0.268 OA
ATOM     96  C   UNL A   1      33.128  27.293  24.820  1.00  0.00     0.139 A 
ATOM     97  C   UNL A   1      33.108  26.715  22.473  1.00  0.00     0.096 A 
ATOM     98  C   UNL A   1      33.720  28.602  24.429  1.00  0.00     0.048 A 
ATOM     99  C   UNL A   1      33.646  27.893  22.128  1.00  0.00     0.019 A 
ATOM    100  C   UNL A   1      33.966  28.864  23.141  1.00  0.00     0.005 A 
ENDBRANCH  88  90
ENDBRANCH  85  88
ENDBRANCH  81  83
ENDBRANCH  80  81
ENDBRANCH  79  80
ENDBRANCH  78  79
ENDBRANCH  77  78
ENDBRANCH  76  77
ENDBRANCH  75  76
ENDBRANCH   1  75
TORSDOF 22
ENDMDL
MODEL 3
REMARK VINA RESULT:      -9.5      5.899     10.346
REMARK SMILES O=C(OCCOCCOCCOCCOC(=O)[C@H]1CSCN1C(=O)c1cnc2ccccn2c1=O)c1ccc(-c2c3nc(c(-c4c(F)c(F)c(F)c(F)c4F)c4ccc([nH]4)c(-c4c(F)c(F)c(F)c(F)c4F)c4nc(c(-c5c(F)c(F)c(F)c(F)c5F)c5ccc2[nH]5)C=C4)C=C3)cc1
REMARK SMILES IDX 9 1 8 2 7 3 6 4 5 5 4 6 3 7 2 8 1 9 36 10 37 11 98 12 38 13
REMARK SMILES IDX 97 14 39 15 40 16 41 17 91 18 42 19 96 20 90 21 92 22 43 23
REMARK SMILES IDX 95 24 89 25 88 26 44 28 76 29 56 30 75 31 57 32 60 33 74 34
REMARK SMILES IDX 93 35 58 36 59 37 73 39 94 40 61 41 45 42 46 43 54 44 47 45
REMARK SMILES IDX 48 46 52 47 55 48 49 49 50 50 53 51 51 52 77 53 78 54 86 55
REMARK SMILES IDX 79 56 80 57 84 58 87 59 81 60 82 61 85 62 83 63 62 64 63 65
REMARK SMILES IDX 71 66 64 67 65 68 69 69 72 70 66 71 67 72 70 73 68 74 10 75
REMARK SMILES IDX 11 76 12 77 13 78 14 79 15 80 16 81 17 82 18 83 19 84 22 85
REMARK SMILES IDX 20 86 21 87 23 88 24 89 25 90 26 91 34 92 27 93 33 94 35 95
REMARK SMILES IDX 28 96 32 97 29 98 31 99 30 100
REMARK H PARENT 92 27 60 38
REMARK Flexibility Score: inf
ROOT
ATOM      1  O   UNL A   1      32.997  35.780  32.271  1.00  0.00    -0.377 OA
ENDROOT
BRANCH   1   2
ATOM      2  C   UNL A   1      33.271  36.690  31.203  1.00  0.00     0.188 C 
BRANCH   2   3
ATOM      3  C   UNL A   1      32.839  36.176  29.831  1.00  0.00     0.188 C 
BRANCH   3   4
ATOM      4  O   UNL A   1      33.927  35.466  29.226  1.00  0.00    -0.376 OA
BRANCH   4   5
ATOM      5  C   UNL A   1      33.812  34.045  29.272  1.00  0.00     0.202 C 
BRANCH   5   6
ATOM      6  C   UNL A   1      33.800  33.393  27.891  1.00  0.00     0.261 C 
BRANCH   6   7
ATOM      7  O   UNL A   1      34.973  32.600  27.665  1.00  0.00    -0.460 OA
BRANCH   7   8
ATOM      8  C   UNL A   1      35.246  31.353  28.123  1.00  0.00     0.338 C 
ATOM      9  O   UNL A   1      34.371  30.494  28.001  1.00  0.00    -0.246 OA
BRANCH   8  10
ATOM     10  C   UNL A   1      36.545  30.928  28.745  1.00  0.00     0.060 A 
ATOM     11  C   UNL A   1      37.743  31.649  28.739  1.00  0.00     0.016 A 
ATOM     12  C   UNL A   1      36.536  29.701  29.438  1.00  0.00     0.016 A 
ATOM     13  C   UNL A   1      38.899  31.155  29.333  1.00  0.00     0.010 A 
ATOM     14  C   UNL A   1      37.688  29.200  30.053  1.00  0.00     0.010 A 
ATOM     15  C   UNL A   1      38.882  29.920  29.971  1.00  0.00    -0.014 A 
BRANCH  15  16
ATOM     16  C   UNL A   1      40.172  29.338  30.383  1.00  0.00     0.031 A 
ATOM     17  C   UNL A   1      40.843  29.915  31.591  1.00  0.00     0.074 A 
ATOM     18  C   UNL A   1      40.642  28.237  29.771  1.00  0.00     0.049 A 
ATOM     19  N   UNL A   1      41.990  29.606  32.133  1.00  0.00    -0.248 NA
ATOM     20  C   UNL A   1      40.107  30.975  32.304  1.00  0.00     0.031 C 
ATOM     21  C   UNL A   1      39.975  27.531  28.677  1.00  0.00     0.029 A 
ATOM     22  N   UNL A   1      41.776  27.506  30.001  1.00  0.00    -0.354 N 
ATOM     23  C   UNL A   1      42.122  30.447  33.229  1.00  0.00     0.074 A 
ATOM     24  C   UNL A   1      40.940  31.275  33.287  1.00  0.00     0.031 C 
ATOM     25  C   UNL A   1      40.713  26.463  28.332  1.00  0.00     0.029 A 
ATOM     26  C   UNL A   1      41.928  26.446  29.140  1.00  0.00     0.049 A 
ATOM     27  H   UNL A   1      42.421  27.718  30.714  1.00  0.00     0.167 HD
ATOM     28  C   UNL A   1      43.154  30.522  34.099  1.00  0.00     0.037 A 
ATOM     29  C   UNL A   1      42.960  25.591  29.008  1.00  0.00     0.037 A 
ATOM     30  C   UNL A   1      44.319  29.686  34.014  1.00  0.00     0.049 A 
ATOM     31  C   UNL A   1      44.142  25.764  29.928  1.00  0.00     0.074 A 
ATOM     32  C   UNL A   1      45.462  29.709  34.789  1.00  0.00     0.029 A 
ATOM     33  N   UNL A   1      44.478  28.667  33.083  1.00  0.00    -0.354 N 
ATOM     34  N   UNL A   1      44.300  26.606  30.923  1.00  0.00    -0.248 NA
ATOM     35  C   UNL A   1      45.297  24.889  29.696  1.00  0.00     0.031 C 
ATOM     36  C   UNL A   1      46.332  28.729  34.298  1.00  0.00     0.029 A 
ATOM     37  C   UNL A   1      45.712  28.067  33.249  1.00  0.00     0.049 A 
ATOM     38  H   UNL A   1      43.811  28.411  32.406  1.00  0.00     0.167 HD
ATOM     39  C   UNL A   1      45.562  26.354  31.442  1.00  0.00     0.074 A 
ATOM     40  C   UNL A   1      46.118  25.263  30.667  1.00  0.00     0.031 C 
ATOM     41  C   UNL A   1      46.215  26.974  32.456  1.00  0.00     0.037 A 
BRANCH  28  42
ATOM     42  C   UNL A   1      43.089  31.588  35.149  1.00  0.00     0.064 A 
ATOM     43  C   UNL A   1      42.509  31.361  36.405  1.00  0.00     0.173 A 
ATOM     44  C   UNL A   1      43.598  32.868  34.881  1.00  0.00     0.173 A 
ATOM     45  F   UNL A   1      41.980  30.163  36.699  1.00  0.00    -0.203 F 
ATOM     46  C   UNL A   1      42.423  32.383  37.348  1.00  0.00     0.198 A 
ATOM     47  C   UNL A   1      43.529  33.881  35.833  1.00  0.00     0.198 A 
ATOM     48  F   UNL A   1      44.151  33.139  33.689  1.00  0.00    -0.203 F 
ATOM     49  F   UNL A   1      41.821  32.159  38.525  1.00  0.00    -0.200 F 
ATOM     50  C   UNL A   1      42.937  33.640  37.063  1.00  0.00     0.200 A 
ATOM     51  F   UNL A   1      44.025  35.095  35.555  1.00  0.00    -0.200 F 
ATOM     52  F   UNL A   1      42.849  34.623  37.969  1.00  0.00    -0.200 F 
ENDBRANCH  28  42
BRANCH  29  53
ATOM     53  C   UNL A   1      42.958  24.557  27.937  1.00  0.00     0.064 A 
ATOM     54  C   UNL A   1      42.516  23.250  28.182  1.00  0.00     0.173 A 
ATOM     55  C   UNL A   1      43.439  24.847  26.649  1.00  0.00     0.173 A 
ATOM     56  F   UNL A   1      42.072  22.910  29.401  1.00  0.00    -0.203 F 
ATOM     57  C   UNL A   1      42.578  22.269  27.192  1.00  0.00     0.198 A 
ATOM     58  C   UNL A   1      43.469  23.874  25.651  1.00  0.00     0.198 A 
ATOM     59  F   UNL A   1      43.883  26.078  26.358  1.00  0.00    -0.203 F 
ATOM     60  F   UNL A   1      42.204  21.013  27.472  1.00  0.00    -0.200 F 
ATOM     61  C   UNL A   1      43.049  22.584  25.926  1.00  0.00     0.200 A 
ATOM     62  F   UNL A   1      43.915  24.188  24.428  1.00  0.00    -0.200 F 
ATOM     63  F   UNL A   1      43.113  21.640  24.977  1.00  0.00    -0.200 F 
ENDBRANCH  29  53
BRANCH  41  64
ATOM     64  C   UNL A   1      47.585  26.467  32.789  1.00  0.00     0.064 A 
ATOM     65  C   UNL A   1      48.733  27.071  32.259  1.00  0.00     0.173 A 
ATOM     66  C   UNL A   1      47.748  25.406  33.689  1.00  0.00     0.173 A 
ATOM     67  F   UNL A   1      48.623  28.081  31.382  1.00  0.00    -0.203 F 
ATOM     68  C   UNL A   1      50.000  26.617  32.608  1.00  0.00     0.198 A 
ATOM     69  C   UNL A   1      49.016  24.971  34.057  1.00  0.00     0.198 A 
ATOM     70  F   UNL A   1      46.676  24.803  34.227  1.00  0.00    -0.203 F 
ATOM     71  F   UNL A   1      51.087  27.182  32.063  1.00  0.00    -0.200 F 
ATOM     72  C   UNL A   1      50.141  25.574  33.512  1.00  0.00     0.200 A 
ATOM     73  F   UNL A   1      49.152  23.974  34.940  1.00  0.00    -0.200 F 
ATOM     74  F   UNL A   1      51.364  25.145  33.856  1.00  0.00    -0.200 F 
ENDBRANCH  41  64
ENDBRANCH  15  16
ENDBRANCH   8  10
ENDBRANCH   7   8
ENDBRANCH   6   7
ENDBRANCH   5   6
ENDBRANCH   4   5
ENDBRANCH   3   4
ENDBRANCH   2   3
ENDBRANCH   1   2
BRANCH   1  75
ATOM     75  C   UNL A   1      34.095  35.003  32.738  1.00  0.00     0.188 C 
BRANCH  75  76
ATOM     76  C   UNL A   1      33.789  33.585  33.255  1.00  0.00     0.188 C 
BRANCH  76  77
ATOM     77  O   UNL A   1      34.066  32.557  32.331  1.00  0.00    -0.376 OA
BRANCH  77  78
ATOM     78  C   UNL A   1      35.405  32.180  32.064  1.00  0.00     0.202 C 
BRANCH  78  79
ATOM     79  C   UNL A   1      36.664  32.944  32.524  1.00  0.00     0.261 C 
BRANCH  79  80
ATOM     80  O   UNL A   1      37.392  32.450  33.650  1.00  0.00    -0.462 OA
BRANCH  80  81
ATOM     81  C   UNL A   1      37.274  33.114  34.826  1.00  0.00     0.329 C 
ATOM     82  O   UNL A   1      36.215  33.263  35.428  1.00  0.00    -0.250 OA
BRANCH  81  83
ATOM     83  C   UNL A   1      38.635  33.549  35.419  1.00  0.00     0.206 C 
ATOM     84  C   UNL A   1      38.987  34.871  34.732  1.00  0.00     0.108 C 
ATOM     85  N   UNL A   1      38.794  33.695  36.882  1.00  0.00    -0.314 N 
ATOM     86  S   UNL A   1      39.954  35.859  35.887  1.00  0.00    -0.138 SA
ATOM     87  C   UNL A   1      39.543  34.856  37.317  1.00  0.00     0.191 C 
BRANCH  85  88
ATOM     88  C   UNL A   1      38.587  32.574  37.672  1.00  0.00     0.262 C 
ATOM     89  O   UNL A   1      39.017  31.468  37.334  1.00  0.00    -0.269 OA
BRANCH  88  90
ATOM     90  C   UNL A   1      38.042  32.739  39.042  1.00  0.00     0.124 A 
ATOM     91  C   UNL A   1      38.965  32.967  39.985  1.00  0.00     0.133 A 
ATOM     92  C   UNL A   1      36.626  32.714  39.464  1.00  0.00     0.270 A 
ATOM     93  N   UNL A   1      38.712  33.226  41.300  1.00  0.00    -0.237 NA
ATOM     94  N   UNL A   1      36.398  32.996  40.814  1.00  0.00    -0.267 N 
ATOM     95  O   UNL A   1      35.736  32.488  38.646  1.00  0.00    -0.268 OA
ATOM     96  C   UNL A   1      37.469  33.241  41.669  1.00  0.00     0.139 A 
ATOM     97  C   UNL A   1      35.089  33.036  41.296  1.00  0.00     0.096 A 
ATOM     98  C   UNL A   1      37.157  33.550  43.091  1.00  0.00     0.048 A 
ATOM     99  C   UNL A   1      34.815  33.321  42.576  1.00  0.00     0.019 A 
ATOM    100  C   UNL A   1      35.884  33.591  43.501  1.00  0.00     0.005 A 
ENDBRANCH  88  90
ENDBRANCH  85  88
ENDBRANCH  81  83
ENDBRANCH  80  81
ENDBRANCH  79  80
ENDBRANCH  78  79
ENDBRANCH  77  78
ENDBRANCH  76  77
ENDBRANCH  75  76
ENDBRANCH   1  75
TORSDOF 22
ENDMDL
