MODEL 1
REMARK VINA RESULT:     -10.2      0.000      0.000
REMARK SMILES O=C(Cc1c[nH]c2ccc(O)cc12)OCCOCCOCCOCCOC(=O)c1ccc(-c2c3nc(c(-c4c(F)c(F)c(F)c(F)c4F)c4ccc([nH]4)c(-c4c(F)c(F)c(F)c(F)c4F)c4nc(c(-c5c(F)c(F)c(F)c(F)c5F)c5ccc2[nH]5)C=C4)C=C3)cc1
REMARK SMILES IDX 20 1 19 2 18 3 17 4 16 5 15 6 14 7 2 8 1 9 3 10 4 11 5 12
REMARK SMILES IDX 13 13 6 14 7 15 12 16 8 18 10 19 9 20 11 21 21 23 22 24
REMARK SMILES IDX 23 25 24 26 25 27 26 28 27 29 28 30 29 31 30 32 91 33 31 34
REMARK SMILES IDX 90 35 32 36 33 37 34 38 84 39 35 40 89 41 83 42 85 43 36 44
REMARK SMILES IDX 88 45 82 46 81 47 37 49 69 50 49 51 68 52 50 53 53 54 67 55
REMARK SMILES IDX 86 56 51 57 52 58 66 60 87 61 54 62 38 63 39 64 47 65 40 66
REMARK SMILES IDX 41 67 45 68 48 69 42 70 43 71 46 72 44 73 70 74 71 75 79 76
REMARK SMILES IDX 72 77 73 78 77 79 80 80 74 81 75 82 78 83 76 84 55 85 56 86
REMARK SMILES IDX 64 87 57 88 58 89 62 90 65 91 59 92 60 93 63 94 61 95
REMARK H PARENT 6 17 11 22 85 48 53 59
REMARK Flexibility Score: inf
ROOT
ATOM      1  O   UNL A   1      40.313  22.379  26.191  1.00  0.00    -0.377 OA
ENDROOT
BRANCH   1   2
ATOM      2  C   UNL A   1      39.203  23.168  26.610  1.00  0.00     0.188 C 
BRANCH   2   3
ATOM      3  C   UNL A   1      37.889  22.873  25.871  1.00  0.00     0.188 C 
BRANCH   3   4
ATOM      4  O   UNL A   1      36.993  23.968  25.793  1.00  0.00    -0.376 OA
BRANCH   4   5
ATOM      5  C   UNL A   1      36.026  24.134  24.778  1.00  0.00     0.202 C 
BRANCH   5   6
ATOM      6  C   UNL A   1      34.580  24.480  25.119  1.00  0.00     0.261 C 
BRANCH   6   7
ATOM      7  O   UNL A   1      33.613  24.454  24.050  1.00  0.00    -0.463 OA
BRANCH   7   8
ATOM      8  C   UNL A   1      32.924  23.419  23.526  1.00  0.00     0.310 C 
ATOM      9  O   UNL A   1      33.041  23.187  22.322  1.00  0.00    -0.252 OA
BRANCH   8  10
ATOM     10  C   UNL A   1      31.954  22.628  24.367  1.00  0.00     0.160 C 
BRANCH  10  11
ATOM     11  C   UNL A   1      32.488  21.375  24.962  1.00  0.00    -0.011 A 
ATOM     12  C   UNL A   1      33.149  21.282  26.174  1.00  0.00     0.087 A 
ATOM     13  C   UNL A   1      32.490  20.072  24.380  1.00  0.00     0.007 A 
ATOM     14  N   UNL A   1      33.566  19.990  26.333  1.00  0.00    -0.361 N 
ATOM     15  C   UNL A   1      33.224  19.245  25.228  1.00  0.00     0.046 A 
ATOM     16  C   UNL A   1      32.011  19.545  23.164  1.00  0.00     0.056 A 
ATOM     17  H   UNL A   1      34.041  19.645  27.123  1.00  0.00     0.166 HD
ATOM     18  C   UNL A   1      33.518  17.916  24.909  1.00  0.00     0.030 A 
ATOM     19  C   UNL A   1      32.351  18.244  22.813  1.00  0.00     0.116 A 
ATOM     20  C   UNL A   1      33.084  17.434  23.668  1.00  0.00     0.048 A 
BRANCH  19  21
ATOM     21  O   UNL A   1      31.960  17.816  21.578  1.00  0.00    -0.508 OA
ATOM     22  H   UNL A   1      31.064  17.894  21.317  1.00  0.00     0.293 HD
ENDBRANCH  19  21
ENDBRANCH  10  11
ENDBRANCH   8  10
ENDBRANCH   7   8
ENDBRANCH   6   7
ENDBRANCH   5   6
ENDBRANCH   4   5
ENDBRANCH   3   4
ENDBRANCH   2   3
ENDBRANCH   1   2
BRANCH   1  23
ATOM     23  C   UNL A   1      40.415  21.120  26.836  1.00  0.00     0.188 C 
BRANCH  23  24
ATOM     24  C   UNL A   1      40.237  19.892  25.913  1.00  0.00     0.188 C 
BRANCH  24  25
ATOM     25  O   UNL A   1      41.219  18.874  25.803  1.00  0.00    -0.376 OA
BRANCH  25  26
ATOM     26  C   UNL A   1      42.524  19.049  26.325  1.00  0.00     0.202 C 
BRANCH  26  27
ATOM     27  C   UNL A   1      43.774  18.509  25.613  1.00  0.00     0.261 C 
BRANCH  27  28
ATOM     28  O   UNL A   1      44.016  18.980  24.286  1.00  0.00    -0.460 OA
BRANCH  28  29
ATOM     29  C   UNL A   1      45.226  19.540  24.066  1.00  0.00     0.338 C 
ATOM     30  O   UNL A   1      46.163  19.075  23.437  1.00  0.00    -0.246 OA
BRANCH  29  31
ATOM     31  C   UNL A   1      45.172  20.931  24.558  1.00  0.00     0.060 A 
ATOM     32  C   UNL A   1      44.634  21.922  23.723  1.00  0.00     0.016 A 
ATOM     33  C   UNL A   1      45.593  21.244  25.852  1.00  0.00     0.016 A 
ATOM     34  C   UNL A   1      44.497  23.228  24.185  1.00  0.00     0.010 A 
ATOM     35  C   UNL A   1      45.504  22.565  26.295  1.00  0.00     0.010 A 
ATOM     36  C   UNL A   1      44.967  23.561  25.460  1.00  0.00    -0.014 A 
BRANCH  36  37
ATOM     37  C   UNL A   1      45.078  24.981  25.855  1.00  0.00     0.031 A 
ATOM     38  C   UNL A   1      46.433  25.623  25.800  1.00  0.00     0.074 A 
ATOM     39  C   UNL A   1      44.003  25.675  26.269  1.00  0.00     0.049 A 
ATOM     40  N   UNL A   1      46.811  26.802  26.219  1.00  0.00    -0.248 NA
ATOM     41  C   UNL A   1      47.511  24.821  25.195  1.00  0.00     0.031 C 
ATOM     42  C   UNL A   1      42.633  25.168  26.312  1.00  0.00     0.029 A 
ATOM     43  N   UNL A   1      43.907  26.952  26.763  1.00  0.00    -0.354 N 
ATOM     44  C   UNL A   1      48.170  26.876  25.946  1.00  0.00     0.074 A 
ATOM     45  C   UNL A   1      48.556  25.625  25.332  1.00  0.00     0.031 C 
ATOM     46  C   UNL A   1      41.837  26.114  26.842  1.00  0.00     0.029 A 
ATOM     47  C   UNL A   1      42.651  27.271  27.215  1.00  0.00     0.049 A 
ATOM     48  H   UNL A   1      44.667  27.579  26.789  1.00  0.00     0.167 HD
ATOM     49  C   UNL A   1      49.018  27.899  26.195  1.00  0.00     0.037 A 
ATOM     50  C   UNL A   1      42.225  28.353  27.898  1.00  0.00     0.037 A 
ATOM     51  C   UNL A   1      48.623  29.140  26.803  1.00  0.00     0.049 A 
ATOM     52  C   UNL A   1      43.215  29.442  28.238  1.00  0.00     0.074 A 
ATOM     53  C   UNL A   1      49.397  30.258  27.056  1.00  0.00     0.029 A 
ATOM     54  N   UNL A   1      47.347  29.420  27.269  1.00  0.00    -0.354 N 
ATOM     55  N   UNL A   1      44.488  29.532  27.936  1.00  0.00    -0.248 NA
ATOM     56  C   UNL A   1      42.709  30.579  29.022  1.00  0.00     0.031 C 
ATOM     57  C   UNL A   1      48.608  31.188  27.737  1.00  0.00     0.029 A 
ATOM     58  C   UNL A   1      47.325  30.676  27.850  1.00  0.00     0.049 A 
ATOM     59  H   UNL A   1      46.573  28.815  27.197  1.00  0.00     0.167 HD
ATOM     60  C   UNL A   1      44.926  30.737  28.472  1.00  0.00     0.074 A 
ATOM     61  C   UNL A   1      43.778  31.358  29.094  1.00  0.00     0.031 C 
ATOM     62  C   UNL A   1      46.168  31.281  28.458  1.00  0.00     0.037 A 
BRANCH  49  63
ATOM     63  C   UNL A   1      50.465  27.716  25.851  1.00  0.00     0.064 A 
ATOM     64  C   UNL A   1      50.953  27.951  24.559  1.00  0.00     0.173 A 
ATOM     65  C   UNL A   1      51.385  27.379  26.854  1.00  0.00     0.173 A 
ATOM     66  F   UNL A   1      50.109  28.259  23.563  1.00  0.00    -0.203 F 
ATOM     67  C   UNL A   1      52.315  27.853  24.282  1.00  0.00     0.198 A 
ATOM     68  C   UNL A   1      52.748  27.308  26.580  1.00  0.00     0.198 A 
ATOM     69  F   UNL A   1      50.966  27.143  28.107  1.00  0.00    -0.203 F 
ATOM     70  F   UNL A   1      52.759  28.059  23.035  1.00  0.00    -0.200 F 
ATOM     71  C   UNL A   1      53.211  27.545  25.295  1.00  0.00     0.200 A 
ATOM     72  F   UNL A   1      53.613  27.025  27.563  1.00  0.00    -0.200 F 
ATOM     73  F   UNL A   1      54.523  27.476  25.032  1.00  0.00    -0.200 F 
ENDBRANCH  49  63
BRANCH  50  74
ATOM     74  C   UNL A   1      40.816  28.445  28.368  1.00  0.00     0.064 A 
ATOM     75  C   UNL A   1      39.813  28.993  27.557  1.00  0.00     0.173 A 
ATOM     76  C   UNL A   1      40.456  28.050  29.667  1.00  0.00     0.173 A 
ATOM     77  F   UNL A   1      40.109  29.412  26.317  1.00  0.00    -0.203 F 
ATOM     78  C   UNL A   1      38.517  29.177  28.036  1.00  0.00     0.198 A 
ATOM     79  C   UNL A   1      39.152  28.201  30.132  1.00  0.00     0.198 A 
ATOM     80  F   UNL A   1      41.376  27.525  30.489  1.00  0.00    -0.203 F 
ATOM     81  F   UNL A   1      37.597  29.769  27.263  1.00  0.00    -0.200 F 
ATOM     82  C   UNL A   1      38.186  28.776  29.322  1.00  0.00     0.200 A 
ATOM     83  F   UNL A   1      38.835  27.802  31.372  1.00  0.00    -0.200 F 
ATOM     84  F   UNL A   1      36.942  28.961  29.784  1.00  0.00    -0.200 F 
ENDBRANCH  50  74
BRANCH  62  85
ATOM     85  C   UNL A   1      46.348  32.620  29.111  1.00  0.00     0.064 A 
ATOM     86  C   UNL A   1      46.126  33.815  28.410  1.00  0.00     0.173 A 
ATOM     87  C   UNL A   1      46.689  32.709  30.470  1.00  0.00     0.173 A 
ATOM     88  F   UNL A   1      45.812  33.785  27.107  1.00  0.00    -0.203 F 
ATOM     89  C   UNL A   1      46.259  35.049  29.041  1.00  0.00     0.198 A 
ATOM     90  C   UNL A   1      46.786  33.944  31.106  1.00  0.00     0.198 A 
ATOM     91  F   UNL A   1      46.903  31.597  31.188  1.00  0.00    -0.203 F 
ATOM     92  F   UNL A   1      46.087  36.179  28.340  1.00  0.00    -0.200 F 
ATOM     93  C   UNL A   1      46.579  35.113  30.389  1.00  0.00     0.200 A 
ATOM     94  F   UNL A   1      47.078  34.003  32.412  1.00  0.00    -0.200 F 
ATOM     95  F   UNL A   1      46.692  36.302  30.996  1.00  0.00    -0.200 F 
ENDBRANCH  62  85
ENDBRANCH  36  37
ENDBRANCH  29  31
ENDBRANCH  28  29
ENDBRANCH  27  28
ENDBRANCH  26  27
ENDBRANCH  25  26
ENDBRANCH  24  25
ENDBRANCH  23  24
ENDBRANCH   1  23
TORSDOF 22
ENDMDL
MODEL 2
REMARK VINA RESULT:     -10.2      5.344      9.462
REMARK SMILES O=C(Cc1c[nH]c2ccc(O)cc12)OCCOCCOCCOCCOC(=O)c1ccc(-c2c3nc(c(-c4c(F)c(F)c(F)c(F)c4F)c4ccc([nH]4)c(-c4c(F)c(F)c(F)c(F)c4F)c4nc(c(-c5c(F)c(F)c(F)c(F)c5F)c5ccc2[nH]5)C=C4)C=C3)cc1
REMARK SMILES IDX 20 1 19 2 18 3 17 4 16 5 15 6 14 7 2 8 1 9 3 10 4 11 5 12
REMARK SMILES IDX 13 13 6 14 7 15 12 16 8 18 10 19 9 20 11 21 21 23 22 24
REMARK SMILES IDX 23 25 24 26 25 27 26 28 27 29 28 30 29 31 30 32 91 33 31 34
REMARK SMILES IDX 90 35 32 36 33 37 34 38 84 39 35 40 89 41 83 42 85 43 36 44
REMARK SMILES IDX 88 45 82 46 81 47 37 49 69 50 49 51 68 52 50 53 53 54 67 55
REMARK SMILES IDX 86 56 51 57 52 58 66 60 87 61 54 62 38 63 39 64 47 65 40 66
REMARK SMILES IDX 41 67 45 68 48 69 42 70 43 71 46 72 44 73 70 74 71 75 79 76
REMARK SMILES IDX 72 77 73 78 77 79 80 80 74 81 75 82 78 83 76 84 55 85 56 86
REMARK SMILES IDX 64 87 57 88 58 89 62 90 65 91 59 92 60 93 63 94 61 95
REMARK H PARENT 6 17 11 22 85 48 53 59
REMARK Flexibility Score: inf
ROOT
ATOM      1  O   UNL A   1      33.340  28.011  22.636  1.00  0.00    -0.377 OA
ENDROOT
BRANCH   1   2
ATOM      2  C   UNL A   1      33.293  26.691  22.101  1.00  0.00     0.188 C 
BRANCH   2   3
ATOM      3  C   UNL A   1      33.617  25.578  23.109  1.00  0.00     0.188 C 
BRANCH   3   4
ATOM      4  O   UNL A   1      33.610  25.985  24.466  1.00  0.00    -0.376 OA
BRANCH   4   5
ATOM      5  C   UNL A   1      32.703  25.505  25.436  1.00  0.00     0.202 C 
BRANCH   5   6
ATOM      6  C   UNL A   1      31.242  25.244  25.083  1.00  0.00     0.261 C 
BRANCH   6   7
ATOM      7  O   UNL A   1      30.832  23.875  24.892  1.00  0.00    -0.463 OA
BRANCH   7   8
ATOM      8  C   UNL A   1      31.499  22.836  24.349  1.00  0.00     0.310 C 
ATOM      9  O   UNL A   1      31.530  22.737  23.122  1.00  0.00    -0.252 OA
BRANCH   8  10
ATOM     10  C   UNL A   1      32.104  21.763  25.219  1.00  0.00     0.160 C 
BRANCH  10  11
ATOM     11  C   UNL A   1      33.384  22.118  25.885  1.00  0.00    -0.011 A 
ATOM     12  C   UNL A   1      33.552  22.314  27.244  1.00  0.00     0.087 A 
ATOM     13  C   UNL A   1      34.638  22.392  25.261  1.00  0.00     0.007 A 
ATOM     14  N   UNL A   1      34.842  22.716  27.459  1.00  0.00    -0.361 N 
ATOM     15  C   UNL A   1      35.508  22.823  26.261  1.00  0.00     0.046 A 
ATOM     16  C   UNL A   1      35.082  22.400  23.923  1.00  0.00     0.056 A 
ATOM     17  H   UNL A   1      35.234  22.900  28.343  1.00  0.00     0.166 HD
ATOM     18  C   UNL A   1      36.800  23.280  25.984  1.00  0.00     0.030 A 
ATOM     19  C   UNL A   1      36.343  22.909  23.635  1.00  0.00     0.116 A 
ATOM     20  C   UNL A   1      37.197  23.335  24.642  1.00  0.00     0.048 A 
BRANCH  19  21
ATOM     21  O   UNL A   1      36.685  23.000  22.318  1.00  0.00    -0.508 OA
ATOM     22  H   UNL A   1      36.078  22.732  21.656  1.00  0.00     0.293 HD
ENDBRANCH  19  21
ENDBRANCH  10  11
ENDBRANCH   8  10
ENDBRANCH   7   8
ENDBRANCH   6   7
ENDBRANCH   5   6
ENDBRANCH   4   5
ENDBRANCH   3   4
ENDBRANCH   2   3
ENDBRANCH   1   2
BRANCH   1  23
ATOM     23  C   UNL A   1      32.215  28.814  22.316  1.00  0.00     0.188 C 
BRANCH  23  24
ATOM     24  C   UNL A   1      30.921  28.472  23.089  1.00  0.00     0.188 C 
BRANCH  24  25
ATOM     25  O   UNL A   1      30.773  28.728  24.477  1.00  0.00    -0.376 OA
BRANCH  25  26
ATOM     26  C   UNL A   1      31.236  29.933  25.058  1.00  0.00     0.202 C 
BRANCH  26  27
ATOM     27  C   UNL A   1      32.614  30.044  25.731  1.00  0.00     0.261 C 
BRANCH  27  28
ATOM     28  O   UNL A   1      32.637  30.489  27.088  1.00  0.00    -0.460 OA
BRANCH  28  29
ATOM     29  C   UNL A   1      33.273  31.659  27.319  1.00  0.00     0.338 C 
ATOM     30  O   UNL A   1      32.829  32.789  27.194  1.00  0.00    -0.246 OA
BRANCH  29  31
ATOM     31  C   UNL A   1      34.569  31.346  27.952  1.00  0.00     0.060 A 
ATOM     32  C   UNL A   1      34.801  30.039  28.406  1.00  0.00     0.016 A 
ATOM     33  C   UNL A   1      35.568  32.317  28.045  1.00  0.00     0.016 A 
ATOM     34  C   UNL A   1      36.041  29.692  28.937  1.00  0.00     0.010 A 
ATOM     35  C   UNL A   1      36.792  31.982  28.626  1.00  0.00     0.010 A 
ATOM     36  C   UNL A   1      37.027  30.673  29.084  1.00  0.00    -0.014 A 
BRANCH  36  37
ATOM     37  C   UNL A   1      38.234  30.386  29.886  1.00  0.00     0.031 A 
ATOM     38  C   UNL A   1      39.235  29.417  29.329  1.00  0.00     0.074 A 
ATOM     39  C   UNL A   1      38.425  30.960  31.088  1.00  0.00     0.049 A 
ATOM     40  N   UNL A   1      40.296  28.903  29.894  1.00  0.00    -0.248 NA
ATOM     41  C   UNL A   1      39.004  28.962  27.947  1.00  0.00     0.031 C 
ATOM     42  C   UNL A   1      37.546  31.952  31.701  1.00  0.00     0.029 A 
ATOM     43  N   UNL A   1      39.412  30.760  32.020  1.00  0.00    -0.354 N 
ATOM     44  C   UNL A   1      40.847  28.052  28.946  1.00  0.00     0.074 A 
ATOM     45  C   UNL A   1      40.005  28.110  27.772  1.00  0.00     0.031 C 
ATOM     46  C   UNL A   1      38.013  32.249  32.927  1.00  0.00     0.029 A 
ATOM     47  C   UNL A   1      39.196  31.432  33.197  1.00  0.00     0.049 A 
ATOM     48  H   UNL A   1      40.200  30.190  31.859  1.00  0.00     0.167 HD
ATOM     49  C   UNL A   1      41.955  27.285  29.054  1.00  0.00     0.037 A 
ATOM     50  C   UNL A   1      39.853  31.353  34.372  1.00  0.00     0.037 A 
ATOM     51  C   UNL A   1      42.788  27.237  30.225  1.00  0.00     0.049 A 
ATOM     52  C   UNL A   1      41.037  30.422  34.490  1.00  0.00     0.074 A 
ATOM     53  C   UNL A   1      43.959  26.528  30.418  1.00  0.00     0.029 A 
ATOM     54  N   UNL A   1      42.528  27.914  31.407  1.00  0.00    -0.354 N 
ATOM     55  N   UNL A   1      41.585  29.655  33.578  1.00  0.00    -0.248 NA
ATOM     56  C   UNL A   1      41.691  30.340  35.805  1.00  0.00     0.031 C 
ATOM     57  C   UNL A   1      44.371  26.720  31.739  1.00  0.00     0.029 A 
ATOM     58  C   UNL A   1      43.492  27.601  32.349  1.00  0.00     0.049 A 
ATOM     59  H   UNL A   1      41.769  28.526  31.553  1.00  0.00     0.167 HD
ATOM     60  C   UNL A   1      42.653  29.021  34.200  1.00  0.00     0.074 A 
ATOM     61  C   UNL A   1      42.695  29.511  35.560  1.00  0.00     0.031 C 
ATOM     62  C   UNL A   1      43.520  28.107  33.697  1.00  0.00     0.037 A 
BRANCH  49  63
ATOM     63  C   UNL A   1      42.319  26.404  27.899  1.00  0.00     0.064 A 
ATOM     64  C   UNL A   1      41.697  25.165  27.689  1.00  0.00     0.173 A 
ATOM     65  C   UNL A   1      43.246  26.848  26.945  1.00  0.00     0.173 A 
ATOM     66  F   UNL A   1      40.817  24.691  28.582  1.00  0.00    -0.203 F 
ATOM     67  C   UNL A   1      41.994  24.401  26.563  1.00  0.00     0.198 A 
ATOM     68  C   UNL A   1      43.520  26.094  25.807  1.00  0.00     0.198 A 
ATOM     69  F   UNL A   1      43.868  28.026  27.102  1.00  0.00    -0.203 F 
ATOM     70  F   UNL A   1      41.406  23.209  26.391  1.00  0.00    -0.200 F 
ATOM     71  C   UNL A   1      42.894  24.871  25.618  1.00  0.00     0.200 A 
ATOM     72  F   UNL A   1      44.378  26.557  24.889  1.00  0.00    -0.200 F 
ATOM     73  F   UNL A   1      43.159  24.146  24.523  1.00  0.00    -0.200 F 
ENDBRANCH  49  63
BRANCH  50  74
ATOM     74  C   UNL A   1      39.381  32.121  35.557  1.00  0.00     0.064 A 
ATOM     75  C   UNL A   1      39.895  33.391  35.852  1.00  0.00     0.173 A 
ATOM     76  C   UNL A   1      38.457  31.570  36.459  1.00  0.00     0.173 A 
ATOM     77  F   UNL A   1      40.803  33.952  35.038  1.00  0.00    -0.203 F 
ATOM     78  C   UNL A   1      39.532  34.064  37.018  1.00  0.00     0.198 A 
ATOM     79  C   UNL A   1      38.067  32.259  37.604  1.00  0.00     0.198 A 
ATOM     80  F   UNL A   1      37.937  30.355  36.230  1.00  0.00    -0.203 F 
ATOM     81  F   UNL A   1      40.093  35.245  37.310  1.00  0.00    -0.200 F 
ATOM     82  C   UNL A   1      38.615  33.499  37.891  1.00  0.00     0.200 A 
ATOM     83  F   UNL A   1      37.171  31.713  38.440  1.00  0.00    -0.200 F 
ATOM     84  F   UNL A   1      38.272  34.143  39.015  1.00  0.00    -0.200 F 
ENDBRANCH  50  74
BRANCH  62  85
ATOM     85  C   UNL A   1      44.599  27.597  34.607  1.00  0.00     0.064 A 
ATOM     86  C   UNL A   1      45.819  28.275  34.752  1.00  0.00     0.173 A 
ATOM     87  C   UNL A   1      44.388  26.450  35.388  1.00  0.00     0.173 A 
ATOM     88  F   UNL A   1      46.075  29.369  34.019  1.00  0.00    -0.203 F 
ATOM     89  C   UNL A   1      46.795  27.811  35.630  1.00  0.00     0.198 A 
ATOM     90  C   UNL A   1      45.353  26.009  36.290  1.00  0.00     0.198 A 
ATOM     91  F   UNL A   1      43.236  25.770  35.294  1.00  0.00    -0.203 F 
ATOM     92  F   UNL A   1      47.971  28.449  35.719  1.00  0.00    -0.200 F 
ATOM     93  C   UNL A   1      46.558  26.686  36.404  1.00  0.00     0.200 A 
ATOM     94  F   UNL A   1      45.115  24.932  37.050  1.00  0.00    -0.200 F 
ATOM     95  F   UNL A   1      47.494  26.250  37.259  1.00  0.00    -0.200 F 
ENDBRANCH  62  85
ENDBRANCH  36  37
ENDBRANCH  29  31
ENDBRANCH  28  29
ENDBRANCH  27  28
ENDBRANCH  26  27
ENDBRANCH  25  26
ENDBRANCH  24  25
ENDBRANCH  23  24
ENDBRANCH   1  23
TORSDOF 22
ENDMDL
MODEL 3
REMARK VINA RESULT:     -10.2      5.433      9.194
REMARK SMILES O=C(Cc1c[nH]c2ccc(O)cc12)OCCOCCOCCOCCOC(=O)c1ccc(-c2c3nc(c(-c4c(F)c(F)c(F)c(F)c4F)c4ccc([nH]4)c(-c4c(F)c(F)c(F)c(F)c4F)c4nc(c(-c5c(F)c(F)c(F)c(F)c5F)c5ccc2[nH]5)C=C4)C=C3)cc1
REMARK SMILES IDX 20 1 19 2 18 3 17 4 16 5 15 6 14 7 2 8 1 9 3 10 4 11 5 12
REMARK SMILES IDX 13 13 6 14 7 15 12 16 8 18 10 19 9 20 11 21 21 23 22 24
REMARK SMILES IDX 23 25 24 26 25 27 26 28 27 29 28 30 29 31 30 32 91 33 31 34
REMARK SMILES IDX 90 35 32 36 33 37 34 38 84 39 35 40 89 41 83 42 85 43 36 44
REMARK SMILES IDX 88 45 82 46 81 47 37 49 69 50 49 51 68 52 50 53 53 54 67 55
REMARK SMILES IDX 86 56 51 57 52 58 66 60 87 61 54 62 38 63 39 64 47 65 40 66
REMARK SMILES IDX 41 67 45 68 48 69 42 70 43 71 46 72 44 73 70 74 71 75 79 76
REMARK SMILES IDX 72 77 73 78 77 79 80 80 74 81 75 82 78 83 76 84 55 85 56 86
REMARK SMILES IDX 64 87 57 88 58 89 62 90 65 91 59 92 60 93 63 94 61 95
REMARK H PARENT 6 17 11 22 85 48 53 59
REMARK Flexibility Score: inf
ROOT
ATOM      1  O   UNL A   1      33.377  27.864  22.950  1.00  0.00    -0.377 OA
ENDROOT
BRANCH   1   2
ATOM      2  C   UNL A   1      32.801  26.561  22.912  1.00  0.00     0.188 C 
BRANCH   2   3
ATOM      3  C   UNL A   1      33.703  25.442  23.455  1.00  0.00     0.188 C 
BRANCH   3   4
ATOM      4  O   UNL A   1      34.228  25.680  24.750  1.00  0.00    -0.376 OA
BRANCH   4   5
ATOM      5  C   UNL A   1      33.526  25.434  25.950  1.00  0.00     0.202 C 
BRANCH   5   6
ATOM      6  C   UNL A   1      32.011  25.596  26.021  1.00  0.00     0.261 C 
BRANCH   6   7
ATOM      7  O   UNL A   1      31.196  24.511  25.531  1.00  0.00    -0.463 OA
BRANCH   7   8
ATOM      8  C   UNL A   1      31.392  23.179  25.598  1.00  0.00     0.310 C 
ATOM      9  O   UNL A   1      31.183  22.609  26.671  1.00  0.00    -0.252 OA
BRANCH   8  10
ATOM     10  C   UNL A   1      31.952  22.416  24.424  1.00  0.00     0.160 C 
BRANCH  10  11
ATOM     11  C   UNL A   1      32.901  21.323  24.759  1.00  0.00    -0.011 A 
ATOM     12  C   UNL A   1      33.984  21.436  25.612  1.00  0.00     0.087 A 
ATOM     13  C   UNL A   1      32.923  20.000  24.222  1.00  0.00     0.007 A 
ATOM     14  N   UNL A   1      34.666  20.250  25.593  1.00  0.00    -0.361 N 
ATOM     15  C   UNL A   1      34.070  19.377  24.712  1.00  0.00     0.046 A 
ATOM     16  C   UNL A   1      32.119  19.309  23.293  1.00  0.00     0.056 A 
ATOM     17  H   UNL A   1      35.466  20.052  26.132  1.00  0.00     0.166 HD
ATOM     18  C   UNL A   1      34.463  18.100  24.302  1.00  0.00     0.030 A 
ATOM     19  C   UNL A   1      32.536  18.065  22.836  1.00  0.00     0.116 A 
ATOM     20  C   UNL A   1      33.681  17.460  23.333  1.00  0.00     0.048 A 
BRANCH  19  21
ATOM     21  O   UNL A   1      31.786  17.486  21.855  1.00  0.00    -0.508 OA
ATOM     22  H   UNL A   1      31.030  16.979  22.080  1.00  0.00     0.293 HD
ENDBRANCH  19  21
ENDBRANCH  10  11
ENDBRANCH   8  10
ENDBRANCH   7   8
ENDBRANCH   6   7
ENDBRANCH   5   6
ENDBRANCH   4   5
ENDBRANCH   3   4
ENDBRANCH   2   3
ENDBRANCH   1   2
BRANCH   1  23
ATOM     23  C   UNL A   1      32.564  28.882  22.390  1.00  0.00     0.188 C 
BRANCH  23  24
ATOM     24  C   UNL A   1      31.111  28.927  22.915  1.00  0.00     0.188 C 
BRANCH  24  25
ATOM     25  O   UNL A   1      30.804  28.969  24.300  1.00  0.00    -0.376 OA
BRANCH  25  26
ATOM     26  C   UNL A   1      31.357  29.959  25.149  1.00  0.00     0.202 C 
BRANCH  26  27
ATOM     27  C   UNL A   1      32.759  29.824  25.763  1.00  0.00     0.261 C 
BRANCH  27  28
ATOM     28  O   UNL A   1      32.902  30.194  27.136  1.00  0.00    -0.460 OA
BRANCH  28  29
ATOM     29  C   UNL A   1      33.521  31.372  27.372  1.00  0.00     0.338 C 
ATOM     30  O   UNL A   1      33.058  32.496  27.262  1.00  0.00    -0.246 OA
BRANCH  29  31
ATOM     31  C   UNL A   1      34.829  31.074  27.989  1.00  0.00     0.060 A 
ATOM     32  C   UNL A   1      35.071  29.777  28.466  1.00  0.00     0.016 A 
ATOM     33  C   UNL A   1      35.828  32.048  28.044  1.00  0.00     0.016 A 
ATOM     34  C   UNL A   1      36.320  29.442  28.983  1.00  0.00     0.010 A 
ATOM     35  C   UNL A   1      37.062  31.727  28.610  1.00  0.00     0.010 A 
ATOM     36  C   UNL A   1      37.307  30.428  29.091  1.00  0.00    -0.014 A 
BRANCH  36  37
ATOM     37  C   UNL A   1      38.529  30.160  29.879  1.00  0.00     0.031 A 
ATOM     38  C   UNL A   1      39.523  29.182  29.324  1.00  0.00     0.074 A 
ATOM     39  C   UNL A   1      38.739  30.758  31.065  1.00  0.00     0.049 A 
ATOM     40  N   UNL A   1      40.595  28.682  29.880  1.00  0.00    -0.248 NA
ATOM     41  C   UNL A   1      39.269  28.698  27.956  1.00  0.00     0.031 C 
ATOM     42  C   UNL A   1      37.868  31.761  31.673  1.00  0.00     0.029 A 
ATOM     43  N   UNL A   1      39.743  30.579  31.984  1.00  0.00    -0.354 N 
ATOM     44  C   UNL A   1      41.130  27.812  28.941  1.00  0.00     0.074 A 
ATOM     45  C   UNL A   1      40.268  27.845  27.781  1.00  0.00     0.031 C 
ATOM     46  C   UNL A   1      38.356  32.083  32.885  1.00  0.00     0.029 A 
ATOM     47  C   UNL A   1      39.546  31.274  33.151  1.00  0.00     0.049 A 
ATOM     48  H   UNL A   1      40.529  30.008  31.821  1.00  0.00     0.167 HD
ATOM     49  C   UNL A   1      42.242  27.050  29.045  1.00  0.00     0.037 A 
ATOM     50  C   UNL A   1      40.223  31.220  34.316  1.00  0.00     0.037 A 
ATOM     51  C   UNL A   1      43.095  27.027  30.202  1.00  0.00     0.049 A 
ATOM     52  C   UNL A   1      41.411  30.294  34.432  1.00  0.00     0.074 A 
ATOM     53  C   UNL A   1      44.271  26.324  30.389  1.00  0.00     0.029 A 
ATOM     54  N   UNL A   1      42.854  27.727  31.375  1.00  0.00    -0.354 N 
ATOM     55  N   UNL A   1      41.945  29.510  33.526  1.00  0.00    -0.248 NA
ATOM     56  C   UNL A   1      42.087  30.240  35.737  1.00  0.00     0.031 C 
ATOM     57  C   UNL A   1      44.705  26.544  31.699  1.00  0.00     0.029 A 
ATOM     58  C   UNL A   1      43.835  27.435  32.306  1.00  0.00     0.049 A 
ATOM     59  H   UNL A   1      42.096  28.340  31.522  1.00  0.00     0.167 HD
ATOM     60  C   UNL A   1      43.024  28.890  34.142  1.00  0.00     0.074 A 
ATOM     61  C   UNL A   1      43.089  29.408  35.491  1.00  0.00     0.031 C 
ATOM     62  C   UNL A   1      43.885  27.968  33.643  1.00  0.00     0.037 A 
BRANCH  49  63
ATOM     63  C   UNL A   1      42.588  26.146  27.901  1.00  0.00     0.064 A 
ATOM     64  C   UNL A   1      41.998  24.884  27.751  1.00  0.00     0.173 A 
ATOM     65  C   UNL A   1      43.464  26.590  26.899  1.00  0.00     0.173 A 
ATOM     66  F   UNL A   1      41.168  24.410  28.692  1.00  0.00    -0.203 F 
ATOM     67  C   UNL A   1      42.275  24.096  26.637  1.00  0.00     0.198 A 
ATOM     68  C   UNL A   1      43.716  25.811  25.773  1.00  0.00     0.198 A 
ATOM     69  F   UNL A   1      44.054  27.790  26.999  1.00  0.00    -0.203 F 
ATOM     70  F   UNL A   1      41.718  22.882  26.522  1.00  0.00    -0.200 F 
ATOM     71  C   UNL A   1      43.122  24.565  25.644  1.00  0.00     0.200 A 
ATOM     72  F   UNL A   1      44.524  26.273  24.809  1.00  0.00    -0.200 F 
ATOM     73  F   UNL A   1      43.366  23.816  24.560  1.00  0.00    -0.200 F 
ENDBRANCH  49  63
BRANCH  50  74
ATOM     74  C   UNL A   1      39.769  32.011  35.493  1.00  0.00     0.064 A 
ATOM     75  C   UNL A   1      38.786  31.519  36.363  1.00  0.00     0.173 A 
ATOM     76  C   UNL A   1      40.258  33.305  35.731  1.00  0.00     0.173 A 
ATOM     77  F   UNL A   1      38.265  30.299  36.164  1.00  0.00    -0.203 F 
ATOM     78  C   UNL A   1      38.286  32.302  37.402  1.00  0.00     0.198 A 
ATOM     79  C   UNL A   1      39.783  34.072  36.792  1.00  0.00     0.198 A 
ATOM     80  F   UNL A   1      41.194  33.828  34.926  1.00  0.00    -0.203 F 
ATOM     81  F   UNL A   1      37.297  31.833  38.175  1.00  0.00    -0.200 F 
ATOM     82  C   UNL A   1      38.788  33.576  37.619  1.00  0.00     0.200 A 
ATOM     83  F   UNL A   1      40.280  35.299  37.003  1.00  0.00    -0.200 F 
ATOM     84  F   UNL A   1      38.300  34.331  38.613  1.00  0.00    -0.200 F 
ENDBRANCH  50  74
BRANCH  62  85
ATOM     85  C   UNL A   1      44.981  27.479  34.544  1.00  0.00     0.064 A 
ATOM     86  C   UNL A   1      46.204  28.158  34.649  1.00  0.00     0.173 A 
ATOM     87  C   UNL A   1      44.783  26.351  35.357  1.00  0.00     0.173 A 
ATOM     88  F   UNL A   1      46.447  29.233  33.885  1.00  0.00    -0.203 F 
ATOM     89  C   UNL A   1      47.196  27.714  35.519  1.00  0.00     0.198 A 
ATOM     90  C   UNL A   1      45.764  25.931  36.251  1.00  0.00     0.198 A 
ATOM     91  F   UNL A   1      43.629  25.671  35.302  1.00  0.00    -0.203 F 
ATOM     92  F   UNL A   1      48.374  28.352  35.570  1.00  0.00    -0.200 F 
ATOM     93  C   UNL A   1      46.972  26.608  36.326  1.00  0.00     0.200 A 
ATOM     94  F   UNL A   1      45.539  24.874  37.042  1.00  0.00    -0.200 F 
ATOM     95  F   UNL A   1      47.924  26.191  37.172  1.00  0.00    -0.200 F 
ENDBRANCH  62  85
ENDBRANCH  36  37
ENDBRANCH  29  31
ENDBRANCH  28  29
ENDBRANCH  27  28
ENDBRANCH  26  27
ENDBRANCH  25  26
ENDBRANCH  24  25
ENDBRANCH  23  24
ENDBRANCH   1  23
TORSDOF 22
ENDMDL
