MODEL 1
REMARK VINA RESULT:     -10.3      0.000      0.000
REMARK SMILES O=C(/C=C/c1ccc(O)c(O)c1)OCCOCCOCCOCCOC(=O)c1ccc(-c2c3nc(c(-c4c(F)c(F)c(F)c(F)c4F)c4ccc([nH]4)c(-c4c(F)c(F)c(F)c(F)c4F)c4nc(c(-c5c(F)c(F)c(F)c(F)c5F)c5ccc2[nH]5)C=C4)C=C3)cc1
REMARK SMILES IDX 19 1 18 2 17 3 16 4 15 5 14 6 13 7 2 8 1 9 3 10 4 11 5 12
REMARK SMILES IDX 6 13 12 14 7 15 10 16 8 17 11 18 9 20 20 22 21 23 22 24
REMARK SMILES IDX 23 25 24 26 25 27 26 28 27 29 28 30 29 31 90 32 30 33 89 34
REMARK SMILES IDX 31 35 32 36 33 37 83 38 34 39 88 40 82 41 84 42 35 43 87 44
REMARK SMILES IDX 81 45 80 46 36 48 68 49 48 50 67 51 49 52 52 53 66 54 85 55
REMARK SMILES IDX 50 56 51 57 65 59 86 60 53 61 37 62 38 63 46 64 39 65 40 66
REMARK SMILES IDX 44 67 47 68 41 69 42 70 45 71 43 72 69 73 70 74 78 75 71 76
REMARK SMILES IDX 72 77 76 78 79 79 73 80 74 81 77 82 75 83 54 84 55 85 63 86
REMARK SMILES IDX 56 87 57 88 61 89 64 90 58 91 59 92 62 93 60 94
REMARK H PARENT 11 19 9 21 84 47 52 58
REMARK Flexibility Score: inf
ROOT
ATOM      1  O   UNL A   1      34.084  31.895  28.556  1.00  0.00    -0.377 OA
ENDROOT
BRANCH   1   2
ATOM      2  C   UNL A   1      34.376  30.979  27.514  1.00  0.00     0.188 C 
BRANCH   2   3
ATOM      3  C   UNL A   1      33.221  30.095  27.053  1.00  0.00     0.188 C 
BRANCH   3   4
ATOM      4  O   UNL A   1      32.721  30.172  25.728  1.00  0.00    -0.376 OA
BRANCH   4   5
ATOM      5  C   UNL A   1      33.040  29.326  24.645  1.00  0.00     0.202 C 
BRANCH   5   6
ATOM      6  C   UNL A   1      33.262  27.826  24.785  1.00  0.00     0.261 C 
BRANCH   6   7
ATOM      7  O   UNL A   1      32.777  26.966  23.752  1.00  0.00    -0.460 OA
BRANCH   7   8
ATOM      8  C   UNL A   1      33.527  26.165  22.960  1.00  0.00     0.330 C 
ATOM      9  O   UNL A   1      33.930  26.572  21.875  1.00  0.00    -0.247 OA
BRANCH   8  10
ATOM     10  C   UNL A   1      33.562  24.718  23.237  1.00  0.00     0.094 C 
ATOM     11  C   UNL A   1      34.526  24.027  23.857  1.00  0.00     0.016 C 
BRANCH  11  12
ATOM     12  C   UNL A   1      34.353  22.616  24.224  1.00  0.00    -0.021 A 
ATOM     13  C   UNL A   1      35.457  21.768  24.380  1.00  0.00     0.012 A 
ATOM     14  C   UNL A   1      33.065  22.118  24.470  1.00  0.00     0.058 A 
ATOM     15  C   UNL A   1      35.287  20.456  24.837  1.00  0.00     0.051 A 
ATOM     16  C   UNL A   1      32.904  20.818  24.927  1.00  0.00     0.157 A 
ATOM     17  C   UNL A   1      34.008  19.998  25.131  1.00  0.00     0.157 A 
BRANCH  16  18
ATOM     18  O   UNL A   1      31.648  20.359  25.204  1.00  0.00    -0.504 OA
ATOM     19  H   UNL A   1      31.286  20.476  26.061  1.00  0.00     0.293 HD
ENDBRANCH  16  18
BRANCH  17  20
ATOM     20  O   UNL A   1      33.787  18.752  25.646  1.00  0.00    -0.504 OA
ATOM     21  H   UNL A   1      33.228  18.151  25.195  1.00  0.00     0.293 HD
ENDBRANCH  17  20
ENDBRANCH  11  12
ENDBRANCH   8  10
ENDBRANCH   7   8
ENDBRANCH   6   7
ENDBRANCH   5   6
ENDBRANCH   4   5
ENDBRANCH   3   4
ENDBRANCH   2   3
ENDBRANCH   1   2
BRANCH   1  22
ATOM     22  C   UNL A   1      33.704  33.177  28.101  1.00  0.00     0.188 C 
BRANCH  22  23
ATOM     23  C   UNL A   1      34.367  34.357  28.846  1.00  0.00     0.188 C 
BRANCH  23  24
ATOM     24  O   UNL A   1      33.892  34.803  30.104  1.00  0.00    -0.376 OA
BRANCH  24  25
ATOM     25  C   UNL A   1      34.595  34.515  31.299  1.00  0.00     0.202 C 
BRANCH  25  26
ATOM     26  C   UNL A   1      34.159  33.395  32.262  1.00  0.00     0.261 C 
BRANCH  26  27
ATOM     27  O   UNL A   1      34.838  32.138  32.152  1.00  0.00    -0.460 OA
BRANCH  27  28
ATOM     28  C   UNL A   1      36.004  32.029  32.830  1.00  0.00     0.338 C 
ATOM     29  O   UNL A   1      36.233  32.382  33.977  1.00  0.00    -0.246 OA
BRANCH  28  30
ATOM     30  C   UNL A   1      36.938  31.205  32.030  1.00  0.00     0.060 A 
ATOM     31  C   UNL A   1      37.912  30.456  32.710  1.00  0.00     0.016 A 
ATOM     32  C   UNL A   1      36.842  31.140  30.639  1.00  0.00     0.016 A 
ATOM     33  C   UNL A   1      38.819  29.674  32.002  1.00  0.00     0.010 A 
ATOM     34  C   UNL A   1      37.778  30.387  29.924  1.00  0.00     0.010 A 
ATOM     35  C   UNL A   1      38.798  29.694  30.603  1.00  0.00    -0.014 A 
BRANCH  35  36
ATOM     36  C   UNL A   1      40.012  29.261  29.871  1.00  0.00     0.031 A 
ATOM     37  C   UNL A   1      41.117  30.270  29.713  1.00  0.00     0.074 A 
ATOM     38  C   UNL A   1      40.161  28.011  29.405  1.00  0.00     0.049 A 
ATOM     39  N   UNL A   1      42.265  30.164  29.097  1.00  0.00    -0.248 NA
ATOM     40  C   UNL A   1      40.887  31.584  30.336  1.00  0.00     0.031 C 
ATOM     41  C   UNL A   1      39.191  26.930  29.552  1.00  0.00     0.029 A 
ATOM     42  N   UNL A   1      41.197  27.446  28.707  1.00  0.00    -0.354 N 
ATOM     43  C   UNL A   1      42.883  31.400  29.247  1.00  0.00     0.074 A 
ATOM     44  C   UNL A   1      41.970  32.249  29.977  1.00  0.00     0.031 C 
ATOM     45  C   UNL A   1      39.676  25.828  28.953  1.00  0.00     0.029 A 
ATOM     46  C   UNL A   1      40.975  26.139  28.354  1.00  0.00     0.049 A 
ATOM     47  H   UNL A   1      42.023  27.932  28.481  1.00  0.00     0.167 HD
ATOM     48  C   UNL A   1      44.106  31.791  28.820  1.00  0.00     0.037 A 
ATOM     49  C   UNL A   1      41.730  25.303  27.616  1.00  0.00     0.037 A 
ATOM     50  C   UNL A   1      45.008  30.943  28.088  1.00  0.00     0.049 A 
ATOM     51  C   UNL A   1      43.055  25.785  27.076  1.00  0.00     0.074 A 
ATOM     52  C   UNL A   1      46.275  31.234  27.617  1.00  0.00     0.029 A 
ATOM     53  N   UNL A   1      44.728  29.638  27.709  1.00  0.00    -0.354 N 
ATOM     54  N   UNL A   1      43.644  26.946  27.233  1.00  0.00    -0.248 NA
ATOM     55  C   UNL A   1      43.821  24.832  26.259  1.00  0.00     0.031 C 
ATOM     56  C   UNL A   1      46.734  30.127  26.893  1.00  0.00     0.029 A 
ATOM     57  C   UNL A   1      45.787  29.119  26.981  1.00  0.00     0.049 A 
ATOM     58  H   UNL A   1      43.899  29.153  27.925  1.00  0.00     0.167 HD
ATOM     59  C   UNL A   1      44.864  26.850  26.572  1.00  0.00     0.074 A 
ATOM     60  C   UNL A   1      44.930  25.515  26.018  1.00  0.00     0.031 C 
ATOM     61  C   UNL A   1      45.844  27.781  26.445  1.00  0.00     0.037 A 
BRANCH  48  62
ATOM     62  C   UNL A   1      44.505  33.214  29.092  1.00  0.00     0.064 A 
ATOM     63  C   UNL A   1      45.051  33.614  30.322  1.00  0.00     0.173 A 
ATOM     64  C   UNL A   1      44.319  34.198  28.109  1.00  0.00     0.173 A 
ATOM     65  F   UNL A   1      45.233  32.718  31.305  1.00  0.00    -0.203 F 
ATOM     66  C   UNL A   1      45.353  34.951  30.572  1.00  0.00     0.198 A 
ATOM     67  C   UNL A   1      44.658  35.526  28.348  1.00  0.00     0.198 A 
ATOM     68  F   UNL A   1      43.801  33.872  26.915  1.00  0.00    -0.203 F 
ATOM     69  F   UNL A   1      45.803  35.320  31.779  1.00  0.00    -0.200 F 
ATOM     70  C   UNL A   1      45.162  35.904  29.584  1.00  0.00     0.200 A 
ATOM     71  F   UNL A   1      44.486  36.444  27.387  1.00  0.00    -0.200 F 
ATOM     72  F   UNL A   1      45.450  37.191  29.826  1.00  0.00    -0.200 F 
ENDBRANCH  48  62
BRANCH  49  73
ATOM     73  C   UNL A   1      41.260  23.917  27.350  1.00  0.00     0.064 A 
ATOM     74  C   UNL A   1      41.910  22.812  27.917  1.00  0.00     0.173 A 
ATOM     75  C   UNL A   1      40.159  23.668  26.517  1.00  0.00     0.173 A 
ATOM     76  F   UNL A   1      42.985  22.997  28.698  1.00  0.00    -0.203 F 
ATOM     77  C   UNL A   1      41.486  21.512  27.652  1.00  0.00     0.198 A 
ATOM     78  C   UNL A   1      39.717  22.368  26.277  1.00  0.00     0.198 A 
ATOM     79  F   UNL A   1      39.503  24.689  25.946  1.00  0.00    -0.203 F 
ATOM     80  F   UNL A   1      42.152  20.473  28.173  1.00  0.00    -0.200 F 
ATOM     81  C   UNL A   1      40.385  21.291  26.839  1.00  0.00     0.200 A 
ATOM     82  F   UNL A   1      38.644  22.160  25.501  1.00  0.00    -0.200 F 
ATOM     83  F   UNL A   1      39.971  20.041  26.592  1.00  0.00    -0.200 F 
ENDBRANCH  49  73
BRANCH  61  84
ATOM     84  C   UNL A   1      47.103  27.372  25.731  1.00  0.00     0.064 A 
ATOM     85  C   UNL A   1      47.294  27.604  24.361  1.00  0.00     0.173 A 
ATOM     86  C   UNL A   1      48.153  26.773  26.445  1.00  0.00     0.173 A 
ATOM     87  F   UNL A   1      46.319  28.165  23.628  1.00  0.00    -0.203 F 
ATOM     88  C   UNL A   1      48.473  27.219  23.727  1.00  0.00     0.198 A 
ATOM     89  C   UNL A   1      49.345  26.425  25.817  1.00  0.00     0.198 A 
ATOM     90  F   UNL A   1      48.030  26.538  27.760  1.00  0.00    -0.203 F 
ATOM     91  F   UNL A   1      48.610  27.398  22.405  1.00  0.00    -0.200 F 
ATOM     92  C   UNL A   1      49.500  26.638  24.456  1.00  0.00     0.200 A 
ATOM     93  F   UNL A   1      50.343  25.882  26.528  1.00  0.00    -0.200 F 
ATOM     94  F   UNL A   1      50.636  26.276  23.845  1.00  0.00    -0.200 F 
ENDBRANCH  61  84
ENDBRANCH  35  36
ENDBRANCH  28  30
ENDBRANCH  27  28
ENDBRANCH  26  27
ENDBRANCH  25  26
ENDBRANCH  24  25
ENDBRANCH  23  24
ENDBRANCH  22  23
ENDBRANCH   1  22
TORSDOF 23
ENDMDL
MODEL 2
REMARK VINA RESULT:     -10.0      1.075      2.077
REMARK SMILES O=C(/C=C/c1ccc(O)c(O)c1)OCCOCCOCCOCCOC(=O)c1ccc(-c2c3nc(c(-c4c(F)c(F)c(F)c(F)c4F)c4ccc([nH]4)c(-c4c(F)c(F)c(F)c(F)c4F)c4nc(c(-c5c(F)c(F)c(F)c(F)c5F)c5ccc2[nH]5)C=C4)C=C3)cc1
REMARK SMILES IDX 19 1 18 2 17 3 16 4 15 5 14 6 13 7 2 8 1 9 3 10 4 11 5 12
REMARK SMILES IDX 6 13 12 14 7 15 10 16 8 17 11 18 9 20 20 22 21 23 22 24
REMARK SMILES IDX 23 25 24 26 25 27 26 28 27 29 28 30 29 31 90 32 30 33 89 34
REMARK SMILES IDX 31 35 32 36 33 37 83 38 34 39 88 40 82 41 84 42 35 43 87 44
REMARK SMILES IDX 81 45 80 46 36 48 68 49 48 50 67 51 49 52 52 53 66 54 85 55
REMARK SMILES IDX 50 56 51 57 65 59 86 60 53 61 37 62 38 63 46 64 39 65 40 66
REMARK SMILES IDX 44 67 47 68 41 69 42 70 45 71 43 72 69 73 70 74 78 75 71 76
REMARK SMILES IDX 72 77 76 78 79 79 73 80 74 81 77 82 75 83 54 84 55 85 63 86
REMARK SMILES IDX 56 87 57 88 61 89 64 90 58 91 59 92 62 93 60 94
REMARK H PARENT 11 19 9 21 84 47 52 58
REMARK Flexibility Score: inf
ROOT
ATOM      1  O   UNL A   1      34.487  34.411  28.602  1.00  0.00    -0.377 OA
ENDROOT
BRANCH   1   2
ATOM      2  C   UNL A   1      34.759  33.056  28.920  1.00  0.00     0.188 C 
BRANCH   2   3
ATOM      3  C   UNL A   1      34.538  32.045  27.798  1.00  0.00     0.188 C 
BRANCH   3   4
ATOM      4  O   UNL A   1      33.391  31.212  27.775  1.00  0.00    -0.376 OA
BRANCH   4   5
ATOM      5  C   UNL A   1      33.102  30.182  26.854  1.00  0.00     0.202 C 
BRANCH   5   6
ATOM      6  C   UNL A   1      33.064  28.706  27.226  1.00  0.00     0.261 C 
BRANCH   6   7
ATOM      7  O   UNL A   1      32.817  27.750  26.194  1.00  0.00    -0.460 OA
BRANCH   7   8
ATOM      8  C   UNL A   1      32.128  26.593  26.323  1.00  0.00     0.330 C 
ATOM      9  O   UNL A   1      31.029  26.587  26.869  1.00  0.00    -0.247 OA
BRANCH   8  10
ATOM     10  C   UNL A   1      32.836  25.314  26.131  1.00  0.00     0.094 C 
ATOM     11  C   UNL A   1      32.300  24.095  25.998  1.00  0.00     0.016 C 
BRANCH  11  12
ATOM     12  C   UNL A   1      33.113  22.928  25.635  1.00  0.00    -0.021 A 
ATOM     13  C   UNL A   1      34.315  23.073  24.931  1.00  0.00     0.012 A 
ATOM     14  C   UNL A   1      32.706  21.648  26.041  1.00  0.00     0.058 A 
ATOM     15  C   UNL A   1      35.135  21.966  24.688  1.00  0.00     0.051 A 
ATOM     16  C   UNL A   1      33.526  20.555  25.800  1.00  0.00     0.157 A 
ATOM     17  C   UNL A   1      34.744  20.714  25.148  1.00  0.00     0.157 A 
BRANCH  16  18
ATOM     18  O   UNL A   1      33.138  19.321  26.238  1.00  0.00    -0.504 OA
ATOM     19  H   UNL A   1      33.271  18.569  25.695  1.00  0.00     0.293 HD
ENDBRANCH  16  18
BRANCH  17  20
ATOM     20  O   UNL A   1      35.535  19.610  25.001  1.00  0.00    -0.504 OA
ATOM     21  H   UNL A   1      36.423  19.704  24.717  1.00  0.00     0.293 HD
ENDBRANCH  17  20
ENDBRANCH  11  12
ENDBRANCH   8  10
ENDBRANCH   7   8
ENDBRANCH   6   7
ENDBRANCH   5   6
ENDBRANCH   4   5
ENDBRANCH   3   4
ENDBRANCH   2   3
ENDBRANCH   1   2
BRANCH   1  22
ATOM     22  C   UNL A   1      33.158  34.806  28.873  1.00  0.00     0.188 C 
BRANCH  22  23
ATOM     23  C   UNL A   1      33.009  35.901  29.952  1.00  0.00     0.188 C 
BRANCH  23  24
ATOM     24  O   UNL A   1      33.754  35.864  31.157  1.00  0.00    -0.376 OA
BRANCH  24  25
ATOM     25  C   UNL A   1      33.549  34.844  32.116  1.00  0.00     0.202 C 
BRANCH  25  26
ATOM     26  C   UNL A   1      34.701  34.256  32.953  1.00  0.00     0.261 C 
BRANCH  26  27
ATOM     27  O   UNL A   1      35.611  33.374  32.285  1.00  0.00    -0.460 OA
BRANCH  27  28
ATOM     28  C   UNL A   1      36.410  32.627  33.079  1.00  0.00     0.338 C 
ATOM     29  O   UNL A   1      36.346  32.503  34.293  1.00  0.00    -0.246 OA
BRANCH  28  30
ATOM     30  C   UNL A   1      37.276  31.788  32.222  1.00  0.00     0.060 A 
ATOM     31  C   UNL A   1      38.166  30.897  32.844  1.00  0.00     0.016 A 
ATOM     32  C   UNL A   1      37.197  31.847  30.829  1.00  0.00     0.016 A 
ATOM     33  C   UNL A   1      39.006  30.094  32.080  1.00  0.00     0.010 A 
ATOM     34  C   UNL A   1      38.069  31.071  30.061  1.00  0.00     0.010 A 
ATOM     35  C   UNL A   1      39.010  30.232  30.688  1.00  0.00    -0.014 A 
BRANCH  35  36
ATOM     36  C   UNL A   1      40.189  29.748  29.932  1.00  0.00     0.031 A 
ATOM     37  C   UNL A   1      41.330  30.712  29.746  1.00  0.00     0.074 A 
ATOM     38  C   UNL A   1      40.279  28.491  29.468  1.00  0.00     0.049 A 
ATOM     39  N   UNL A   1      42.460  30.558  29.106  1.00  0.00    -0.248 NA
ATOM     40  C   UNL A   1      41.165  32.036  30.368  1.00  0.00     0.031 C 
ATOM     41  C   UNL A   1      39.270  27.450  29.641  1.00  0.00     0.029 A 
ATOM     42  N   UNL A   1      41.277  27.883  28.751  1.00  0.00    -0.354 N 
ATOM     43  C   UNL A   1      43.129  31.769  29.237  1.00  0.00     0.074 A 
ATOM     44  C   UNL A   1      42.266  32.656  29.982  1.00  0.00     0.031 C 
ATOM     45  C   UNL A   1      39.698  26.327  29.037  1.00  0.00     0.029 A 
ATOM     46  C   UNL A   1      40.995  26.584  28.409  1.00  0.00     0.049 A 
ATOM     47  H   UNL A   1      42.116  28.334  28.505  1.00  0.00     0.167 HD
ATOM     48  C   UNL A   1      44.357  32.109  28.783  1.00  0.00     0.037 A 
ATOM     49  C   UNL A   1      41.701  25.716  27.658  1.00  0.00     0.037 A 
ATOM     50  C   UNL A   1      45.208  31.224  28.035  1.00  0.00     0.049 A 
ATOM     51  C   UNL A   1      43.031  26.143  27.088  1.00  0.00     0.074 A 
ATOM     52  C   UNL A   1      46.476  31.462  27.535  1.00  0.00     0.029 A 
ATOM     53  N   UNL A   1      44.869  29.929  27.668  1.00  0.00    -0.354 N 
ATOM     54  N   UNL A   1      43.669  27.281  27.227  1.00  0.00    -0.248 NA
ATOM     55  C   UNL A   1      43.741  25.158  26.259  1.00  0.00     0.031 C 
ATOM     56  C   UNL A   1      46.875  30.336  26.808  1.00  0.00     0.029 A 
ATOM     57  C   UNL A   1      45.890  29.366  26.920  1.00  0.00     0.049 A 
ATOM     58  H   UNL A   1      44.026  29.478  27.904  1.00  0.00     0.167 HD
ATOM     59  C   UNL A   1      44.870  27.134  26.541  1.00  0.00     0.074 A 
ATOM     60  C   UNL A   1      44.871  25.795  25.991  1.00  0.00     0.031 C 
ATOM     61  C   UNL A   1      45.883  28.025  26.389  1.00  0.00     0.037 A 
BRANCH  48  62
ATOM     62  C   UNL A   1      44.818  33.516  29.040  1.00  0.00     0.064 A 
ATOM     63  C   UNL A   1      44.567  34.560  28.135  1.00  0.00     0.173 A 
ATOM     64  C   UNL A   1      45.540  33.820  30.203  1.00  0.00     0.173 A 
ATOM     65  F   UNL A   1      43.897  34.322  26.997  1.00  0.00    -0.203 F 
ATOM     66  C   UNL A   1      45.059  35.843  28.365  1.00  0.00     0.198 A 
ATOM     67  C   UNL A   1      45.997  35.111  30.449  1.00  0.00     0.198 A 
ATOM     68  F   UNL A   1      45.809  32.862  31.103  1.00  0.00    -0.203 F 
ATOM     69  F   UNL A   1      44.870  36.805  27.452  1.00  0.00    -0.200 F 
ATOM     70  C   UNL A   1      45.769  36.119  29.524  1.00  0.00     0.200 A 
ATOM     71  F   UNL A   1      46.670  35.379  31.577  1.00  0.00    -0.200 F 
ATOM     72  F   UNL A   1      46.245  37.352  29.743  1.00  0.00    -0.200 F 
ENDBRANCH  48  62
BRANCH  49  73
ATOM     73  C   UNL A   1      41.171  24.349  27.408  1.00  0.00     0.064 A 
ATOM     74  C   UNL A   1      40.085  24.142  26.546  1.00  0.00     0.173 A 
ATOM     75  C   UNL A   1      41.731  23.224  28.032  1.00  0.00     0.173 A 
ATOM     76  F   UNL A   1      39.498  25.188  25.947  1.00  0.00    -0.203 F 
ATOM     77  C   UNL A   1      39.572  22.865  26.327  1.00  0.00     0.198 A 
ATOM     78  C   UNL A   1      41.236  21.945  27.789  1.00  0.00     0.198 A 
ATOM     79  F   UNL A   1      42.769  23.367  28.870  1.00  0.00    -0.203 F 
ATOM     80  F   UNL A   1      38.507  22.701  25.531  1.00  0.00    -0.200 F 
ATOM     81  C   UNL A   1      40.153  21.767  26.943  1.00  0.00     0.200 A 
ATOM     82  F   UNL A   1      41.809  20.884  28.376  1.00  0.00    -0.200 F 
ATOM     83  F   UNL A   1      39.665  20.538  26.723  1.00  0.00    -0.200 F 
ENDBRANCH  49  73
BRANCH  61  84
ATOM     84  C   UNL A   1      47.109  27.564  25.650  1.00  0.00     0.064 A 
ATOM     85  C   UNL A   1      47.239  27.699  24.259  1.00  0.00     0.173 A 
ATOM     86  C   UNL A   1      48.190  27.013  26.356  1.00  0.00     0.173 A 
ATOM     87  F   UNL A   1      46.233  28.210  23.534  1.00  0.00    -0.203 F 
ATOM     88  C   UNL A   1      48.389  27.268  23.603  1.00  0.00     0.198 A 
ATOM     89  C   UNL A   1      49.353  26.619  25.702  1.00  0.00     0.198 A 
ATOM     90  F   UNL A   1      48.126  26.870  27.689  1.00  0.00    -0.203 F 
ATOM     91  F   UNL A   1      48.467  27.353  22.267  1.00  0.00    -0.200 F 
ATOM     92  C   UNL A   1      49.447  26.736  24.324  1.00  0.00     0.200 A 
ATOM     93  F   UNL A   1      50.382  26.123  26.404  1.00  0.00    -0.200 F 
ATOM     94  F   UNL A   1      50.556  26.329  23.690  1.00  0.00    -0.200 F 
ENDBRANCH  61  84
ENDBRANCH  35  36
ENDBRANCH  28  30
ENDBRANCH  27  28
ENDBRANCH  26  27
ENDBRANCH  25  26
ENDBRANCH  24  25
ENDBRANCH  23  24
ENDBRANCH  22  23
ENDBRANCH   1  22
TORSDOF 23
ENDMDL
MODEL 3
REMARK VINA RESULT:      -9.6      5.205     10.976
REMARK SMILES O=C(/C=C/c1ccc(O)c(O)c1)OCCOCCOCCOCCOC(=O)c1ccc(-c2c3nc(c(-c4c(F)c(F)c(F)c(F)c4F)c4ccc([nH]4)c(-c4c(F)c(F)c(F)c(F)c4F)c4nc(c(-c5c(F)c(F)c(F)c(F)c5F)c5ccc2[nH]5)C=C4)C=C3)cc1
REMARK SMILES IDX 19 1 18 2 17 3 16 4 15 5 14 6 13 7 2 8 1 9 3 10 4 11 5 12
REMARK SMILES IDX 6 13 12 14 7 15 10 16 8 17 11 18 9 20 20 22 21 23 22 24
REMARK SMILES IDX 23 25 24 26 25 27 26 28 27 29 28 30 29 31 90 32 30 33 89 34
REMARK SMILES IDX 31 35 32 36 33 37 83 38 34 39 88 40 82 41 84 42 35 43 87 44
REMARK SMILES IDX 81 45 80 46 36 48 68 49 48 50 67 51 49 52 52 53 66 54 85 55
REMARK SMILES IDX 50 56 51 57 65 59 86 60 53 61 37 62 38 63 46 64 39 65 40 66
REMARK SMILES IDX 44 67 47 68 41 69 42 70 45 71 43 72 69 73 70 74 78 75 71 76
REMARK SMILES IDX 72 77 76 78 79 79 73 80 74 81 77 82 75 83 54 84 55 85 63 86
REMARK SMILES IDX 56 87 57 88 61 89 64 90 58 91 59 92 62 93 60 94
REMARK H PARENT 11 19 9 21 84 47 52 58
REMARK Flexibility Score: inf
ROOT
ATOM      1  O   UNL A   1      41.599  21.379  25.676  1.00  0.00    -0.377 OA
ENDROOT
BRANCH   1   2
ATOM      2  C   UNL A   1      40.288  21.533  26.192  1.00  0.00     0.188 C 
BRANCH   2   3
ATOM      3  C   UNL A   1      39.275  20.465  25.786  1.00  0.00     0.188 C 
BRANCH   3   4
ATOM      4  O   UNL A   1      38.141  20.789  24.999  1.00  0.00    -0.376 OA
BRANCH   4   5
ATOM      5  C   UNL A   1      37.286  21.902  25.151  1.00  0.00     0.202 C 
BRANCH   5   6
ATOM      6  C   UNL A   1      36.050  22.137  24.293  1.00  0.00     0.261 C 
BRANCH   6   7
ATOM      7  O   UNL A   1      34.788  21.676  24.776  1.00  0.00    -0.460 OA
BRANCH   7   8
ATOM      8  C   UNL A   1      33.577  21.945  24.236  1.00  0.00     0.330 C 
ATOM      9  O   UNL A   1      32.862  21.032  23.836  1.00  0.00    -0.247 OA
BRANCH   8  10
ATOM     10  C   UNL A   1      33.275  23.324  23.813  1.00  0.00     0.094 C 
ATOM     11  C   UNL A   1      32.838  24.336  24.573  1.00  0.00     0.016 C 
BRANCH  11  12
ATOM     12  C   UNL A   1      32.746  25.707  24.058  1.00  0.00    -0.021 A 
ATOM     13  C   UNL A   1      33.685  26.681  24.420  1.00  0.00     0.012 A 
ATOM     14  C   UNL A   1      31.730  26.038  23.149  1.00  0.00     0.058 A 
ATOM     15  C   UNL A   1      33.651  27.953  23.838  1.00  0.00     0.051 A 
ATOM     16  C   UNL A   1      31.705  27.300  22.572  1.00  0.00     0.157 A 
ATOM     17  C   UNL A   1      32.672  28.246  22.896  1.00  0.00     0.157 A 
BRANCH  16  18
ATOM     18  O   UNL A   1      30.735  27.596  21.657  1.00  0.00    -0.504 OA
ATOM     19  H   UNL A   1      30.421  28.475  21.576  1.00  0.00     0.293 HD
ENDBRANCH  16  18
BRANCH  17  20
ATOM     20  O   UNL A   1      32.631  29.445  22.243  1.00  0.00    -0.504 OA
ATOM     21  H   UNL A   1      33.276  29.647  21.594  1.00  0.00     0.293 HD
ENDBRANCH  17  20
ENDBRANCH  11  12
ENDBRANCH   8  10
ENDBRANCH   7   8
ENDBRANCH   6   7
ENDBRANCH   5   6
ENDBRANCH   4   5
ENDBRANCH   3   4
ENDBRANCH   2   3
ENDBRANCH   1   2
BRANCH   1  22
ATOM     22  C   UNL A   1      42.304  20.284  26.225  1.00  0.00     0.188 C 
BRANCH  22  23
ATOM     23  C   UNL A   1      43.702  20.037  25.617  1.00  0.00     0.188 C 
BRANCH  23  24
ATOM     24  O   UNL A   1      43.999  20.373  24.273  1.00  0.00    -0.376 OA
BRANCH  24  25
ATOM     25  C   UNL A   1      45.075  21.233  23.951  1.00  0.00     0.202 C 
BRANCH  25  26
ATOM     26  C   UNL A   1      44.918  22.765  23.893  1.00  0.00     0.261 C 
BRANCH  26  27
ATOM     27  O   UNL A   1      44.099  23.375  24.898  1.00  0.00    -0.460 OA
BRANCH  27  28
ATOM     28  C   UNL A   1      44.712  23.673  26.067  1.00  0.00     0.338 C 
ATOM     29  O   UNL A   1      45.844  23.369  26.412  1.00  0.00    -0.246 OA
BRANCH  28  30
ATOM     30  C   UNL A   1      43.863  24.628  26.813  1.00  0.00     0.060 A 
ATOM     31  C   UNL A   1      44.220  25.987  26.799  1.00  0.00     0.016 A 
ATOM     32  C   UNL A   1      42.717  24.208  27.490  1.00  0.00     0.016 A 
ATOM     33  C   UNL A   1      43.459  26.921  27.494  1.00  0.00     0.010 A 
ATOM     34  C   UNL A   1      41.975  25.139  28.222  1.00  0.00     0.010 A 
ATOM     35  C   UNL A   1      42.375  26.488  28.265  1.00  0.00    -0.014 A 
BRANCH  35  36
ATOM     36  C   UNL A   1      41.875  27.374  29.343  1.00  0.00     0.031 A 
ATOM     37  C   UNL A   1      42.632  27.372  30.643  1.00  0.00     0.074 A 
ATOM     38  C   UNL A   1      40.823  28.190  29.170  1.00  0.00     0.049 A 
ATOM     39  N   UNL A   1      42.396  28.025  31.751  1.00  0.00    -0.248 NA
ATOM     40  C   UNL A   1      43.821  26.504  30.698  1.00  0.00     0.031 C 
ATOM     41  C   UNL A   1      40.050  28.328  27.939  1.00  0.00     0.029 A 
ATOM     42  N   UNL A   1      40.225  29.059  30.047  1.00  0.00    -0.354 N 
ATOM     43  C   UNL A   1      43.395  27.634  32.634  1.00  0.00     0.074 A 
ATOM     44  C   UNL A   1      44.216  26.663  31.948  1.00  0.00     0.031 C 
ATOM     45  C   UNL A   1      39.071  29.228  28.141  1.00  0.00     0.029 A 
ATOM     46  C   UNL A   1      39.131  29.701  29.525  1.00  0.00     0.049 A 
ATOM     47  H   UNL A   1      40.551  29.209  30.963  1.00  0.00     0.167 HD
ATOM     48  C   UNL A   1      43.615  28.054  33.901  1.00  0.00     0.037 A 
ATOM     49  C   UNL A   1      38.270  30.556  30.110  1.00  0.00     0.037 A 
ATOM     50  C   UNL A   1      42.789  29.016  34.581  1.00  0.00     0.049 A 
ATOM     51  C   UNL A   1      38.482  30.947  31.553  1.00  0.00     0.074 A 
ATOM     52  C   UNL A   1      42.927  29.520  35.861  1.00  0.00     0.029 A 
ATOM     53  N   UNL A   1      41.661  29.611  34.034  1.00  0.00    -0.354 N 
ATOM     54  N   UNL A   1      39.436  30.591  32.379  1.00  0.00    -0.248 NA
ATOM     55  C   UNL A   1      37.496  31.865  32.140  1.00  0.00     0.031 C 
ATOM     56  C   UNL A   1      41.843  30.368  36.113  1.00  0.00     0.029 A 
ATOM     57  C   UNL A   1      41.073  30.453  34.964  1.00  0.00     0.049 A 
ATOM     58  H   UNL A   1      41.327  29.455  33.121  1.00  0.00     0.167 HD
ATOM     59  C   UNL A   1      39.190  31.271  33.567  1.00  0.00     0.074 A 
ATOM     60  C   UNL A   1      37.999  32.064  33.349  1.00  0.00     0.031 C 
ATOM     61  C   UNL A   1      39.892  31.248  34.728  1.00  0.00     0.037 A 
BRANCH  48  62
ATOM     62  C   UNL A   1      44.761  27.426  34.643  1.00  0.00     0.064 A 
ATOM     63  C   UNL A   1      46.050  27.980  34.629  1.00  0.00     0.173 A 
ATOM     64  C   UNL A   1      44.567  26.238  35.363  1.00  0.00     0.173 A 
ATOM     65  F   UNL A   1      46.296  29.105  33.940  1.00  0.00    -0.203 F 
ATOM     66  C   UNL A   1      47.111  27.344  35.272  1.00  0.00     0.198 A 
ATOM     67  C   UNL A   1      45.620  25.626  36.037  1.00  0.00     0.198 A 
ATOM     68  F   UNL A   1      43.355  25.665  35.411  1.00  0.00    -0.203 F 
ATOM     69  F   UNL A   1      48.347  27.852  35.183  1.00  0.00    -0.200 F 
ATOM     70  C   UNL A   1      46.894  26.172  35.979  1.00  0.00     0.200 A 
ATOM     71  F   UNL A   1      45.405  24.501  36.733  1.00  0.00    -0.200 F 
ATOM     72  F   UNL A   1      47.915  25.559  36.595  1.00  0.00    -0.200 F 
ENDBRANCH  48  62
BRANCH  49  73
ATOM     73  C   UNL A   1      37.131  31.113  29.332  1.00  0.00     0.064 A 
ATOM     74  C   UNL A   1      37.131  32.449  28.908  1.00  0.00     0.173 A 
ATOM     75  C   UNL A   1      36.018  30.325  29.004  1.00  0.00     0.173 A 
ATOM     76  F   UNL A   1      38.161  33.250  29.220  1.00  0.00    -0.203 F 
ATOM     77  C   UNL A   1      36.056  32.979  28.197  1.00  0.00     0.198 A 
ATOM     78  C   UNL A   1      34.957  30.848  28.268  1.00  0.00     0.198 A 
ATOM     79  F   UNL A   1      35.965  29.041  29.389  1.00  0.00    -0.203 F 
ATOM     80  F   UNL A   1      36.063  34.271  27.841  1.00  0.00    -0.200 F 
ATOM     81  C   UNL A   1      34.974  32.177  27.871  1.00  0.00     0.200 A 
ATOM     82  F   UNL A   1      33.918  30.066  27.943  1.00  0.00    -0.200 F 
ATOM     83  F   UNL A   1      33.945  32.685  27.179  1.00  0.00    -0.200 F 
ENDBRANCH  49  73
BRANCH  61  84
ATOM     84  C   UNL A   1      39.432  32.153  35.837  1.00  0.00     0.064 A 
ATOM     85  C   UNL A   1      38.457  31.760  36.767  1.00  0.00     0.173 A 
ATOM     86  C   UNL A   1      40.009  33.423  35.994  1.00  0.00     0.173 A 
ATOM     87  F   UNL A   1      37.865  30.561  36.658  1.00  0.00    -0.203 F 
ATOM     88  C   UNL A   1      38.054  32.618  37.787  1.00  0.00     0.198 A 
ATOM     89  C   UNL A   1      39.632  34.263  37.038  1.00  0.00     0.198 A 
ATOM     90  F   UNL A   1      40.954  33.847  35.141  1.00  0.00    -0.203 F 
ATOM     91  F   UNL A   1      37.079  32.243  38.628  1.00  0.00    -0.200 F 
ATOM     92  C   UNL A   1      38.646  33.864  37.928  1.00  0.00     0.200 A 
ATOM     93  F   UNL A   1      40.220  35.458  37.182  1.00  0.00    -0.200 F 
ATOM     94  F   UNL A   1      38.262  34.684  38.915  1.00  0.00    -0.200 F 
ENDBRANCH  61  84
ENDBRANCH  35  36
ENDBRANCH  28  30
ENDBRANCH  27  28
ENDBRANCH  26  27
ENDBRANCH  25  26
ENDBRANCH  24  25
ENDBRANCH  23  24
ENDBRANCH  22  23
ENDBRANCH   1  22
TORSDOF 23
ENDMDL
