MODEL 1
REMARK VINA RESULT:      -8.5      0.000      0.000
REMARK SMILES CCCCCCNC(=O)Oc1cccc(-c2ccc([C@@H](C)C(=O)OCCOCCOCCOCCOC(=O)c3ccc(-c4c5nc(c(-c6c(F)c(F)c(F)c(F)c6F)c6ccc([nH]6)c(-c6c(F)c(F)c(F)c(F)c6F)c6nc(c(-c7c(F)c(F)c(F)c(F)c7F)c7ccc4[nH]7)C=C6)C=C5)cc3)cc2F)c1
REMARK SMILES IDX 26 1 25 2 24 3 22 4 23 5 20 6 21 7 19 8 16 9 17 10 103 11
REMARK SMILES IDX 18 12 102 13 104 14 15 15 11 16 12 17 105 18 13 19 14 20
REMARK SMILES IDX 10 21 8 22 7 23 9 25 6 26 5 27 4 28 3 29 2 30 1 31 27 32
REMARK SMILES IDX 28 33 29 34 30 35 31 36 32 37 33 38 34 39 35 40 36 41 37 42
REMARK SMILES IDX 38 43 39 44 40 45 101 46 41 47 100 48 42 49 43 50 44 51
REMARK SMILES IDX 94 52 45 53 99 54 93 55 95 56 46 57 98 58 92 59 91 60 47 62
REMARK SMILES IDX 79 63 59 64 78 65 60 66 63 67 77 68 96 69 61 70 62 71 76 73
REMARK SMILES IDX 97 74 64 75 48 76 49 77 57 78 50 79 51 80 55 81 58 82 52 83
REMARK SMILES IDX 53 84 56 85 54 86 80 87 81 88 89 89 82 90 83 91 87 92 90 93
REMARK SMILES IDX 84 94 85 95 88 96 86 97 65 98 66 99 74 100 67 101 68 102
REMARK SMILES IDX 72 103 75 104 69 105 70 106 73 107 71 108
REMARK H PARENT 7 24 95 61 63 72
REMARK Flexibility Score: inf
ROOT
ATOM      1  C   UNL A   1      36.818  21.546  24.700  1.00  0.00     0.202 C 
ENDROOT
BRANCH   1   2
ATOM      2  C   UNL A   1      35.557  20.978  25.380  1.00  0.00     0.261 C 
BRANCH   2   3
ATOM      3  O   UNL A   1      34.749  20.062  24.609  1.00  0.00    -0.463 OA
BRANCH   3   4
ATOM      4  C   UNL A   1      33.499  19.830  25.075  1.00  0.00     0.313 C 
ATOM      5  O   UNL A   1      33.267  19.135  26.063  1.00  0.00    -0.252 OA
BRANCH   4   6
ATOM      6  C   UNL A   1      32.355  20.458  24.279  1.00  0.00     0.126 C 
ATOM      7  C   UNL A   1      32.334  19.827  22.891  1.00  0.00     0.025 C 
BRANCH   6   8
ATOM      8  C   UNL A   1      32.167  21.975  24.204  1.00  0.00    -0.031 A 
ATOM      9  C   UNL A   1      31.783  24.828  24.211  1.00  0.00     0.018 A 
ATOM     10  C   UNL A   1      32.465  24.172  23.168  1.00  0.00     0.012 A 
ATOM     11  C   UNL A   1      31.298  24.021  25.244  1.00  0.00     0.131 A 
ATOM     12  C   UNL A   1      32.654  22.772  23.161  1.00  0.00     0.005 A 
ATOM     13  C   UNL A   1      31.468  22.629  25.240  1.00  0.00     0.044 A 
ATOM     14  F   UNL A   1      30.637  24.569  26.276  1.00  0.00    -0.206 F 
BRANCH   9  15
ATOM     15  C   UNL A   1      31.541  26.288  24.184  1.00  0.00    -0.012 A 
ATOM     16  C   UNL A   1      32.167  28.589  24.698  1.00  0.00     0.133 A 
ATOM     17  C   UNL A   1      30.966  29.064  24.176  1.00  0.00     0.047 A 
ATOM     18  C   UNL A   1      32.455  27.217  24.720  1.00  0.00     0.056 A 
ATOM     19  C   UNL A   1      30.052  28.160  23.645  1.00  0.00     0.004 A 
ATOM     20  C   UNL A   1      30.337  26.790  23.647  1.00  0.00     0.009 A 
BRANCH  16  21
ATOM     21  O   UNL A   1      33.004  29.539  25.311  1.00  0.00    -0.410 OA
BRANCH  21  22
ATOM     22  C   UNL A   1      32.657  29.976  26.580  1.00  0.00     0.412 C 
ATOM     23  N   UNL A   1      33.624  29.751  27.525  1.00  0.00    -0.321 N 
ATOM     24  H   UNL A   1      33.457  30.128  28.418  1.00  0.00     0.167 HD
ATOM     25  O   UNL A   1      31.596  30.505  26.892  1.00  0.00    -0.224 OA
BRANCH  23  26
ATOM     26  C   UNL A   1      34.865  29.019  27.356  1.00  0.00     0.119 C 
BRANCH  26  27
ATOM     27  C   UNL A   1      36.098  29.902  27.558  1.00  0.00     0.021 C 
BRANCH  27  28
ATOM     28  C   UNL A   1      36.316  30.403  28.992  1.00  0.00     0.002 C 
BRANCH  28  29
ATOM     29  C   UNL A   1      37.724  30.916  29.314  1.00  0.00    -0.000 C 
BRANCH  29  30
ATOM     30  C   UNL A   1      37.922  32.430  29.187  1.00  0.00    -0.003 C 
ATOM     31  C   UNL A   1      36.861  33.244  29.912  1.00  0.00     0.004 C 
ENDBRANCH  29  30
ENDBRANCH  28  29
ENDBRANCH  27  28
ENDBRANCH  26  27
ENDBRANCH  23  26
ENDBRANCH  21  22
ENDBRANCH  16  21
ENDBRANCH   9  15
ENDBRANCH   6   8
ENDBRANCH   4   6
ENDBRANCH   3   4
ENDBRANCH   2   3
ENDBRANCH   1   2
BRANCH   1  32
ATOM     32  O   UNL A   1      37.982  21.854  25.451  1.00  0.00    -0.376 OA
BRANCH  32  33
ATOM     33  C   UNL A   1      38.960  20.857  25.715  1.00  0.00     0.188 C 
BRANCH  33  34
ATOM     34  C   UNL A   1      40.161  21.148  26.626  1.00  0.00     0.188 C 
BRANCH  34  35
ATOM     35  O   UNL A   1      41.143  22.005  26.078  1.00  0.00    -0.377 OA
BRANCH  35  36
ATOM     36  C   UNL A   1      42.399  21.418  25.781  1.00  0.00     0.188 C 
BRANCH  36  37
ATOM     37  C   UNL A   1      43.658  22.172  26.248  1.00  0.00     0.188 C 
BRANCH  37  38
ATOM     38  O   UNL A   1      43.389  23.299  27.074  1.00  0.00    -0.376 OA
BRANCH  38  39
ATOM     39  C   UNL A   1      43.575  24.601  26.535  1.00  0.00     0.202 C 
BRANCH  39  40
ATOM     40  C   UNL A   1      42.978  24.904  25.151  1.00  0.00     0.261 C 
BRANCH  40  41
ATOM     41  O   UNL A   1      42.083  26.019  25.076  1.00  0.00    -0.460 OA
BRANCH  41  42
ATOM     42  C   UNL A   1      41.516  26.457  26.219  1.00  0.00     0.338 C 
ATOM     43  O   UNL A   1      40.703  25.880  26.907  1.00  0.00    -0.246 OA
BRANCH  42  44
ATOM     44  C   UNL A   1      42.238  27.685  26.630  1.00  0.00     0.060 A 
ATOM     45  C   UNL A   1      43.065  27.630  27.760  1.00  0.00     0.016 A 
ATOM     46  C   UNL A   1      42.096  28.878  25.919  1.00  0.00     0.016 A 
ATOM     47  C   UNL A   1      43.707  28.781  28.215  1.00  0.00     0.010 A 
ATOM     48  C   UNL A   1      42.722  30.038  26.388  1.00  0.00     0.010 A 
ATOM     49  C   UNL A   1      43.494  30.004  27.564  1.00  0.00    -0.014 A 
BRANCH  49  50
ATOM     50  C   UNL A   1      43.891  31.264  28.242  1.00  0.00     0.031 A 
ATOM     51  C   UNL A   1      43.050  31.748  29.393  1.00  0.00     0.074 A 
ATOM     52  C   UNL A   1      44.996  31.942  27.886  1.00  0.00     0.049 A 
ATOM     53  N   UNL A   1      43.187  32.816  30.138  1.00  0.00    -0.248 NA
ATOM     54  C   UNL A   1      41.896  30.909  29.750  1.00  0.00     0.031 C 
ATOM     55  C   UNL A   1      45.922  31.552  26.827  1.00  0.00     0.029 A 
ATOM     56  N   UNL A   1      45.525  33.107  28.386  1.00  0.00    -0.354 N 
ATOM     57  C   UNL A   1      42.135  32.776  31.046  1.00  0.00     0.074 A 
ATOM     58  C   UNL A   1      41.348  31.606  30.732  1.00  0.00     0.031 C 
ATOM     59  C   UNL A   1      46.907  32.464  26.754  1.00  0.00     0.029 A 
ATOM     60  C   UNL A   1      46.662  33.518  27.737  1.00  0.00     0.049 A 
ATOM     61  H   UNL A   1      45.126  33.599  29.140  1.00  0.00     0.167 HD
ATOM     62  C   UNL A   1      41.858  33.633  32.059  1.00  0.00     0.037 A 
ATOM     63  C   UNL A   1      47.407  34.628  27.910  1.00  0.00     0.037 A 
ATOM     64  C   UNL A   1      42.637  34.804  32.362  1.00  0.00     0.049 A 
ATOM     65  C   UNL A   1      47.024  35.619  28.981  1.00  0.00     0.074 A 
ATOM     66  C   UNL A   1      42.445  35.732  33.370  1.00  0.00     0.029 A 
ATOM     67  N   UNL A   1      43.751  35.218  31.645  1.00  0.00    -0.354 N 
ATOM     68  N   UNL A   1      46.045  35.566  29.852  1.00  0.00    -0.248 NA
ATOM     69  C   UNL A   1      47.856  36.827  29.094  1.00  0.00     0.031 C 
ATOM     70  C   UNL A   1      43.401  36.741  33.223  1.00  0.00     0.029 A 
ATOM     71  C   UNL A   1      44.237  36.406  32.169  1.00  0.00     0.049 A 
ATOM     72  H   UNL A   1      44.139  34.739  30.878  1.00  0.00     0.167 HD
ATOM     73  C   UNL A   1      46.164  36.707  30.637  1.00  0.00     0.074 A 
ATOM     74  C   UNL A   1      47.318  37.430  30.144  1.00  0.00     0.031 C 
ATOM     75  C   UNL A   1      45.391  37.115  31.674  1.00  0.00     0.037 A 
BRANCH  62  76
ATOM     76  C   UNL A   1      40.634  33.348  32.884  1.00  0.00     0.064 A 
ATOM     77  C   UNL A   1      39.390  33.931  32.593  1.00  0.00     0.173 A 
ATOM     78  C   UNL A   1      40.707  32.478  33.983  1.00  0.00     0.173 A 
ATOM     79  F   UNL A   1      39.267  34.781  31.562  1.00  0.00    -0.203 F 
ATOM     80  C   UNL A   1      38.278  33.688  33.395  1.00  0.00     0.198 A 
ATOM     81  C   UNL A   1      39.584  32.209  34.760  1.00  0.00     0.198 A 
ATOM     82  F   UNL A   1      41.867  31.888  34.305  1.00  0.00    -0.203 F 
ATOM     83  F   UNL A   1      37.119  34.310  33.139  1.00  0.00    -0.200 F 
ATOM     84  C   UNL A   1      38.375  32.823  34.475  1.00  0.00     0.200 A 
ATOM     85  F   UNL A   1      39.675  31.361  35.794  1.00  0.00    -0.200 F 
ATOM     86  F   UNL A   1      37.304  32.590  35.247  1.00  0.00    -0.200 F 
ENDBRANCH  62  76
BRANCH  63  87
ATOM     87  C   UNL A   1      48.596  34.865  27.048  1.00  0.00     0.064 A 
ATOM     88  C   UNL A   1      48.498  35.624  25.873  1.00  0.00     0.173 A 
ATOM     89  C   UNL A   1      49.851  34.331  27.375  1.00  0.00     0.173 A 
ATOM     90  F   UNL A   1      47.314  36.133  25.502  1.00  0.00    -0.203 F 
ATOM     91  C   UNL A   1      49.605  35.828  25.052  1.00  0.00     0.198 A 
ATOM     92  C   UNL A   1      50.965  34.560  26.569  1.00  0.00     0.198 A 
ATOM     93  F   UNL A   1      49.999  33.592  28.484  1.00  0.00    -0.203 F 
ATOM     94  F   UNL A   1      49.473  36.519  23.912  1.00  0.00    -0.200 F 
ATOM     95  C   UNL A   1      50.840  35.302  25.405  1.00  0.00     0.200 A 
ATOM     96  F   UNL A   1      52.157  34.061  26.920  1.00  0.00    -0.200 F 
ATOM     97  F   UNL A   1      51.906  35.505  24.619  1.00  0.00    -0.200 F 
ENDBRANCH  63  87
BRANCH  75  98
ATOM     98  C   UNL A   1      45.788  38.381  32.383  1.00  0.00     0.064 A 
ATOM     99  C   UNL A   1      45.249  39.629  32.034  1.00  0.00     0.173 A 
ATOM    100  C   UNL A   1      46.690  38.336  33.459  1.00  0.00     0.173 A 
ATOM    101  F   UNL A   1      44.393  39.731  31.006  1.00  0.00    -0.203 F 
ATOM    102  C   UNL A   1      45.620  40.785  32.717  1.00  0.00     0.198 A 
ATOM    103  C   UNL A   1      47.030  39.489  34.162  1.00  0.00     0.198 A 
ATOM    104  F   UNL A   1      47.229  37.169  33.842  1.00  0.00    -0.203 F 
ATOM    105  F   UNL A   1      45.133  41.974  32.330  1.00  0.00    -0.200 F 
ATOM    106  C   UNL A   1      46.502  40.714  33.784  1.00  0.00     0.200 A 
ATOM    107  F   UNL A   1      47.868  39.413  35.204  1.00  0.00    -0.200 F 
ATOM    108  F   UNL A   1      46.849  41.827  34.445  1.00  0.00    -0.200 F 
ENDBRANCH  75  98
ENDBRANCH  49  50
ENDBRANCH  42  44
ENDBRANCH  41  42
ENDBRANCH  40  41
ENDBRANCH  39  40
ENDBRANCH  38  39
ENDBRANCH  37  38
ENDBRANCH  36  37
ENDBRANCH  35  36
ENDBRANCH  34  35
ENDBRANCH  33  34
ENDBRANCH  32  33
ENDBRANCH   1  32
TORSDOF 29
ENDMDL
MODEL 2
REMARK VINA RESULT:      -8.4      7.305     10.896
REMARK SMILES CCCCCCNC(=O)Oc1cccc(-c2ccc([C@@H](C)C(=O)OCCOCCOCCOCCOC(=O)c3ccc(-c4c5nc(c(-c6c(F)c(F)c(F)c(F)c6F)c6ccc([nH]6)c(-c6c(F)c(F)c(F)c(F)c6F)c6nc(c(-c7c(F)c(F)c(F)c(F)c7F)c7ccc4[nH]7)C=C6)C=C5)cc3)cc2F)c1
REMARK SMILES IDX 26 1 25 2 24 3 22 4 23 5 20 6 21 7 19 8 16 9 17 10 103 11
REMARK SMILES IDX 18 12 102 13 104 14 15 15 11 16 12 17 105 18 13 19 14 20
REMARK SMILES IDX 10 21 8 22 7 23 9 25 6 26 5 27 4 28 3 29 2 30 1 31 27 32
REMARK SMILES IDX 28 33 29 34 30 35 31 36 32 37 33 38 34 39 35 40 36 41 37 42
REMARK SMILES IDX 38 43 39 44 40 45 101 46 41 47 100 48 42 49 43 50 44 51
REMARK SMILES IDX 94 52 45 53 99 54 93 55 95 56 46 57 98 58 92 59 91 60 47 62
REMARK SMILES IDX 79 63 59 64 78 65 60 66 63 67 77 68 96 69 61 70 62 71 76 73
REMARK SMILES IDX 97 74 64 75 48 76 49 77 57 78 50 79 51 80 55 81 58 82 52 83
REMARK SMILES IDX 53 84 56 85 54 86 80 87 81 88 89 89 82 90 83 91 87 92 90 93
REMARK SMILES IDX 84 94 85 95 88 96 86 97 65 98 66 99 74 100 67 101 68 102
REMARK SMILES IDX 72 103 75 104 69 105 70 106 73 107 71 108
REMARK H PARENT 7 24 95 61 63 72
REMARK Flexibility Score: inf
ROOT
ATOM      1  C   UNL A   1      44.529  27.424  26.131  1.00  0.00     0.202 C 
ENDROOT
BRANCH   1   2
ATOM      2  C   UNL A   1      44.518  28.793  26.839  1.00  0.00     0.261 C 
BRANCH   2   3
ATOM      3  O   UNL A   1      43.285  29.197  27.473  1.00  0.00    -0.463 OA
BRANCH   3   4
ATOM      4  C   UNL A   1      42.658  28.255  28.216  1.00  0.00     0.313 C 
ATOM      5  O   UNL A   1      43.221  27.610  29.099  1.00  0.00    -0.252 OA
BRANCH   4   6
ATOM      6  C   UNL A   1      41.190  27.996  27.879  1.00  0.00     0.126 C 
ATOM      7  C   UNL A   1      41.088  27.677  26.392  1.00  0.00     0.025 C 
BRANCH   6   8
ATOM      8  C   UNL A   1      40.084  28.958  28.319  1.00  0.00    -0.031 A 
ATOM      9  C   UNL A   1      37.906  30.685  29.067  1.00  0.00     0.018 A 
ATOM     10  C   UNL A   1      39.127  30.682  29.769  1.00  0.00     0.012 A 
ATOM     11  C   UNL A   1      37.806  29.806  27.985  1.00  0.00     0.131 A 
ATOM     12  C   UNL A   1      40.198  29.837  29.403  1.00  0.00     0.005 A 
ATOM     13  C   UNL A   1      38.867  28.974  27.605  1.00  0.00     0.044 A 
ATOM     14  F   UNL A   1      36.674  29.748  27.265  1.00  0.00    -0.206 F 
BRANCH   9  15
ATOM     15  C   UNL A   1      36.808  31.613  29.422  1.00  0.00    -0.012 A 
ATOM     16  C   UNL A   1      35.089  32.440  30.942  1.00  0.00     0.133 A 
ATOM     17  C   UNL A   1      34.654  33.364  29.995  1.00  0.00     0.047 A 
ATOM     18  C   UNL A   1      36.144  31.559  30.664  1.00  0.00     0.056 A 
ATOM     19  C   UNL A   1      35.297  33.428  28.763  1.00  0.00     0.004 A 
ATOM     20  C   UNL A   1      36.362  32.564  28.482  1.00  0.00     0.009 A 
BRANCH  16  21
ATOM     21  O   UNL A   1      34.335  32.353  32.127  1.00  0.00    -0.410 OA
BRANCH  21  22
ATOM     22  C   UNL A   1      34.209  33.502  32.893  1.00  0.00     0.412 C 
ATOM     23  N   UNL A   1      35.268  33.723  33.735  1.00  0.00    -0.321 N 
ATOM     24  H   UNL A   1      35.263  34.573  34.228  1.00  0.00     0.167 HD
ATOM     25  O   UNL A   1      33.258  34.276  32.876  1.00  0.00    -0.224 OA
BRANCH  23  26
ATOM     26  C   UNL A   1      36.396  32.843  33.978  1.00  0.00     0.119 C 
BRANCH  26  27
ATOM     27  C   UNL A   1      37.708  33.404  33.427  1.00  0.00     0.021 C 
BRANCH  27  28
ATOM     28  C   UNL A   1      37.557  34.576  32.448  1.00  0.00     0.002 C 
BRANCH  28  29
ATOM     29  C   UNL A   1      38.440  34.518  31.196  1.00  0.00    -0.000 C 
BRANCH  29  30
ATOM     30  C   UNL A   1      39.630  33.558  31.268  1.00  0.00    -0.003 C 
ATOM     31  C   UNL A   1      40.977  34.248  31.112  1.00  0.00     0.004 C 
ENDBRANCH  29  30
ENDBRANCH  28  29
ENDBRANCH  27  28
ENDBRANCH  26  27
ENDBRANCH  23  26
ENDBRANCH  21  22
ENDBRANCH  16  21
ENDBRANCH   9  15
ENDBRANCH   6   8
ENDBRANCH   4   6
ENDBRANCH   3   4
ENDBRANCH   2   3
ENDBRANCH   1   2
BRANCH   1  32
ATOM     32  O   UNL A   1      45.664  26.984  25.401  1.00  0.00    -0.376 OA
BRANCH  32  33
ATOM     33  C   UNL A   1      46.316  25.766  25.737  1.00  0.00     0.188 C 
BRANCH  33  34
ATOM     34  C   UNL A   1      47.168  25.014  24.705  1.00  0.00     0.188 C 
BRANCH  34  35
ATOM     35  O   UNL A   1      46.523  23.933  24.061  1.00  0.00    -0.377 OA
BRANCH  35  36
ATOM     36  C   UNL A   1      45.138  23.778  24.320  1.00  0.00     0.188 C 
BRANCH  36  37
ATOM     37  C   UNL A   1      44.489  22.443  23.909  1.00  0.00     0.188 C 
BRANCH  37  38
ATOM     38  O   UNL A   1      43.533  21.949  24.839  1.00  0.00    -0.376 OA
BRANCH  38  39
ATOM     39  C   UNL A   1      42.494  22.816  25.276  1.00  0.00     0.202 C 
BRANCH  39  40
ATOM     40  C   UNL A   1      42.631  23.470  26.661  1.00  0.00     0.261 C 
BRANCH  40  41
ATOM     41  O   UNL A   1      43.252  22.676  27.678  1.00  0.00    -0.460 OA
BRANCH  41  42
ATOM     42  C   UNL A   1      44.537  22.942  27.995  1.00  0.00     0.338 C 
ATOM     43  O   UNL A   1      45.510  22.834  27.282  1.00  0.00    -0.246 OA
BRANCH  42  44
ATOM     44  C   UNL A   1      44.537  23.621  29.313  1.00  0.00     0.060 A 
ATOM     45  C   UNL A   1      45.413  24.696  29.513  1.00  0.00     0.016 A 
ATOM     46  C   UNL A   1      43.692  23.200  30.342  1.00  0.00     0.016 A 
ATOM     47  C   UNL A   1      45.489  25.316  30.760  1.00  0.00     0.010 A 
ATOM     48  C   UNL A   1      43.784  23.807  31.600  1.00  0.00     0.010 A 
ATOM     49  C   UNL A   1      44.715  24.838  31.826  1.00  0.00    -0.014 A 
BRANCH  49  50
ATOM     50  C   UNL A   1      45.046  25.264  33.209  1.00  0.00     0.031 A 
ATOM     51  C   UNL A   1      44.543  26.603  33.682  1.00  0.00     0.074 A 
ATOM     52  C   UNL A   1      45.731  24.470  34.050  1.00  0.00     0.049 A 
ATOM     53  N   UNL A   1      44.703  27.196  34.838  1.00  0.00    -0.248 NA
ATOM     54  C   UNL A   1      43.750  27.375  32.713  1.00  0.00     0.031 C 
ATOM     55  C   UNL A   1      46.226  23.133  33.734  1.00  0.00     0.029 A 
ATOM     56  N   UNL A   1      46.126  24.679  35.348  1.00  0.00    -0.354 N 
ATOM     57  C   UNL A   1      44.036  28.410  34.731  1.00  0.00     0.074 A 
ATOM     58  C   UNL A   1      43.506  28.487  33.388  1.00  0.00     0.031 C 
ATOM     59  C   UNL A   1      46.863  22.640  34.810  1.00  0.00     0.029 A 
ATOM     60  C   UNL A   1      46.848  23.639  35.878  1.00  0.00     0.049 A 
ATOM     61  H   UNL A   1      45.910  25.497  35.852  1.00  0.00     0.167 HD
ATOM     62  C   UNL A   1      43.868  29.371  35.672  1.00  0.00     0.037 A 
ATOM     63  C   UNL A   1      47.443  23.520  37.082  1.00  0.00     0.037 A 
ATOM     64  C   UNL A   1      44.406  29.297  37.005  1.00  0.00     0.049 A 
ATOM     65  C   UNL A   1      47.326  24.644  38.083  1.00  0.00     0.074 A 
ATOM     66  C   UNL A   1      44.287  30.212  38.036  1.00  0.00     0.029 A 
ATOM     67  N   UNL A   1      45.181  28.252  37.487  1.00  0.00    -0.354 N 
ATOM     68  N   UNL A   1      46.674  25.777  37.987  1.00  0.00    -0.248 NA
ATOM     69  C   UNL A   1      48.027  24.466  39.363  1.00  0.00     0.031 C 
ATOM     70  C   UNL A   1      45.044  29.752  39.118  1.00  0.00     0.029 A 
ATOM     71  C   UNL A   1      45.576  28.515  38.789  1.00  0.00     0.049 A 
ATOM     72  H   UNL A   1      45.417  27.442  36.978  1.00  0.00     0.167 HD
ATOM     73  C   UNL A   1      46.855  26.430  39.201  1.00  0.00     0.074 A 
ATOM     74  C   UNL A   1      47.670  25.559  40.022  1.00  0.00     0.031 C 
ATOM     75  C   UNL A   1      46.383  27.637  39.600  1.00  0.00     0.037 A 
BRANCH  62  76
ATOM     76  C   UNL A   1      43.103  30.600  35.271  1.00  0.00     0.064 A 
ATOM     77  C   UNL A   1      43.720  31.680  34.618  1.00  0.00     0.173 A 
ATOM     78  C   UNL A   1      41.730  30.701  35.544  1.00  0.00     0.173 A 
ATOM     79  F   UNL A   1      45.033  31.642  34.345  1.00  0.00    -0.203 F 
ATOM     80  C   UNL A   1      43.003  32.828  34.294  1.00  0.00     0.198 A 
ATOM     81  C   UNL A   1      41.008  31.836  35.184  1.00  0.00     0.198 A 
ATOM     82  F   UNL A   1      41.086  29.699  36.160  1.00  0.00    -0.203 F 
ATOM     83  F   UNL A   1      43.629  33.872  33.734  1.00  0.00    -0.200 F 
ATOM     84  C   UNL A   1      41.646  32.903  34.572  1.00  0.00     0.200 A 
ATOM     85  F   UNL A   1      39.694  31.900  35.440  1.00  0.00    -0.200 F 
ATOM     86  F   UNL A   1      40.956  34.009  34.259  1.00  0.00    -0.200 F 
ENDBRANCH  62  76
BRANCH  63  87
ATOM     87  C   UNL A   1      48.205  22.286  37.414  1.00  0.00     0.064 A 
ATOM     88  C   UNL A   1      47.561  21.159  37.942  1.00  0.00     0.173 A 
ATOM     89  C   UNL A   1      49.592  22.211  37.219  1.00  0.00     0.173 A 
ATOM     90  F   UNL A   1      46.240  21.189  38.173  1.00  0.00    -0.203 F 
ATOM     91  C   UNL A   1      48.276  20.010  38.275  1.00  0.00     0.198 A 
ATOM     92  C   UNL A   1      50.302  21.052  37.524  1.00  0.00     0.198 A 
ATOM     93  F   UNL A   1      50.259  23.264  36.722  1.00  0.00    -0.203 F 
ATOM     94  F   UNL A   1      47.641  18.963  38.821  1.00  0.00    -0.200 F 
ATOM     95  C   UNL A   1      49.645  19.955  38.059  1.00  0.00     0.200 A 
ATOM     96  F   UNL A   1      51.622  20.999  37.302  1.00  0.00    -0.200 F 
ATOM     97  F   UNL A   1      50.331  18.847  38.372  1.00  0.00    -0.200 F 
ENDBRANCH  63  87
BRANCH  75  98
ATOM     98  C   UNL A   1      46.695  28.077  41.005  1.00  0.00     0.064 A 
ATOM     99  C   UNL A   1      47.826  28.851  41.308  1.00  0.00     0.173 A 
ATOM    100  C   UNL A   1      45.822  27.755  42.057  1.00  0.00     0.173 A 
ATOM    101  F   UNL A   1      48.699  29.176  40.343  1.00  0.00    -0.203 F 
ATOM    102  C   UNL A   1      48.085  29.260  42.614  1.00  0.00     0.198 A 
ATOM    103  C   UNL A   1      46.066  28.197  43.355  1.00  0.00     0.198 A 
ATOM    104  F   UNL A   1      44.721  27.026  41.824  1.00  0.00    -0.203 F 
ATOM    105  F   UNL A   1      49.200  29.953  42.887  1.00  0.00    -0.200 F 
ATOM    106  C   UNL A   1      47.202  28.941  43.633  1.00  0.00     0.200 A 
ATOM    107  F   UNL A   1      45.200  27.903  44.334  1.00  0.00    -0.200 F 
ATOM    108  F   UNL A   1      47.448  29.345  44.888  1.00  0.00    -0.200 F 
ENDBRANCH  75  98
ENDBRANCH  49  50
ENDBRANCH  42  44
ENDBRANCH  41  42
ENDBRANCH  40  41
ENDBRANCH  39  40
ENDBRANCH  38  39
ENDBRANCH  37  38
ENDBRANCH  36  37
ENDBRANCH  35  36
ENDBRANCH  34  35
ENDBRANCH  33  34
ENDBRANCH  32  33
ENDBRANCH   1  32
TORSDOF 29
ENDMDL
MODEL 3
REMARK VINA RESULT:      -8.0      7.330     11.249
REMARK SMILES CCCCCCNC(=O)Oc1cccc(-c2ccc([C@@H](C)C(=O)OCCOCCOCCOCCOC(=O)c3ccc(-c4c5nc(c(-c6c(F)c(F)c(F)c(F)c6F)c6ccc([nH]6)c(-c6c(F)c(F)c(F)c(F)c6F)c6nc(c(-c7c(F)c(F)c(F)c(F)c7F)c7ccc4[nH]7)C=C6)C=C5)cc3)cc2F)c1
REMARK SMILES IDX 26 1 25 2 24 3 22 4 23 5 20 6 21 7 19 8 16 9 17 10 103 11
REMARK SMILES IDX 18 12 102 13 104 14 15 15 11 16 12 17 105 18 13 19 14 20
REMARK SMILES IDX 10 21 8 22 7 23 9 25 6 26 5 27 4 28 3 29 2 30 1 31 27 32
REMARK SMILES IDX 28 33 29 34 30 35 31 36 32 37 33 38 34 39 35 40 36 41 37 42
REMARK SMILES IDX 38 43 39 44 40 45 101 46 41 47 100 48 42 49 43 50 44 51
REMARK SMILES IDX 94 52 45 53 99 54 93 55 95 56 46 57 98 58 92 59 91 60 47 62
REMARK SMILES IDX 79 63 59 64 78 65 60 66 63 67 77 68 96 69 61 70 62 71 76 73
REMARK SMILES IDX 97 74 64 75 48 76 49 77 57 78 50 79 51 80 55 81 58 82 52 83
REMARK SMILES IDX 53 84 56 85 54 86 80 87 81 88 89 89 82 90 83 91 87 92 90 93
REMARK SMILES IDX 84 94 85 95 88 96 86 97 65 98 66 99 74 100 67 101 68 102
REMARK SMILES IDX 72 103 75 104 69 105 70 106 73 107 71 108
REMARK H PARENT 7 24 95 61 63 72
REMARK Flexibility Score: inf
ROOT
ATOM      1  C   UNL A   1      44.320  26.813  25.385  1.00  0.00     0.202 C 
ENDROOT
BRANCH   1   2
ATOM      2  C   UNL A   1      43.886  28.007  26.258  1.00  0.00     0.261 C 
BRANCH   2   3
ATOM      3  O   UNL A   1      42.715  27.828  27.084  1.00  0.00    -0.463 OA
BRANCH   3   4
ATOM      4  C   UNL A   1      42.924  27.812  28.421  1.00  0.00     0.313 C 
ATOM      5  O   UNL A   1      43.994  28.128  28.940  1.00  0.00    -0.252 OA
BRANCH   4   6
ATOM      6  C   UNL A   1      41.752  27.338  29.281  1.00  0.00     0.126 C 
ATOM      7  C   UNL A   1      41.153  26.096  28.633  1.00  0.00     0.025 C 
BRANCH   6   8
ATOM      8  C   UNL A   1      40.661  28.303  29.751  1.00  0.00    -0.031 A 
ATOM      9  C   UNL A   1      38.578  30.022  30.749  1.00  0.00     0.018 A 
ATOM     10  C   UNL A   1      39.552  30.483  29.841  1.00  0.00     0.012 A 
ATOM     11  C   UNL A   1      38.673  28.683  31.139  1.00  0.00     0.131 A 
ATOM     12  C   UNL A   1      40.574  29.641  29.349  1.00  0.00     0.005 A 
ATOM     13  C   UNL A   1      39.675  27.836  30.646  1.00  0.00     0.044 A 
ATOM     14  F   UNL A   1      37.784  28.167  32.002  1.00  0.00    -0.206 F 
BRANCH   9  15
ATOM     15  C   UNL A   1      37.478  30.895  31.217  1.00  0.00    -0.012 A 
ATOM     16  C   UNL A   1      36.379  32.256  32.917  1.00  0.00     0.133 A 
ATOM     17  C   UNL A   1      35.292  32.483  32.074  1.00  0.00     0.047 A 
ATOM     18  C   UNL A   1      37.458  31.460  32.508  1.00  0.00     0.056 A 
ATOM     19  C   UNL A   1      35.296  31.930  30.798  1.00  0.00     0.004 A 
ATOM     20  C   UNL A   1      36.377  31.148  30.375  1.00  0.00     0.009 A 
BRANCH  16  21
ATOM     21  O   UNL A   1      36.271  32.754  34.228  1.00  0.00    -0.410 OA
BRANCH  21  22
ATOM     22  C   UNL A   1      36.856  33.982  34.498  1.00  0.00     0.412 C 
ATOM     23  N   UNL A   1      37.326  34.099  35.780  1.00  0.00    -0.321 N 
ATOM     24  H   UNL A   1      37.830  34.918  35.987  1.00  0.00     0.167 HD
ATOM     25  O   UNL A   1      36.959  34.917  33.712  1.00  0.00    -0.224 OA
BRANCH  23  26
ATOM     26  C   UNL A   1      37.163  33.151  36.867  1.00  0.00     0.119 C 
BRANCH  26  27
ATOM     27  C   UNL A   1      38.406  33.055  37.753  1.00  0.00     0.021 C 
BRANCH  27  28
ATOM     28  C   UNL A   1      39.245  34.336  37.843  1.00  0.00     0.002 C 
BRANCH  28  29
ATOM     29  C   UNL A   1      40.765  34.138  37.879  1.00  0.00    -0.000 C 
BRANCH  29  30
ATOM     30  C   UNL A   1      41.394  34.092  39.275  1.00  0.00    -0.003 C 
ATOM     31  C   UNL A   1      41.836  32.698  39.695  1.00  0.00     0.004 C 
ENDBRANCH  29  30
ENDBRANCH  28  29
ENDBRANCH  27  28
ENDBRANCH  26  27
ENDBRANCH  23  26
ENDBRANCH  21  22
ENDBRANCH  16  21
ENDBRANCH   9  15
ENDBRANCH   6   8
ENDBRANCH   4   6
ENDBRANCH   3   4
ENDBRANCH   2   3
ENDBRANCH   1   2
BRANCH   1  32
ATOM     32  O   UNL A   1      45.643  26.715  24.879  1.00  0.00    -0.376 OA
BRANCH  32  33
ATOM     33  C   UNL A   1      46.547  25.748  25.395  1.00  0.00     0.188 C 
BRANCH  33  34
ATOM     34  C   UNL A   1      47.411  24.893  24.457  1.00  0.00     0.188 C 
BRANCH  34  35
ATOM     35  O   UNL A   1      46.779  23.744  23.932  1.00  0.00    -0.377 OA
BRANCH  35  36
ATOM     36  C   UNL A   1      45.406  23.578  24.247  1.00  0.00     0.188 C 
BRANCH  36  37
ATOM     37  C   UNL A   1      44.744  22.249  23.837  1.00  0.00     0.188 C 
BRANCH  37  38
ATOM     38  O   UNL A   1      43.790  21.761  24.772  1.00  0.00    -0.376 OA
BRANCH  38  39
ATOM     39  C   UNL A   1      42.679  22.584  25.107  1.00  0.00     0.202 C 
BRANCH  39  40
ATOM     40  C   UNL A   1      42.769  23.436  26.384  1.00  0.00     0.261 C 
BRANCH  40  41
ATOM     41  O   UNL A   1      43.294  22.784  27.546  1.00  0.00    -0.460 OA
BRANCH  41  42
ATOM     42  C   UNL A   1      44.568  23.048  27.901  1.00  0.00     0.338 C 
ATOM     43  O   UNL A   1      45.561  22.952  27.212  1.00  0.00    -0.246 OA
BRANCH  42  44
ATOM     44  C   UNL A   1      44.531  23.709  29.227  1.00  0.00     0.060 A 
ATOM     45  C   UNL A   1      45.346  24.830  29.440  1.00  0.00     0.016 A 
ATOM     46  C   UNL A   1      43.713  23.229  30.251  1.00  0.00     0.016 A 
ATOM     47  C   UNL A   1      45.387  25.437  30.695  1.00  0.00     0.010 A 
ATOM     48  C   UNL A   1      43.771  23.824  31.516  1.00  0.00     0.010 A 
ATOM     49  C   UNL A   1      44.642  24.903  31.755  1.00  0.00    -0.014 A 
BRANCH  49  50
ATOM     50  C   UNL A   1      44.950  25.330  33.143  1.00  0.00     0.031 A 
ATOM     51  C   UNL A   1      44.461  26.679  33.598  1.00  0.00     0.074 A 
ATOM     52  C   UNL A   1      45.601  24.527  34.003  1.00  0.00     0.049 A 
ATOM     53  N   UNL A   1      44.606  27.275  34.755  1.00  0.00    -0.248 NA
ATOM     54  C   UNL A   1      43.704  27.461  32.608  1.00  0.00     0.031 C 
ATOM     55  C   UNL A   1      46.079  23.181  33.704  1.00  0.00     0.029 A 
ATOM     56  N   UNL A   1      45.971  24.736  35.309  1.00  0.00    -0.354 N 
ATOM     57  C   UNL A   1      43.963  28.501  34.628  1.00  0.00     0.074 A 
ATOM     58  C   UNL A   1      43.465  28.580  33.273  1.00  0.00     0.031 C 
ATOM     59  C   UNL A   1      46.683  22.682  34.796  1.00  0.00     0.029 A 
ATOM     60  C   UNL A   1      46.662  23.686  35.859  1.00  0.00     0.049 A 
ATOM     61  H   UNL A   1      45.758  25.560  35.804  1.00  0.00     0.167 HD
ATOM     62  C   UNL A   1      43.791  29.468  35.561  1.00  0.00     0.037 A 
ATOM     63  C   UNL A   1      47.228  23.562  37.077  1.00  0.00     0.037 A 
ATOM     64  C   UNL A   1      44.298  29.392  36.906  1.00  0.00     0.049 A 
ATOM     65  C   UNL A   1      47.108  24.692  38.069  1.00  0.00     0.074 A 
ATOM     66  C   UNL A   1      44.172  30.314  37.930  1.00  0.00     0.029 A 
ATOM     67  N   UNL A   1      45.043  28.335  37.410  1.00  0.00    -0.354 N 
ATOM     68  N   UNL A   1      46.479  25.836  37.954  1.00  0.00    -0.248 NA
ATOM     69  C   UNL A   1      47.777  24.508  39.366  1.00  0.00     0.031 C 
ATOM     70  C   UNL A   1      44.896  29.845  39.031  1.00  0.00     0.029 A 
ATOM     71  C   UNL A   1      45.413  28.597  38.720  1.00  0.00     0.049 A 
ATOM     72  H   UNL A   1      45.275  27.519  36.910  1.00  0.00     0.167 HD
ATOM     73  C   UNL A   1      46.644  26.491  39.169  1.00  0.00     0.074 A 
ATOM     74  C   UNL A   1      47.426  25.610  40.012  1.00  0.00     0.031 C 
ATOM     75  C   UNL A   1      46.186  27.709  39.552  1.00  0.00     0.037 A 
BRANCH  62  76
ATOM     76  C   UNL A   1      43.058  30.710  35.137  1.00  0.00     0.064 A 
ATOM     77  C   UNL A   1      43.729  31.833  34.630  1.00  0.00     0.173 A 
ATOM     78  C   UNL A   1      41.659  30.777  35.241  1.00  0.00     0.173 A 
ATOM     79  F   UNL A   1      45.067  31.828  34.522  1.00  0.00    -0.203 F 
ATOM     80  C   UNL A   1      43.035  32.989  34.283  1.00  0.00     0.198 A 
ATOM     81  C   UNL A   1      40.965  31.921  34.858  1.00  0.00     0.198 A 
ATOM     82  F   UNL A   1      40.964  29.732  35.714  1.00  0.00    -0.203 F 
ATOM     83  F   UNL A   1      43.705  34.072  33.866  1.00  0.00    -0.200 F 
ATOM     84  C   UNL A   1      41.653  33.030  34.393  1.00  0.00     0.200 A 
ATOM     85  F   UNL A   1      39.628  31.954  34.951  1.00  0.00    -0.200 F 
ATOM     86  F   UNL A   1      40.986  34.144  34.059  1.00  0.00    -0.200 F 
ENDBRANCH  62  76
BRANCH  63  87
ATOM     87  C   UNL A   1      47.960  22.315  37.431  1.00  0.00     0.064 A 
ATOM     88  C   UNL A   1      49.346  22.216  37.251  1.00  0.00     0.173 A 
ATOM     89  C   UNL A   1      47.288  21.197  37.947  1.00  0.00     0.173 A 
ATOM     90  F   UNL A   1      50.030  23.247  36.735  1.00  0.00    -0.203 F 
ATOM     91  C   UNL A   1      50.030  21.042  37.561  1.00  0.00     0.198 A 
ATOM     92  C   UNL A   1      47.977  20.035  38.285  1.00  0.00     0.198 A 
ATOM     93  F   UNL A   1      45.960  21.237  38.133  1.00  0.00    -0.203 F 
ATOM     94  F   UNL A   1      51.349  20.958  37.337  1.00  0.00    -0.200 F 
ATOM     95  C   UNL A   1      49.346  19.955  38.085  1.00  0.00     0.200 A 
ATOM     96  F   UNL A   1      47.314  18.991  38.801  1.00  0.00    -0.200 F 
ATOM     97  F   UNL A   1      50.006  18.829  38.390  1.00  0.00    -0.200 F 
ENDBRANCH  63  87
BRANCH  75  98
ATOM     98  C   UNL A   1      46.474  28.150  40.962  1.00  0.00     0.064 A 
ATOM     99  C   UNL A   1      47.556  28.989  41.272  1.00  0.00     0.173 A 
ATOM    100  C   UNL A   1      45.626  27.761  42.011  1.00  0.00     0.173 A 
ATOM    101  F   UNL A   1      48.404  29.380  40.309  1.00  0.00    -0.203 F 
ATOM    102  C   UNL A   1      47.792  29.397  42.582  1.00  0.00     0.198 A 
ATOM    103  C   UNL A   1      45.846  28.201  43.314  1.00  0.00     0.198 A 
ATOM    104  F   UNL A   1      44.571  26.968  41.772  1.00  0.00    -0.203 F 
ATOM    105  F   UNL A   1      48.863  30.154  42.862  1.00  0.00    -0.200 F 
ATOM    106  C   UNL A   1      46.934  29.011  43.600  1.00  0.00     0.200 A 
ATOM    107  F   UNL A   1      45.003  27.842  44.292  1.00  0.00    -0.200 F 
ATOM    108  F   UNL A   1      47.159  29.414  44.859  1.00  0.00    -0.200 F 
ENDBRANCH  75  98
ENDBRANCH  49  50
ENDBRANCH  42  44
ENDBRANCH  41  42
ENDBRANCH  40  41
ENDBRANCH  39  40
ENDBRANCH  38  39
ENDBRANCH  37  38
ENDBRANCH  36  37
ENDBRANCH  35  36
ENDBRANCH  34  35
ENDBRANCH  33  34
ENDBRANCH  32  33
ENDBRANCH   1  32
TORSDOF 29
ENDMDL
