MODEL 1
REMARK VINA RESULT:      -9.9      0.000      0.000
REMARK SMILES COc1nc(Cl)nc(N(CC(=O)OCCOCCOCCOCCOC(=O)c2ccc(-c3c4nc(c(-c5c(F)c(F)c(F)c(F)c5F)c5ccc([nH]5)c(-c5c(F)c(F)c(F)c(F)c5F)c5nc(c(-c6c(F)c(F)c(F)c(F)c6F)c6ccc3[nH]6)C=C5)C=C4)cc2)C(C)(C)C)n1
REMARK SMILES IDX 18 1 17 2 16 3 15 4 14 5 13 6 11 7 12 8 10 9 9 10 8 11 3 12
REMARK SMILES IDX 4 13 95 14 5 15 6 16 7 17 2 18 1 19 91 20 92 21 93 22 94 23
REMARK SMILES IDX 19 24 20 25 21 26 22 27 23 28 24 29 25 30 26 31 27 32 28 33
REMARK SMILES IDX 29 34 90 35 30 36 89 37 31 38 32 39 33 40 83 41 34 42 88 43
REMARK SMILES IDX 82 44 84 45 35 46 87 47 81 48 80 49 36 51 68 52 48 53 67 54
REMARK SMILES IDX 49 55 52 56 66 57 85 58 50 59 51 60 65 62 86 63 53 64 37 65
REMARK SMILES IDX 38 66 46 67 39 68 40 69 44 70 47 71 41 72 42 73 45 74 43 75
REMARK SMILES IDX 69 76 70 77 78 78 71 79 72 80 76 81 79 82 73 83 74 84 77 85
REMARK SMILES IDX 75 86 54 87 55 88 63 89 56 90 57 91 61 92 64 93 58 94 59 95
REMARK SMILES IDX 62 96 60 97
REMARK H PARENT 84 50 52 61
REMARK Flexibility Score: inf
ROOT
ATOM      1  C   UNL A   1      33.305  34.589  27.950  1.00  0.00     0.188 C 
ENDROOT
BRANCH   1   2
ATOM      2  C   UNL A   1      34.312  33.564  28.502  1.00  0.00     0.188 C 
BRANCH   2   3
ATOM      3  O   UNL A   1      34.861  32.579  27.635  1.00  0.00    -0.376 OA
BRANCH   3   4
ATOM      4  C   UNL A   1      34.538  31.217  27.863  1.00  0.00     0.202 C 
BRANCH   4   5
ATOM      5  C   UNL A   1      33.235  30.651  27.253  1.00  0.00     0.261 C 
BRANCH   5   6
ATOM      6  O   UNL A   1      32.824  29.309  27.638  1.00  0.00    -0.462 OA
BRANCH   6   7
ATOM      7  C   UNL A   1      32.862  28.347  26.679  1.00  0.00     0.325 C 
ATOM      8  O   UNL A   1      33.923  27.891  26.247  1.00  0.00    -0.250 OA
BRANCH   7   9
ATOM      9  C   UNL A   1      31.522  27.750  26.181  1.00  0.00     0.242 C 
BRANCH   9  10
ATOM     10  N   UNL A   1      31.470  26.689  25.135  1.00  0.00    -0.325 N 
BRANCH  10  11
ATOM     11  C   UNL A   1      31.563  25.372  25.608  1.00  0.00     0.233 A 
ATOM     12  C   UNL A   1      32.549  23.326  25.478  1.00  0.00     0.322 A 
ATOM     13  N   UNL A   1      31.617  22.709  26.171  1.00  0.00    -0.164 NA
ATOM     14  N   UNL A   1      32.584  24.623  25.206  1.00  0.00    -0.158 NA
ATOM     15  C   UNL A   1      30.698  23.561  26.597  1.00  0.00     0.230 A 
ATOM     16  Cl  UNL A   1      29.433  22.877  27.523  1.00  0.00    -0.041 Cl
ATOM     17  N   UNL A   1      30.597  24.868  26.360  1.00  0.00    -0.182 NA
BRANCH  12  18
ATOM     18  O   UNL A   1      33.628  22.605  25.018  1.00  0.00    -0.467 OA
ATOM     19  C   UNL A   1      33.289  21.886  23.838  1.00  0.00     0.282 C 
ENDBRANCH  12  18
ENDBRANCH  10  11
BRANCH  10  20
ATOM     20  C   UNL A   1      30.822  26.895  23.786  1.00  0.00     0.035 C 
ATOM     21  C   UNL A   1      30.293  28.352  23.667  1.00  0.00     0.034 C 
ATOM     22  C   UNL A   1      31.789  26.626  22.604  1.00  0.00     0.034 C 
ATOM     23  C   UNL A   1      29.652  25.917  23.522  1.00  0.00     0.034 C 
ENDBRANCH  10  20
ENDBRANCH   9  10
ENDBRANCH   7   9
ENDBRANCH   6   7
ENDBRANCH   5   6
ENDBRANCH   4   5
ENDBRANCH   3   4
ENDBRANCH   2   3
ENDBRANCH   1   2
BRANCH   1  24
ATOM     24  O   UNL A   1      32.966  35.606  28.870  1.00  0.00    -0.377 OA
BRANCH  24  25
ATOM     25  C   UNL A   1      32.882  35.205  30.220  1.00  0.00     0.188 C 
BRANCH  25  26
ATOM     26  C   UNL A   1      33.323  36.271  31.235  1.00  0.00     0.188 C 
BRANCH  26  27
ATOM     27  O   UNL A   1      34.336  35.794  32.109  1.00  0.00    -0.376 OA
BRANCH  27  28
ATOM     28  C   UNL A   1      34.774  34.451  32.048  1.00  0.00     0.202 C 
BRANCH  28  29
ATOM     29  C   UNL A   1      34.991  33.596  33.312  1.00  0.00     0.261 C 
BRANCH  29  30
ATOM     30  O   UNL A   1      35.527  32.281  33.138  1.00  0.00    -0.460 OA
BRANCH  30  31
ATOM     31  C   UNL A   1      36.738  32.047  33.683  1.00  0.00     0.338 C 
ATOM     32  O   UNL A   1      37.047  32.183  34.859  1.00  0.00    -0.246 OA
BRANCH  31  33
ATOM     33  C   UNL A   1      37.599  31.387  32.680  1.00  0.00     0.060 A 
ATOM     34  C   UNL A   1      38.717  30.687  33.150  1.00  0.00     0.016 A 
ATOM     35  C   UNL A   1      37.334  31.454  31.309  1.00  0.00     0.016 A 
ATOM     36  C   UNL A   1      39.586  30.073  32.254  1.00  0.00     0.010 A 
ATOM     37  C   UNL A   1      38.231  30.867  30.405  1.00  0.00     0.010 A 
ATOM     38  C   UNL A   1      39.377  30.201  30.875  1.00  0.00    -0.014 A 
BRANCH  38  39
ATOM     39  C   UNL A   1      40.475  29.792  29.966  1.00  0.00     0.031 A 
ATOM     40  C   UNL A   1      41.565  30.783  29.665  1.00  0.00     0.074 A 
ATOM     41  C   UNL A   1      40.561  28.532  29.508  1.00  0.00     0.049 A 
ATOM     42  N   UNL A   1      42.670  30.626  28.981  1.00  0.00    -0.248 NA
ATOM     43  C   UNL A   1      41.386  32.135  30.217  1.00  0.00     0.031 C 
ATOM     44  C   UNL A   1      39.593  27.471  29.773  1.00  0.00     0.029 A 
ATOM     45  N   UNL A   1      41.521  27.929  28.734  1.00  0.00    -0.354 N 
ATOM     46  C   UNL A   1      43.320  31.852  29.030  1.00  0.00     0.074 A 
ATOM     47  C   UNL A   1      42.470  32.755  29.777  1.00  0.00     0.031 C 
ATOM     48  C   UNL A   1      40.008  26.343  29.170  1.00  0.00     0.029 A 
ATOM     49  C   UNL A   1      41.258  26.609  28.461  1.00  0.00     0.049 A 
ATOM     50  H   UNL A   1      42.322  28.399  28.406  1.00  0.00     0.167 HD
ATOM     51  C   UNL A   1      44.524  32.190  28.510  1.00  0.00     0.037 A 
ATOM     52  C   UNL A   1      41.945  25.725  27.711  1.00  0.00     0.037 A 
ATOM     53  C   UNL A   1      45.361  31.293  27.758  1.00  0.00     0.049 A 
ATOM     54  C   UNL A   1      43.244  26.152  27.074  1.00  0.00     0.074 A 
ATOM     55  C   UNL A   1      46.604  31.534  27.199  1.00  0.00     0.029 A 
ATOM     56  N   UNL A   1      45.031  29.982  27.444  1.00  0.00    -0.354 N 
ATOM     57  N   UNL A   1      43.872  27.300  27.155  1.00  0.00    -0.248 NA
ATOM     58  C   UNL A   1      43.935  25.151  26.249  1.00  0.00     0.031 C 
ATOM     59  C   UNL A   1      46.995  30.393  26.490  1.00  0.00     0.029 A 
ATOM     60  C   UNL A   1      46.030  29.414  26.667  1.00  0.00     0.049 A 
ATOM     61  H   UNL A   1      44.209  29.522  27.732  1.00  0.00     0.167 HD
ATOM     62  C   UNL A   1      45.038  27.154  26.414  1.00  0.00     0.074 A 
ATOM     63  C   UNL A   1      45.043  25.795  25.913  1.00  0.00     0.031 C 
ATOM     64  C   UNL A   1      46.016  28.062  26.167  1.00  0.00     0.037 A 
BRANCH  51  65
ATOM     65  C   UNL A   1      44.988  33.606  28.706  1.00  0.00     0.064 A 
ATOM     66  C   UNL A   1      44.681  34.623  27.788  1.00  0.00     0.173 A 
ATOM     67  C   UNL A   1      45.734  33.956  29.842  1.00  0.00     0.173 A 
ATOM     68  F   UNL A   1      43.985  34.340  26.676  1.00  0.00    -0.203 F 
ATOM     69  C   UNL A   1      45.128  35.927  27.985  1.00  0.00     0.198 A 
ATOM     70  C   UNL A   1      46.150  35.267  30.054  1.00  0.00     0.198 A 
ATOM     71  F   UNL A   1      46.055  33.024  30.752  1.00  0.00    -0.203 F 
ATOM     72  F   UNL A   1      44.868  36.869  27.068  1.00  0.00    -0.200 F 
ATOM     73  C   UNL A   1      45.855  36.250  29.121  1.00  0.00     0.200 A 
ATOM     74  F   UNL A   1      46.842  35.578  31.158  1.00  0.00    -0.200 F 
ATOM     75  F   UNL A   1      46.279  37.507  29.313  1.00  0.00    -0.200 F 
ENDBRANCH  51  65
BRANCH  52  76
ATOM     76  C   UNL A   1      41.416  24.349  27.512  1.00  0.00     0.064 A 
ATOM     77  C   UNL A   1      42.040  23.235  28.091  1.00  0.00     0.173 A 
ATOM     78  C   UNL A   1      40.285  24.119  26.713  1.00  0.00     0.173 A 
ATOM     79  F   UNL A   1      43.141  23.399  28.840  1.00  0.00    -0.203 F 
ATOM     80  C   UNL A   1      41.567  21.944  27.861  1.00  0.00     0.198 A 
ATOM     81  C   UNL A   1      39.794  22.831  26.512  1.00  0.00     0.198 A 
ATOM     82  F   UNL A   1      39.654  25.149  26.130  1.00  0.00    -0.203 F 
ATOM     83  F   UNL A   1      42.215  20.893  28.382  1.00  0.00    -0.200 F 
ATOM     84  C   UNL A   1      40.440  21.744  27.078  1.00  0.00     0.200 A 
ATOM     85  F   UNL A   1      38.699  22.644  25.763  1.00  0.00    -0.200 F 
ATOM     86  F   UNL A   1      39.985  20.503  26.861  1.00  0.00    -0.200 F 
ENDBRANCH  52  76
BRANCH  64  87
ATOM     87  C   UNL A   1      47.185  27.605  25.336  1.00  0.00     0.064 A 
ATOM     88  C   UNL A   1      48.280  26.938  25.905  1.00  0.00     0.173 A 
ATOM     89  C   UNL A   1      47.202  27.824  23.949  1.00  0.00     0.173 A 
ATOM     90  F   UNL A   1      48.322  26.714  27.227  1.00  0.00    -0.203 F 
ATOM     91  C   UNL A   1      49.366  26.547  25.126  1.00  0.00     0.198 A 
ATOM     92  C   UNL A   1      48.272  27.396  23.167  1.00  0.00     0.198 A 
ATOM     93  F   UNL A   1      46.176  28.446  23.350  1.00  0.00    -0.203 F 
ATOM     94  F   UNL A   1      50.431  25.973  25.704  1.00  0.00    -0.200 F 
ATOM     95  C   UNL A   1      49.358  26.771  23.757  1.00  0.00     0.200 A 
ATOM     96  F   UNL A   1      48.253  27.596  21.842  1.00  0.00    -0.200 F 
ATOM     97  F   UNL A   1      50.403  26.392  23.009  1.00  0.00    -0.200 F 
ENDBRANCH  64  87
ENDBRANCH  38  39
ENDBRANCH  31  33
ENDBRANCH  30  31
ENDBRANCH  29  30
ENDBRANCH  28  29
ENDBRANCH  27  28
ENDBRANCH  26  27
ENDBRANCH  25  26
ENDBRANCH  24  25
ENDBRANCH   1  24
TORSDOF 24
ENDMDL
MODEL 2
REMARK VINA RESULT:      -9.0      4.162      5.230
REMARK SMILES COc1nc(Cl)nc(N(CC(=O)OCCOCCOCCOCCOC(=O)c2ccc(-c3c4nc(c(-c5c(F)c(F)c(F)c(F)c5F)c5ccc([nH]5)c(-c5c(F)c(F)c(F)c(F)c5F)c5nc(c(-c6c(F)c(F)c(F)c(F)c6F)c6ccc3[nH]6)C=C5)C=C4)cc2)C(C)(C)C)n1
REMARK SMILES IDX 18 1 17 2 16 3 15 4 14 5 13 6 11 7 12 8 10 9 9 10 8 11 3 12
REMARK SMILES IDX 4 13 95 14 5 15 6 16 7 17 2 18 1 19 91 20 92 21 93 22 94 23
REMARK SMILES IDX 19 24 20 25 21 26 22 27 23 28 24 29 25 30 26 31 27 32 28 33
REMARK SMILES IDX 29 34 90 35 30 36 89 37 31 38 32 39 33 40 83 41 34 42 88 43
REMARK SMILES IDX 82 44 84 45 35 46 87 47 81 48 80 49 36 51 68 52 48 53 67 54
REMARK SMILES IDX 49 55 52 56 66 57 85 58 50 59 51 60 65 62 86 63 53 64 37 65
REMARK SMILES IDX 38 66 46 67 39 68 40 69 44 70 47 71 41 72 42 73 45 74 43 75
REMARK SMILES IDX 69 76 70 77 78 78 71 79 72 80 76 81 79 82 73 83 74 84 77 85
REMARK SMILES IDX 75 86 54 87 55 88 63 89 56 90 57 91 61 92 64 93 58 94 59 95
REMARK SMILES IDX 62 96 60 97
REMARK H PARENT 84 50 52 61
REMARK Flexibility Score: inf
ROOT
ATOM      1  C   UNL A   1      32.995  36.028  28.977  1.00  0.00     0.188 C 
ENDROOT
BRANCH   1   2
ATOM      2  C   UNL A   1      33.864  34.765  29.119  1.00  0.00     0.188 C 
BRANCH   2   3
ATOM      3  O   UNL A   1      33.342  33.503  28.722  1.00  0.00    -0.376 OA
BRANCH   3   4
ATOM      4  C   UNL A   1      34.112  32.695  27.847  1.00  0.00     0.202 C 
BRANCH   4   5
ATOM      5  C   UNL A   1      33.889  31.165  27.861  1.00  0.00     0.261 C 
BRANCH   5   6
ATOM      6  O   UNL A   1      33.570  30.507  26.602  1.00  0.00    -0.462 OA
BRANCH   6   7
ATOM      7  C   UNL A   1      32.256  30.293  26.327  1.00  0.00     0.325 C 
ATOM      8  O   UNL A   1      31.460  31.219  26.162  1.00  0.00    -0.250 OA
BRANCH   7   9
ATOM      9  C   UNL A   1      31.774  28.834  26.132  1.00  0.00     0.242 C 
BRANCH   9  10
ATOM     10  N   UNL A   1      32.296  27.970  25.034  1.00  0.00    -0.325 N 
BRANCH  10  11
ATOM     11  C   UNL A   1      32.556  26.638  25.387  1.00  0.00     0.233 A 
ATOM     12  C   UNL A   1      31.919  24.768  26.515  1.00  0.00     0.322 A 
ATOM     13  N   UNL A   1      33.095  24.186  26.438  1.00  0.00    -0.164 NA
ATOM     14  N   UNL A   1      31.599  25.943  25.992  1.00  0.00    -0.158 NA
ATOM     15  C   UNL A   1      33.946  24.921  25.741  1.00  0.00     0.230 A 
ATOM     16  Cl  UNL A   1      35.514  24.262  25.562  1.00  0.00    -0.041 Cl
ATOM     17  N   UNL A   1      33.762  26.126  25.204  1.00  0.00    -0.182 NA
BRANCH  12  18
ATOM     18  O   UNL A   1      30.885  24.108  27.142  1.00  0.00    -0.467 OA
ATOM     19  C   UNL A   1      30.600  22.878  26.487  1.00  0.00     0.282 C 
ENDBRANCH  12  18
ENDBRANCH  10  11
BRANCH  10  20
ATOM     20  C   UNL A   1      32.054  28.264  23.572  1.00  0.00     0.035 C 
ATOM     21  C   UNL A   1      33.267  29.030  22.975  1.00  0.00     0.034 C 
ATOM     22  C   UNL A   1      31.820  26.983  22.729  1.00  0.00     0.034 C 
ATOM     23  C   UNL A   1      30.772  29.094  23.327  1.00  0.00     0.034 C 
ENDBRANCH  10  20
ENDBRANCH   9  10
ENDBRANCH   7   9
ENDBRANCH   6   7
ENDBRANCH   5   6
ENDBRANCH   4   5
ENDBRANCH   3   4
ENDBRANCH   2   3
ENDBRANCH   1   2
BRANCH   1  24
ATOM     24  O   UNL A   1      33.075  36.901  30.085  1.00  0.00    -0.377 OA
BRANCH  24  25
ATOM     25  C   UNL A   1      32.955  36.293  31.352  1.00  0.00     0.188 C 
BRANCH  25  26
ATOM     26  C   UNL A   1      33.607  37.074  32.504  1.00  0.00     0.188 C 
BRANCH  26  27
ATOM     27  O   UNL A   1      34.793  36.448  32.972  1.00  0.00    -0.376 OA
BRANCH  27  28
ATOM     28  C   UNL A   1      34.754  35.158  33.550  1.00  0.00     0.202 C 
BRANCH  28  29
ATOM     29  C   UNL A   1      35.891  34.134  33.360  1.00  0.00     0.261 C 
BRANCH  29  30
ATOM     30  O   UNL A   1      35.544  32.747  33.384  1.00  0.00    -0.460 OA
BRANCH  30  31
ATOM     31  C   UNL A   1      35.466  32.124  32.191  1.00  0.00     0.338 C 
ATOM     32  O   UNL A   1      34.555  32.214  31.379  1.00  0.00    -0.246 OA
BRANCH  31  33
ATOM     33  C   UNL A   1      36.758  31.470  31.903  1.00  0.00     0.060 A 
ATOM     34  C   UNL A   1      37.091  30.338  32.657  1.00  0.00     0.016 A 
ATOM     35  C   UNL A   1      37.636  31.949  30.925  1.00  0.00     0.016 A 
ATOM     36  C   UNL A   1      38.309  29.696  32.456  1.00  0.00     0.010 A 
ATOM     37  C   UNL A   1      38.880  31.324  30.751  1.00  0.00     0.010 A 
ATOM     38  C   UNL A   1      39.232  30.214  31.539  1.00  0.00    -0.014 A 
BRANCH  38  39
ATOM     39  C   UNL A   1      40.616  29.684  31.572  1.00  0.00     0.031 A 
ATOM     40  C   UNL A   1      41.558  30.200  32.624  1.00  0.00     0.074 A 
ATOM     41  C   UNL A   1      40.995  28.685  30.758  1.00  0.00     0.049 A 
ATOM     42  N   UNL A   1      42.778  29.822  32.911  1.00  0.00    -0.248 NA
ATOM     43  C   UNL A   1      41.051  31.289  33.475  1.00  0.00     0.031 C 
ATOM     44  C   UNL A   1      40.155  28.070  29.732  1.00  0.00     0.029 A 
ATOM     45  N   UNL A   1      42.183  28.001  30.677  1.00  0.00    -0.354 N 
ATOM     46  C   UNL A   1      43.178  30.616  33.978  1.00  0.00     0.074 A 
ATOM     47  C   UNL A   1      42.088  31.525  34.263  1.00  0.00     0.031 C 
ATOM     48  C   UNL A   1      40.856  27.096  29.124  1.00  0.00     0.029 A 
ATOM     49  C   UNL A   1      42.197  27.036  29.701  1.00  0.00     0.049 A 
ATOM     50  H   UNL A   1      42.951  28.187  31.265  1.00  0.00     0.167 HD
ATOM     51  C   UNL A   1      44.344  30.582  34.665  1.00  0.00     0.037 A 
ATOM     52  C   UNL A   1      43.188  26.209  29.314  1.00  0.00     0.037 A 
ATOM     53  C   UNL A   1      45.431  29.685  34.370  1.00  0.00     0.049 A 
ATOM     54  C   UNL A   1      44.507  26.248  30.044  1.00  0.00     0.074 A 
ATOM     55  C   UNL A   1      46.649  29.562  35.014  1.00  0.00     0.029 A 
ATOM     56  N   UNL A   1      45.435  28.765  33.331  1.00  0.00    -0.354 N 
ATOM     57  N   UNL A   1      44.866  26.975  31.075  1.00  0.00    -0.248 NA
ATOM     58  C   UNL A   1      45.557  25.340  29.559  1.00  0.00     0.031 C 
ATOM     59  C   UNL A   1      47.417  28.618  34.323  1.00  0.00     0.029 A 
ATOM     60  C   UNL A   1      46.650  28.098  33.292  1.00  0.00     0.049 A 
ATOM     61  H   UNL A   1      44.685  28.608  32.712  1.00  0.00     0.167 HD
ATOM     62  C   UNL A   1      46.170  26.598  31.376  1.00  0.00     0.074 A 
ATOM     63  C   UNL A   1      46.528  25.557  30.434  1.00  0.00     0.031 C 
ATOM     64  C   UNL A   1      46.997  27.071  32.342  1.00  0.00     0.037 A 
BRANCH  51  65
ATOM     65  C   UNL A   1      44.519  31.574  35.781  1.00  0.00     0.064 A 
ATOM     66  C   UNL A   1      44.161  31.274  37.104  1.00  0.00     0.173 A 
ATOM     67  C   UNL A   1      45.075  32.836  35.524  1.00  0.00     0.173 A 
ATOM     68  F   UNL A   1      43.610  30.087  37.402  1.00  0.00    -0.203 F 
ATOM     69  C   UNL A   1      44.325  32.211  38.122  1.00  0.00     0.198 A 
ATOM     70  C   UNL A   1      45.269  33.758  36.549  1.00  0.00     0.198 A 
ATOM     71  F   UNL A   1      45.437  33.175  34.278  1.00  0.00    -0.203 F 
ATOM     72  F   UNL A   1      43.925  31.922  39.368  1.00  0.00    -0.200 F 
ATOM     73  C   UNL A   1      44.886  33.449  37.845  1.00  0.00     0.200 A 
ATOM     74  F   UNL A   1      45.823  34.948  36.281  1.00  0.00    -0.200 F 
ATOM     75  F   UNL A   1      45.049  34.347  38.826  1.00  0.00    -0.200 F 
ENDBRANCH  51  65
BRANCH  52  76
ATOM     76  C   UNL A   1      42.977  25.279  28.173  1.00  0.00     0.064 A 
ATOM     77  C   UNL A   1      43.099  25.713  26.845  1.00  0.00     0.173 A 
ATOM     78  C   UNL A   1      42.620  23.939  28.389  1.00  0.00     0.173 A 
ATOM     79  F   UNL A   1      43.410  26.991  26.584  1.00  0.00    -0.203 F 
ATOM     80  C   UNL A   1      42.852  24.848  25.779  1.00  0.00     0.198 A 
ATOM     81  C   UNL A   1      42.407  23.068  27.323  1.00  0.00     0.198 A 
ATOM     82  F   UNL A   1      42.483  23.474  29.640  1.00  0.00    -0.203 F 
ATOM     83  F   UNL A   1      42.923  25.303  24.521  1.00  0.00    -0.200 F 
ATOM     84  C   UNL A   1      42.514  23.525  26.019  1.00  0.00     0.200 A 
ATOM     85  F   UNL A   1      42.091  21.787  27.560  1.00  0.00    -0.200 F 
ATOM     86  F   UNL A   1      42.281  22.694  24.994  1.00  0.00    -0.200 F 
ENDBRANCH  52  76
BRANCH  64  87
ATOM     87  C   UNL A   1      48.363  26.448  32.443  1.00  0.00     0.064 A 
ATOM     88  C   UNL A   1      48.591  25.284  33.194  1.00  0.00     0.173 A 
ATOM     89  C   UNL A   1      49.456  27.014  31.767  1.00  0.00     0.173 A 
ATOM     90  F   UNL A   1      47.586  24.708  33.870  1.00  0.00    -0.203 F 
ATOM     91  C   UNL A   1      49.868  24.738  33.299  1.00  0.00     0.198 A 
ATOM     92  C   UNL A   1      50.723  26.441  31.843  1.00  0.00     0.198 A 
ATOM     93  F   UNL A   1      49.294  28.119  31.025  1.00  0.00    -0.203 F 
ATOM     94  F   UNL A   1      50.073  23.665  34.077  1.00  0.00    -0.200 F 
ATOM     95  C   UNL A   1      50.931  25.312  32.618  1.00  0.00     0.200 A 
ATOM     96  F   UNL A   1      51.745  26.987  31.168  1.00  0.00    -0.200 F 
ATOM     97  F   UNL A   1      52.157  24.783  32.720  1.00  0.00    -0.200 F 
ENDBRANCH  64  87
ENDBRANCH  38  39
ENDBRANCH  31  33
ENDBRANCH  30  31
ENDBRANCH  29  30
ENDBRANCH  28  29
ENDBRANCH  27  28
ENDBRANCH  26  27
ENDBRANCH  25  26
ENDBRANCH  24  25
ENDBRANCH   1  24
TORSDOF 24
ENDMDL
MODEL 3
REMARK VINA RESULT:      -8.7      4.963      9.238
REMARK SMILES COc1nc(Cl)nc(N(CC(=O)OCCOCCOCCOCCOC(=O)c2ccc(-c3c4nc(c(-c5c(F)c(F)c(F)c(F)c5F)c5ccc([nH]5)c(-c5c(F)c(F)c(F)c(F)c5F)c5nc(c(-c6c(F)c(F)c(F)c(F)c6F)c6ccc3[nH]6)C=C5)C=C4)cc2)C(C)(C)C)n1
REMARK SMILES IDX 18 1 17 2 16 3 15 4 14 5 13 6 11 7 12 8 10 9 9 10 8 11 3 12
REMARK SMILES IDX 4 13 95 14 5 15 6 16 7 17 2 18 1 19 91 20 92 21 93 22 94 23
REMARK SMILES IDX 19 24 20 25 21 26 22 27 23 28 24 29 25 30 26 31 27 32 28 33
REMARK SMILES IDX 29 34 90 35 30 36 89 37 31 38 32 39 33 40 83 41 34 42 88 43
REMARK SMILES IDX 82 44 84 45 35 46 87 47 81 48 80 49 36 51 68 52 48 53 67 54
REMARK SMILES IDX 49 55 52 56 66 57 85 58 50 59 51 60 65 62 86 63 53 64 37 65
REMARK SMILES IDX 38 66 46 67 39 68 40 69 44 70 47 71 41 72 42 73 45 74 43 75
REMARK SMILES IDX 69 76 70 77 78 78 71 79 72 80 76 81 79 82 73 83 74 84 77 85
REMARK SMILES IDX 75 86 54 87 55 88 63 89 56 90 57 91 61 92 64 93 58 94 59 95
REMARK SMILES IDX 62 96 60 97
REMARK H PARENT 84 50 52 61
REMARK Flexibility Score: inf
ROOT
ATOM      1  C   UNL A   1      37.804  29.684  27.773  1.00  0.00     0.188 C 
ENDROOT
BRANCH   1   2
ATOM      2  C   UNL A   1      37.043  30.789  28.526  1.00  0.00     0.188 C 
BRANCH   2   3
ATOM      3  O   UNL A   1      35.621  30.765  28.565  1.00  0.00    -0.376 OA
BRANCH   3   4
ATOM      4  C   UNL A   1      34.914  31.959  28.276  1.00  0.00     0.202 C 
BRANCH   4   5
ATOM      5  C   UNL A   1      35.634  33.314  28.468  1.00  0.00     0.261 C 
BRANCH   5   6
ATOM      6  O   UNL A   1      35.685  33.880  29.809  1.00  0.00    -0.462 OA
BRANCH   6   7
ATOM      7  C   UNL A   1      34.585  33.726  30.592  1.00  0.00     0.325 C 
ATOM      8  O   UNL A   1      33.543  34.354  30.392  1.00  0.00    -0.250 OA
BRANCH   7   9
ATOM      9  C   UNL A   1      34.624  32.660  31.715  1.00  0.00     0.242 C 
BRANCH   9  10
ATOM     10  N   UNL A   1      35.788  32.529  32.638  1.00  0.00    -0.325 N 
BRANCH  10  11
ATOM     11  C   UNL A   1      36.775  31.617  32.237  1.00  0.00     0.233 A 
ATOM     12  C   UNL A   1      37.678  29.535  32.398  1.00  0.00     0.322 A 
ATOM     13  N   UNL A   1      38.817  29.863  31.829  1.00  0.00    -0.164 NA
ATOM     14  N   UNL A   1      36.644  30.343  32.589  1.00  0.00    -0.158 NA
ATOM     15  C   UNL A   1      38.807  31.128  31.437  1.00  0.00     0.230 A 
ATOM     16  Cl  UNL A   1      40.235  31.672  30.671  1.00  0.00    -0.041 Cl
ATOM     17  N   UNL A   1      37.857  32.046  31.606  1.00  0.00    -0.182 NA
BRANCH  12  18
ATOM     18  O   UNL A   1      37.482  28.233  32.801  1.00  0.00    -0.467 OA
ATOM     19  C   UNL A   1      38.612  27.430  32.480  1.00  0.00     0.282 C 
ENDBRANCH  12  18
ENDBRANCH  10  11
BRANCH  10  20
ATOM     20  C   UNL A   1      36.202  33.619  33.599  1.00  0.00     0.035 C 
ATOM     21  C   UNL A   1      34.948  34.373  34.121  1.00  0.00     0.034 C 
ATOM     22  C   UNL A   1      36.996  33.081  34.817  1.00  0.00     0.034 C 
ATOM     23  C   UNL A   1      37.172  34.645  32.965  1.00  0.00     0.034 C 
ENDBRANCH  10  20
ENDBRANCH   9  10
ENDBRANCH   7   9
ENDBRANCH   6   7
ENDBRANCH   5   6
ENDBRANCH   4   5
ENDBRANCH   3   4
ENDBRANCH   2   3
ENDBRANCH   1   2
BRANCH   1  24
ATOM     24  O   UNL A   1      38.558  28.836  28.615  1.00  0.00    -0.377 OA
BRANCH  24  25
ATOM     25  C   UNL A   1      39.536  28.050  27.973  1.00  0.00     0.188 C 
BRANCH  25  26
ATOM     26  C   UNL A   1      40.418  27.221  28.921  1.00  0.00     0.188 C 
BRANCH  26  27
ATOM     27  O   UNL A   1      40.264  25.824  28.713  1.00  0.00    -0.376 OA
BRANCH  27  28
ATOM     28  C   UNL A   1      39.458  25.331  27.660  1.00  0.00     0.202 C 
BRANCH  28  29
ATOM     29  C   UNL A   1      39.899  24.156  26.766  1.00  0.00     0.261 C 
BRANCH  29  30
ATOM     30  O   UNL A   1      41.066  23.428  27.156  1.00  0.00    -0.460 OA
BRANCH  30  31
ATOM     31  C   UNL A   1      42.081  23.397  26.269  1.00  0.00     0.338 C 
ATOM     32  O   UNL A   1      42.231  22.592  25.359  1.00  0.00    -0.246 OA
BRANCH  31  33
ATOM     33  C   UNL A   1      42.893  24.621  26.420  1.00  0.00     0.060 A 
ATOM     34  C   UNL A   1      43.122  25.391  25.273  1.00  0.00     0.016 A 
ATOM     35  C   UNL A   1      43.432  25.012  27.651  1.00  0.00     0.016 A 
ATOM     36  C   UNL A   1      43.907  26.537  25.344  1.00  0.00     0.010 A 
ATOM     37  C   UNL A   1      44.254  26.147  27.713  1.00  0.00     0.010 A 
ATOM     38  C   UNL A   1      44.519  26.895  26.551  1.00  0.00    -0.014 A 
BRANCH  38  39
ATOM     39  C   UNL A   1      45.573  27.937  26.514  1.00  0.00     0.031 A 
ATOM     40  C   UNL A   1      45.187  29.360  26.810  1.00  0.00     0.074 A 
ATOM     41  C   UNL A   1      46.863  27.611  26.333  1.00  0.00     0.049 A 
ATOM     42  N   UNL A   1      45.942  30.422  26.930  1.00  0.00    -0.248 NA
ATOM     43  C   UNL A   1      43.751  29.618  27.003  1.00  0.00     0.031 C 
ATOM     44  C   UNL A   1      47.365  26.261  26.087  1.00  0.00     0.029 A 
ATOM     45  N   UNL A   1      47.991  28.394  26.343  1.00  0.00    -0.354 N 
ATOM     46  C   UNL A   1      45.077  31.468  27.223  1.00  0.00     0.074 A 
ATOM     47  C   UNL A   1      43.736  30.923  27.223  1.00  0.00     0.031 C 
ATOM     48  C   UNL A   1      48.703  26.309  25.969  1.00  0.00     0.029 A 
ATOM     49  C   UNL A   1      49.148  27.694  26.110  1.00  0.00     0.049 A 
ATOM     50  H   UNL A   1      47.970  29.366  26.503  1.00  0.00     0.167 HD
ATOM     51  C   UNL A   1      45.375  32.764  27.480  1.00  0.00     0.037 A 
ATOM     52  C   UNL A   1      50.420  28.129  26.009  1.00  0.00     0.037 A 
ATOM     53  C   UNL A   1      46.709  33.304  27.467  1.00  0.00     0.049 A 
ATOM     54  C   UNL A   1      50.716  29.593  26.219  1.00  0.00     0.074 A 
ATOM     55  C   UNL A   1      47.120  34.600  27.727  1.00  0.00     0.029 A 
ATOM     56  N   UNL A   1      47.852  32.579  27.161  1.00  0.00    -0.354 N 
ATOM     57  N   UNL A   1      49.899  30.570  26.532  1.00  0.00    -0.248 NA
ATOM     58  C   UNL A   1      52.117  30.011  26.073  1.00  0.00     0.031 C 
ATOM     59  C   UNL A   1      48.500  34.674  27.511  1.00  0.00     0.029 A 
ATOM     60  C   UNL A   1      48.963  33.408  27.189  1.00  0.00     0.049 A 
ATOM     61  H   UNL A   1      47.872  31.615  26.956  1.00  0.00     0.167 HD
ATOM     62  C   UNL A   1      50.686  31.710  26.642  1.00  0.00     0.074 A 
ATOM     63  C   UNL A   1      52.052  31.297  26.389  1.00  0.00     0.031 C 
ATOM     64  C   UNL A   1      50.315  32.985  26.924  1.00  0.00     0.037 A 
BRANCH  51  65
ATOM     65  C   UNL A   1      44.229  33.695  27.760  1.00  0.00     0.064 A 
ATOM     66  C   UNL A   1      43.595  33.739  29.011  1.00  0.00     0.173 A 
ATOM     67  C   UNL A   1      43.774  34.575  26.766  1.00  0.00     0.173 A 
ATOM     68  F   UNL A   1      43.980  32.908  29.992  1.00  0.00    -0.203 F 
ATOM     69  C   UNL A   1      42.529  34.605  29.246  1.00  0.00     0.198 A 
ATOM     70  C   UNL A   1      42.732  35.463  27.014  1.00  0.00     0.198 A 
ATOM     71  F   UNL A   1      44.345  34.576  25.552  1.00  0.00    -0.203 F 
ATOM     72  F   UNL A   1      41.905  34.590  30.431  1.00  0.00    -0.200 F 
ATOM     73  C   UNL A   1      42.104  35.471  28.250  1.00  0.00     0.200 A 
ATOM     74  F   UNL A   1      42.331  36.308  26.054  1.00  0.00    -0.200 F 
ATOM     75  F   UNL A   1      41.084  36.309  28.480  1.00  0.00    -0.200 F 
ENDBRANCH  51  65
BRANCH  52  76
ATOM     76  C   UNL A   1      51.511  27.172  25.685  1.00  0.00     0.064 A 
ATOM     77  C   UNL A   1      52.246  26.532  26.693  1.00  0.00     0.173 A 
ATOM     78  C   UNL A   1      51.858  26.897  24.353  1.00  0.00     0.173 A 
ATOM     79  F   UNL A   1      51.972  26.782  27.981  1.00  0.00    -0.203 F 
ATOM     80  C   UNL A   1      53.298  25.672  26.382  1.00  0.00     0.198 A 
ATOM     81  C   UNL A   1      52.888  26.012  24.043  1.00  0.00     0.198 A 
ATOM     82  F   UNL A   1      51.191  27.487  23.349  1.00  0.00    -0.203 F 
ATOM     83  F   UNL A   1      54.019  25.116  27.365  1.00  0.00    -0.200 F 
ATOM     84  C   UNL A   1      53.613  25.407  25.057  1.00  0.00     0.200 A 
ATOM     85  F   UNL A   1      53.181  25.750  22.762  1.00  0.00    -0.200 F 
ATOM     86  F   UNL A   1      54.622  24.577  24.760  1.00  0.00    -0.200 F 
ENDBRANCH  52  76
BRANCH  64  87
ATOM     87  C   UNL A   1      51.406  34.019  26.997  1.00  0.00     0.064 A 
ATOM     88  C   UNL A   1      52.105  34.273  28.187  1.00  0.00     0.173 A 
ATOM     89  C   UNL A   1      51.768  34.754  25.857  1.00  0.00     0.173 A 
ATOM     90  F   UNL A   1      51.792  33.608  29.309  1.00  0.00    -0.203 F 
ATOM     91  C   UNL A   1      53.092  35.254  28.243  1.00  0.00     0.198 A 
ATOM     92  C   UNL A   1      52.783  35.705  25.907  1.00  0.00     0.198 A 
ATOM     93  F   UNL A   1      51.141  34.544  24.689  1.00  0.00    -0.203 F 
ATOM     94  F   UNL A   1      53.698  35.526  29.408  1.00  0.00    -0.200 F 
ATOM     95  C   UNL A   1      53.435  35.964  27.102  1.00  0.00     0.200 A 
ATOM     96  F   UNL A   1      53.126  36.377  24.799  1.00  0.00    -0.200 F 
ATOM     97  F   UNL A   1      54.386  36.906  27.158  1.00  0.00    -0.200 F 
ENDBRANCH  64  87
ENDBRANCH  38  39
ENDBRANCH  31  33
ENDBRANCH  30  31
ENDBRANCH  29  30
ENDBRANCH  28  29
ENDBRANCH  27  28
ENDBRANCH  26  27
ENDBRANCH  25  26
ENDBRANCH  24  25
ENDBRANCH   1  24
TORSDOF 24
ENDMDL
