MODEL 1
REMARK VINA RESULT:     -10.8      0.000      0.000
REMARK SMILES Cc1ccc(NC(=O)[C@H]2CC=CC[C@H]2C(=O)OCCOCCOCCOCCOC(=O)c2ccc(-c3c4nc(c(-c5c(F)c(F)c(F)c(F)c5F)c5ccc([nH]5)c(-c5c(F)c(F)c(F)c(F)c5F)c5nc(c(-c6c(F)c(F)c(F)c(F)c6F)c6ccc3[nH]6)C=C5)C=C4)cc2)cc1F
REMARK SMILES IDX 23 1 22 2 21 3 20 4 19 5 18 6 17 7 15 8 16 9 14 10 9 11
REMARK SMILES IDX 10 12 11 13 13 14 12 15 7 16 6 17 8 19 5 20 1 21 2 22 3 23
REMARK SMILES IDX 96 24 4 25 95 26 97 27 24 28 25 29 26 30 27 31 28 32 29 33
REMARK SMILES IDX 30 34 31 35 32 36 33 37 94 38 34 39 93 40 35 41 36 42 37 43
REMARK SMILES IDX 87 44 38 45 92 46 86 47 88 48 39 49 91 50 85 51 84 52 40 54
REMARK SMILES IDX 72 55 52 56 71 57 53 58 56 59 70 60 89 61 54 62 55 63 69 65
REMARK SMILES IDX 90 66 57 67 41 68 42 69 50 70 43 71 44 72 48 73 51 74 45 75
REMARK SMILES IDX 46 76 49 77 47 78 73 79 74 80 82 81 75 82 76 83 80 84 83 85
REMARK SMILES IDX 77 86 78 87 81 88 79 89 58 90 59 91 67 92 60 93 61 94 65 95
REMARK SMILES IDX 68 96 62 97 63 98 66 99 64 100
REMARK H PARENT 6 18 88 53 56 64
REMARK Flexibility Score: inf
ROOT
ATOM      1  O   UNL A   1      32.995  37.098  30.314  1.00  0.00    -0.377 OA
ENDROOT
BRANCH   1   2
ATOM      2  C   UNL A   1      32.909  36.084  29.153  1.00  0.00     0.188 C 
BRANCH   2   3
ATOM      3  C   UNL A   1      34.473  34.853  28.260  1.00  0.00     0.188 C 
BRANCH   3   4
ATOM      4  O   UNL A   1      34.448  33.386  27.564  1.00  0.00    -0.376 OA
BRANCH   4   5
ATOM      5  C   UNL A   1      33.458  32.332  27.682  1.00  0.00     0.202 C 
BRANCH   5   6
ATOM      6  C   UNL A   1      33.710  30.874  27.272  1.00  0.00     0.261 C 
BRANCH   6   7
ATOM      7  O   UNL A   1      32.802  30.351  26.286  1.00  0.00    -0.463 OA
BRANCH   7   8
ATOM      8  C   UNL A   1      33.162  29.178  25.719  1.00  0.00     0.310 C 
ATOM      9  O   UNL A   1      34.258  28.653  25.885  1.00  0.00    -0.252 OA
BRANCH   8  10
ATOM     10  C   UNL A   1      32.119  28.583  24.772  1.00  0.00     0.116 C 
ATOM     11  C   UNL A   1      31.504  27.175  24.987  1.00  0.00     0.097 C 
ATOM     12  C   UNL A   1      30.357  26.844  24.008  1.00  0.00     0.041 C 
ATOM     13  C   UNL A   1      29.708  28.010  23.334  1.00  0.00    -0.030 C 
ATOM     14  C   UNL A   1      31.050  29.661  24.613  1.00  0.00     0.043 C 
ATOM     15  C   UNL A   1      30.009  29.283  23.612  1.00  0.00    -0.030 C 
BRANCH  11  16
ATOM     16  C   UNL A   1      31.367  26.783  26.437  1.00  0.00     0.228 C 
ATOM     17  N   UNL A   1      31.937  25.590  26.835  1.00  0.00    -0.326 N 
ATOM     18  H   UNL A   1      31.950  25.453  27.810  1.00  0.00     0.169 HD
ATOM     19  O   UNL A   1      30.781  27.488  27.258  1.00  0.00    -0.274 OA
BRANCH  17  20
ATOM     20  C   UNL A   1      32.514  24.517  26.082  1.00  0.00     0.044 A 
ATOM     21  C   UNL A   1      35.157  20.359  24.862  1.00  0.00     0.047 C 
ATOM     22  C   UNL A   1      34.369  21.635  24.902  1.00  0.00    -0.015 A 
ATOM     23  C   UNL A   1      35.214  23.205  25.062  1.00  0.00     0.008 A 
ATOM     24  C   UNL A   1      32.635  21.517  25.221  1.00  0.00     0.128 A 
ATOM     25  C   UNL A   1      34.316  24.636  25.677  1.00  0.00     0.026 A 
ATOM     26  C   UNL A   1      31.708  22.909  25.848  1.00  0.00     0.065 A 
ATOM     27  F   UNL A   1      32.058  20.308  25.275  1.00  0.00    -0.207 F 
ENDBRANCH  17  20
ENDBRANCH  11  16
ENDBRANCH   8  10
ENDBRANCH   7   8
ENDBRANCH   6   7
ENDBRANCH   5   6
ENDBRANCH   4   5
ENDBRANCH   3   4
ENDBRANCH   2   3
ENDBRANCH   1   2
BRANCH   1  28
ATOM     28  C   UNL A   1      33.093  36.640  31.654  1.00  0.00     0.188 C 
BRANCH  28  29
ATOM     29  C   UNL A   1      33.458  35.172  31.864  1.00  0.00     0.188 C 
BRANCH  29  30
ATOM     30  O   UNL A   1      33.595  34.775  33.205  1.00  0.00    -0.376 OA
BRANCH  30  31
ATOM     31  C   UNL A   1      34.524  33.779  33.598  1.00  0.00     0.202 C 
BRANCH  31  32
ATOM     32  C   UNL A   1      35.835  34.026  34.376  1.00  0.00     0.261 C 
BRANCH  32  33
ATOM     33  O   UNL A   1      36.393  32.968  35.143  1.00  0.00    -0.460 OA
BRANCH  33  34
ATOM     34  C   UNL A   1      37.388  32.290  34.562  1.00  0.00     0.338 C 
ATOM     35  O   UNL A   1      37.318  31.554  33.591  1.00  0.00    -0.246 OA
BRANCH  34  36
ATOM     36  C   UNL A   1      38.656  32.711  35.272  1.00  0.00     0.060 A 
ATOM     37  C   UNL A   1      39.497  33.496  34.440  1.00  0.00     0.016 A 
ATOM     38  C   UNL A   1      39.130  31.598  35.921  1.00  0.00     0.016 A 
ATOM     39  C   UNL A   1      40.376  32.836  33.653  1.00  0.00     0.010 A 
ATOM     40  C   UNL A   1      39.973  30.888  35.139  1.00  0.00     0.010 A 
ATOM     41  C   UNL A   1      40.459  31.499  33.954  1.00  0.00    -0.014 A 
BRANCH  41  42
ATOM     42  C   UNL A   1      41.154  30.608  33.094  1.00  0.00     0.031 A 
ATOM     43  C   UNL A   1      42.597  30.762  33.312  1.00  0.00     0.074 A 
ATOM     44  C   UNL A   1      40.282  29.693  32.619  1.00  0.00     0.049 A 
ATOM     45  N   UNL A   1      43.530  30.423  32.505  1.00  0.00    -0.248 NA
ATOM     46  C   UNL A   1      43.143  31.544  34.453  1.00  0.00     0.031 C 
ATOM     47  C   UNL A   1      40.411  28.278  32.333  1.00  0.00     0.029 A 
ATOM     48  N   UNL A   1      38.995  30.004  32.146  1.00  0.00    -0.354 N 
ATOM     49  C   UNL A   1      44.635  30.312  33.328  1.00  0.00     0.074 A 
ATOM     50  C   UNL A   1      44.447  31.301  34.347  1.00  0.00     0.031 C 
ATOM     51  C   UNL A   1      39.410  27.902  31.507  1.00  0.00     0.029 A 
ATOM     52  C   UNL A   1      38.678  29.103  31.121  1.00  0.00     0.049 A 
ATOM     53  H   UNL A   1      38.417  30.730  32.476  1.00  0.00     0.167 HD
ATOM     54  C   UNL A   1      45.315  29.131  33.294  1.00  0.00     0.037 A 
ATOM     55  C   UNL A   1      38.632  29.589  29.842  1.00  0.00     0.037 A 
ATOM     56  C   UNL A   1      44.688  28.260  32.287  1.00  0.00     0.049 A 
ATOM     57  C   UNL A   1      39.874  29.198  29.074  1.00  0.00     0.074 A 
ATOM     58  C   UNL A   1      43.810  27.192  32.393  1.00  0.00     0.029 A 
ATOM     59  N   UNL A   1      44.566  28.727  30.981  1.00  0.00    -0.354 N 
ATOM     60  N   UNL A   1      41.045  29.005  29.618  1.00  0.00    -0.248 NA
ATOM     61  C   UNL A   1      39.867  28.984  27.634  1.00  0.00     0.031 C 
ATOM     62  C   UNL A   1      43.143  27.051  31.142  1.00  0.00     0.029 A 
ATOM     63  C   UNL A   1      43.583  28.048  30.288  1.00  0.00     0.049 A 
ATOM     64  H   UNL A   1      45.112  29.452  30.599  1.00  0.00     0.167 HD
ATOM     65  C   UNL A   1      41.938  28.644  28.647  1.00  0.00     0.074 A 
ATOM     66  C   UNL A   1      41.142  28.620  27.431  1.00  0.00     0.031 C 
ATOM     67  C   UNL A   1      43.262  28.417  28.912  1.00  0.00     0.037 A 
BRANCH  54  68
ATOM     68  C   UNL A   1      46.283  28.621  34.342  1.00  0.00     0.064 A 
ATOM     69  C   UNL A   1      45.776  28.039  35.525  1.00  0.00     0.173 A 
ATOM     70  C   UNL A   1      47.694  28.651  34.270  1.00  0.00     0.173 A 
ATOM     71  F   UNL A   1      44.459  27.883  35.717  1.00  0.00    -0.203 F 
ATOM     72  C   UNL A   1      46.597  27.573  36.553  1.00  0.00     0.198 A 
ATOM     73  C   UNL A   1      48.516  28.197  35.307  1.00  0.00     0.198 A 
ATOM     74  F   UNL A   1      48.347  29.074  33.187  1.00  0.00    -0.203 F 
ATOM     75  F   UNL A   1      46.044  27.031  37.647  1.00  0.00    -0.200 F 
ATOM     76  C   UNL A   1      47.968  27.658  36.449  1.00  0.00     0.200 A 
ATOM     77  F   UNL A   1      49.849  28.275  35.179  1.00  0.00    -0.200 F 
ATOM     78  F   UNL A   1      48.756  27.201  37.430  1.00  0.00    -0.200 F 
ENDBRANCH  54  68
BRANCH  55  79
ATOM     79  C   UNL A   1      38.047  30.965  29.783  1.00  0.00     0.064 A 
ATOM     80  C   UNL A   1      36.653  31.110  29.918  1.00  0.00     0.173 A 
ATOM     81  C   UNL A   1      38.841  32.102  29.994  1.00  0.00     0.173 A 
ATOM     82  F   UNL A   1      35.842  30.060  29.705  1.00  0.00    -0.203 F 
ATOM     83  C   UNL A   1      36.092  32.301  30.373  1.00  0.00     0.198 A 
ATOM     84  C   UNL A   1      38.277  33.285  30.467  1.00  0.00     0.198 A 
ATOM     85  F   UNL A   1      40.170  32.049  29.835  1.00  0.00    -0.203 F 
ATOM     86  F   UNL A   1      34.770  32.385  30.576  1.00  0.00    -0.200 F 
ATOM     87  C   UNL A   1      36.910  33.377  30.674  1.00  0.00     0.200 A 
ATOM     88  F   UNL A   1      39.064  34.319  30.796  1.00  0.00    -0.200 F 
ATOM     89  F   UNL A   1      36.391  34.502  31.186  1.00  0.00    -0.200 F 
ENDBRANCH  55  79
BRANCH  67  90
ATOM     90  C   UNL A   1      44.360  28.430  27.868  1.00  0.00     0.064 A 
ATOM     91  C   UNL A   1      44.987  29.597  27.402  1.00  0.00     0.173 A 
ATOM     92  C   UNL A   1      44.910  27.224  27.367  1.00  0.00     0.173 A 
ATOM     93  F   UNL A   1      44.749  30.796  27.946  1.00  0.00    -0.203 F 
ATOM     94  C   UNL A   1      45.950  29.572  26.394  1.00  0.00     0.198 A 
ATOM     95  C   UNL A   1      45.955  27.198  26.448  1.00  0.00     0.198 A 
ATOM     96  F   UNL A   1      44.480  26.017  27.761  1.00  0.00    -0.203 F 
ATOM     97  F   UNL A   1      46.419  30.726  25.902  1.00  0.00    -0.200 F 
ATOM     98  C   UNL A   1      46.440  28.372  25.922  1.00  0.00     0.200 A 
ATOM     99  F   UNL A   1      46.488  26.023  26.086  1.00  0.00    -0.200 F 
ATOM    100  F   UNL A   1      47.393  28.349  24.984  1.00  0.00    -0.200 F 
ENDBRANCH  67  90
ENDBRANCH  41  42
ENDBRANCH  34  36
ENDBRANCH  33  34
ENDBRANCH  32  33
ENDBRANCH  31  32
ENDBRANCH  30  31
ENDBRANCH  29  30
ENDBRANCH  28  29
ENDBRANCH   1  28
TORSDOF 22
ENDMDL
MODEL 2
REMARK VINA RESULT:     -10.7      4.639     10.477
REMARK SMILES Cc1ccc(NC(=O)[C@H]2CC=CC[C@H]2C(=O)OCCOCCOCCOCCOC(=O)c2ccc(-c3c4nc(c(-c5c(F)c(F)c(F)c(F)c5F)c5ccc([nH]5)c(-c5c(F)c(F)c(F)c(F)c5F)c5nc(c(-c6c(F)c(F)c(F)c(F)c6F)c6ccc3[nH]6)C=C5)C=C4)cc2)cc1F
REMARK SMILES IDX 23 1 22 2 21 3 20 4 19 5 18 6 17 7 15 8 16 9 14 10 9 11
REMARK SMILES IDX 10 12 11 13 13 14 12 15 7 16 6 17 8 19 5 20 1 21 2 22 3 23
REMARK SMILES IDX 96 24 4 25 95 26 97 27 24 28 25 29 26 30 27 31 28 32 29 33
REMARK SMILES IDX 30 34 31 35 32 36 33 37 94 38 34 39 93 40 35 41 36 42 37 43
REMARK SMILES IDX 87 44 38 45 92 46 86 47 88 48 39 49 91 50 85 51 84 52 40 54
REMARK SMILES IDX 72 55 52 56 71 57 53 58 56 59 70 60 89 61 54 62 55 63 69 65
REMARK SMILES IDX 90 66 57 67 41 68 42 69 50 70 43 71 44 72 48 73 51 74 45 75
REMARK SMILES IDX 46 76 49 77 47 78 73 79 74 80 82 81 75 82 76 83 80 84 83 85
REMARK SMILES IDX 77 86 78 87 81 88 79 89 58 90 59 91 67 92 60 93 61 94 65 95
REMARK SMILES IDX 68 96 62 97 63 98 66 99 64 100
REMARK H PARENT 6 18 88 53 56 64
REMARK Flexibility Score: inf
ROOT
ATOM      1  O   UNL A   1      42.936  19.912  25.624  1.00  0.00    -0.377 OA
ENDROOT
BRANCH   1   2
ATOM      2  C   UNL A   1      41.601  19.697  26.369  1.00  0.00     0.188 C 
BRANCH   2   3
ATOM      3  C   UNL A   1      39.751  20.849  26.274  1.00  0.00     0.188 C 
BRANCH   3   4
ATOM      4  O   UNL A   1      39.456  22.433  26.069  1.00  0.00    -0.376 OA
BRANCH   4   5
ATOM      5  C   UNL A   1      38.184  23.124  25.970  1.00  0.00     0.202 C 
BRANCH   5   6
ATOM      6  C   UNL A   1      36.843  22.414  25.732  1.00  0.00     0.261 C 
BRANCH   6   7
ATOM      7  O   UNL A   1      35.711  23.287  25.569  1.00  0.00    -0.463 OA
BRANCH   7   8
ATOM      8  C   UNL A   1      34.561  22.872  26.146  1.00  0.00     0.310 C 
ATOM      9  O   UNL A   1      34.364  22.892  27.356  1.00  0.00    -0.252 OA
BRANCH   8  10
ATOM     10  C   UNL A   1      33.538  22.285  25.173  1.00  0.00     0.116 C 
ATOM     11  C   UNL A   1      33.169  22.976  23.834  1.00  0.00     0.097 C 
ATOM     12  C   UNL A   1      32.240  22.131  22.936  1.00  0.00     0.041 C 
ATOM     13  C   UNL A   1      32.196  20.665  23.227  1.00  0.00    -0.030 C 
ATOM     14  C   UNL A   1      33.952  20.828  24.975  1.00  0.00     0.043 C 
ATOM     15  C   UNL A   1      32.975  20.071  24.138  1.00  0.00    -0.030 C 
BRANCH  11  16
ATOM     16  C   UNL A   1      34.309  23.735  23.203  1.00  0.00     0.228 C 
ATOM     17  N   UNL A   1      34.417  25.082  23.485  1.00  0.00    -0.326 N 
ATOM     18  H   UNL A   1      35.254  25.495  23.173  1.00  0.00     0.169 HD
ATOM     19  O   UNL A   1      35.132  23.193  22.465  1.00  0.00    -0.274 OA
BRANCH  17  20
ATOM     20  C   UNL A   1      33.528  25.985  24.154  1.00  0.00     0.044 A 
ATOM     21  C   UNL A   1      31.545  30.220  26.128  1.00  0.00     0.047 C 
ATOM     22  C   UNL A   1      31.908  28.820  25.726  1.00  0.00    -0.015 A 
ATOM     23  C   UNL A   1      33.162  27.924  26.635  1.00  0.00     0.008 A 
ATOM     24  C   UNL A   1      31.398  28.270  24.126  1.00  0.00     0.128 A 
ATOM     25  C   UNL A   1      33.999  26.536  25.857  1.00  0.00     0.026 A 
ATOM     26  C   UNL A   1      32.213  26.905  23.309  1.00  0.00     0.065 A 
ATOM     27  F   UNL A   1      30.597  29.050  23.387  1.00  0.00    -0.207 F 
ENDBRANCH  17  20
ENDBRANCH  11  16
ENDBRANCH   8  10
ENDBRANCH   7   8
ENDBRANCH   6   7
ENDBRANCH   5   6
ENDBRANCH   4   5
ENDBRANCH   3   4
ENDBRANCH   2   3
ENDBRANCH   1   2
BRANCH   1  28
ATOM     28  C   UNL A   1      43.685  18.795  25.170  1.00  0.00     0.188 C 
BRANCH  28  29
ATOM     29  C   UNL A   1      45.205  18.935  25.154  1.00  0.00     0.188 C 
BRANCH  29  30
ATOM     30  O   UNL A   1      45.716  19.814  24.182  1.00  0.00    -0.376 OA
BRANCH  30  31
ATOM     31  C   UNL A   1      46.377  21.016  24.537  1.00  0.00     0.202 C 
BRANCH  31  32
ATOM     32  C   UNL A   1      45.937  21.993  25.649  1.00  0.00     0.261 C 
BRANCH  32  33
ATOM     33  O   UNL A   1      44.667  22.624  25.552  1.00  0.00    -0.460 OA
BRANCH  33  34
ATOM     34  C   UNL A   1      44.208  23.181  26.677  1.00  0.00     0.338 C 
ATOM     35  O   UNL A   1      44.819  23.370  27.716  1.00  0.00    -0.246 OA
BRANCH  34  36
ATOM     36  C   UNL A   1      42.801  23.647  26.373  1.00  0.00     0.060 A 
ATOM     37  C   UNL A   1      42.783  24.693  25.413  1.00  0.00     0.016 A 
ATOM     38  C   UNL A   1      42.160  23.774  27.580  1.00  0.00     0.016 A 
ATOM     39  C   UNL A   1      42.904  25.957  25.875  1.00  0.00     0.010 A 
ATOM     40  C   UNL A   1      42.307  25.014  28.094  1.00  0.00     0.010 A 
ATOM     41  C   UNL A   1      42.807  26.034  27.243  1.00  0.00    -0.014 A 
BRANCH  41  42
ATOM     42  C   UNL A   1      43.133  27.238  27.922  1.00  0.00     0.031 A 
ATOM     43  C   UNL A   1      41.980  28.144  27.869  1.00  0.00     0.074 A 
ATOM     44  C   UNL A   1      44.238  27.030  28.670  1.00  0.00     0.049 A 
ATOM     45  N   UNL A   1      42.000  29.413  28.032  1.00  0.00    -0.248 NA
ATOM     46  C   UNL A   1      40.644  27.692  27.400  1.00  0.00     0.031 C 
ATOM     47  C   UNL A   1      44.636  27.510  29.979  1.00  0.00     0.029 A 
ATOM     48  N   UNL A   1      45.377  26.342  28.216  1.00  0.00    -0.354 N 
ATOM     49  C   UNL A   1      40.693  29.708  28.369  1.00  0.00     0.074 A 
ATOM     50  C   UNL A   1      39.894  28.763  27.649  1.00  0.00     0.031 C 
ATOM     51  C   UNL A   1      45.971  27.361  30.115  1.00  0.00     0.029 A 
ATOM     52  C   UNL A   1      46.501  26.903  28.835  1.00  0.00     0.049 A 
ATOM     53  H   UNL A   1      45.384  25.595  27.574  1.00  0.00     0.167 HD
ATOM     54  C   UNL A   1      40.494  30.400  29.529  1.00  0.00     0.037 A 
ATOM     55  C   UNL A   1      47.351  27.641  28.056  1.00  0.00     0.037 A 
ATOM     56  C   UNL A   1      41.808  30.716  30.113  1.00  0.00     0.049 A 
ATOM     57  C   UNL A   1      47.146  29.121  28.289  1.00  0.00     0.074 A 
ATOM     58  C   UNL A   1      42.531  30.143  31.148  1.00  0.00     0.029 A 
ATOM     59  N   UNL A   1      42.732  31.417  29.343  1.00  0.00    -0.354 N 
ATOM     60  N   UNL A   1      46.011  29.660  28.642  1.00  0.00    -0.248 NA
ATOM     61  C   UNL A   1      48.224  30.089  28.151  1.00  0.00     0.031 C 
ATOM     62  C   UNL A   1      43.901  30.488  30.966  1.00  0.00     0.029 A 
ATOM     63  C   UNL A   1      44.020  31.236  29.807  1.00  0.00     0.049 A 
ATOM     64  H   UNL A   1      42.496  31.972  28.565  1.00  0.00     0.167 HD
ATOM     65  C   UNL A   1      46.179  31.009  28.785  1.00  0.00     0.074 A 
ATOM     66  C   UNL A   1      47.587  31.219  28.494  1.00  0.00     0.031 C 
ATOM     67  C   UNL A   1      45.148  31.849  29.109  1.00  0.00     0.037 A 
BRANCH  54  68
ATOM     68  C   UNL A   1      39.197  30.502  30.303  1.00  0.00     0.064 A 
ATOM     69  C   UNL A   1      38.853  29.476  31.211  1.00  0.00     0.173 A 
ATOM     70  C   UNL A   1      38.254  31.551  30.230  1.00  0.00     0.173 A 
ATOM     71  F   UNL A   1      39.673  28.441  31.438  1.00  0.00    -0.203 F 
ATOM     72  C   UNL A   1      37.663  29.477  31.941  1.00  0.00     0.198 A 
ATOM     73  C   UNL A   1      37.054  31.544  30.951  1.00  0.00     0.198 A 
ATOM     74  F   UNL A   1      38.458  32.649  29.501  1.00  0.00    -0.203 F 
ATOM     75  F   UNL A   1      37.405  28.469  32.785  1.00  0.00    -0.200 F 
ATOM     76  C   UNL A   1      36.759  30.507  31.807  1.00  0.00     0.200 A 
ATOM     77  F   UNL A   1      36.194  32.565  30.816  1.00  0.00    -0.200 F 
ATOM     78  F   UNL A   1      35.622  30.514  32.515  1.00  0.00    -0.200 F 
ENDBRANCH  54  68
BRANCH  55  79
ATOM     79  C   UNL A   1      47.514  27.055  26.689  1.00  0.00     0.064 A 
ATOM     80  C   UNL A   1      46.759  27.597  25.630  1.00  0.00     0.173 A 
ATOM     81  C   UNL A   1      48.639  26.287  26.356  1.00  0.00     0.173 A 
ATOM     82  F   UNL A   1      45.658  28.322  25.890  1.00  0.00    -0.203 F 
ATOM     83  C   UNL A   1      47.186  27.487  24.310  1.00  0.00     0.198 A 
ATOM     84  C   UNL A   1      49.072  26.196  25.034  1.00  0.00     0.198 A 
ATOM     85  F   UNL A   1      49.375  25.701  27.309  1.00  0.00    -0.203 F 
ATOM     86  F   UNL A   1      46.496  28.086  23.329  1.00  0.00    -0.200 F 
ATOM     87  C   UNL A   1      48.358  26.811  24.018  1.00  0.00     0.200 A 
ATOM     88  F   UNL A   1      50.225  25.575  24.748  1.00  0.00    -0.200 F 
ATOM     89  F   UNL A   1      48.822  26.764  22.761  1.00  0.00    -0.200 F 
ENDBRANCH  55  79
BRANCH  67  90
ATOM     90  C   UNL A   1      45.157  33.347  28.879  1.00  0.00     0.064 A 
ATOM     91  C   UNL A   1      45.807  34.267  29.717  1.00  0.00     0.173 A 
ATOM     92  C   UNL A   1      44.587  33.912  27.710  1.00  0.00     0.173 A 
ATOM     93  F   UNL A   1      46.589  33.875  30.729  1.00  0.00    -0.203 F 
ATOM     94  C   UNL A   1      45.738  35.643  29.505  1.00  0.00     0.198 A 
ATOM     95  C   UNL A   1      44.624  35.277  27.440  1.00  0.00     0.198 A 
ATOM     96  F   UNL A   1      43.992  33.170  26.767  1.00  0.00    -0.203 F 
ATOM     97  F   UNL A   1      46.270  36.476  30.409  1.00  0.00    -0.200 F 
ATOM     98  C   UNL A   1      45.154  36.149  28.363  1.00  0.00     0.200 A 
ATOM     99  F   UNL A   1      44.147  35.733  26.274  1.00  0.00    -0.200 F 
ATOM    100  F   UNL A   1      45.125  37.467  28.140  1.00  0.00    -0.200 F 
ENDBRANCH  67  90
ENDBRANCH  41  42
ENDBRANCH  34  36
ENDBRANCH  33  34
ENDBRANCH  32  33
ENDBRANCH  31  32
ENDBRANCH  30  31
ENDBRANCH  29  30
ENDBRANCH  28  29
ENDBRANCH   1  28
TORSDOF 22
ENDMDL
MODEL 3
REMARK VINA RESULT:     -10.4      3.990      6.922
REMARK SMILES Cc1ccc(NC(=O)[C@H]2CC=CC[C@H]2C(=O)OCCOCCOCCOCCOC(=O)c2ccc(-c3c4nc(c(-c5c(F)c(F)c(F)c(F)c5F)c5ccc([nH]5)c(-c5c(F)c(F)c(F)c(F)c5F)c5nc(c(-c6c(F)c(F)c(F)c(F)c6F)c6ccc3[nH]6)C=C5)C=C4)cc2)cc1F
REMARK SMILES IDX 23 1 22 2 21 3 20 4 19 5 18 6 17 7 15 8 16 9 14 10 9 11
REMARK SMILES IDX 10 12 11 13 13 14 12 15 7 16 6 17 8 19 5 20 1 21 2 22 3 23
REMARK SMILES IDX 96 24 4 25 95 26 97 27 24 28 25 29 26 30 27 31 28 32 29 33
REMARK SMILES IDX 30 34 31 35 32 36 33 37 94 38 34 39 93 40 35 41 36 42 37 43
REMARK SMILES IDX 87 44 38 45 92 46 86 47 88 48 39 49 91 50 85 51 84 52 40 54
REMARK SMILES IDX 72 55 52 56 71 57 53 58 56 59 70 60 89 61 54 62 55 63 69 65
REMARK SMILES IDX 90 66 57 67 41 68 42 69 50 70 43 71 44 72 48 73 51 74 45 75
REMARK SMILES IDX 46 76 49 77 47 78 73 79 74 80 82 81 75 82 76 83 80 84 83 85
REMARK SMILES IDX 77 86 78 87 81 88 79 89 58 90 59 91 67 92 60 93 61 94 65 95
REMARK SMILES IDX 68 96 62 97 63 98 66 99 64 100
REMARK H PARENT 6 18 88 53 56 64
REMARK Flexibility Score: inf
ROOT
ATOM      1  O   UNL A   1      36.610  32.491  31.815  1.00  0.00    -0.377 OA
ENDROOT
BRANCH   1   2
ATOM      2  C   UNL A   1      36.025  31.927  30.502  1.00  0.00     0.188 C 
BRANCH   2   3
ATOM      3  C   UNL A   1      35.190  32.980  28.784  1.00  0.00     0.188 C 
BRANCH   3   4
ATOM      4  O   UNL A   1      33.673  33.128  28.222  1.00  0.00    -0.376 OA
BRANCH   4   5
ATOM      5  C   UNL A   1      32.901  32.204  27.413  1.00  0.00     0.202 C 
BRANCH   5   6
ATOM      6  C   UNL A   1      33.323  30.753  27.136  1.00  0.00     0.261 C 
BRANCH   6   7
ATOM      7  O   UNL A   1      32.633  30.115  26.047  1.00  0.00    -0.463 OA
BRANCH   7   8
ATOM      8  C   UNL A   1      33.035  28.858  25.753  1.00  0.00     0.310 C 
ATOM      9  O   UNL A   1      33.976  28.300  26.308  1.00  0.00    -0.252 OA
BRANCH   8  10
ATOM     10  C   UNL A   1      32.276  28.200  24.600  1.00  0.00     0.116 C 
ATOM     11  C   UNL A   1      31.886  26.699  24.607  1.00  0.00     0.097 C 
ATOM     12  C   UNL A   1      30.986  26.288  23.422  1.00  0.00     0.041 C 
ATOM     13  C   UNL A   1      30.262  27.397  22.727  1.00  0.00    -0.030 C 
ATOM     14  C   UNL A   1      31.076  29.107  24.332  1.00  0.00     0.043 C 
ATOM     15  C   UNL A   1      30.290  28.668  23.142  1.00  0.00    -0.030 C 
BRANCH  11  16
ATOM     16  C   UNL A   1      31.588  26.151  25.980  1.00  0.00     0.228 C 
ATOM     17  N   UNL A   1      32.318  25.059  26.406  1.00  0.00    -0.326 N 
ATOM     18  H   UNL A   1      32.192  24.835  27.356  1.00  0.00     0.169 HD
ATOM     19  O   UNL A   1      30.736  26.647  26.717  1.00  0.00    -0.274 OA
BRANCH  17  20
ATOM     20  C   UNL A   1      33.226  24.195  25.712  1.00  0.00     0.044 A 
ATOM     21  C   UNL A   1      37.040  20.991  24.738  1.00  0.00     0.047 C 
ATOM     22  C   UNL A   1      35.909  21.977  24.704  1.00  0.00    -0.015 A 
ATOM     23  C   UNL A   1      36.243  23.728  24.860  1.00  0.00     0.008 A 
ATOM     24  C   UNL A   1      34.272  21.355  24.943  1.00  0.00     0.128 A 
ATOM     25  C   UNL A   1      34.931  24.837  25.391  1.00  0.00     0.026 A 
ATOM     26  C   UNL A   1      32.943  22.418  25.485  1.00  0.00     0.065 A 
ATOM     27  F   UNL A   1      34.076  20.030  25.003  1.00  0.00    -0.207 F 
ENDBRANCH  17  20
ENDBRANCH  11  16
ENDBRANCH   8  10
ENDBRANCH   7   8
ENDBRANCH   6   7
ENDBRANCH   5   6
ENDBRANCH   4   5
ENDBRANCH   3   4
ENDBRANCH   2   3
ENDBRANCH   1   2
BRANCH   1  28
ATOM     28  C   UNL A   1      36.578  31.711  33.001  1.00  0.00     0.188 C 
BRANCH  28  29
ATOM     29  C   UNL A   1      37.580  30.565  33.109  1.00  0.00     0.188 C 
BRANCH  29  30
ATOM     30  O   UNL A   1      37.240  29.402  32.394  1.00  0.00    -0.376 OA
BRANCH  30  31
ATOM     31  C   UNL A   1      37.973  28.197  32.537  1.00  0.00     0.202 C 
BRANCH  31  32
ATOM     32  C   UNL A   1      38.777  27.493  31.421  1.00  0.00     0.261 C 
BRANCH  32  33
ATOM     33  O   UNL A   1      38.606  27.915  30.076  1.00  0.00    -0.460 OA
BRANCH  33  34
ATOM     34  C   UNL A   1      39.685  27.815  29.293  1.00  0.00     0.338 C 
ATOM     35  O   UNL A   1      40.401  26.839  29.136  1.00  0.00    -0.246 OA
BRANCH  34  36
ATOM     36  C   UNL A   1      39.781  29.122  28.538  1.00  0.00     0.060 A 
ATOM     37  C   UNL A   1      40.111  28.924  27.171  1.00  0.00     0.016 A 
ATOM     38  C   UNL A   1      40.501  29.981  29.330  1.00  0.00     0.016 A 
ATOM     39  C   UNL A   1      41.424  28.859  26.857  1.00  0.00     0.010 A 
ATOM     40  C   UNL A   1      41.825  29.901  29.075  1.00  0.00     0.010 A 
ATOM     41  C   UNL A   1      42.239  29.217  27.902  1.00  0.00    -0.014 A 
BRANCH  41  42
ATOM     42  C   UNL A   1      43.641  28.995  27.833  1.00  0.00     0.031 A 
ATOM     43  C   UNL A   1      44.272  30.133  27.157  1.00  0.00     0.074 A 
ATOM     44  C   UNL A   1      43.966  28.004  28.691  1.00  0.00     0.049 A 
ATOM     45  N   UNL A   1      45.420  30.142  26.591  1.00  0.00    -0.248 NA
ATOM     46  C   UNL A   1      43.531  31.389  26.868  1.00  0.00     0.031 C 
ATOM     47  C   UNL A   1      45.115  27.794  29.550  1.00  0.00     0.029 A 
ATOM     48  N   UNL A   1      43.237  26.809  28.826  1.00  0.00    -0.354 N 
ATOM     49  C   UNL A   1      45.745  31.485  26.558  1.00  0.00     0.074 A 
ATOM     50  C   UNL A   1      44.498  32.171  26.396  1.00  0.00     0.031 C 
ATOM     51  C   UNL A   1      45.174  26.490  29.896  1.00  0.00     0.029 A 
ATOM     52  C   UNL A   1      44.135  25.786  29.154  1.00  0.00     0.049 A 
ATOM     53  H   UNL A   1      42.264  26.710  28.711  1.00  0.00     0.167 HD
ATOM     54  C   UNL A   1      46.939  31.846  27.109  1.00  0.00     0.037 A 
ATOM     55  C   UNL A   1      44.391  24.838  28.199  1.00  0.00     0.037 A 
ATOM     56  C   UNL A   1      47.629  30.628  27.566  1.00  0.00     0.049 A 
ATOM     57  C   UNL A   1      45.734  25.081  27.549  1.00  0.00     0.074 A 
ATOM     58  C   UNL A   1      47.777  30.055  28.818  1.00  0.00     0.029 A 
ATOM     59  N   UNL A   1      47.866  29.610  26.647  1.00  0.00    -0.354 N 
ATOM     60  N   UNL A   1      46.285  26.256  27.412  1.00  0.00    -0.248 NA
ATOM     61  C   UNL A   1      46.553  23.999  27.021  1.00  0.00     0.031 C 
ATOM     62  C   UNL A   1      48.076  28.674  28.632  1.00  0.00     0.029 A 
ATOM     63  C   UNL A   1      48.074  28.398  27.275  1.00  0.00     0.049 A 
ATOM     64  H   UNL A   1      47.883  29.737  25.671  1.00  0.00     0.167 HD
ATOM     65  C   UNL A   1      47.501  26.117  26.803  1.00  0.00     0.074 A 
ATOM     66  C   UNL A   1      47.630  24.682  26.606  1.00  0.00     0.031 C 
ATOM     67  C   UNL A   1      48.294  27.187  26.488  1.00  0.00     0.037 A 
BRANCH  54  68
ATOM     68  C   UNL A   1      47.343  33.240  27.544  1.00  0.00     0.064 A 
ATOM     69  C   UNL A   1      48.387  33.901  26.860  1.00  0.00     0.173 A 
ATOM     70  C   UNL A   1      46.768  33.994  28.591  1.00  0.00     0.173 A 
ATOM     71  F   UNL A   1      48.993  33.342  25.804  1.00  0.00    -0.203 F 
ATOM     72  C   UNL A   1      48.841  35.172  27.215  1.00  0.00     0.198 A 
ATOM     73  C   UNL A   1      47.234  35.261  28.957  1.00  0.00     0.198 A 
ATOM     74  F   UNL A   1      45.709  33.570  29.282  1.00  0.00    -0.203 F 
ATOM     75  F   UNL A   1      49.836  35.737  26.519  1.00  0.00    -0.200 F 
ATOM     76  C   UNL A   1      48.270  35.851  28.269  1.00  0.00     0.200 A 
ATOM     77  F   UNL A   1      46.654  35.912  29.977  1.00  0.00    -0.200 F 
ATOM     78  F   UNL A   1      48.698  37.075  28.604  1.00  0.00    -0.200 F 
ENDBRANCH  54  68
BRANCH  55  79
ATOM     79  C   UNL A   1      43.167  24.484  27.414  1.00  0.00     0.064 A 
ATOM     80  C   UNL A   1      42.285  23.521  27.942  1.00  0.00     0.173 A 
ATOM     81  C   UNL A   1      42.677  25.331  26.410  1.00  0.00     0.173 A 
ATOM     82  F   UNL A   1      42.707  22.668  28.890  1.00  0.00    -0.203 F 
ATOM     83  C   UNL A   1      40.942  23.497  27.576  1.00  0.00     0.198 A 
ATOM     84  C   UNL A   1      41.328  25.316  26.062  1.00  0.00     0.198 A 
ATOM     85  F   UNL A   1      43.474  26.238  25.829  1.00  0.00    -0.203 F 
ATOM     86  F   UNL A   1      40.103  22.628  28.158  1.00  0.00    -0.200 F 
ATOM     87  C   UNL A   1      40.460  24.415  26.658  1.00  0.00     0.200 A 
ATOM     88  F   UNL A   1      40.847  26.225  25.202  1.00  0.00    -0.200 F 
ATOM     89  F   UNL A   1      39.154  24.454  26.356  1.00  0.00    -0.200 F 
ENDBRANCH  55  79
BRANCH  67  90
ATOM     90  C   UNL A   1      49.415  27.153  25.470  1.00  0.00     0.064 A 
ATOM     91  C   UNL A   1      50.761  26.911  25.791  1.00  0.00     0.173 A 
ATOM     92  C   UNL A   1      49.149  27.257  24.082  1.00  0.00     0.173 A 
ATOM     93  F   UNL A   1      51.144  26.559  27.024  1.00  0.00    -0.203 F 
ATOM     94  C   UNL A   1      51.772  26.951  24.832  1.00  0.00     0.198 A 
ATOM     95  C   UNL A   1      50.147  27.177  23.116  1.00  0.00     0.198 A 
ATOM     96  F   UNL A   1      47.910  27.416  23.596  1.00  0.00    -0.203 F 
ATOM     97  F   UNL A   1      53.051  26.840  25.218  1.00  0.00    -0.200 F 
ATOM     98  C   UNL A   1      51.466  27.076  23.494  1.00  0.00     0.200 A 
ATOM     99  F   UNL A   1      49.815  27.191  21.818  1.00  0.00    -0.200 F 
ATOM    100  F   UNL A   1      52.434  27.073  22.571  1.00  0.00    -0.200 F 
ENDBRANCH  67  90
ENDBRANCH  41  42
ENDBRANCH  34  36
ENDBRANCH  33  34
ENDBRANCH  32  33
ENDBRANCH  31  32
ENDBRANCH  30  31
ENDBRANCH  29  30
ENDBRANCH  28  29
ENDBRANCH   1  28
TORSDOF 22
ENDMDL
