MODEL 1
REMARK VINA RESULT:     -11.6      0.000      0.000
REMARK SMILES CCOc1ccccc1-c1cc(C(=O)OCCOCCOCCOCCOC(=O)c2ccc(-c3c4nc(c(-c5c(F)c(F)c(F)c(F)c5F)c5ccc([nH]5)c(-c5c(F)c(F)c(F)c(F)c5F)c5nc(c(-c6c(F)c(F)c(F)c(F)c6F)c6ccc3[nH]6)C=C5)C=C4)cc2)c2cc(C)cc(C)c2n1
REMARK SMILES IDX 20 1 19 2 18 3 17 4 16 5 15 6 13 7 14 8 12 9 10 10 11 11
REMARK SMILES IDX 101 12 100 13 93 14 98 15 94 16 97 17 99 18 95 19 96 20 9 21
REMARK SMILES IDX 4 22 5 23 6 24 8 25 7 26 3 27 2 28 1 29 21 30 22 31 23 32
REMARK SMILES IDX 24 33 25 34 26 35 27 36 28 37 29 38 30 39 31 40 92 41 32 42
REMARK SMILES IDX 91 43 33 44 34 45 35 46 85 47 36 48 90 49 84 50 86 51 37 52
REMARK SMILES IDX 89 53 83 54 82 55 38 57 70 58 50 59 69 60 51 61 54 62 68 63
REMARK SMILES IDX 87 64 52 65 53 66 67 68 88 69 55 70 39 71 40 72 48 73 41 74
REMARK SMILES IDX 42 75 46 76 49 77 43 78 44 79 47 80 45 81 71 82 72 83 80 84
REMARK SMILES IDX 73 85 74 86 78 87 81 88 75 89 76 90 79 91 77 92 56 93 57 94
REMARK SMILES IDX 65 95 58 96 59 97 63 98 66 99 60 100 61 101 64 102 62 103
REMARK H PARENT 86 56 54 67
REMARK Flexibility Score: inf
ROOT
ATOM      1  C   UNL A   1      40.850  19.762  26.807  1.00  0.00     0.188 C 
ENDROOT
BRANCH   1   2
ATOM      2  C   UNL A   1      40.449  21.227  26.592  1.00  0.00     0.188 C 
BRANCH   2   3
ATOM      3  O   UNL A   1      39.134  21.538  26.159  1.00  0.00    -0.376 OA
BRANCH   3   4
ATOM      4  C   UNL A   1      38.712  22.890  26.028  1.00  0.00     0.202 C 
BRANCH   4   5
ATOM      5  C   UNL A   1      37.215  23.260  26.118  1.00  0.00     0.261 C 
BRANCH   5   6
ATOM      6  O   UNL A   1      36.673  23.977  24.999  1.00  0.00    -0.460 OA
BRANCH   6   7
ATOM      7  C   UNL A   1      36.274  23.181  23.984  1.00  0.00     0.338 C 
ATOM      8  O   UNL A   1      36.866  23.020  22.929  1.00  0.00    -0.246 OA
BRANCH   7   9
ATOM      9  C   UNL A   1      35.019  22.474  24.314  1.00  0.00     0.071 A 
ATOM     10  C   UNL A   1      33.709  20.601  24.868  1.00  0.00     0.076 A 
ATOM     11  C   UNL A   1      34.921  21.082  24.417  1.00  0.00     0.045 A 
ATOM     12  N   UNL A   1      33.009  21.409  25.688  1.00  0.00    -0.247 NA
ATOM     13  C   UNL A   1      32.836  22.645  25.219  1.00  0.00     0.075 A 
ATOM     14  C   UNL A   1      33.835  23.223  24.433  1.00  0.00     0.015 A 
ATOM     15  C   UNL A   1      31.587  23.248  25.321  1.00  0.00    -0.024 A 
ATOM     16  C   UNL A   1      33.524  24.349  23.638  1.00  0.00     0.014 A 
ATOM     17  C   UNL A   1      31.260  24.298  24.453  1.00  0.00     0.009 A 
ATOM     18  C   UNL A   1      30.524  22.677  26.218  1.00  0.00     0.047 C 
ATOM     19  C   UNL A   1      32.206  24.807  23.560  1.00  0.00    -0.050 A 
ATOM     20  C   UNL A   1      31.778  25.667  22.405  1.00  0.00     0.044 C 
BRANCH  10  21
ATOM     21  C   UNL A   1      32.699  19.886  24.004  1.00  0.00     0.042 A 
ATOM     22  C   UNL A   1      32.743  18.474  23.891  1.00  0.00     0.128 A 
ATOM     23  C   UNL A   1      32.548  17.836  22.660  1.00  0.00     0.047 A 
ATOM     24  C   UNL A   1      32.152  18.575  21.553  1.00  0.00     0.004 A 
ATOM     25  C   UNL A   1      32.155  20.587  22.910  1.00  0.00     0.014 A 
ATOM     26  C   UNL A   1      31.890  19.936  21.696  1.00  0.00     0.001 A 
BRANCH  22  27
ATOM     27  O   UNL A   1      33.182  17.701  24.937  1.00  0.00    -0.493 OA
BRANCH  27  28
ATOM     28  C   UNL A   1      33.336  16.338  24.526  1.00  0.00     0.226 C 
ATOM     29  C   UNL A   1      32.840  15.383  25.601  1.00  0.00     0.049 C 
ENDBRANCH  27  28
ENDBRANCH  22  27
ENDBRANCH  10  21
ENDBRANCH   7   9
ENDBRANCH   6   7
ENDBRANCH   5   6
ENDBRANCH   4   5
ENDBRANCH   3   4
ENDBRANCH   2   3
ENDBRANCH   1   2
BRANCH   1  30
ATOM     30  O   UNL A   1      41.564  19.194  25.721  1.00  0.00    -0.377 OA
BRANCH  30  31
ATOM     31  C   UNL A   1      42.790  19.834  25.428  1.00  0.00     0.188 C 
BRANCH  31  32
ATOM     32  C   UNL A   1      44.052  18.975  25.609  1.00  0.00     0.188 C 
BRANCH  32  33
ATOM     33  O   UNL A   1      45.169  19.505  24.903  1.00  0.00    -0.376 OA
BRANCH  33  34
ATOM     34  C   UNL A   1      45.189  20.895  24.633  1.00  0.00     0.202 C 
BRANCH  34  35
ATOM     35  C   UNL A   1      45.282  21.810  25.863  1.00  0.00     0.261 C 
BRANCH  35  36
ATOM     36  O   UNL A   1      45.020  23.201  25.631  1.00  0.00    -0.460 OA
BRANCH  36  37
ATOM     37  C   UNL A   1      43.793  23.525  25.155  1.00  0.00     0.338 C 
ATOM     38  O   UNL A   1      43.205  23.010  24.236  1.00  0.00    -0.246 OA
BRANCH  37  39
ATOM     39  C   UNL A   1      43.203  24.505  26.101  1.00  0.00     0.060 A 
ATOM     40  C   UNL A   1      43.644  25.835  26.044  1.00  0.00     0.016 A 
ATOM     41  C   UNL A   1      42.181  24.135  26.977  1.00  0.00     0.016 A 
ATOM     42  C   UNL A   1      43.060  26.801  26.864  1.00  0.00     0.010 A 
ATOM     43  C   UNL A   1      41.627  25.095  27.830  1.00  0.00     0.010 A 
ATOM     44  C   UNL A   1      42.080  26.426  27.791  1.00  0.00    -0.014 A 
BRANCH  44  45
ATOM     45  C   UNL A   1      41.703  27.364  28.876  1.00  0.00     0.031 A 
ATOM     46  C   UNL A   1      42.507  27.320  30.144  1.00  0.00     0.074 A 
ATOM     47  C   UNL A   1      40.688  28.234  28.744  1.00  0.00     0.049 A 
ATOM     48  N   UNL A   1      42.335  27.968  31.266  1.00  0.00    -0.248 NA
ATOM     49  C   UNL A   1      43.665  26.410  30.144  1.00  0.00     0.031 C 
ATOM     50  C   UNL A   1      39.872  28.410  27.545  1.00  0.00     0.029 A 
ATOM     51  N   UNL A   1      40.163  29.128  29.646  1.00  0.00    -0.354 N 
ATOM     52  C   UNL A   1      43.358  27.543  32.103  1.00  0.00     0.074 A 
ATOM     53  C   UNL A   1      44.126  26.558  31.374  1.00  0.00     0.031 C 
ATOM     54  C   UNL A   1      38.931  29.339  27.794  1.00  0.00     0.029 A 
ATOM     55  C   UNL A   1      39.056  29.793  29.179  1.00  0.00     0.049 A 
ATOM     56  H   UNL A   1      40.544  29.277  30.541  1.00  0.00     0.167 HD
ATOM     57  C   UNL A   1      43.634  27.942  33.366  1.00  0.00     0.037 A 
ATOM     58  C   UNL A   1      38.224  30.643  29.814  1.00  0.00     0.037 A 
ATOM     59  C   UNL A   1      42.855  28.909  34.091  1.00  0.00     0.049 A 
ATOM     60  C   UNL A   1      38.492  30.999  31.257  1.00  0.00     0.074 A 
ATOM     61  C   UNL A   1      43.051  29.386  35.374  1.00  0.00     0.029 A 
ATOM     62  N   UNL A   1      41.721  29.537  33.596  1.00  0.00    -0.354 N 
ATOM     63  N   UNL A   1      39.471  30.612  32.040  1.00  0.00    -0.248 NA
ATOM     64  C   UNL A   1      37.540  31.913  31.905  1.00  0.00     0.031 C 
ATOM     65  C   UNL A   1      41.998  30.254  35.680  1.00  0.00     0.029 A 
ATOM     66  C   UNL A   1      41.187  30.374  34.563  1.00  0.00     0.049 A 
ATOM     67  H   UNL A   1      41.350  29.406  32.694  1.00  0.00     0.167 HD
ATOM     68  C   UNL A   1      39.273  31.258  33.254  1.00  0.00     0.074 A 
ATOM     69  C   UNL A   1      38.085  32.071  33.104  1.00  0.00     0.031 C 
ATOM     70  C   UNL A   1      40.011  31.188  34.391  1.00  0.00     0.037 A 
BRANCH  57  71
ATOM     71  C   UNL A   1      44.803  27.299  34.054  1.00  0.00     0.064 A 
ATOM     72  C   UNL A   1      46.106  27.805  33.929  1.00  0.00     0.173 A 
ATOM     73  C   UNL A   1      44.613  26.166  34.860  1.00  0.00     0.173 A 
ATOM     74  F   UNL A   1      46.343  28.874  33.154  1.00  0.00    -0.203 F 
ATOM     75  C   UNL A   1      47.179  27.184  34.562  1.00  0.00     0.198 A 
ATOM     76  C   UNL A   1      45.683  25.568  35.519  1.00  0.00     0.198 A 
ATOM     77  F   UNL A   1      43.388  25.640  35.011  1.00  0.00    -0.203 F 
ATOM     78  F   UNL A   1      48.422  27.651  34.383  1.00  0.00    -0.200 F 
ATOM     79  C   UNL A   1      46.965  26.072  35.364  1.00  0.00     0.200 A 
ATOM     80  F   UNL A   1      45.473  24.501  36.303  1.00  0.00    -0.200 F 
ATOM     81  F   UNL A   1      47.999  25.479  35.977  1.00  0.00    -0.200 F 
ENDBRANCH  57  71
BRANCH  58  82
ATOM     82  C   UNL A   1      37.039  31.200  29.104  1.00  0.00     0.064 A 
ATOM     83  C   UNL A   1      37.008  32.535  28.678  1.00  0.00     0.173 A 
ATOM     84  C   UNL A   1      35.901  30.415  28.867  1.00  0.00     0.173 A 
ATOM     85  F   UNL A   1      38.059  33.336  28.907  1.00  0.00    -0.203 F 
ATOM     86  C   UNL A   1      35.877  33.069  28.061  1.00  0.00     0.198 A 
ATOM     87  C   UNL A   1      34.783  30.940  28.220  1.00  0.00     0.198 A 
ATOM     88  F   UNL A   1      35.874  29.133  29.260  1.00  0.00    -0.203 F 
ATOM     89  F   UNL A   1      35.854  34.364  27.714  1.00  0.00    -0.200 F 
ATOM     90  C   UNL A   1      34.769  32.270  27.827  1.00  0.00     0.200 A 
ATOM     91  F   UNL A   1      33.719  30.161  27.987  1.00  0.00    -0.200 F 
ATOM     92  F   UNL A   1      33.682  32.782  27.233  1.00  0.00    -0.200 F 
ENDBRANCH  58  82
BRANCH  70  93
ATOM     93  C   UNL A   1      39.592  32.048  35.550  1.00  0.00     0.064 A 
ATOM     94  C   UNL A   1      40.066  33.358  35.712  1.00  0.00     0.173 A 
ATOM     95  C   UNL A   1      38.645  31.574  36.473  1.00  0.00     0.173 A 
ATOM     96  F   UNL A   1      40.981  33.855  34.867  1.00  0.00    -0.203 F 
ATOM     97  C   UNL A   1      39.623  34.153  36.767  1.00  0.00     0.198 A 
ATOM     98  C   UNL A   1      38.178  32.385  37.504  1.00  0.00     0.198 A 
ATOM     99  F   UNL A   1      38.150  30.333  36.357  1.00  0.00    -0.203 F 
ATOM    100  F   UNL A   1      40.121  35.387  36.927  1.00  0.00    -0.200 F 
ATOM    101  C   UNL A   1      38.672  33.671  37.654  1.00  0.00     0.200 A 
ATOM    102  F   UNL A   1      37.245  31.922  38.346  1.00  0.00    -0.200 F 
ATOM    103  F   UNL A   1      38.234  34.444  38.657  1.00  0.00    -0.200 F 
ENDBRANCH  70  93
ENDBRANCH  44  45
ENDBRANCH  37  39
ENDBRANCH  36  37
ENDBRANCH  35  36
ENDBRANCH  34  35
ENDBRANCH  33  34
ENDBRANCH  32  33
ENDBRANCH  31  32
ENDBRANCH  30  31
ENDBRANCH   1  30
TORSDOF 23
ENDMDL
MODEL 2
REMARK VINA RESULT:     -10.6      4.249      7.344
REMARK SMILES CCOc1ccccc1-c1cc(C(=O)OCCOCCOCCOCCOC(=O)c2ccc(-c3c4nc(c(-c5c(F)c(F)c(F)c(F)c5F)c5ccc([nH]5)c(-c5c(F)c(F)c(F)c(F)c5F)c5nc(c(-c6c(F)c(F)c(F)c(F)c6F)c6ccc3[nH]6)C=C5)C=C4)cc2)c2cc(C)cc(C)c2n1
REMARK SMILES IDX 20 1 19 2 18 3 17 4 16 5 15 6 13 7 14 8 12 9 10 10 11 11
REMARK SMILES IDX 101 12 100 13 93 14 98 15 94 16 97 17 99 18 95 19 96 20 9 21
REMARK SMILES IDX 4 22 5 23 6 24 8 25 7 26 3 27 2 28 1 29 21 30 22 31 23 32
REMARK SMILES IDX 24 33 25 34 26 35 27 36 28 37 29 38 30 39 31 40 92 41 32 42
REMARK SMILES IDX 91 43 33 44 34 45 35 46 85 47 36 48 90 49 84 50 86 51 37 52
REMARK SMILES IDX 89 53 83 54 82 55 38 57 70 58 50 59 69 60 51 61 54 62 68 63
REMARK SMILES IDX 87 64 52 65 53 66 67 68 88 69 55 70 39 71 40 72 48 73 41 74
REMARK SMILES IDX 42 75 46 76 49 77 43 78 44 79 47 80 45 81 71 82 72 83 80 84
REMARK SMILES IDX 73 85 74 86 78 87 81 88 75 89 76 90 79 91 77 92 56 93 57 94
REMARK SMILES IDX 65 95 58 96 59 97 63 98 66 99 60 100 61 101 64 102 62 103
REMARK H PARENT 86 56 54 67
REMARK Flexibility Score: inf
ROOT
ATOM      1  C   UNL A   1      32.644  17.580  23.726  1.00  0.00     0.188 C 
ENDROOT
BRANCH   1   2
ATOM      2  C   UNL A   1      32.105  18.010  22.356  1.00  0.00     0.188 C 
BRANCH   2   3
ATOM      3  O   UNL A   1      32.573  19.211  21.764  1.00  0.00    -0.376 OA
BRANCH   3   4
ATOM      4  C   UNL A   1      31.726  20.349  21.658  1.00  0.00     0.202 C 
BRANCH   4   5
ATOM      5  C   UNL A   1      32.081  21.666  22.383  1.00  0.00     0.261 C 
BRANCH   5   6
ATOM      6  O   UNL A   1      33.026  22.517  21.720  1.00  0.00    -0.460 OA
BRANCH   6   7
ATOM      7  C   UNL A   1      33.678  23.358  22.552  1.00  0.00     0.338 C 
ATOM      8  O   UNL A   1      34.888  23.503  22.614  1.00  0.00    -0.246 OA
BRANCH   7   9
ATOM      9  C   UNL A   1      32.735  24.136  23.381  1.00  0.00     0.071 A 
ATOM     10  C   UNL A   1      31.267  25.916  23.841  1.00  0.00     0.076 A 
ATOM     11  C   UNL A   1      32.244  25.396  23.017  1.00  0.00     0.045 A 
ATOM     12  N   UNL A   1      30.487  25.027  24.484  1.00  0.00    -0.247 NA
ATOM     13  C   UNL A   1      31.162  24.091  25.153  1.00  0.00     0.075 A 
ATOM     14  C   UNL A   1      32.384  23.640  24.649  1.00  0.00     0.015 A 
ATOM     15  C   UNL A   1      30.764  23.747  26.440  1.00  0.00    -0.024 A 
ATOM     16  C   UNL A   1      33.270  22.947  25.503  1.00  0.00     0.014 A 
ATOM     17  C   UNL A   1      31.690  23.151  27.307  1.00  0.00     0.009 A 
ATOM     18  C   UNL A   1      29.422  24.166  26.972  1.00  0.00     0.047 C 
ATOM     19  C   UNL A   1      32.969  22.811  26.862  1.00  0.00    -0.050 A 
ATOM     20  C   UNL A   1      34.063  22.510  27.845  1.00  0.00     0.044 C 
BRANCH  10  21
ATOM     21  C   UNL A   1      31.477  27.070  24.790  1.00  0.00     0.042 A 
ATOM     22  C   UNL A   1      31.048  28.371  24.424  1.00  0.00     0.128 A 
ATOM     23  C   UNL A   1      31.836  29.498  24.688  1.00  0.00     0.047 A 
ATOM     24  C   UNL A   1      32.985  29.373  25.457  1.00  0.00     0.004 A 
ATOM     25  C   UNL A   1      32.559  26.995  25.688  1.00  0.00     0.014 A 
ATOM     26  C   UNL A   1      33.307  28.137  26.013  1.00  0.00     0.001 A 
BRANCH  22  27
ATOM     27  O   UNL A   1      29.952  28.546  23.616  1.00  0.00    -0.493 OA
BRANCH  27  28
ATOM     28  C   UNL A   1      30.287  29.348  22.479  1.00  0.00     0.226 C 
ATOM     29  C   UNL A   1      29.129  30.251  22.086  1.00  0.00     0.049 C 
ENDBRANCH  27  28
ENDBRANCH  22  27
ENDBRANCH  10  21
ENDBRANCH   7   9
ENDBRANCH   6   7
ENDBRANCH   5   6
ENDBRANCH   4   5
ENDBRANCH   3   4
ENDBRANCH   2   3
ENDBRANCH   1   2
BRANCH   1  30
ATOM     30  O   UNL A   1      32.150  18.352  24.808  1.00  0.00    -0.377 OA
BRANCH  30  31
ATOM     31  C   UNL A   1      33.067  19.302  25.316  1.00  0.00     0.188 C 
BRANCH  31  32
ATOM     32  C   UNL A   1      34.472  19.274  24.694  1.00  0.00     0.188 C 
BRANCH  32  33
ATOM     33  O   UNL A   1      35.206  20.462  24.969  1.00  0.00    -0.376 OA
BRANCH  33  34
ATOM     34  C   UNL A   1      36.621  20.389  24.954  1.00  0.00     0.202 C 
BRANCH  34  35
ATOM     35  C   UNL A   1      37.352  21.514  25.702  1.00  0.00     0.261 C 
BRANCH  35  36
ATOM     36  O   UNL A   1      38.751  21.652  25.415  1.00  0.00    -0.460 OA
BRANCH  36  37
ATOM     37  C   UNL A   1      39.611  21.460  26.444  1.00  0.00     0.338 C 
ATOM     38  O   UNL A   1      40.080  20.412  26.820  1.00  0.00    -0.246 OA
BRANCH  37  39
ATOM     39  C   UNL A   1      40.042  22.800  26.910  1.00  0.00     0.060 A 
ATOM     40  C   UNL A   1      39.381  23.927  26.403  1.00  0.00     0.016 A 
ATOM     41  C   UNL A   1      41.032  22.940  27.886  1.00  0.00     0.016 A 
ATOM     42  C   UNL A   1      39.706  25.200  26.873  1.00  0.00     0.010 A 
ATOM     43  C   UNL A   1      41.388  24.220  28.324  1.00  0.00     0.010 A 
ATOM     44  C   UNL A   1      40.741  25.355  27.803  1.00  0.00    -0.014 A 
BRANCH  44  45
ATOM     45  C   UNL A   1      41.307  26.703  28.050  1.00  0.00     0.031 A 
ATOM     46  C   UNL A   1      42.727  26.948  27.627  1.00  0.00     0.074 A 
ATOM     47  C   UNL A   1      40.587  27.684  28.620  1.00  0.00     0.049 A 
ATOM     48  N   UNL A   1      43.481  28.002  27.802  1.00  0.00    -0.248 NA
ATOM     49  C   UNL A   1      43.389  25.845  26.912  1.00  0.00     0.031 C 
ATOM     50  C   UNL A   1      39.186  27.585  29.020  1.00  0.00     0.029 A 
ATOM     51  N   UNL A   1      40.952  28.960  28.975  1.00  0.00    -0.354 N 
ATOM     52  C   UNL A   1      44.703  27.687  27.223  1.00  0.00     0.074 A 
ATOM     53  C   UNL A   1      44.603  26.334  26.721  1.00  0.00     0.031 C 
ATOM     54  C   UNL A   1      38.815  28.746  29.589  1.00  0.00     0.029 A 
ATOM     55  C   UNL A   1      39.962  29.653  29.627  1.00  0.00     0.049 A 
ATOM     56  H   UNL A   1      41.838  29.341  28.780  1.00  0.00     0.167 HD
ATOM     57  C   UNL A   1      45.809  28.458  27.116  1.00  0.00     0.037 A 
ATOM     58  C   UNL A   1      39.997  30.867  30.214  1.00  0.00     0.037 A 
ATOM     59  C   UNL A   1      45.908  29.797  27.633  1.00  0.00     0.049 A 
ATOM     60  C   UNL A   1      41.273  31.672  30.170  1.00  0.00     0.074 A 
ATOM     61  C   UNL A   1      46.982  30.666  27.575  1.00  0.00     0.029 A 
ATOM     62  N   UNL A   1      44.895  30.453  28.317  1.00  0.00    -0.354 N 
ATOM     63  N   UNL A   1      42.420  31.380  29.606  1.00  0.00    -0.248 NA
ATOM     64  C   UNL A   1      41.260  32.978  30.847  1.00  0.00     0.031 C 
ATOM     65  C   UNL A   1      46.641  31.824  28.280  1.00  0.00     0.029 A 
ATOM     66  C   UNL A   1      45.331  31.706  28.715  1.00  0.00     0.049 A 
ATOM     67  H   UNL A   1      44.000  30.083  28.494  1.00  0.00     0.167 HD
ATOM     68  C   UNL A   1      43.249  32.474  29.826  1.00  0.00     0.074 A 
ATOM     69  C   UNL A   1      42.470  33.442  30.570  1.00  0.00     0.031 C 
ATOM     70  C   UNL A   1      44.537  32.663  29.443  1.00  0.00     0.037 A 
BRANCH  57  71
ATOM     71  C   UNL A   1      47.011  27.855  26.450  1.00  0.00     0.064 A 
ATOM     72  C   UNL A   1      48.032  27.234  27.186  1.00  0.00     0.173 A 
ATOM     73  C   UNL A   1      47.136  27.887  25.053  1.00  0.00     0.173 A 
ATOM     74  F   UNL A   1      47.970  27.194  28.526  1.00  0.00    -0.203 F 
ATOM     75  C   UNL A   1      49.146  26.694  26.550  1.00  0.00     0.198 A 
ATOM     76  C   UNL A   1      48.235  27.315  24.418  1.00  0.00     0.198 A 
ATOM     77  F   UNL A   1      46.189  28.470  24.302  1.00  0.00    -0.203 F 
ATOM     78  F   UNL A   1      50.136  26.157  27.277  1.00  0.00    -0.200 F 
ATOM     79  C   UNL A   1      49.243  26.727  25.167  1.00  0.00     0.200 A 
ATOM     80  F   UNL A   1      48.320  27.338  23.080  1.00  0.00    -0.200 F 
ATOM     81  F   UNL A   1      50.314  26.202  24.555  1.00  0.00    -0.200 F 
ENDBRANCH  57  71
BRANCH  58  82
ATOM     82  C   UNL A   1      38.795  31.389  30.921  1.00  0.00     0.064 A 
ATOM     83  C   UNL A   1      38.602  31.164  32.291  1.00  0.00     0.173 A 
ATOM     84  C   UNL A   1      37.799  32.097  30.233  1.00  0.00     0.173 A 
ATOM     85  F   UNL A   1      39.510  30.467  32.989  1.00  0.00    -0.203 F 
ATOM     86  C   UNL A   1      37.451  31.608  32.940  1.00  0.00     0.198 A 
ATOM     87  C   UNL A   1      36.663  32.570  30.889  1.00  0.00     0.198 A 
ATOM     88  F   UNL A   1      37.928  32.335  28.919  1.00  0.00    -0.203 F 
ATOM     89  F   UNL A   1      37.267  31.330  34.239  1.00  0.00    -0.200 F 
ATOM     90  C   UNL A   1      36.486  32.316  32.240  1.00  0.00     0.200 A 
ATOM     91  F   UNL A   1      35.739  33.262  30.210  1.00  0.00    -0.200 F 
ATOM     92  F   UNL A   1      35.379  32.744  32.864  1.00  0.00    -0.200 F 
ENDBRANCH  58  82
BRANCH  70  93
ATOM     93  C   UNL A   1      45.178  33.982  29.773  1.00  0.00     0.064 A 
ATOM     94  C   UNL A   1      45.915  34.175  30.949  1.00  0.00     0.173 A 
ATOM     95  C   UNL A   1      45.112  35.046  28.857  1.00  0.00     0.173 A 
ATOM     96  F   UNL A   1      46.001  33.196  31.862  1.00  0.00    -0.203 F 
ATOM     97  C   UNL A   1      46.545  35.391  31.207  1.00  0.00     0.198 A 
ATOM     98  C   UNL A   1      45.772  36.247  29.103  1.00  0.00     0.198 A 
ATOM     99  F   UNL A   1      44.429  34.911  27.711  1.00  0.00    -0.203 F 
ATOM    100  F   UNL A   1      47.209  35.568  32.358  1.00  0.00    -0.200 F 
ATOM    101  C   UNL A   1      46.482  36.421  30.281  1.00  0.00     0.200 A 
ATOM    102  F   UNL A   1      45.725  37.232  28.196  1.00  0.00    -0.200 F 
ATOM    103  F   UNL A   1      47.103  37.583  30.523  1.00  0.00    -0.200 F 
ENDBRANCH  70  93
ENDBRANCH  44  45
ENDBRANCH  37  39
ENDBRANCH  36  37
ENDBRANCH  35  36
ENDBRANCH  34  35
ENDBRANCH  33  34
ENDBRANCH  32  33
ENDBRANCH  31  32
ENDBRANCH  30  31
ENDBRANCH   1  30
TORSDOF 23
ENDMDL
MODEL 3
REMARK VINA RESULT:     -10.5      4.519      8.924
REMARK SMILES CCOc1ccccc1-c1cc(C(=O)OCCOCCOCCOCCOC(=O)c2ccc(-c3c4nc(c(-c5c(F)c(F)c(F)c(F)c5F)c5ccc([nH]5)c(-c5c(F)c(F)c(F)c(F)c5F)c5nc(c(-c6c(F)c(F)c(F)c(F)c6F)c6ccc3[nH]6)C=C5)C=C4)cc2)c2cc(C)cc(C)c2n1
REMARK SMILES IDX 20 1 19 2 18 3 17 4 16 5 15 6 13 7 14 8 12 9 10 10 11 11
REMARK SMILES IDX 101 12 100 13 93 14 98 15 94 16 97 17 99 18 95 19 96 20 9 21
REMARK SMILES IDX 4 22 5 23 6 24 8 25 7 26 3 27 2 28 1 29 21 30 22 31 23 32
REMARK SMILES IDX 24 33 25 34 26 35 27 36 28 37 29 38 30 39 31 40 92 41 32 42
REMARK SMILES IDX 91 43 33 44 34 45 35 46 85 47 36 48 90 49 84 50 86 51 37 52
REMARK SMILES IDX 89 53 83 54 82 55 38 57 70 58 50 59 69 60 51 61 54 62 68 63
REMARK SMILES IDX 87 64 52 65 53 66 67 68 88 69 55 70 39 71 40 72 48 73 41 74
REMARK SMILES IDX 42 75 46 76 49 77 43 78 44 79 47 80 45 81 71 82 72 83 80 84
REMARK SMILES IDX 73 85 74 86 78 87 81 88 75 89 76 90 79 91 77 92 56 93 57 94
REMARK SMILES IDX 65 95 58 96 59 97 63 98 66 99 60 100 61 101 64 102 62 103
REMARK H PARENT 86 56 54 67
REMARK Flexibility Score: inf
ROOT
ATOM      1  C   UNL A   1      33.255  18.086  24.511  1.00  0.00     0.188 C 
ENDROOT
BRANCH   1   2
ATOM      2  C   UNL A   1      32.328  17.975  23.295  1.00  0.00     0.188 C 
BRANCH   2   3
ATOM      3  O   UNL A   1      32.576  18.774  22.149  1.00  0.00    -0.376 OA
BRANCH   3   4
ATOM      4  C   UNL A   1      31.942  20.038  21.993  1.00  0.00     0.202 C 
BRANCH   4   5
ATOM      5  C   UNL A   1      32.533  21.302  22.654  1.00  0.00     0.261 C 
BRANCH   5   6
ATOM      6  O   UNL A   1      32.534  22.493  21.854  1.00  0.00    -0.460 OA
BRANCH   6   7
ATOM      7  C   UNL A   1      33.402  23.435  22.281  1.00  0.00     0.338 C 
ATOM      8  O   UNL A   1      34.608  23.293  22.398  1.00  0.00    -0.246 OA
BRANCH   7   9
ATOM      9  C   UNL A   1      32.715  24.711  22.567  1.00  0.00     0.071 A 
ATOM     10  C   UNL A   1      32.349  27.027  22.373  1.00  0.00     0.076 A 
ATOM     11  C   UNL A   1      33.187  25.957  22.136  1.00  0.00     0.045 A 
ATOM     12  N   UNL A   1      31.030  26.761  22.410  1.00  0.00    -0.247 NA
ATOM     13  C   UNL A   1      30.697  25.763  23.230  1.00  0.00     0.075 A 
ATOM     14  C   UNL A   1      31.581  24.695  23.399  1.00  0.00     0.015 A 
ATOM     15  C   UNL A   1      29.598  25.903  24.070  1.00  0.00    -0.024 A 
ATOM     16  C   UNL A   1      31.425  23.839  24.512  1.00  0.00     0.014 A 
ATOM     17  C   UNL A   1      29.512  25.114  25.224  1.00  0.00     0.009 A 
ATOM     18  C   UNL A   1      28.598  27.006  23.857  1.00  0.00     0.047 C 
ATOM     19  C   UNL A   1      30.464  24.126  25.485  1.00  0.00    -0.050 A 
ATOM     20  C   UNL A   1      30.587  23.530  26.859  1.00  0.00     0.044 C 
BRANCH  10  21
ATOM     21  C   UNL A   1      32.602  28.097  23.408  1.00  0.00     0.042 A 
ATOM     22  C   UNL A   1      33.287  27.770  24.604  1.00  0.00     0.128 A 
ATOM     23  C   UNL A   1      32.873  28.276  25.842  1.00  0.00     0.047 A 
ATOM     24  C   UNL A   1      31.870  29.237  25.895  1.00  0.00     0.004 A 
ATOM     25  C   UNL A   1      31.697  29.174  23.475  1.00  0.00     0.014 A 
ATOM     26  C   UNL A   1      31.333  29.733  24.709  1.00  0.00     0.001 A 
BRANCH  22  27
ATOM     27  O   UNL A   1      34.246  26.787  24.617  1.00  0.00    -0.493 OA
BRANCH  27  28
ATOM     28  C   UNL A   1      34.125  25.981  25.794  1.00  0.00     0.226 C 
ATOM     29  C   UNL A   1      34.823  24.642  25.614  1.00  0.00     0.049 C 
ENDBRANCH  27  28
ENDBRANCH  22  27
ENDBRANCH  10  21
ENDBRANCH   7   9
ENDBRANCH   6   7
ENDBRANCH   5   6
ENDBRANCH   4   5
ENDBRANCH   3   4
ENDBRANCH   2   3
ENDBRANCH   1   2
BRANCH   1  30
ATOM     30  O   UNL A   1      32.827  19.031  25.478  1.00  0.00    -0.377 OA
BRANCH  30  31
ATOM     31  C   UNL A   1      33.701  20.128  25.652  1.00  0.00     0.188 C 
BRANCH  31  32
ATOM     32  C   UNL A   1      35.049  20.032  24.922  1.00  0.00     0.188 C 
BRANCH  32  33
ATOM     33  O   UNL A   1      35.937  21.083  25.288  1.00  0.00    -0.376 OA
BRANCH  33  34
ATOM     34  C   UNL A   1      37.289  20.987  24.876  1.00  0.00     0.202 C 
BRANCH  34  35
ATOM     35  C   UNL A   1      38.317  21.645  25.808  1.00  0.00     0.261 C 
BRANCH  35  36
ATOM     36  O   UNL A   1      39.640  21.093  25.774  1.00  0.00    -0.460 OA
BRANCH  36  37
ATOM     37  C   UNL A   1      40.297  20.997  26.956  1.00  0.00     0.338 C 
ATOM     38  O   UNL A   1      40.574  19.988  27.559  1.00  0.00    -0.246 OA
BRANCH  37  39
ATOM     39  C   UNL A   1      40.799  22.352  27.287  1.00  0.00     0.060 A 
ATOM     40  C   UNL A   1      40.349  23.436  26.522  1.00  0.00     0.016 A 
ATOM     41  C   UNL A   1      41.643  22.560  28.381  1.00  0.00     0.016 A 
ATOM     42  C   UNL A   1      40.740  24.735  26.850  1.00  0.00     0.010 A 
ATOM     43  C   UNL A   1      42.070  23.857  28.682  1.00  0.00     0.010 A 
ATOM     44  C   UNL A   1      41.637  24.946  27.904  1.00  0.00    -0.014 A 
BRANCH  44  45
ATOM     45  C   UNL A   1      42.306  26.262  28.042  1.00  0.00     0.031 A 
ATOM     46  C   UNL A   1      41.560  27.348  28.764  1.00  0.00     0.074 A 
ATOM     47  C   UNL A   1      43.537  26.491  27.554  1.00  0.00     0.049 A 
ATOM     48  N   UNL A   1      41.880  28.602  28.948  1.00  0.00    -0.248 NA
ATOM     49  C   UNL A   1      40.269  26.962  29.357  1.00  0.00     0.031 C 
ATOM     50  C   UNL A   1      44.380  25.504  26.886  1.00  0.00     0.029 A 
ATOM     51  N   UNL A   1      44.284  27.643  27.536  1.00  0.00    -0.354 N 
ATOM     52  C   UNL A   1      40.831  29.153  29.671  1.00  0.00     0.074 A 
ATOM     53  C   UNL A   1      39.850  28.109  29.866  1.00  0.00     0.031 C 
ATOM     54  C   UNL A   1      45.523  26.099  26.501  1.00  0.00     0.029 A 
ATOM     55  C   UNL A   1      45.473  27.516  26.862  1.00  0.00     0.049 A 
ATOM     56  H   UNL A   1      43.994  28.480  27.966  1.00  0.00     0.167 HD
ATOM     57  C   UNL A   1      40.700  30.417  30.137  1.00  0.00     0.037 A 
ATOM     58  C   UNL A   1      46.394  28.450  26.545  1.00  0.00     0.037 A 
ATOM     59  C   UNL A   1      41.672  31.456  29.925  1.00  0.00     0.049 A 
ATOM     60  C   UNL A   1      46.180  29.877  26.988  1.00  0.00     0.074 A 
ATOM     61  C   UNL A   1      41.638  32.769  30.356  1.00  0.00     0.029 A 
ATOM     62  N   UNL A   1      42.849  31.297  29.207  1.00  0.00    -0.354 N 
ATOM     63  N   UNL A   1      45.197  30.391  27.689  1.00  0.00    -0.248 NA
ATOM     64  C   UNL A   1      47.205  30.856  26.596  1.00  0.00     0.031 C 
ATOM     65  C   UNL A   1      42.763  33.423  29.845  1.00  0.00     0.029 A 
ATOM     66  C   UNL A   1      43.534  32.500  29.157  1.00  0.00     0.049 A 
ATOM     67  H   UNL A   1      43.152  30.457  28.795  1.00  0.00     0.167 HD
ATOM     68  C   UNL A   1      45.502  31.738  27.851  1.00  0.00     0.074 A 
ATOM     69  C   UNL A   1      46.766  31.961  27.182  1.00  0.00     0.031 C 
ATOM     70  C   UNL A   1      44.801  32.702  28.499  1.00  0.00     0.037 A 
BRANCH  57  71
ATOM     71  C   UNL A   1      39.442  30.752  30.882  1.00  0.00     0.064 A 
ATOM     72  C   UNL A   1      38.299  31.237  30.228  1.00  0.00     0.173 A 
ATOM     73  C   UNL A   1      39.374  30.571  32.272  1.00  0.00     0.173 A 
ATOM     74  F   UNL A   1      38.319  31.446  28.903  1.00  0.00    -0.203 F 
ATOM     75  C   UNL A   1      37.147  31.557  30.940  1.00  0.00     0.198 A 
ATOM     76  C   UNL A   1      38.209  30.859  32.977  1.00  0.00     0.198 A 
ATOM     77  F   UNL A   1      40.438  30.112  32.948  1.00  0.00    -0.203 F 
ATOM     78  F   UNL A   1      36.088  32.073  30.302  1.00  0.00    -0.200 F 
ATOM     79  C   UNL A   1      37.100  31.359  32.312  1.00  0.00     0.200 A 
ATOM     80  F   UNL A   1      38.162  30.656  34.301  1.00  0.00    -0.200 F 
ATOM     81  F   UNL A   1      35.987  31.662  32.996  1.00  0.00    -0.200 F 
ENDBRANCH  57  71
BRANCH  58  82
ATOM     82  C   UNL A   1      47.592  28.076  25.744  1.00  0.00     0.064 A 
ATOM     83  C   UNL A   1      47.504  27.864  24.361  1.00  0.00     0.173 A 
ATOM     84  C   UNL A   1      48.843  27.892  26.351  1.00  0.00     0.173 A 
ATOM     85  F   UNL A   1      46.325  27.998  23.736  1.00  0.00    -0.203 F 
ATOM     86  C   UNL A   1      48.615  27.463  23.621  1.00  0.00     0.198 A 
ATOM     87  C   UNL A   1      49.961  27.523  25.605  1.00  0.00     0.198 A 
ATOM     88  F   UNL A   1      48.982  28.075  27.673  1.00  0.00    -0.203 F 
ATOM     89  F   UNL A   1      48.490  27.213  22.310  1.00  0.00    -0.200 F 
ATOM     90  C   UNL A   1      49.844  27.299  24.242  1.00  0.00     0.200 A 
ATOM     91  F   UNL A   1      51.148  27.376  26.210  1.00  0.00    -0.200 F 
ATOM     92  F   UNL A   1      50.913  26.914  23.531  1.00  0.00    -0.200 F 
ENDBRANCH  58  82
BRANCH  70  93
ATOM     93  C   UNL A   1      45.401  34.079  28.566  1.00  0.00     0.064 A 
ATOM     94  C   UNL A   1      46.336  34.433  29.548  1.00  0.00     0.173 A 
ATOM     95  C   UNL A   1      45.086  35.033  27.584  1.00  0.00     0.173 A 
ATOM     96  F   UNL A   1      46.663  33.564  30.516  1.00  0.00    -0.203 F 
ATOM     97  C   UNL A   1      46.917  35.700  29.558  1.00  0.00     0.198 A 
ATOM     98  C   UNL A   1      45.696  36.284  27.576  1.00  0.00     0.198 A 
ATOM     99  F   UNL A   1      44.206  34.740  26.614  1.00  0.00    -0.203 F 
ATOM    100  F   UNL A   1      47.776  36.032  30.531  1.00  0.00    -0.200 F 
ATOM    101  C   UNL A   1      46.606  36.619  28.567  1.00  0.00     0.200 A 
ATOM    102  F   UNL A   1      45.407  37.161  26.606  1.00  0.00    -0.200 F 
ATOM    103  F   UNL A   1      47.179  37.829  28.568  1.00  0.00    -0.200 F 
ENDBRANCH  70  93
ENDBRANCH  44  45
ENDBRANCH  37  39
ENDBRANCH  36  37
ENDBRANCH  35  36
ENDBRANCH  34  35
ENDBRANCH  33  34
ENDBRANCH  32  33
ENDBRANCH  31  32
ENDBRANCH  30  31
ENDBRANCH   1  30
TORSDOF 23
ENDMDL
