MODEL 1
REMARK VINA RESULT:      -8.4      0.000      0.000
REMARK SMILES COc1ccc(CC(=O)OCCOCCOCCOCCOC(=O)c2ccc(-c3c4nc(c(-c5c(F)c(F)c(F)c(F)c5F)c5ccc([nH]5)c(-c5c(F)c(F)c(F)c(F)c5F)c5nc(c(-c6c(F)c(F)c(F)c(F)c6F)c6ccc3[nH]6)C=C5)C=C4)cc2)cc1S(=O)(=O)Nc1ccccc1Br
REMARK SMILES IDX 15 1 14 2 13 3 12 4 11 5 10 6 8 7 9 8 7 9 6 10 3 11 4 12
REMARK SMILES IDX 89 13 5 14 88 15 2 16 1 17 90 18 91 19 92 20 93 21 94 23
REMARK SMILES IDX 95 24 99 25 96 26 98 27 100 28 97 29 16 30 17 31 18 32 19 33
REMARK SMILES IDX 20 34 21 35 22 36 23 37 24 38 25 39 26 40 87 41 27 42 86 43
REMARK SMILES IDX 28 44 29 45 30 46 80 47 31 48 85 49 79 50 81 51 32 52 84 53
REMARK SMILES IDX 78 54 77 55 33 57 65 58 45 59 64 60 46 61 49 62 63 63 82 64
REMARK SMILES IDX 47 65 48 66 62 68 83 69 50 70 34 71 35 72 43 73 36 74 37 75
REMARK SMILES IDX 41 76 44 77 38 78 39 79 42 80 40 81 66 82 67 83 75 84 68 85
REMARK SMILES IDX 69 86 73 87 76 88 70 89 71 90 74 91 72 92 51 93 52 94 60 95
REMARK SMILES IDX 53 96 54 97 58 98 61 99 55 100 56 101 59 102 57 103
REMARK H PARENT 93 22 81 56 49 67
REMARK Flexibility Score: inf
ROOT
ATOM      1  C   UNL A   1      40.456  35.537  35.209  1.00  0.00     0.188 C 
ENDROOT
BRANCH   1   2
ATOM      2  C   UNL A   1      40.808  35.979  36.647  1.00  0.00     0.188 C 
BRANCH   2   3
ATOM      3  O   UNL A   1      40.050  35.544  37.775  1.00  0.00    -0.376 OA
BRANCH   3   4
ATOM      4  C   UNL A   1      40.497  34.447  38.549  1.00  0.00     0.202 C 
BRANCH   4   5
ATOM      5  C   UNL A   1      39.430  33.507  39.143  1.00  0.00     0.261 C 
BRANCH   5   6
ATOM      6  O   UNL A   1      39.203  32.256  38.454  1.00  0.00    -0.463 OA
BRANCH   6   7
ATOM      7  C   UNL A   1      38.380  32.316  37.380  1.00  0.00     0.310 C 
ATOM      8  O   UNL A   1      37.253  32.806  37.416  1.00  0.00    -0.252 OA
BRANCH   7   9
ATOM      9  C   UNL A   1      38.887  31.642  36.122  1.00  0.00     0.158 C 
BRANCH   9  10
ATOM     10  C   UNL A   1      38.472  32.033  34.709  1.00  0.00    -0.035 A 
ATOM     11  C   UNL A   1      37.901  33.400  32.297  1.00  0.00     0.139 A 
ATOM     12  C   UNL A   1      39.130  32.757  32.479  1.00  0.00     0.048 A 
ATOM     13  C   UNL A   1      36.889  33.220  33.231  1.00  0.00     0.129 A 
ATOM     14  C   UNL A   1      39.422  32.096  33.678  1.00  0.00     0.008 A 
ATOM     15  C   UNL A   1      37.186  32.537  34.440  1.00  0.00     0.030 A 
BRANCH  11  16
ATOM     16  O   UNL A   1      37.812  34.193  31.192  1.00  0.00    -0.495 OA
ATOM     17  C   UNL A   1      39.093  34.681  30.779  1.00  0.00     0.278 C 
ENDBRANCH  11  16
BRANCH  13  18
ATOM     18  S   UNL A   1      35.256  33.905  33.102  1.00  0.00     0.265 S 
ATOM     19  O   UNL A   1      34.468  33.341  34.180  1.00  0.00    -0.201 OA
ATOM     20  O   UNL A   1      35.454  35.343  33.049  1.00  0.00    -0.201 OA
BRANCH  18  21
ATOM     21  N   UNL A   1      34.425  33.563  31.675  1.00  0.00    -0.278 N 
ATOM     22  H   UNL A   1      34.111  32.638  31.550  1.00  0.00     0.180 HD
BRANCH  21  23
ATOM     23  C   UNL A   1      34.135  34.495  30.630  1.00  0.00     0.063 A 
ATOM     24  C   UNL A   1      34.922  34.360  29.469  1.00  0.00     0.028 A 
ATOM     25  C   UNL A   1      33.182  35.518  30.677  1.00  0.00     0.042 A 
ATOM     26  C   UNL A   1      34.678  35.135  28.334  1.00  0.00     0.002 A 
ATOM     27  C   UNL A   1      32.942  36.296  29.534  1.00  0.00     0.018 A 
ATOM     28  Br  UNL A   1      32.210  35.971  32.239  1.00  0.00    -0.049 Br
ATOM     29  C   UNL A   1      33.671  36.089  28.360  1.00  0.00     0.001 A 
ENDBRANCH  21  23
ENDBRANCH  18  21
ENDBRANCH  13  18
ENDBRANCH   9  10
ENDBRANCH   7   9
ENDBRANCH   6   7
ENDBRANCH   5   6
ENDBRANCH   4   5
ENDBRANCH   3   4
ENDBRANCH   2   3
ENDBRANCH   1   2
BRANCH   1  30
ATOM     30  O   UNL A   1      41.469  34.788  34.565  1.00  0.00    -0.377 OA
BRANCH  30  31
ATOM     31  C   UNL A   1      41.895  35.289  33.315  1.00  0.00     0.188 C 
BRANCH  31  32
ATOM     32  C   UNL A   1      43.404  35.184  33.046  1.00  0.00     0.188 C 
BRANCH  32  33
ATOM     33  O   UNL A   1      43.797  35.937  31.905  1.00  0.00    -0.376 OA
BRANCH  33  34
ATOM     34  C   UNL A   1      44.780  36.945  32.048  1.00  0.00     0.202 C 
BRANCH  34  35
ATOM     35  C   UNL A   1      46.104  36.591  32.747  1.00  0.00     0.261 C 
BRANCH  35  36
ATOM     36  O   UNL A   1      47.245  36.333  31.917  1.00  0.00    -0.460 OA
BRANCH  36  37
ATOM     37  C   UNL A   1      47.059  36.227  30.580  1.00  0.00     0.338 C 
ATOM     38  O   UNL A   1      47.396  37.018  29.734  1.00  0.00    -0.246 OA
BRANCH  37  39
ATOM     39  C   UNL A   1      46.541  34.856  30.320  1.00  0.00     0.060 A 
ATOM     40  C   UNL A   1      45.849  34.610  29.127  1.00  0.00     0.016 A 
ATOM     41  C   UNL A   1      46.800  33.809  31.207  1.00  0.00     0.016 A 
ATOM     42  C   UNL A   1      45.429  33.315  28.811  1.00  0.00     0.010 A 
ATOM     43  C   UNL A   1      46.353  32.518  30.905  1.00  0.00     0.010 A 
ATOM     44  C   UNL A   1      45.653  32.266  29.712  1.00  0.00    -0.014 A 
BRANCH  44  45
ATOM     45  C   UNL A   1      45.012  30.945  29.494  1.00  0.00     0.031 A 
ATOM     46  C   UNL A   1      45.818  29.865  28.827  1.00  0.00     0.074 A 
ATOM     47  C   UNL A   1      43.744  30.705  29.871  1.00  0.00     0.049 A 
ATOM     48  N   UNL A   1      45.459  28.662  28.457  1.00  0.00    -0.248 NA
ATOM     49  C   UNL A   1      47.223  30.191  28.535  1.00  0.00     0.031 C 
ATOM     50  C   UNL A   1      42.871  31.654  30.557  1.00  0.00     0.029 A 
ATOM     51  N   UNL A   1      42.963  29.586  29.706  1.00  0.00    -0.354 N 
ATOM     52  C   UNL A   1      46.587  28.094  27.881  1.00  0.00     0.074 A 
ATOM     53  C   UNL A   1      47.637  29.088  27.930  1.00  0.00     0.031 C 
ATOM     54  C   UNL A   1      41.665  31.086  30.735  1.00  0.00     0.029 A 
ATOM     55  C   UNL A   1      41.670  29.749  30.140  1.00  0.00     0.049 A 
ATOM     56  H   UNL A   1      43.298  28.746  29.316  1.00  0.00     0.167 HD
ATOM     57  C   UNL A   1      46.733  26.854  27.359  1.00  0.00     0.037 A 
ATOM     58  C   UNL A   1      40.605  28.927  30.035  1.00  0.00     0.037 A 
ATOM     59  C   UNL A   1      45.684  25.871  27.305  1.00  0.00     0.049 A 
ATOM     60  C   UNL A   1      40.774  27.580  29.372  1.00  0.00     0.074 A 
ATOM     61  C   UNL A   1      45.742  24.574  26.827  1.00  0.00     0.029 A 
ATOM     62  N   UNL A   1      44.380  26.083  27.728  1.00  0.00    -0.354 N 
ATOM     63  N   UNL A   1      41.853  27.030  28.871  1.00  0.00    -0.248 NA
ATOM     64  C   UNL A   1      39.571  26.740  29.261  1.00  0.00     0.031 C 
ATOM     65  C   UNL A   1      44.459  24.025  26.896  1.00  0.00     0.029 A 
ATOM     66  C   UNL A   1      43.615  24.954  27.482  1.00  0.00     0.049 A 
ATOM     67  H   UNL A   1      44.048  26.912  28.141  1.00  0.00     0.167 HD
ATOM     68  C   UNL A   1      41.467  25.777  28.409  1.00  0.00     0.074 A 
ATOM     69  C   UNL A   1      40.059  25.638  28.708  1.00  0.00     0.031 C 
ATOM     70  C   UNL A   1      42.212  24.828  27.789  1.00  0.00     0.037 A 
BRANCH  57  71
ATOM     71  C   UNL A   1      48.066  26.500  26.768  1.00  0.00     0.064 A 
ATOM     72  C   UNL A   1      49.078  25.896  27.529  1.00  0.00     0.173 A 
ATOM     73  C   UNL A   1      48.318  26.731  25.406  1.00  0.00     0.173 A 
ATOM     74  F   UNL A   1      48.895  25.669  28.838  1.00  0.00    -0.203 F 
ATOM     75  C   UNL A   1      50.300  25.557  26.953  1.00  0.00     0.198 A 
ATOM     76  C   UNL A   1      49.528  26.361  24.827  1.00  0.00     0.198 A 
ATOM     77  F   UNL A   1      47.383  27.305  24.634  1.00  0.00    -0.203 F 
ATOM     78  F   UNL A   1      51.269  25.022  27.708  1.00  0.00    -0.200 F 
ATOM     79  C   UNL A   1      50.520  25.780  25.602  1.00  0.00     0.200 A 
ATOM     80  F   UNL A   1      49.733  26.567  23.519  1.00  0.00    -0.200 F 
ATOM     81  F   UNL A   1      51.692  25.443  25.047  1.00  0.00    -0.200 F 
ENDBRANCH  57  71
BRANCH  58  82
ATOM     82  C   UNL A   1      39.271  29.361  30.531  1.00  0.00     0.064 A 
ATOM     83  C   UNL A   1      38.823  29.011  31.813  1.00  0.00     0.173 A 
ATOM     84  C   UNL A   1      38.398  30.100  29.719  1.00  0.00     0.173 A 
ATOM     85  F   UNL A   1      39.604  28.276  32.618  1.00  0.00    -0.203 F 
ATOM     86  C   UNL A   1      37.547  29.364  32.254  1.00  0.00     0.198 A 
ATOM     87  C   UNL A   1      37.136  30.481  30.172  1.00  0.00     0.198 A 
ATOM     88  F   UNL A   1      38.770  30.450  28.479  1.00  0.00    -0.203 F 
ATOM     89  F   UNL A   1      37.124  28.963  33.460  1.00  0.00    -0.200 F 
ATOM     90  C   UNL A   1      36.708  30.104  31.435  1.00  0.00     0.200 A 
ATOM     91  F   UNL A   1      36.330  31.202  29.380  1.00  0.00    -0.200 F 
ATOM     92  F   UNL A   1      35.482  30.441  31.859  1.00  0.00    -0.200 F 
ENDBRANCH  58  82
BRANCH  70  93
ATOM     93  C   UNL A   1      41.531  23.540  27.417  1.00  0.00     0.064 A 
ATOM     94  C   UNL A   1      40.533  23.491  26.432  1.00  0.00     0.173 A 
ATOM     95  C   UNL A   1      41.921  22.332  28.015  1.00  0.00     0.173 A 
ATOM     96  F   UNL A   1      40.114  24.619  25.837  1.00  0.00    -0.203 F 
ATOM     97  C   UNL A   1      39.933  22.285  26.079  1.00  0.00     0.198 A 
ATOM     98  C   UNL A   1      41.345  21.123  27.633  1.00  0.00     0.198 A 
ATOM     99  F   UNL A   1      42.878  22.319  28.954  1.00  0.00    -0.203 F 
ATOM    100  F   UNL A   1      38.948  22.269  25.169  1.00  0.00    -0.200 F 
ATOM    101  C   UNL A   1      40.346  21.102  26.671  1.00  0.00     0.200 A 
ATOM    102  F   UNL A   1      41.759  19.978  28.194  1.00  0.00    -0.200 F 
ATOM    103  F   UNL A   1      39.777  19.940  26.321  1.00  0.00    -0.200 F 
ENDBRANCH  70  93
ENDBRANCH  44  45
ENDBRANCH  37  39
ENDBRANCH  36  37
ENDBRANCH  35  36
ENDBRANCH  34  35
ENDBRANCH  33  34
ENDBRANCH  32  33
ENDBRANCH  31  32
ENDBRANCH  30  31
ENDBRANCH   1  30
TORSDOF 25
ENDMDL
MODEL 2
REMARK VINA RESULT:      -8.0      6.240     13.455
REMARK SMILES COc1ccc(CC(=O)OCCOCCOCCOCCOC(=O)c2ccc(-c3c4nc(c(-c5c(F)c(F)c(F)c(F)c5F)c5ccc([nH]5)c(-c5c(F)c(F)c(F)c(F)c5F)c5nc(c(-c6c(F)c(F)c(F)c(F)c6F)c6ccc3[nH]6)C=C5)C=C4)cc2)cc1S(=O)(=O)Nc1ccccc1Br
REMARK SMILES IDX 15 1 14 2 13 3 12 4 11 5 10 6 8 7 9 8 7 9 6 10 3 11 4 12
REMARK SMILES IDX 89 13 5 14 88 15 2 16 1 17 90 18 91 19 92 20 93 21 94 23
REMARK SMILES IDX 95 24 99 25 96 26 98 27 100 28 97 29 16 30 17 31 18 32 19 33
REMARK SMILES IDX 20 34 21 35 22 36 23 37 24 38 25 39 26 40 87 41 27 42 86 43
REMARK SMILES IDX 28 44 29 45 30 46 80 47 31 48 85 49 79 50 81 51 32 52 84 53
REMARK SMILES IDX 78 54 77 55 33 57 65 58 45 59 64 60 46 61 49 62 63 63 82 64
REMARK SMILES IDX 47 65 48 66 62 68 83 69 50 70 34 71 35 72 43 73 36 74 37 75
REMARK SMILES IDX 41 76 44 77 38 78 39 79 42 80 40 81 66 82 67 83 75 84 68 85
REMARK SMILES IDX 69 86 73 87 76 88 70 89 71 90 74 91 72 92 51 93 52 94 60 95
REMARK SMILES IDX 53 96 54 97 58 98 61 99 55 100 56 101 59 102 57 103
REMARK H PARENT 93 22 81 56 49 67
REMARK Flexibility Score: inf
ROOT
ATOM      1  C   UNL A   1      36.367  33.090  33.713  1.00  0.00     0.188 C 
ENDROOT
BRANCH   1   2
ATOM      2  C   UNL A   1      37.307  32.714  34.881  1.00  0.00     0.188 C 
BRANCH   2   3
ATOM      3  O   UNL A   1      37.445  31.367  35.332  1.00  0.00    -0.376 OA
BRANCH   3   4
ATOM      4  C   UNL A   1      38.711  30.736  35.304  1.00  0.00     0.202 C 
BRANCH   4   5
ATOM      5  C   UNL A   1      39.349  30.471  33.926  1.00  0.00     0.261 C 
BRANCH   5   6
ATOM      6  O   UNL A   1      38.488  29.925  32.900  1.00  0.00    -0.463 OA
BRANCH   6   7
ATOM      7  C   UNL A   1      38.682  28.618  32.603  1.00  0.00     0.310 C 
ATOM      8  O   UNL A   1      37.929  27.720  32.974  1.00  0.00    -0.252 OA
BRANCH   7   9
ATOM      9  C   UNL A   1      39.959  28.294  31.857  1.00  0.00     0.158 C 
BRANCH   9  10
ATOM     10  C   UNL A   1      40.037  28.021  30.361  1.00  0.00    -0.035 A 
ATOM     11  C   UNL A   1      40.119  26.842  27.788  1.00  0.00     0.139 A 
ATOM     12  C   UNL A   1      38.914  27.312  28.319  1.00  0.00     0.048 A 
ATOM     13  C   UNL A   1      41.310  27.114  28.448  1.00  0.00     0.129 A 
ATOM     14  C   UNL A   1      38.867  27.877  29.599  1.00  0.00     0.008 A 
ATOM     15  C   UNL A   1      41.260  27.700  29.740  1.00  0.00     0.030 A 
BRANCH  11  16
ATOM     16  O   UNL A   1      40.011  26.115  26.641  1.00  0.00    -0.495 OA
ATOM     17  C   UNL A   1      39.236  24.927  26.831  1.00  0.00     0.278 C 
ENDBRANCH  11  16
BRANCH  13  18
ATOM     18  S   UNL A   1      42.923  26.654  27.864  1.00  0.00     0.265 S 
ATOM     19  O   UNL A   1      42.922  26.823  26.425  1.00  0.00    -0.201 OA
ATOM     20  O   UNL A   1      43.851  27.431  28.667  1.00  0.00    -0.201 OA
BRANCH  18  21
ATOM     21  N   UNL A   1      43.383  25.057  28.156  1.00  0.00    -0.278 N 
ATOM     22  H   UNL A   1      44.121  24.913  28.793  1.00  0.00     0.180 HD
BRANCH  21  23
ATOM     23  C   UNL A   1      42.798  23.895  27.562  1.00  0.00     0.063 A 
ATOM     24  C   UNL A   1      41.914  23.177  28.392  1.00  0.00     0.028 A 
ATOM     25  C   UNL A   1      43.048  23.411  26.274  1.00  0.00     0.042 A 
ATOM     26  C   UNL A   1      41.195  22.083  27.910  1.00  0.00     0.002 A 
ATOM     27  C   UNL A   1      42.324  22.309  25.794  1.00  0.00     0.018 A 
ATOM     28  Br  UNL A   1      44.374  24.128  25.126  1.00  0.00    -0.049 Br
ATOM     29  C   UNL A   1      41.384  21.663  26.600  1.00  0.00     0.001 A 
ENDBRANCH  21  23
ENDBRANCH  18  21
ENDBRANCH  13  18
ENDBRANCH   9  10
ENDBRANCH   7   9
ENDBRANCH   6   7
ENDBRANCH   5   6
ENDBRANCH   4   5
ENDBRANCH   3   4
ENDBRANCH   2   3
ENDBRANCH   1   2
BRANCH   1  30
ATOM     30  O   UNL A   1      34.991  33.080  34.046  1.00  0.00    -0.377 OA
BRANCH  30  31
ATOM     31  C   UNL A   1      34.101  33.193  32.955  1.00  0.00     0.188 C 
BRANCH  31  32
ATOM     32  C   UNL A   1      34.756  33.523  31.606  1.00  0.00     0.188 C 
BRANCH  32  33
ATOM     33  O   UNL A   1      33.814  34.015  30.660  1.00  0.00    -0.376 OA
BRANCH  33  34
ATOM     34  C   UNL A   1      34.088  33.881  29.278  1.00  0.00     0.202 C 
BRANCH  34  35
ATOM     35  C   UNL A   1      34.656  32.548  28.765  1.00  0.00     0.261 C 
BRANCH  35  36
ATOM     36  O   UNL A   1      35.949  32.571  28.145  1.00  0.00    -0.460 OA
BRANCH  36  37
ATOM     37  C   UNL A   1      36.853  31.628  28.503  1.00  0.00     0.338 C 
ATOM     38  O   UNL A   1      36.854  30.464  28.185  1.00  0.00    -0.246 OA
BRANCH  37  39
ATOM     39  C   UNL A   1      37.965  32.332  29.198  1.00  0.00     0.060 A 
ATOM     40  C   UNL A   1      37.874  33.718  29.384  1.00  0.00     0.016 A 
ATOM     41  C   UNL A   1      39.047  31.625  29.725  1.00  0.00     0.016 A 
ATOM     42  C   UNL A   1      38.856  34.396  30.112  1.00  0.00     0.010 A 
ATOM     43  C   UNL A   1      40.046  32.309  30.428  1.00  0.00     0.010 A 
ATOM     44  C   UNL A   1      39.963  33.700  30.614  1.00  0.00    -0.014 A 
BRANCH  44  45
ATOM     45  C   UNL A   1      41.117  34.441  31.181  1.00  0.00     0.031 A 
ATOM     46  C   UNL A   1      41.235  34.535  32.677  1.00  0.00     0.074 A 
ATOM     47  C   UNL A   1      42.038  35.024  30.394  1.00  0.00     0.049 A 
ATOM     48  N   UNL A   1      42.101  35.190  33.407  1.00  0.00    -0.248 NA
ATOM     49  C   UNL A   1      40.233  33.789  33.455  1.00  0.00     0.031 C 
ATOM     50  C   UNL A   1      42.056  34.975  28.934  1.00  0.00     0.029 A 
ATOM     51  N   UNL A   1      43.129  35.794  30.720  1.00  0.00    -0.354 N 
ATOM     52  C   UNL A   1      41.743  34.944  34.726  1.00  0.00     0.074 A 
ATOM     53  C   UNL A   1      40.570  34.098  34.698  1.00  0.00     0.031 C 
ATOM     54  C   UNL A   1      43.094  35.704  28.487  1.00  0.00     0.029 A 
ATOM     55  C   UNL A   1      43.789  36.302  29.628  1.00  0.00     0.049 A 
ATOM     56  H   UNL A   1      43.413  35.964  31.647  1.00  0.00     0.167 HD
ATOM     57  C   UNL A   1      42.341  35.384  35.857  1.00  0.00     0.037 A 
ATOM     58  C   UNL A   1      44.812  37.179  29.558  1.00  0.00     0.037 A 
ATOM     59  C   UNL A   1      43.504  36.232  35.881  1.00  0.00     0.049 A 
ATOM     60  C   UNL A   1      45.408  37.722  30.835  1.00  0.00     0.074 A 
ATOM     61  C   UNL A   1      44.203  36.704  36.977  1.00  0.00     0.029 A 
ATOM     62  N   UNL A   1      44.126  36.750  34.755  1.00  0.00    -0.354 N 
ATOM     63  N   UNL A   1      45.096  37.450  32.080  1.00  0.00    -0.248 NA
ATOM     64  C   UNL A   1      46.502  38.696  30.696  1.00  0.00     0.031 C 
ATOM     65  C   UNL A   1      45.207  37.562  36.518  1.00  0.00     0.029 A 
ATOM     66  C   UNL A   1      45.176  37.571  35.132  1.00  0.00     0.049 A 
ATOM     67  H   UNL A   1      43.861  36.562  33.826  1.00  0.00     0.167 HD
ATOM     68  C   UNL A   1      45.965  38.197  32.867  1.00  0.00     0.074 A 
ATOM     69  C   UNL A   1      46.833  38.918  31.961  1.00  0.00     0.031 C 
ATOM     70  C   UNL A   1      46.036  38.281  34.219  1.00  0.00     0.037 A 
BRANCH  57  71
ATOM     71  C   UNL A   1      41.727  34.989  37.168  1.00  0.00     0.064 A 
ATOM     72  C   UNL A   1      40.683  35.724  37.750  1.00  0.00     0.173 A 
ATOM     73  C   UNL A   1      42.163  33.830  37.831  1.00  0.00     0.173 A 
ATOM     74  F   UNL A   1      40.240  36.847  37.167  1.00  0.00    -0.203 F 
ATOM     75  C   UNL A   1      40.114  35.325  38.957  1.00  0.00     0.198 A 
ATOM     76  C   UNL A   1      41.570  33.418  39.021  1.00  0.00     0.198 A 
ATOM     77  F   UNL A   1      43.157  33.091  37.317  1.00  0.00    -0.203 F 
ATOM     78  F   UNL A   1      39.149  36.066  39.518  1.00  0.00    -0.200 F 
ATOM     79  C   UNL A   1      40.551  34.168  39.586  1.00  0.00     0.200 A 
ATOM     80  F   UNL A   1      41.986  32.293  39.619  1.00  0.00    -0.200 F 
ATOM     81  F   UNL A   1      39.994  33.780  40.741  1.00  0.00    -0.200 F 
ENDBRANCH  57  71
BRANCH  58  82
ATOM     82  C   UNL A   1      45.319  37.636  28.236  1.00  0.00     0.064 A 
ATOM     83  C   UNL A   1      46.360  36.960  27.583  1.00  0.00     0.173 A 
ATOM     84  C   UNL A   1      44.803  38.784  27.615  1.00  0.00     0.173 A 
ATOM     85  F   UNL A   1      46.913  35.877  28.149  1.00  0.00    -0.203 F 
ATOM     86  C   UNL A   1      46.878  37.426  26.375  1.00  0.00     0.198 A 
ATOM     87  C   UNL A   1      45.298  39.230  26.392  1.00  0.00     0.198 A 
ATOM     88  F   UNL A   1      43.816  39.476  28.203  1.00  0.00    -0.203 F 
ATOM     89  F   UNL A   1      47.914  36.794  25.805  1.00  0.00    -0.200 F 
ATOM     90  C   UNL A   1      46.342  38.556  25.777  1.00  0.00     0.200 A 
ATOM     91  F   UNL A   1      44.773  40.319  25.814  1.00  0.00    -0.200 F 
ATOM     92  F   UNL A   1      46.842  39.004  24.617  1.00  0.00    -0.200 F 
ENDBRANCH  58  82
BRANCH  70  93
ATOM     93  C   UNL A   1      47.104  39.160  34.807  1.00  0.00     0.064 A 
ATOM     94  C   UNL A   1      48.395  38.677  35.069  1.00  0.00     0.173 A 
ATOM     95  C   UNL A   1      46.849  40.516  35.060  1.00  0.00     0.173 A 
ATOM     96  F   UNL A   1      48.690  37.385  34.856  1.00  0.00    -0.203 F 
ATOM     97  C   UNL A   1      49.382  39.513  35.586  1.00  0.00     0.198 A 
ATOM     98  C   UNL A   1      47.848  41.358  35.543  1.00  0.00     0.198 A 
ATOM     99  F   UNL A   1      45.635  41.034  34.818  1.00  0.00    -0.203 F 
ATOM    100  F   UNL A   1      50.594  39.017  35.873  1.00  0.00    -0.200 F 
ATOM    101  C   UNL A   1      49.111  40.853  35.813  1.00  0.00     0.200 A 
ATOM    102  F   UNL A   1      47.589  42.657  35.745  1.00  0.00    -0.200 F 
ATOM    103  F   UNL A   1      50.065  41.659  36.299  1.00  0.00    -0.200 F 
ENDBRANCH  70  93
ENDBRANCH  44  45
ENDBRANCH  37  39
ENDBRANCH  36  37
ENDBRANCH  35  36
ENDBRANCH  34  35
ENDBRANCH  33  34
ENDBRANCH  32  33
ENDBRANCH  31  32
ENDBRANCH  30  31
ENDBRANCH   1  30
TORSDOF 25
ENDMDL
MODEL 3
REMARK VINA RESULT:      -7.7      5.290     10.588
REMARK SMILES COc1ccc(CC(=O)OCCOCCOCCOCCOC(=O)c2ccc(-c3c4nc(c(-c5c(F)c(F)c(F)c(F)c5F)c5ccc([nH]5)c(-c5c(F)c(F)c(F)c(F)c5F)c5nc(c(-c6c(F)c(F)c(F)c(F)c6F)c6ccc3[nH]6)C=C5)C=C4)cc2)cc1S(=O)(=O)Nc1ccccc1Br
REMARK SMILES IDX 15 1 14 2 13 3 12 4 11 5 10 6 8 7 9 8 7 9 6 10 3 11 4 12
REMARK SMILES IDX 89 13 5 14 88 15 2 16 1 17 90 18 91 19 92 20 93 21 94 23
REMARK SMILES IDX 95 24 99 25 96 26 98 27 100 28 97 29 16 30 17 31 18 32 19 33
REMARK SMILES IDX 20 34 21 35 22 36 23 37 24 38 25 39 26 40 87 41 27 42 86 43
REMARK SMILES IDX 28 44 29 45 30 46 80 47 31 48 85 49 79 50 81 51 32 52 84 53
REMARK SMILES IDX 78 54 77 55 33 57 65 58 45 59 64 60 46 61 49 62 63 63 82 64
REMARK SMILES IDX 47 65 48 66 62 68 83 69 50 70 34 71 35 72 43 73 36 74 37 75
REMARK SMILES IDX 41 76 44 77 38 78 39 79 42 80 40 81 66 82 67 83 75 84 68 85
REMARK SMILES IDX 69 86 73 87 76 88 70 89 71 90 74 91 72 92 51 93 52 94 60 95
REMARK SMILES IDX 53 96 54 97 58 98 61 99 55 100 56 101 59 102 57 103
REMARK H PARENT 93 22 81 56 49 67
REMARK Flexibility Score: inf
ROOT
ATOM      1  C   UNL A   1      39.508  26.270  28.721  1.00  0.00     0.188 C 
ENDROOT
BRANCH   1   2
ATOM      2  C   UNL A   1      39.953  27.681  28.272  1.00  0.00     0.188 C 
BRANCH   2   3
ATOM      3  O   UNL A   1      40.294  28.697  29.214  1.00  0.00    -0.376 OA
BRANCH   3   4
ATOM      4  C   UNL A   1      39.433  29.804  29.407  1.00  0.00     0.202 C 
BRANCH   4   5
ATOM      5  C   UNL A   1      38.159  29.878  28.544  1.00  0.00     0.261 C 
BRANCH   5   6
ATOM      6  O   UNL A   1      37.268  30.992  28.787  1.00  0.00    -0.463 OA
BRANCH   6   7
ATOM      7  C   UNL A   1      36.098  30.969  28.106  1.00  0.00     0.310 C 
ATOM      8  O   UNL A   1      35.621  29.949  27.612  1.00  0.00    -0.252 OA
BRANCH   7   9
ATOM      9  C   UNL A   1      35.436  32.313  27.885  1.00  0.00     0.158 C 
BRANCH   9  10
ATOM     10  C   UNL A   1      34.709  33.102  28.966  1.00  0.00    -0.035 A 
ATOM     11  C   UNL A   1      33.863  35.044  30.844  1.00  0.00     0.139 A 
ATOM     12  C   UNL A   1      33.311  35.006  29.559  1.00  0.00     0.048 A 
ATOM     13  C   UNL A   1      34.700  34.018  31.260  1.00  0.00     0.129 A 
ATOM     14  C   UNL A   1      33.741  34.059  28.623  1.00  0.00     0.008 A 
ATOM     15  C   UNL A   1      35.123  33.051  30.310  1.00  0.00     0.030 A 
BRANCH  11  16
ATOM     16  O   UNL A   1      33.535  36.136  31.590  1.00  0.00    -0.495 OA
ATOM     17  C   UNL A   1      33.111  37.234  30.776  1.00  0.00     0.278 C 
ENDBRANCH  11  16
BRANCH  13  18
ATOM     18  S   UNL A   1      35.415  33.885  32.880  1.00  0.00     0.265 S 
ATOM     19  O   UNL A   1      36.258  35.047  33.074  1.00  0.00    -0.201 OA
ATOM     20  O   UNL A   1      34.289  33.671  33.773  1.00  0.00    -0.201 OA
BRANCH  18  21
ATOM     21  N   UNL A   1      36.394  32.537  33.143  1.00  0.00    -0.278 N 
ATOM     22  H   UNL A   1      36.440  31.869  32.421  1.00  0.00     0.180 HD
BRANCH  21  23
ATOM     23  C   UNL A   1      37.165  32.278  34.320  1.00  0.00     0.063 A 
ATOM     24  C   UNL A   1      37.058  33.249  35.335  1.00  0.00     0.028 A 
ATOM     25  C   UNL A   1      38.014  31.185  34.526  1.00  0.00     0.042 A 
ATOM     26  C   UNL A   1      37.673  33.073  36.574  1.00  0.00     0.002 A 
ATOM     27  C   UNL A   1      38.632  31.013  35.774  1.00  0.00     0.018 A 
ATOM     28  Br  UNL A   1      38.438  29.921  33.180  1.00  0.00    -0.049 Br
ATOM     29  C   UNL A   1      38.443  31.940  36.802  1.00  0.00     0.001 A 
ENDBRANCH  21  23
ENDBRANCH  18  21
ENDBRANCH  13  18
ENDBRANCH   9  10
ENDBRANCH   7   9
ENDBRANCH   6   7
ENDBRANCH   5   6
ENDBRANCH   4   5
ENDBRANCH   3   4
ENDBRANCH   2   3
ENDBRANCH   1   2
BRANCH   1  30
ATOM     30  O   UNL A   1      39.426  25.324  27.672  1.00  0.00    -0.377 OA
BRANCH  30  31
ATOM     31  C   UNL A   1      40.121  24.113  27.888  1.00  0.00     0.188 C 
BRANCH  31  32
ATOM     32  C   UNL A   1      41.645  24.247  28.018  1.00  0.00     0.188 C 
BRANCH  32  33
ATOM     33  O   UNL A   1      42.239  24.766  26.834  1.00  0.00    -0.376 OA
BRANCH  33  34
ATOM     34  C   UNL A   1      42.506  23.891  25.754  1.00  0.00     0.202 C 
BRANCH  34  35
ATOM     35  C   UNL A   1      43.184  22.542  26.047  1.00  0.00     0.261 C 
BRANCH  35  36
ATOM     36  O   UNL A   1      44.347  22.551  26.886  1.00  0.00    -0.460 OA
BRANCH  36  37
ATOM     37  C   UNL A   1      45.566  22.492  26.298  1.00  0.00     0.338 C 
ATOM     38  O   UNL A   1      46.064  21.539  25.751  1.00  0.00    -0.246 OA
BRANCH  37  39
ATOM     39  C   UNL A   1      46.101  23.880  26.268  1.00  0.00     0.060 A 
ATOM     40  C   UNL A   1      46.083  24.585  25.058  1.00  0.00     0.016 A 
ATOM     41  C   UNL A   1      46.546  24.506  27.435  1.00  0.00     0.016 A 
ATOM     42  C   UNL A   1      46.494  25.921  25.015  1.00  0.00     0.010 A 
ATOM     43  C   UNL A   1      46.986  25.833  27.386  1.00  0.00     0.010 A 
ATOM     44  C   UNL A   1      46.975  26.544  26.173  1.00  0.00    -0.014 A 
BRANCH  44  45
ATOM     45  C   UNL A   1      47.626  27.876  26.090  1.00  0.00     0.031 A 
ATOM     46  C   UNL A   1      49.097  27.930  25.787  1.00  0.00     0.074 A 
ATOM     47  C   UNL A   1      46.935  29.013  26.284  1.00  0.00     0.049 A 
ATOM     48  N   UNL A   1      49.903  28.960  25.741  1.00  0.00    -0.248 NA
ATOM     49  C   UNL A   1      49.748  26.642  25.499  1.00  0.00     0.031 C 
ATOM     50  C   UNL A   1      45.501  29.096  26.548  1.00  0.00     0.029 A 
ATOM     51  N   UNL A   1      47.360  30.320  26.309  1.00  0.00    -0.354 N 
ATOM     52  C   UNL A   1      51.154  28.443  25.432  1.00  0.00     0.074 A 
ATOM     53  C   UNL A   1      51.008  27.008  25.320  1.00  0.00     0.031 C 
ATOM     54  C   UNL A   1      45.166  30.386  26.733  1.00  0.00     0.029 A 
ATOM     55  C   UNL A   1      46.370  31.213  26.637  1.00  0.00     0.049 A 
ATOM     56  H   UNL A   1      48.285  30.590  26.108  1.00  0.00     0.167 HD
ATOM     57  C   UNL A   1      52.320  29.108  25.255  1.00  0.00     0.037 A 
ATOM     58  C   UNL A   1      46.437  32.541  26.871  1.00  0.00     0.037 A 
ATOM     59  C   UNL A   1      52.464  30.535  25.374  1.00  0.00     0.049 A 
ATOM     60  C   UNL A   1      47.767  33.246  26.749  1.00  0.00     0.074 A 
ATOM     61  C   UNL A   1      53.596  31.306  25.180  1.00  0.00     0.029 A 
ATOM     62  N   UNL A   1      51.445  31.404  25.737  1.00  0.00    -0.354 N 
ATOM     63  N   UNL A   1      48.938  32.761  26.411  1.00  0.00    -0.248 NA
ATOM     64  C   UNL A   1      47.783  34.688  27.044  1.00  0.00     0.031 C 
ATOM     65  C   UNL A   1      53.280  32.631  25.492  1.00  0.00     0.029 A 
ATOM     66  C   UNL A   1      51.934  32.698  25.814  1.00  0.00     0.049 A 
ATOM     67  H   UNL A   1      50.513  31.139  25.914  1.00  0.00     0.167 HD
ATOM     68  C   UNL A   1      49.819  33.836  26.429  1.00  0.00     0.074 A 
ATOM     69  C   UNL A   1      49.045  35.004  26.791  1.00  0.00     0.031 C 
ATOM     70  C   UNL A   1      51.151  33.853  26.172  1.00  0.00     0.037 A 
BRANCH  57  71
ATOM     71  C   UNL A   1      53.545  28.296  24.951  1.00  0.00     0.064 A 
ATOM     72  C   UNL A   1      53.964  28.050  23.635  1.00  0.00     0.173 A 
ATOM     73  C   UNL A   1      54.336  27.793  25.997  1.00  0.00     0.173 A 
ATOM     74  F   UNL A   1      53.236  28.494  22.599  1.00  0.00    -0.203 F 
ATOM     75  C   UNL A   1      55.117  27.312  23.378  1.00  0.00     0.198 A 
ATOM     76  C   UNL A   1      55.504  27.083  25.736  1.00  0.00     0.198 A 
ATOM     77  F   UNL A   1      53.981  28.002  27.273  1.00  0.00    -0.203 F 
ATOM     78  F   UNL A   1      55.474  27.050  22.113  1.00  0.00    -0.200 F 
ATOM     79  C   UNL A   1      55.890  26.838  24.427  1.00  0.00     0.200 A 
ATOM     80  F   UNL A   1      56.256  26.638  26.751  1.00  0.00    -0.200 F 
ATOM     81  F   UNL A   1      57.005  26.138  24.177  1.00  0.00    -0.200 F 
ENDBRANCH  57  71
BRANCH  58  82
ATOM     82  C   UNL A   1      45.220  33.292  27.283  1.00  0.00     0.064 A 
ATOM     83  C   UNL A   1      44.450  33.999  26.348  1.00  0.00     0.173 A 
ATOM     84  C   UNL A   1      44.824  33.354  28.628  1.00  0.00     0.173 A 
ATOM     85  F   UNL A   1      44.804  34.001  25.054  1.00  0.00    -0.203 F 
ATOM     86  C   UNL A   1      43.347  34.754  26.744  1.00  0.00     0.198 A 
ATOM     87  C   UNL A   1      43.702  34.082  29.019  1.00  0.00     0.198 A 
ATOM     88  F   UNL A   1      45.532  32.707  29.566  1.00  0.00    -0.203 F 
ATOM     89  F   UNL A   1      42.667  35.468  25.837  1.00  0.00    -0.200 F 
ATOM     90  C   UNL A   1      42.970  34.789  28.078  1.00  0.00     0.200 A 
ATOM     91  F   UNL A   1      43.337  34.108  30.308  1.00  0.00    -0.200 F 
ATOM     92  F   UNL A   1      41.911  35.518  28.458  1.00  0.00    -0.200 F 
ENDBRANCH  58  82
BRANCH  70  93
ATOM     93  C   UNL A   1      51.857  35.179  26.242  1.00  0.00     0.064 A 
ATOM     94  C   UNL A   1      52.404  35.661  27.441  1.00  0.00     0.173 A 
ATOM     95  C   UNL A   1      52.036  35.951  25.084  1.00  0.00     0.173 A 
ATOM     96  F   UNL A   1      52.251  34.968  28.580  1.00  0.00    -0.203 F 
ATOM     97  C   UNL A   1      53.081  36.878  27.481  1.00  0.00     0.198 A 
ATOM     98  C   UNL A   1      52.745  37.149  25.121  1.00  0.00     0.198 A 
ATOM     99  F   UNL A   1      51.543  35.532  23.908  1.00  0.00    -0.203 F 
ATOM    100  F   UNL A   1      53.553  37.341  28.647  1.00  0.00    -0.200 F 
ATOM    101  C   UNL A   1      53.259  37.615  26.321  1.00  0.00     0.200 A 
ATOM    102  F   UNL A   1      52.932  37.851  23.994  1.00  0.00    -0.200 F 
ATOM    103  F   UNL A   1      53.922  38.779  26.359  1.00  0.00    -0.200 F 
ENDBRANCH  70  93
ENDBRANCH  44  45
ENDBRANCH  37  39
ENDBRANCH  36  37
ENDBRANCH  35  36
ENDBRANCH  34  35
ENDBRANCH  33  34
ENDBRANCH  32  33
ENDBRANCH  31  32
ENDBRANCH  30  31
ENDBRANCH   1  30
TORSDOF 25
ENDMDL
