MODEL 1
REMARK VINA RESULT:     -10.0      0.000      0.000
REMARK SMILES CC(C)[C@H](NC(=O)[C@H](C)NC(=O)C[NH3+])C(=O)OCCOCCOCCOCCOC(=O)c1ccc(-c2c3nc(c(-c4c(F)c(F)c(F)c(F)c4F)c4ccc([nH]4)c(-c4c(F)c(F)c(F)c(F)c4F)c4nc(c(-c5c(F)c(F)c(F)c(F)c5F)c5ccc2[nH]5)C=C4)C=C3)cc1
REMARK SMILES IDX 21 1 20 2 19 3 18 4 17 5 15 6 16 7 4 8 2 9 1 10 3 11 5 12
REMARK SMILES IDX 6 13 7 15 8 16 9 17 10 18 11 19 12 21 13 22 14 23 22 27
REMARK SMILES IDX 23 28 24 29 25 30 26 31 27 32 28 33 29 34 30 35 31 36 32 37
REMARK SMILES IDX 33 38 94 39 34 40 93 41 35 42 36 43 37 44 87 45 38 46 92 47
REMARK SMILES IDX 86 48 88 49 39 50 91 51 85 52 84 53 40 55 72 56 52 57 71 58
REMARK SMILES IDX 53 59 56 60 70 61 89 62 54 63 55 64 69 66 90 67 57 68 41 69
REMARK SMILES IDX 42 70 50 71 43 72 44 73 48 74 51 75 45 76 46 77 49 78 47 79
REMARK SMILES IDX 73 80 74 81 82 82 75 83 76 84 80 85 83 86 77 87 78 88 81 89
REMARK SMILES IDX 79 90 58 91 59 92 67 93 60 94 61 95 65 96 68 97 62 98 63 99
REMARK SMILES IDX 66 100 64 101
REMARK H PARENT 5 14 10 20 14 24 14 25 14 26 88 54 56 65
REMARK Flexibility Score: inf
ROOT
ATOM      1  C   UNL A   1      31.367  26.961  24.113  1.00  0.00     0.188 C 
ENDROOT
BRANCH   1   2
ATOM      2  O   UNL A   1      31.692  27.132  25.481  1.00  0.00    -0.376 OA
BRANCH   2   3
ATOM      3  C   UNL A   1      32.277  26.116  26.278  1.00  0.00     0.202 C 
BRANCH   3   4
ATOM      4  C   UNL A   1      33.201  24.990  25.758  1.00  0.00     0.261 C 
BRANCH   4   5
ATOM      5  O   UNL A   1      32.783  23.627  25.926  1.00  0.00    -0.462 OA
BRANCH   5   6
ATOM      6  C   UNL A   1      32.161  23.102  24.844  1.00  0.00     0.328 C 
ATOM      7  O   UNL A   1      31.031  23.442  24.506  1.00  0.00    -0.250 OA
BRANCH   6   8
ATOM      8  C   UNL A   1      33.068  22.177  23.984  1.00  0.00     0.194 C 
BRANCH   8   9
ATOM      9  C   UNL A   1      33.845  22.907  22.875  1.00  0.00     0.017 C 
ATOM     10  C   UNL A   1      33.209  24.190  22.341  1.00  0.00     0.010 C 
ATOM     11  C   UNL A   1      35.285  23.200  23.307  1.00  0.00     0.010 C 
ENDBRANCH   8   9
BRANCH   8  12
ATOM     12  N   UNL A   1      32.579  20.828  23.568  1.00  0.00    -0.341 N 
ATOM     13  C   UNL A   1      32.758  19.516  23.841  1.00  0.00     0.243 C 
ATOM     14  H   UNL A   1      31.902  20.929  22.860  1.00  0.00     0.164 HD
ATOM     15  O   UNL A   1      32.048  18.761  23.161  1.00  0.00    -0.273 OA
BRANCH  13  16
ATOM     16  C   UNL A   1      33.791  18.940  24.827  1.00  0.00     0.168 C 
ATOM     17  C   UNL A   1      34.990  19.894  24.938  1.00  0.00     0.041 C 
BRANCH  16  18
ATOM     18  N   UNL A   1      34.323  17.647  24.412  1.00  0.00    -0.340 N 
ATOM     19  C   UNL A   1      33.978  16.412  24.882  1.00  0.00     0.275 C 
ATOM     20  H   UNL A   1      35.011  17.668  23.709  1.00  0.00     0.164 HD
ATOM     21  O   UNL A   1      34.648  15.434  24.550  1.00  0.00    -0.268 OA
BRANCH  19  22
ATOM     22  C   UNL A   1      32.713  16.270  25.731  1.00  0.00     0.360 C 
BRANCH  22  23
ATOM     23  N   UNL A   1      32.019  15.022  25.405  1.00  0.00    -0.350 N 
ATOM     24  H   UNL A   1      31.835  14.502  26.263  1.00  0.00     0.344 HD
ATOM     25  H   UNL A   1      32.602  14.461  24.785  1.00  0.00     0.344 HD
ATOM     26  H   UNL A   1      31.136  15.236  24.941  1.00  0.00     0.344 HD
ENDBRANCH  22  23
ENDBRANCH  19  22
ENDBRANCH  16  18
ENDBRANCH  13  16
ENDBRANCH   8  12
ENDBRANCH   6   8
ENDBRANCH   5   6
ENDBRANCH   4   5
ENDBRANCH   3   4
ENDBRANCH   2   3
ENDBRANCH   1   2
BRANCH   1  27
ATOM     27  C   UNL A   1      31.762  28.007  23.063  1.00  0.00     0.188 C 
BRANCH  27  28
ATOM     28  O   UNL A   1      30.717  28.386  22.194  1.00  0.00    -0.377 OA
BRANCH  28  29
ATOM     29  C   UNL A   1      30.275  29.731  22.274  1.00  0.00     0.188 C 
BRANCH  29  30
ATOM     30  C   UNL A   1      29.433  30.155  23.496  1.00  0.00     0.188 C 
BRANCH  30  31
ATOM     31  O   UNL A   1      30.067  31.096  24.352  1.00  0.00    -0.376 OA
BRANCH  31  32
ATOM     32  C   UNL A   1      30.984  30.634  25.333  1.00  0.00     0.202 C 
BRANCH  32  33
ATOM     33  C   UNL A   1      31.421  31.614  26.436  1.00  0.00     0.261 C 
BRANCH  33  34
ATOM     34  O   UNL A   1      32.651  31.308  27.109  1.00  0.00    -0.460 OA
BRANCH  34  35
ATOM     35  C   UNL A   1      33.404  32.341  27.526  1.00  0.00     0.338 C 
ATOM     36  O   UNL A   1      33.030  33.486  27.739  1.00  0.00    -0.246 OA
BRANCH  35  37
ATOM     37  C   UNL A   1      34.738  31.830  27.895  1.00  0.00     0.060 A 
ATOM     38  C   UNL A   1      34.880  30.459  28.144  1.00  0.00     0.016 A 
ATOM     39  C   UNL A   1      35.831  32.692  28.030  1.00  0.00     0.016 A 
ATOM     40  C   UNL A   1      36.090  29.957  28.617  1.00  0.00     0.010 A 
ATOM     41  C   UNL A   1      37.038  32.193  28.528  1.00  0.00     0.010 A 
ATOM     42  C   UNL A   1      37.146  30.836  28.884  1.00  0.00    -0.014 A 
BRANCH  42  43
ATOM     43  C   UNL A   1      38.214  30.388  29.810  1.00  0.00     0.031 A 
ATOM     44  C   UNL A   1      39.238  29.419  29.276  1.00  0.00     0.074 A 
ATOM     45  C   UNL A   1      38.330  30.879  31.054  1.00  0.00     0.049 A 
ATOM     46  N   UNL A   1      40.269  28.877  29.872  1.00  0.00    -0.248 NA
ATOM     47  C   UNL A   1      39.073  29.005  27.872  1.00  0.00     0.031 C 
ATOM     48  C   UNL A   1      37.439  31.865  31.660  1.00  0.00     0.029 A 
ATOM     49  N   UNL A   1      39.256  30.612  32.030  1.00  0.00    -0.354 N 
ATOM     50  C   UNL A   1      40.865  28.057  28.921  1.00  0.00     0.074 A 
ATOM     51  C   UNL A   1      40.062  28.139  27.722  1.00  0.00     0.031 C 
ATOM     52  C   UNL A   1      37.858  32.116  32.912  1.00  0.00     0.029 A 
ATOM     53  C   UNL A   1      39.027  31.285  33.204  1.00  0.00     0.049 A 
ATOM     54  H   UNL A   1      40.012  29.996  31.901  1.00  0.00     0.167 HD
ATOM     55  C   UNL A   1      41.990  27.313  29.032  1.00  0.00     0.037 A 
ATOM     56  C   UNL A   1      39.679  31.219  34.381  1.00  0.00     0.037 A 
ATOM     57  C   UNL A   1      42.786  27.236  30.226  1.00  0.00     0.049 A 
ATOM     58  C   UNL A   1      40.886  30.320  34.505  1.00  0.00     0.074 A 
ATOM     59  C   UNL A   1      43.946  26.513  30.445  1.00  0.00     0.029 A 
ATOM     60  N   UNL A   1      42.500  27.902  31.408  1.00  0.00    -0.354 N 
ATOM     61  N   UNL A   1      41.452  29.559  33.599  1.00  0.00    -0.248 NA
ATOM     62  C   UNL A   1      41.550  30.282  35.815  1.00  0.00     0.031 C 
ATOM     63  C   UNL A   1      44.325  26.693  31.778  1.00  0.00     0.029 A 
ATOM     64  C   UNL A   1      43.447  27.588  32.368  1.00  0.00     0.049 A 
ATOM     65  H   UNL A   1      41.735  28.508  31.545  1.00  0.00     0.167 HD
ATOM     66  C   UNL A   1      42.560  28.986  34.216  1.00  0.00     0.074 A 
ATOM     67  C   UNL A   1      42.589  29.497  35.571  1.00  0.00     0.031 C 
ATOM     68  C   UNL A   1      43.472  28.122  33.707  1.00  0.00     0.037 A 
BRANCH  55  69
ATOM     69  C   UNL A   1      42.398  26.494  27.840  1.00  0.00     0.064 A 
ATOM     70  C   UNL A   1      43.307  26.975  26.885  1.00  0.00     0.173 A 
ATOM     71  C   UNL A   1      41.884  25.202  27.661  1.00  0.00     0.173 A 
ATOM     72  F   UNL A   1      43.816  28.212  26.997  1.00  0.00    -0.203 F 
ATOM     73  C   UNL A   1      43.660  26.204  25.780  1.00  0.00     0.198 A 
ATOM     74  C   UNL A   1      42.267  24.420  26.575  1.00  0.00     0.198 A 
ATOM     75  F   UNL A   1      41.011  24.692  28.543  1.00  0.00    -0.203 F 
ATOM     76  F   UNL A   1      44.485  26.707  24.851  1.00  0.00    -0.200 F 
ATOM     77  C   UNL A   1      43.147  24.925  25.631  1.00  0.00     0.200 A 
ATOM     78  F   UNL A   1      41.780  23.178  26.440  1.00  0.00    -0.200 F 
ATOM     79  F   UNL A   1      43.494  24.181  24.571  1.00  0.00    -0.200 F 
ENDBRANCH  55  69
BRANCH  56  80
ATOM     80  C   UNL A   1      39.208  32.019  35.543  1.00  0.00     0.064 A 
ATOM     81  C   UNL A   1      39.618  33.346  35.729  1.00  0.00     0.173 A 
ATOM     82  C   UNL A   1      38.363  31.459  36.513  1.00  0.00     0.173 A 
ATOM     83  F   UNL A   1      40.446  33.920  34.843  1.00  0.00    -0.203 F 
ATOM     84  C   UNL A   1      39.224  34.073  36.850  1.00  0.00     0.198 A 
ATOM     85  C   UNL A   1      37.942  32.197  37.617  1.00  0.00     0.198 A 
ATOM     86  F   UNL A   1      37.941  30.191  36.388  1.00  0.00    -0.203 F 
ATOM     87  F   UNL A   1      39.678  35.321  37.030  1.00  0.00    -0.200 F 
ATOM     88  C   UNL A   1      38.381  33.500  37.791  1.00  0.00     0.200 A 
ATOM     89  F   UNL A   1      37.116  31.644  38.516  1.00  0.00    -0.200 F 
ATOM     90  F   UNL A   1      38.002  34.200  38.869  1.00  0.00    -0.200 F 
ENDBRANCH  56  80
BRANCH  68  91
ATOM     91  C   UNL A   1      44.622  27.724  34.592  1.00  0.00     0.064 A 
ATOM     92  C   UNL A   1      45.814  28.462  34.643  1.00  0.00     0.173 A 
ATOM     93  C   UNL A   1      44.509  26.603  35.430  1.00  0.00     0.173 A 
ATOM     94  F   UNL A   1      45.978  29.536  33.857  1.00  0.00    -0.203 F 
ATOM     95  C   UNL A   1      46.863  28.071  35.473  1.00  0.00     0.198 A 
ATOM     96  C   UNL A   1      45.544  26.238  36.286  1.00  0.00     0.198 A 
ATOM     97  F   UNL A   1      43.387  25.868  35.431  1.00  0.00    -0.203 F 
ATOM     98  F   UNL A   1      48.015  28.755  35.460  1.00  0.00    -0.200 F 
ATOM     99  C   UNL A   1      46.725  26.964  36.298  1.00  0.00     0.200 A 
ATOM    100  F   UNL A   1      45.399  25.181  37.098  1.00  0.00    -0.200 F 
ATOM    101  F   UNL A   1      47.732  26.593  37.100  1.00  0.00    -0.200 F 
ENDBRANCH  68  91
ENDBRANCH  42  43
ENDBRANCH  35  37
ENDBRANCH  34  35
ENDBRANCH  33  34
ENDBRANCH  32  33
ENDBRANCH  31  32
ENDBRANCH  30  31
ENDBRANCH  29  30
ENDBRANCH  28  29
ENDBRANCH  27  28
ENDBRANCH   1  27
TORSDOF 26
ENDMDL
MODEL 2
REMARK VINA RESULT:      -9.6      1.619      2.489
REMARK SMILES CC(C)[C@H](NC(=O)[C@H](C)NC(=O)C[NH3+])C(=O)OCCOCCOCCOCCOC(=O)c1ccc(-c2c3nc(c(-c4c(F)c(F)c(F)c(F)c4F)c4ccc([nH]4)c(-c4c(F)c(F)c(F)c(F)c4F)c4nc(c(-c5c(F)c(F)c(F)c(F)c5F)c5ccc2[nH]5)C=C4)C=C3)cc1
REMARK SMILES IDX 21 1 20 2 19 3 18 4 17 5 15 6 16 7 4 8 2 9 1 10 3 11 5 12
REMARK SMILES IDX 6 13 7 15 8 16 9 17 10 18 11 19 12 21 13 22 14 23 22 27
REMARK SMILES IDX 23 28 24 29 25 30 26 31 27 32 28 33 29 34 30 35 31 36 32 37
REMARK SMILES IDX 33 38 94 39 34 40 93 41 35 42 36 43 37 44 87 45 38 46 92 47
REMARK SMILES IDX 86 48 88 49 39 50 91 51 85 52 84 53 40 55 72 56 52 57 71 58
REMARK SMILES IDX 53 59 56 60 70 61 89 62 54 63 55 64 69 66 90 67 57 68 41 69
REMARK SMILES IDX 42 70 50 71 43 72 44 73 48 74 51 75 45 76 46 77 49 78 47 79
REMARK SMILES IDX 73 80 74 81 82 82 75 83 76 84 80 85 83 86 77 87 78 88 81 89
REMARK SMILES IDX 79 90 58 91 59 92 67 93 60 94 61 95 65 96 68 97 62 98 63 99
REMARK SMILES IDX 66 100 64 101
REMARK H PARENT 5 14 10 20 14 24 14 25 14 26 88 54 56 65
REMARK Flexibility Score: inf
ROOT
ATOM      1  C   UNL A   1      30.475  27.571  24.163  1.00  0.00     0.188 C 
ENDROOT
BRANCH   1   2
ATOM      2  O   UNL A   1      31.632  28.072  24.807  1.00  0.00    -0.376 OA
BRANCH   2   3
ATOM      3  C   UNL A   1      32.674  27.244  25.295  1.00  0.00     0.202 C 
BRANCH   3   4
ATOM      4  C   UNL A   1      33.624  26.390  24.423  1.00  0.00     0.261 C 
BRANCH   4   5
ATOM      5  O   UNL A   1      34.514  25.471  25.076  1.00  0.00    -0.462 OA
BRANCH   5   6
ATOM      6  C   UNL A   1      34.504  24.225  24.548  1.00  0.00     0.328 C 
ATOM      7  O   UNL A   1      33.999  23.976  23.458  1.00  0.00    -0.250 OA
BRANCH   6   8
ATOM      8  C   UNL A   1      35.338  23.192  25.359  1.00  0.00     0.194 C 
BRANCH   8   9
ATOM      9  C   UNL A   1      36.411  22.459  24.536  1.00  0.00     0.017 C 
ATOM     10  C   UNL A   1      36.596  22.936  23.095  1.00  0.00     0.010 C 
ATOM     11  C   UNL A   1      37.765  22.474  25.250  1.00  0.00     0.010 C 
ENDBRANCH   8   9
BRANCH   8  12
ATOM     12  N   UNL A   1      34.666  22.313  26.363  1.00  0.00    -0.341 N 
ATOM     13  C   UNL A   1      33.614  21.474  26.487  1.00  0.00     0.243 C 
ATOM     14  H   UNL A   1      35.151  22.363  27.219  1.00  0.00     0.164 HD
ATOM     15  O   UNL A   1      33.503  20.970  27.614  1.00  0.00    -0.273 OA
BRANCH  13  16
ATOM     16  C   UNL A   1      32.561  21.193  25.399  1.00  0.00     0.168 C 
ATOM     17  C   UNL A   1      33.183  20.339  24.283  1.00  0.00     0.041 C 
BRANCH  16  18
ATOM     18  N   UNL A   1      32.054  22.405  24.764  1.00  0.00    -0.340 N 
ATOM     19  C   UNL A   1      31.020  23.196  25.178  1.00  0.00     0.275 C 
ATOM     20  H   UNL A   1      32.511  22.685  23.939  1.00  0.00     0.164 HD
ATOM     21  O   UNL A   1      30.606  24.084  24.434  1.00  0.00    -0.268 OA
BRANCH  19  22
ATOM     22  C   UNL A   1      30.472  23.014  26.596  1.00  0.00     0.360 C 
BRANCH  22  23
ATOM     23  N   UNL A   1      29.433  24.009  26.871  1.00  0.00    -0.350 N 
ATOM     24  H   UNL A   1      29.105  24.409  25.992  1.00  0.00     0.344 HD
ATOM     25  H   UNL A   1      29.817  24.748  27.459  1.00  0.00     0.344 HD
ATOM     26  H   UNL A   1      28.653  23.561  27.354  1.00  0.00     0.344 HD
ENDBRANCH  22  23
ENDBRANCH  19  22
ENDBRANCH  16  18
ENDBRANCH  13  16
ENDBRANCH   8  12
ENDBRANCH   6   8
ENDBRANCH   5   6
ENDBRANCH   4   5
ENDBRANCH   3   4
ENDBRANCH   2   3
ENDBRANCH   1   2
BRANCH   1  27
ATOM     27  C   UNL A   1      30.046  28.083  22.782  1.00  0.00     0.188 C 
BRANCH  27  28
ATOM     28  O   UNL A   1      28.924  28.938  22.799  1.00  0.00    -0.377 OA
BRANCH  28  29
ATOM     29  C   UNL A   1      29.179  30.331  22.711  1.00  0.00     0.188 C 
BRANCH  29  30
ATOM     30  C   UNL A   1      29.040  31.184  23.990  1.00  0.00     0.188 C 
BRANCH  30  31
ATOM     31  O   UNL A   1      30.267  31.699  24.491  1.00  0.00    -0.376 OA
BRANCH  31  32
ATOM     32  C   UNL A   1      30.703  31.314  25.787  1.00  0.00     0.202 C 
BRANCH  32  33
ATOM     33  C   UNL A   1      31.445  32.356  26.641  1.00  0.00     0.261 C 
BRANCH  33  34
ATOM     34  O   UNL A   1      32.705  31.946  27.192  1.00  0.00    -0.460 OA
BRANCH  34  35
ATOM     35  C   UNL A   1      33.510  32.906  27.682  1.00  0.00     0.338 C 
ATOM     36  O   UNL A   1      33.199  34.056  27.963  1.00  0.00    -0.246 OA
BRANCH  35  37
ATOM     37  C   UNL A   1      34.807  32.297  28.032  1.00  0.00     0.060 A 
ATOM     38  C   UNL A   1      34.845  30.925  28.311  1.00  0.00     0.016 A 
ATOM     39  C   UNL A   1      35.969  33.071  28.122  1.00  0.00     0.016 A 
ATOM     40  C   UNL A   1      36.021  30.337  28.767  1.00  0.00     0.010 A 
ATOM     41  C   UNL A   1      37.143  32.487  28.603  1.00  0.00     0.010 A 
ATOM     42  C   UNL A   1      37.151  31.134  28.989  1.00  0.00    -0.014 A 
BRANCH  42  43
ATOM     43  C   UNL A   1      38.202  30.620  29.900  1.00  0.00     0.031 A 
ATOM     44  C   UNL A   1      39.178  29.616  29.343  1.00  0.00     0.074 A 
ATOM     45  C   UNL A   1      38.346  31.084  31.152  1.00  0.00     0.049 A 
ATOM     46  N   UNL A   1      40.187  29.017  29.923  1.00  0.00    -0.248 NA
ATOM     47  C   UNL A   1      38.988  29.235  27.933  1.00  0.00     0.031 C 
ATOM     48  C   UNL A   1      37.504  32.098  31.781  1.00  0.00     0.029 A 
ATOM     49  N   UNL A   1      39.264  30.757  32.118  1.00  0.00    -0.354 N 
ATOM     50  C   UNL A   1      40.739  28.189  28.955  1.00  0.00     0.074 A 
ATOM     51  C   UNL A   1      39.935  28.328  27.762  1.00  0.00     0.031 C 
ATOM     52  C   UNL A   1      37.941  32.307  33.035  1.00  0.00     0.029 A 
ATOM     53  C   UNL A   1      39.072  31.419  33.305  1.00  0.00     0.049 A 
ATOM     54  H   UNL A   1      39.991  30.109  31.974  1.00  0.00     0.167 HD
ATOM     55  C   UNL A   1      41.830  27.392  29.046  1.00  0.00     0.037 A 
ATOM     56  C   UNL A   1      39.726  31.301  34.477  1.00  0.00     0.037 A 
ATOM     57  C   UNL A   1      42.628  27.257  30.233  1.00  0.00     0.049 A 
ATOM     58  C   UNL A   1      40.892  30.346  34.578  1.00  0.00     0.074 A 
ATOM     59  C   UNL A   1      43.754  26.478  30.432  1.00  0.00     0.029 A 
ATOM     60  N   UNL A   1      42.378  27.914  31.429  1.00  0.00    -0.354 N 
ATOM     61  N   UNL A   1      41.418  29.576  33.655  1.00  0.00    -0.248 NA
ATOM     62  C   UNL A   1      41.560  30.254  35.883  1.00  0.00     0.031 C 
ATOM     63  C   UNL A   1      44.149  26.617  31.766  1.00  0.00     0.029 A 
ATOM     64  C   UNL A   1      43.315  27.540  32.378  1.00  0.00     0.049 A 
ATOM     65  H   UNL A   1      41.643  28.551  31.580  1.00  0.00     0.167 HD
ATOM     66  C   UNL A   1      42.502  28.943  34.256  1.00  0.00     0.074 A 
ATOM     67  C   UNL A   1      42.561  29.427  35.619  1.00  0.00     0.031 C 
ATOM     68  C   UNL A   1      43.371  28.047  33.725  1.00  0.00     0.037 A 
BRANCH  55  69
ATOM     69  C   UNL A   1      42.195  26.577  27.837  1.00  0.00     0.064 A 
ATOM     70  C   UNL A   1      43.107  27.041  26.876  1.00  0.00     0.173 A 
ATOM     71  C   UNL A   1      41.634  25.306  27.647  1.00  0.00     0.173 A 
ATOM     72  F   UNL A   1      43.659  28.258  26.999  1.00  0.00    -0.203 F 
ATOM     73  C   UNL A   1      43.419  26.274  25.756  1.00  0.00     0.198 A 
ATOM     74  C   UNL A   1      41.977  24.527  26.544  1.00  0.00     0.198 A 
ATOM     75  F   UNL A   1      40.756  24.813  28.533  1.00  0.00    -0.203 F 
ATOM     76  F   UNL A   1      44.249  26.762  24.823  1.00  0.00    -0.200 F 
ATOM     77  C   UNL A   1      42.861  25.015  25.596  1.00  0.00     0.200 A 
ATOM     78  F   UNL A   1      41.446  23.305  26.399  1.00  0.00    -0.200 F 
ATOM     79  F   UNL A   1      43.169  24.276  24.521  1.00  0.00    -0.200 F 
ENDBRANCH  55  69
BRANCH  56  80
ATOM     80  C   UNL A   1      39.298  32.100  35.656  1.00  0.00     0.064 A 
ATOM     81  C   UNL A   1      38.427  31.570  36.618  1.00  0.00     0.173 A 
ATOM     82  C   UNL A   1      39.724  33.426  35.826  1.00  0.00     0.173 A 
ATOM     83  F   UNL A   1      37.971  30.316  36.488  1.00  0.00    -0.203 F 
ATOM     84  C   UNL A   1      37.979  32.341  37.689  1.00  0.00     0.198 A 
ATOM     85  C   UNL A   1      39.302  34.186  36.915  1.00  0.00     0.198 A 
ATOM     86  F   UNL A   1      40.555  33.986  34.934  1.00  0.00    -0.203 F 
ATOM     87  F   UNL A   1      37.102  31.826  38.561  1.00  0.00    -0.200 F 
ATOM     88  C   UNL A   1      38.421  33.647  37.840  1.00  0.00     0.200 A 
ATOM     89  F   UNL A   1      39.743  35.442  37.065  1.00  0.00    -0.200 F 
ATOM     90  F   UNL A   1      37.991  34.388  38.870  1.00  0.00    -0.200 F 
ENDBRANCH  56  80
BRANCH  68  91
ATOM     91  C   UNL A   1      44.507  27.582  34.596  1.00  0.00     0.064 A 
ATOM     92  C   UNL A   1      45.731  28.264  34.654  1.00  0.00     0.173 A 
ATOM     93  C   UNL A   1      44.347  26.452  35.415  1.00  0.00     0.173 A 
ATOM     94  F   UNL A   1      45.939  29.344  33.887  1.00  0.00    -0.203 F 
ATOM     95  C   UNL A   1      46.765  27.811  35.470  1.00  0.00     0.198 A 
ATOM     96  C   UNL A   1      45.369  26.025  36.258  1.00  0.00     0.198 A 
ATOM     97  F   UNL A   1      43.192  25.769  35.409  1.00  0.00    -0.203 F 
ATOM     98  F   UNL A   1      47.946  28.442  35.464  1.00  0.00    -0.200 F 
ATOM     99  C   UNL A   1      46.580  26.696  36.277  1.00  0.00     0.200 A 
ATOM    100  F   UNL A   1      45.180  24.961  37.051  1.00  0.00    -0.200 F 
ATOM    101  F   UNL A   1      47.574  26.266  37.066  1.00  0.00    -0.200 F 
ENDBRANCH  68  91
ENDBRANCH  42  43
ENDBRANCH  35  37
ENDBRANCH  34  35
ENDBRANCH  33  34
ENDBRANCH  32  33
ENDBRANCH  31  32
ENDBRANCH  30  31
ENDBRANCH  29  30
ENDBRANCH  28  29
ENDBRANCH  27  28
ENDBRANCH   1  27
TORSDOF 26
ENDMDL
MODEL 3
REMARK VINA RESULT:      -9.6      1.756      7.884
REMARK SMILES CC(C)[C@H](NC(=O)[C@H](C)NC(=O)C[NH3+])C(=O)OCCOCCOCCOCCOC(=O)c1ccc(-c2c3nc(c(-c4c(F)c(F)c(F)c(F)c4F)c4ccc([nH]4)c(-c4c(F)c(F)c(F)c(F)c4F)c4nc(c(-c5c(F)c(F)c(F)c(F)c5F)c5ccc2[nH]5)C=C4)C=C3)cc1
REMARK SMILES IDX 21 1 20 2 19 3 18 4 17 5 15 6 16 7 4 8 2 9 1 10 3 11 5 12
REMARK SMILES IDX 6 13 7 15 8 16 9 17 10 18 11 19 12 21 13 22 14 23 22 27
REMARK SMILES IDX 23 28 24 29 25 30 26 31 27 32 28 33 29 34 30 35 31 36 32 37
REMARK SMILES IDX 33 38 94 39 34 40 93 41 35 42 36 43 37 44 87 45 38 46 92 47
REMARK SMILES IDX 86 48 88 49 39 50 91 51 85 52 84 53 40 55 72 56 52 57 71 58
REMARK SMILES IDX 53 59 56 60 70 61 89 62 54 63 55 64 69 66 90 67 57 68 41 69
REMARK SMILES IDX 42 70 50 71 43 72 44 73 48 74 51 75 45 76 46 77 49 78 47 79
REMARK SMILES IDX 73 80 74 81 82 82 75 83 76 84 80 85 83 86 77 87 78 88 81 89
REMARK SMILES IDX 79 90 58 91 59 92 67 93 60 94 61 95 65 96 68 97 62 98 63 99
REMARK SMILES IDX 66 100 64 101
REMARK H PARENT 5 14 10 20 14 24 14 25 14 26 88 54 56 65
REMARK Flexibility Score: inf
ROOT
ATOM      1  C   UNL A   1      30.744  27.057  25.464  1.00  0.00     0.188 C 
ENDROOT
BRANCH   1   2
ATOM      2  O   UNL A   1      32.083  27.501  25.585  1.00  0.00    -0.376 OA
BRANCH   2   3
ATOM      3  C   UNL A   1      33.072  26.807  26.327  1.00  0.00     0.202 C 
BRANCH   3   4
ATOM      4  C   UNL A   1      33.635  25.408  25.981  1.00  0.00     0.261 C 
BRANCH   4   5
ATOM      5  O   UNL A   1      34.875  25.326  25.262  1.00  0.00    -0.462 OA
BRANCH   5   6
ATOM      6  C   UNL A   1      35.480  24.119  25.341  1.00  0.00     0.328 C 
ATOM      7  O   UNL A   1      36.677  23.998  25.584  1.00  0.00    -0.250 OA
BRANCH   6   8
ATOM      8  C   UNL A   1      34.496  22.916  25.275  1.00  0.00     0.194 C 
BRANCH   8   9
ATOM      9  C   UNL A   1      34.888  21.729  26.172  1.00  0.00     0.017 C 
ATOM     10  C   UNL A   1      34.388  21.783  27.616  1.00  0.00     0.010 C 
ATOM     11  C   UNL A   1      34.470  20.397  25.543  1.00  0.00     0.010 C 
ENDBRANCH   8   9
BRANCH   8  12
ATOM     12  N   UNL A   1      33.918  22.496  23.964  1.00  0.00    -0.341 N 
ATOM     13  C   UNL A   1      32.967  22.855  23.072  1.00  0.00     0.243 C 
ATOM     14  H   UNL A   1      34.383  21.689  23.643  1.00  0.00     0.164 HD
ATOM     15  O   UNL A   1      32.902  22.112  22.082  1.00  0.00    -0.273 OA
BRANCH  13  16
ATOM     16  C   UNL A   1      31.967  24.013  23.248  1.00  0.00     0.168 C 
ATOM     17  C   UNL A   1      30.642  23.473  23.807  1.00  0.00     0.041 C 
BRANCH  16  18
ATOM     18  N   UNL A   1      31.648  24.691  21.996  1.00  0.00    -0.340 N 
ATOM     19  C   UNL A   1      32.279  25.771  21.446  1.00  0.00     0.275 C 
ATOM     20  H   UNL A   1      30.888  24.327  21.489  1.00  0.00     0.164 HD
ATOM     21  O   UNL A   1      31.775  26.330  20.472  1.00  0.00    -0.268 OA
BRANCH  19  22
ATOM     22  C   UNL A   1      33.642  26.192  22.000  1.00  0.00     0.360 C 
BRANCH  22  23
ATOM     23  N   UNL A   1      33.493  27.342  22.895  1.00  0.00    -0.350 N 
ATOM     24  H   UNL A   1      33.254  28.169  22.348  1.00  0.00     0.344 HD
ATOM     25  H   UNL A   1      34.370  27.503  23.390  1.00  0.00     0.344 HD
ATOM     26  H   UNL A   1      32.752  27.154  23.570  1.00  0.00     0.344 HD
ENDBRANCH  22  23
ENDBRANCH  19  22
ENDBRANCH  16  18
ENDBRANCH  13  16
ENDBRANCH   8  12
ENDBRANCH   6   8
ENDBRANCH   5   6
ENDBRANCH   4   5
ENDBRANCH   3   4
ENDBRANCH   2   3
ENDBRANCH   1   2
BRANCH   1  27
ATOM     27  C   UNL A   1      30.042  27.000  24.101  1.00  0.00     0.188 C 
BRANCH  27  28
ATOM     28  O   UNL A   1      29.443  28.214  23.702  1.00  0.00    -0.377 OA
BRANCH  28  29
ATOM     29  C   UNL A   1      30.317  29.271  23.342  1.00  0.00     0.188 C 
BRANCH  29  30
ATOM     30  C   UNL A   1      30.214  30.603  24.115  1.00  0.00     0.188 C 
BRANCH  30  31
ATOM     31  O   UNL A   1      31.075  30.698  25.243  1.00  0.00    -0.376 OA
BRANCH  31  32
ATOM     32  C   UNL A   1      30.738  31.585  26.300  1.00  0.00     0.202 C 
BRANCH  32  33
ATOM     33  C   UNL A   1      31.782  32.630  26.730  1.00  0.00     0.261 C 
BRANCH  33  34
ATOM     34  O   UNL A   1      32.982  32.121  27.332  1.00  0.00    -0.460 OA
BRANCH  34  35
ATOM     35  C   UNL A   1      33.756  32.991  28.004  1.00  0.00     0.338 C 
ATOM     36  O   UNL A   1      33.399  34.028  28.545  1.00  0.00    -0.246 OA
BRANCH  35  37
ATOM     37  C   UNL A   1      35.095  32.394  28.172  1.00  0.00     0.060 A 
ATOM     38  C   UNL A   1      35.219  31.002  28.080  1.00  0.00     0.016 A 
ATOM     39  C   UNL A   1      36.211  33.188  28.453  1.00  0.00     0.016 A 
ATOM     40  C   UNL A   1      36.439  30.391  28.357  1.00  0.00     0.010 A 
ATOM     41  C   UNL A   1      37.429  32.574  28.756  1.00  0.00     0.010 A 
ATOM     42  C   UNL A   1      37.525  31.170  28.772  1.00  0.00    -0.014 A 
BRANCH  42  43
ATOM     43  C   UNL A   1      38.626  30.503  29.509  1.00  0.00     0.031 A 
ATOM     44  C   UNL A   1      38.803  30.853  30.964  1.00  0.00     0.074 A 
ATOM     45  C   UNL A   1      39.392  29.559  28.939  1.00  0.00     0.049 A 
ATOM     46  N   UNL A   1      39.679  30.412  31.830  1.00  0.00    -0.248 NA
ATOM     47  C   UNL A   1      37.857  31.837  31.518  1.00  0.00     0.031 C 
ATOM     48  C   UNL A   1      39.276  29.093  27.560  1.00  0.00     0.029 A 
ATOM     49  N   UNL A   1      40.423  28.820  29.463  1.00  0.00    -0.354 N 
ATOM     50  C   UNL A   1      39.395  31.071  33.020  1.00  0.00     0.074 A 
ATOM     51  C   UNL A   1      38.293  31.969  32.760  1.00  0.00     0.031 C 
ATOM     52  C   UNL A   1      40.207  28.148  27.342  1.00  0.00     0.029 A 
ATOM     53  C   UNL A   1      41.003  27.967  28.557  1.00  0.00     0.049 A 
ATOM     54  H   UNL A   1      40.718  28.894  30.398  1.00  0.00     0.167 HD
ATOM     55  C   UNL A   1      39.990  30.929  34.228  1.00  0.00     0.037 A 
ATOM     56  C   UNL A   1      42.066  27.152  28.694  1.00  0.00     0.037 A 
ATOM     57  C   UNL A   1      41.084  30.034  34.483  1.00  0.00     0.049 A 
ATOM     58  C   UNL A   1      42.764  27.070  30.030  1.00  0.00     0.074 A 
ATOM     59  C   UNL A   1      41.760  29.813  35.670  1.00  0.00     0.029 A 
ATOM     60  N   UNL A   1      41.671  29.215  33.529  1.00  0.00    -0.354 N 
ATOM     61  N   UNL A   1      42.482  27.683  31.155  1.00  0.00    -0.248 NA
ATOM     62  C   UNL A   1      43.923  26.171  30.117  1.00  0.00     0.031 C 
ATOM     63  C   UNL A   1      42.793  28.906  35.420  1.00  0.00     0.029 A 
ATOM     64  C   UNL A   1      42.716  28.504  34.095  1.00  0.00     0.049 A 
ATOM     65  H   UNL A   1      41.386  29.150  32.588  1.00  0.00     0.167 HD
ATOM     66  C   UNL A   1      43.399  27.214  32.090  1.00  0.00     0.074 A 
ATOM     67  C   UNL A   1      44.239  26.257  31.400  1.00  0.00     0.031 C 
ATOM     68  C   UNL A   1      43.530  27.540  33.399  1.00  0.00     0.037 A 
BRANCH  55  69
ATOM     69  C   UNL A   1      39.489  31.793  35.351  1.00  0.00     0.064 A 
ATOM     70  C   UNL A   1      38.564  31.322  36.294  1.00  0.00     0.173 A 
ATOM     71  C   UNL A   1      39.958  33.108  35.493  1.00  0.00     0.173 A 
ATOM     72  F   UNL A   1      38.068  30.079  36.195  1.00  0.00    -0.203 F 
ATOM     73  C   UNL A   1      38.104  32.147  37.319  1.00  0.00     0.198 A 
ATOM     74  C   UNL A   1      39.523  33.916  36.540  1.00  0.00     0.198 A 
ATOM     75  F   UNL A   1      40.844  33.609  34.619  1.00  0.00    -0.203 F 
ATOM     76  F   UNL A   1      37.175  31.694  38.174  1.00  0.00    -0.200 F 
ATOM     77  C   UNL A   1      38.590  33.439  37.446  1.00  0.00     0.200 A 
ATOM     78  F   UNL A   1      40.005  35.161  36.668  1.00  0.00    -0.200 F 
ATOM     79  F   UNL A   1      38.151  34.227  38.437  1.00  0.00    -0.200 F 
ENDBRANCH  55  69
BRANCH  56  80
ATOM     80  C   UNL A   1      42.547  26.349  27.538  1.00  0.00     0.064 A 
ATOM     81  C   UNL A   1      42.017  25.080  27.261  1.00  0.00     0.173 A 
ATOM     82  C   UNL A   1      43.573  26.820  26.705  1.00  0.00     0.173 A 
ATOM     83  F   UNL A   1      41.052  24.574  28.042  1.00  0.00    -0.203 F 
ATOM     84  C   UNL A   1      42.512  24.305  26.214  1.00  0.00     0.198 A 
ATOM     85  C   UNL A   1      44.043  26.058  25.638  1.00  0.00     0.198 A 
ATOM     86  F   UNL A   1      44.118  28.026  26.925  1.00  0.00    -0.203 F 
ATOM     87  F   UNL A   1      42.026  23.073  26.009  1.00  0.00    -0.200 F 
ATOM     88  C   UNL A   1      43.521  24.797  25.399  1.00  0.00     0.200 A 
ATOM     89  F   UNL A   1      45.009  26.543  24.845  1.00  0.00    -0.200 F 
ATOM     90  F   UNL A   1      43.995  24.051  24.392  1.00  0.00    -0.200 F 
ENDBRANCH  56  80
BRANCH  68  91
ATOM     91  C   UNL A   1      44.575  26.808  34.197  1.00  0.00     0.064 A 
ATOM     92  C   UNL A   1      44.349  25.530  34.729  1.00  0.00     0.173 A 
ATOM     93  C   UNL A   1      45.839  27.387  34.397  1.00  0.00     0.173 A 
ATOM     94  F   UNL A   1      43.157  24.936  34.574  1.00  0.00    -0.203 F 
ATOM     95  C   UNL A   1      45.335  24.875  35.462  1.00  0.00     0.198 A 
ATOM     96  C   UNL A   1      46.835  26.713  35.098  1.00  0.00     0.198 A 
ATOM     97  F   UNL A   1      46.115  28.602  33.900  1.00  0.00    -0.203 F 
ATOM     98  F   UNL A   1      45.076  23.682  36.014  1.00  0.00    -0.200 F 
ATOM     99  C   UNL A   1      46.579  25.464  35.640  1.00  0.00     0.200 A 
ATOM    100  F   UNL A   1      48.043  27.275  35.249  1.00  0.00    -0.200 F 
ATOM    101  F   UNL A   1      47.529  24.829  36.341  1.00  0.00    -0.200 F 
ENDBRANCH  68  91
ENDBRANCH  42  43
ENDBRANCH  35  37
ENDBRANCH  34  35
ENDBRANCH  33  34
ENDBRANCH  32  33
ENDBRANCH  31  32
ENDBRANCH  30  31
ENDBRANCH  29  30
ENDBRANCH  28  29
ENDBRANCH  27  28
ENDBRANCH   1  27
TORSDOF 26
ENDMDL
