MODEL 1
REMARK VINA RESULT:      -9.8      0.000      0.000
REMARK SMILES COc1ccc(C(=O)OCCOCCOCCOCCOC(=O)c2ccc(-c3c4nc(c(-c5c(F)c(F)c(F)c(F)c5F)c5ccc([nH]5)c(-c5c(F)c(F)c(F)c(F)c5F)c5nc(c(-c6c(F)c(F)c(F)c(F)c6F)c6ccc3[nH]6)C=C5)C=C4)cc2)cc1CN1CC(=O)N(C)CC1=O
REMARK SMILES IDX 15 1 14 2 13 3 12 4 11 5 10 6 9 7 7 8 8 9 6 10 3 11 4 12
REMARK SMILES IDX 88 13 5 14 87 15 2 16 1 17 89 18 90 19 91 20 97 21 92 22
REMARK SMILES IDX 96 23 98 24 93 25 94 26 95 27 16 28 17 29 18 30 19 31 20 32
REMARK SMILES IDX 21 33 22 34 23 35 24 36 25 37 86 38 26 39 85 40 27 41 28 42
REMARK SMILES IDX 29 43 79 44 30 45 84 46 78 47 80 48 31 49 83 50 77 51 76 52
REMARK SMILES IDX 32 54 64 55 44 56 63 57 45 58 48 59 62 60 81 61 46 62 47 63
REMARK SMILES IDX 61 65 82 66 49 67 33 68 34 69 42 70 35 71 36 72 40 73 43 74
REMARK SMILES IDX 37 75 38 76 41 77 39 78 65 79 66 80 74 81 67 82 68 83 72 84
REMARK SMILES IDX 75 85 69 86 70 87 73 88 71 89 50 90 51 91 59 92 52 93 53 94
REMARK SMILES IDX 57 95 60 96 54 97 55 98 58 99 56 100
REMARK H PARENT 80 53 48 64
REMARK Flexibility Score: inf
ROOT
ATOM      1  O   UNL A   1      35.141  30.877  27.581  1.00  0.00    -0.377 OA
ENDROOT
BRANCH   1   2
ATOM      2  C   UNL A   1      33.719  30.966  27.543  1.00  0.00     0.188 C 
BRANCH   2   3
ATOM      3  C   UNL A   1      32.848  29.930  26.793  1.00  0.00     0.188 C 
BRANCH   3   4
ATOM      4  O   UNL A   1      32.386  30.349  25.519  1.00  0.00    -0.376 OA
BRANCH   4   5
ATOM      5  C   UNL A   1      31.523  29.483  24.807  1.00  0.00     0.202 C 
BRANCH   5   6
ATOM      6  C   UNL A   1      32.156  28.756  23.618  1.00  0.00     0.261 C 
BRANCH   6   7
ATOM      7  O   UNL A   1      33.240  27.882  23.950  1.00  0.00    -0.460 OA
BRANCH   7   8
ATOM      8  C   UNL A   1      33.182  26.619  23.471  1.00  0.00     0.338 C 
ATOM      9  O   UNL A   1      33.643  26.217  22.419  1.00  0.00    -0.246 OA
BRANCH   8  10
ATOM     10  C   UNL A   1      32.610  25.752  24.528  1.00  0.00     0.060 A 
ATOM     11  C   UNL A   1      31.507  24.116  26.491  1.00  0.00     0.123 A 
ATOM     12  C   UNL A   1      30.671  24.876  25.665  1.00  0.00     0.047 A 
ATOM     13  C   UNL A   1      32.895  24.098  26.303  1.00  0.00     0.014 A 
ATOM     14  C   UNL A   1      31.223  25.706  24.689  1.00  0.00     0.019 A 
ATOM     15  C   UNL A   1      33.436  24.939  25.316  1.00  0.00     0.025 A 
BRANCH  11  16
ATOM     16  O   UNL A   1      30.923  23.370  27.480  1.00  0.00    -0.496 OA
ATOM     17  C   UNL A   1      29.701  22.806  26.991  1.00  0.00     0.278 C 
ENDBRANCH  11  16
BRANCH  13  18
ATOM     18  C   UNL A   1      33.810  23.172  27.069  1.00  0.00     0.159 C 
BRANCH  18  19
ATOM     19  N   UNL A   1      34.049  21.935  26.337  1.00  0.00    -0.327 N 
ATOM     20  C   UNL A   1      33.081  20.857  26.492  1.00  0.00     0.220 C 
ATOM     21  C   UNL A   1      35.322  21.652  25.860  1.00  0.00     0.242 C 
ATOM     22  C   UNL A   1      33.192  19.667  25.537  1.00  0.00     0.242 C 
ATOM     23  C   UNL A   1      35.348  20.576  24.777  1.00  0.00     0.219 C 
ATOM     24  O   UNL A   1      36.302  22.359  26.093  1.00  0.00    -0.273 OA
ATOM     25  O   UNL A   1      32.279  18.847  25.434  1.00  0.00    -0.273 OA
ATOM     26  N   UNL A   1      34.462  19.447  25.023  1.00  0.00    -0.335 N 
ATOM     27  C   UNL A   1      34.724  18.204  24.328  1.00  0.00     0.147 C 
ENDBRANCH  18  19
ENDBRANCH  13  18
ENDBRANCH   8  10
ENDBRANCH   7   8
ENDBRANCH   6   7
ENDBRANCH   5   6
ENDBRANCH   4   5
ENDBRANCH   3   4
ENDBRANCH   2   3
ENDBRANCH   1   2
BRANCH   1  28
ATOM     28  C   UNL A   1      35.906  31.967  28.078  1.00  0.00     0.188 C 
BRANCH  28  29
ATOM     29  C   UNL A   1      35.214  33.330  28.301  1.00  0.00     0.188 C 
BRANCH  29  30
ATOM     30  O   UNL A   1      35.514  33.924  29.554  1.00  0.00    -0.376 OA
BRANCH  30  31
ATOM     31  C   UNL A   1      34.482  33.919  30.526  1.00  0.00     0.202 C 
BRANCH  31  32
ATOM     32  C   UNL A   1      34.664  32.953  31.706  1.00  0.00     0.261 C 
BRANCH  32  33
ATOM     33  O   UNL A   1      35.782  32.053  31.621  1.00  0.00    -0.460 OA
BRANCH  33  34
ATOM     34  C   UNL A   1      36.658  32.046  32.648  1.00  0.00     0.338 C 
ATOM     35  O   UNL A   1      36.407  32.103  33.839  1.00  0.00    -0.246 OA
BRANCH  34  36
ATOM     36  C   UNL A   1      37.997  31.775  32.085  1.00  0.00     0.060 A 
ATOM     37  C   UNL A   1      38.283  32.172  30.772  1.00  0.00     0.016 A 
ATOM     38  C   UNL A   1      38.968  31.141  32.862  1.00  0.00     0.016 A 
ATOM     39  C   UNL A   1      39.538  31.907  30.222  1.00  0.00     0.010 A 
ATOM     40  C   UNL A   1      40.217  30.858  32.303  1.00  0.00     0.010 A 
ATOM     41  C   UNL A   1      40.496  31.211  30.970  1.00  0.00    -0.014 A 
BRANCH  41  42
ATOM     42  C   UNL A   1      41.708  30.673  30.307  1.00  0.00     0.031 A 
ATOM     43  C   UNL A   1      41.626  29.306  29.683  1.00  0.00     0.074 A 
ATOM     44  C   UNL A   1      42.852  31.377  30.247  1.00  0.00     0.049 A 
ATOM     45  N   UNL A   1      42.562  28.590  29.114  1.00  0.00    -0.248 NA
ATOM     46  C   UNL A   1      40.304  28.657  29.709  1.00  0.00     0.031 C 
ATOM     47  C   UNL A   1      43.046  32.725  30.774  1.00  0.00     0.029 A 
ATOM     48  N   UNL A   1      44.076  31.041  29.720  1.00  0.00    -0.354 N 
ATOM     49  C   UNL A   1      41.943  27.410  28.719  1.00  0.00     0.074 A 
ATOM     50  C   UNL A   1      40.563  27.488  29.142  1.00  0.00     0.031 C 
ATOM     51  C   UNL A   1      44.320  33.098  30.559  1.00  0.00     0.029 A 
ATOM     52  C   UNL A   1      45.039  32.002  29.912  1.00  0.00     0.049 A 
ATOM     53  H   UNL A   1      44.246  30.193  29.250  1.00  0.00     0.167 HD
ATOM     54  C   UNL A   1      42.477  26.361  28.052  1.00  0.00     0.037 A 
ATOM     55  C   UNL A   1      46.355  31.979  29.621  1.00  0.00     0.037 A 
ATOM     56  C   UNL A   1      43.852  26.282  27.635  1.00  0.00     0.049 A 
ATOM     57  C   UNL A   1      46.944  30.758  28.954  1.00  0.00     0.074 A 
ATOM     58  C   UNL A   1      44.489  25.262  26.952  1.00  0.00     0.029 A 
ATOM     59  N   UNL A   1      44.803  27.264  27.870  1.00  0.00    -0.354 N 
ATOM     60  N   UNL A   1      46.351  29.656  28.564  1.00  0.00    -0.248 NA
ATOM     61  C   UNL A   1      48.391  30.782  28.686  1.00  0.00     0.031 C 
ATOM     62  C   UNL A   1      45.839  25.602  26.819  1.00  0.00     0.029 A 
ATOM     63  C   UNL A   1      46.029  26.862  27.363  1.00  0.00     0.049 A 
ATOM     64  H   UNL A   1      44.633  28.119  28.327  1.00  0.00     0.167 HD
ATOM     65  C   UNL A   1      47.338  28.877  27.973  1.00  0.00     0.074 A 
ATOM     66  C   UNL A   1      48.568  29.637  28.042  1.00  0.00     0.031 C 
ATOM     67  C   UNL A   1      47.238  27.642  27.421  1.00  0.00     0.037 A 
BRANCH  54  68
ATOM     68  C   UNL A   1      41.579  25.199  27.748  1.00  0.00     0.064 A 
ATOM     69  C   UNL A   1      40.550  25.293  26.798  1.00  0.00     0.173 A 
ATOM     70  C   UNL A   1      41.780  23.961  28.377  1.00  0.00     0.173 A 
ATOM     71  F   UNL A   1      40.305  26.458  26.181  1.00  0.00    -0.203 F 
ATOM     72  C   UNL A   1      39.746  24.195  26.502  1.00  0.00     0.198 A 
ATOM     73  C   UNL A   1      40.994  22.858  28.057  1.00  0.00     0.198 A 
ATOM     74  F   UNL A   1      42.750  23.817  29.293  1.00  0.00    -0.203 F 
ATOM     75  F   UNL A   1      38.744  24.319  25.621  1.00  0.00    -0.200 F 
ATOM     76  C   UNL A   1      39.974  22.977  27.124  1.00  0.00     0.200 A 
ATOM     77  F   UNL A   1      41.225  21.678  28.650  1.00  0.00    -0.200 F 
ATOM     78  F   UNL A   1      39.210  21.917  26.827  1.00  0.00    -0.200 F 
ENDBRANCH  54  68
BRANCH  55  79
ATOM     79  C   UNL A   1      47.226  33.134  29.974  1.00  0.00     0.064 A 
ATOM     80  C   UNL A   1      47.877  33.200  31.215  1.00  0.00     0.173 A 
ATOM     81  C   UNL A   1      47.376  34.224  29.104  1.00  0.00     0.173 A 
ATOM     82  F   UNL A   1      47.741  32.197  32.095  1.00  0.00    -0.203 F 
ATOM     83  C   UNL A   1      48.615  34.324  31.585  1.00  0.00     0.198 A 
ATOM     84  C   UNL A   1      48.144  35.332  29.460  1.00  0.00     0.198 A 
ATOM     85  F   UNL A   1      46.771  34.218  27.908  1.00  0.00    -0.203 F 
ATOM     86  F   UNL A   1      49.166  34.389  32.804  1.00  0.00    -0.200 F 
ATOM     87  C   UNL A   1      48.750  35.387  30.705  1.00  0.00     0.200 A 
ATOM     88  F   UNL A   1      48.279  36.354  28.605  1.00  0.00    -0.200 F 
ATOM     89  F   UNL A   1      49.452  36.470  31.064  1.00  0.00    -0.200 F 
ENDBRANCH  55  79
BRANCH  67  90
ATOM     90  C   UNL A   1      48.474  27.055  26.798  1.00  0.00     0.064 A 
ATOM     91  C   UNL A   1      49.401  26.315  27.545  1.00  0.00     0.173 A 
ATOM     92  C   UNL A   1      48.707  27.200  25.421  1.00  0.00     0.173 A 
ATOM     93  F   UNL A   1      49.233  26.158  28.866  1.00  0.00    -0.203 F 
ATOM     94  C   UNL A   1      50.531  25.767  26.942  1.00  0.00     0.198 A 
ATOM     95  C   UNL A   1      49.818  26.621  24.816  1.00  0.00     0.198 A 
ATOM     96  F   UNL A   1      47.846  27.889  24.657  1.00  0.00    -0.203 F 
ATOM     97  F   UNL A   1      51.432  25.108  27.686  1.00  0.00    -0.200 F 
ATOM     98  C   UNL A   1      50.735  25.913  25.578  1.00  0.00     0.200 A 
ATOM     99  F   UNL A   1      50.002  26.748  23.494  1.00  0.00    -0.200 F 
ATOM    100  F   UNL A   1      51.818  25.376  25.000  1.00  0.00    -0.200 F 
ENDBRANCH  67  90
ENDBRANCH  41  42
ENDBRANCH  34  36
ENDBRANCH  33  34
ENDBRANCH  32  33
ENDBRANCH  31  32
ENDBRANCH  30  31
ENDBRANCH  29  30
ENDBRANCH  28  29
ENDBRANCH   1  28
TORSDOF 23
ENDMDL
MODEL 2
REMARK VINA RESULT:      -9.4      1.246      7.065
REMARK SMILES COc1ccc(C(=O)OCCOCCOCCOCCOC(=O)c2ccc(-c3c4nc(c(-c5c(F)c(F)c(F)c(F)c5F)c5ccc([nH]5)c(-c5c(F)c(F)c(F)c(F)c5F)c5nc(c(-c6c(F)c(F)c(F)c(F)c6F)c6ccc3[nH]6)C=C5)C=C4)cc2)cc1CN1CC(=O)N(C)CC1=O
REMARK SMILES IDX 15 1 14 2 13 3 12 4 11 5 10 6 9 7 7 8 8 9 6 10 3 11 4 12
REMARK SMILES IDX 88 13 5 14 87 15 2 16 1 17 89 18 90 19 91 20 97 21 92 22
REMARK SMILES IDX 96 23 98 24 93 25 94 26 95 27 16 28 17 29 18 30 19 31 20 32
REMARK SMILES IDX 21 33 22 34 23 35 24 36 25 37 86 38 26 39 85 40 27 41 28 42
REMARK SMILES IDX 29 43 79 44 30 45 84 46 78 47 80 48 31 49 83 50 77 51 76 52
REMARK SMILES IDX 32 54 64 55 44 56 63 57 45 58 48 59 62 60 81 61 46 62 47 63
REMARK SMILES IDX 61 65 82 66 49 67 33 68 34 69 42 70 35 71 36 72 40 73 43 74
REMARK SMILES IDX 37 75 38 76 41 77 39 78 65 79 66 80 74 81 67 82 68 83 72 84
REMARK SMILES IDX 75 85 69 86 70 87 73 88 71 89 50 90 51 91 59 92 52 93 53 94
REMARK SMILES IDX 57 95 60 96 54 97 55 98 58 99 56 100
REMARK H PARENT 80 53 48 64
REMARK Flexibility Score: inf
ROOT
ATOM      1  O   UNL A   1      35.170  31.123  27.643  1.00  0.00    -0.377 OA
ENDROOT
BRANCH   1   2
ATOM      2  C   UNL A   1      33.751  31.258  27.635  1.00  0.00     0.188 C 
BRANCH   2   3
ATOM      3  C   UNL A   1      32.834  30.272  26.873  1.00  0.00     0.188 C 
BRANCH   3   4
ATOM      4  O   UNL A   1      32.051  30.857  25.846  1.00  0.00    -0.376 OA
BRANCH   4   5
ATOM      5  C   UNL A   1      31.073  30.052  25.215  1.00  0.00     0.202 C 
BRANCH   5   6
ATOM      6  C   UNL A   1      31.544  29.306  23.963  1.00  0.00     0.261 C 
BRANCH   6   7
ATOM      7  O   UNL A   1      32.802  28.636  24.095  1.00  0.00    -0.460 OA
BRANCH   7   8
ATOM      8  C   UNL A   1      32.915  27.420  23.517  1.00  0.00     0.338 C 
ATOM      9  O   UNL A   1      33.380  27.174  22.419  1.00  0.00    -0.246 OA
BRANCH   8  10
ATOM     10  C   UNL A   1      32.535  26.397  24.520  1.00  0.00     0.060 A 
ATOM     11  C   UNL A   1      31.785  24.478  26.392  1.00  0.00     0.123 A 
ATOM     12  C   UNL A   1      30.909  25.522  26.072  1.00  0.00     0.047 A 
ATOM     13  C   UNL A   1      33.011  24.330  25.731  1.00  0.00     0.014 A 
ATOM     14  C   UNL A   1      31.288  26.491  25.143  1.00  0.00     0.019 A 
ATOM     15  C   UNL A   1      33.379  25.314  24.799  1.00  0.00     0.025 A 
BRANCH  11  16
ATOM     16  O   UNL A   1      31.398  23.591  27.360  1.00  0.00    -0.496 OA
ATOM     17  C   UNL A   1      30.310  22.798  26.870  1.00  0.00     0.278 C 
ENDBRANCH  11  16
BRANCH  13  18
ATOM     18  C   UNL A   1      33.908  23.132  25.936  1.00  0.00     0.159 C 
BRANCH  18  19
ATOM     19  N   UNL A   1      33.437  21.979  25.181  1.00  0.00    -0.327 N 
ATOM     20  C   UNL A   1      33.356  20.701  25.875  1.00  0.00     0.220 C 
ATOM     21  C   UNL A   1      33.466  22.007  23.793  1.00  0.00     0.242 C 
ATOM     22  C   UNL A   1      32.627  19.558  25.165  1.00  0.00     0.242 C 
ATOM     23  C   UNL A   1      32.577  20.952  23.138  1.00  0.00     0.219 C 
ATOM     24  O   UNL A   1      33.952  22.935  23.146  1.00  0.00    -0.273 OA
ATOM     25  O   UNL A   1      32.298  18.539  25.772  1.00  0.00    -0.273 OA
ATOM     26  N   UNL A   1      32.614  19.645  23.780  1.00  0.00    -0.335 N 
ATOM     27  C   UNL A   1      32.185  18.492  23.016  1.00  0.00     0.147 C 
ENDBRANCH  18  19
ENDBRANCH  13  18
ENDBRANCH   8  10
ENDBRANCH   7   8
ENDBRANCH   6   7
ENDBRANCH   5   6
ENDBRANCH   4   5
ENDBRANCH   3   4
ENDBRANCH   2   3
ENDBRANCH   1   2
BRANCH   1  28
ATOM     28  C   UNL A   1      35.968  32.066  28.348  1.00  0.00     0.188 C 
BRANCH  28  29
ATOM     29  C   UNL A   1      35.477  33.525  28.464  1.00  0.00     0.188 C 
BRANCH  29  30
ATOM     30  O   UNL A   1      35.605  34.069  29.769  1.00  0.00    -0.376 OA
BRANCH  30  31
ATOM     31  C   UNL A   1      34.419  34.171  30.537  1.00  0.00     0.202 C 
BRANCH  31  32
ATOM     32  C   UNL A   1      34.318  33.246  31.759  1.00  0.00     0.261 C 
BRANCH  32  33
ATOM     33  O   UNL A   1      35.317  32.216  31.858  1.00  0.00    -0.460 OA
BRANCH  33  34
ATOM     34  C   UNL A   1      36.273  32.361  32.800  1.00  0.00     0.338 C 
ATOM     35  O   UNL A   1      36.120  32.619  33.981  1.00  0.00    -0.246 OA
BRANCH  34  36
ATOM     36  C   UNL A   1      37.560  31.976  32.185  1.00  0.00     0.060 A 
ATOM     37  C   UNL A   1      37.959  32.584  30.987  1.00  0.00     0.016 A 
ATOM     38  C   UNL A   1      38.375  31.025  32.802  1.00  0.00     0.016 A 
ATOM     39  C   UNL A   1      39.164  32.218  30.386  1.00  0.00     0.010 A 
ATOM     40  C   UNL A   1      39.572  30.645  32.190  1.00  0.00     0.010 A 
ATOM     41  C   UNL A   1      39.955  31.216  30.963  1.00  0.00    -0.014 A 
BRANCH  41  42
ATOM     42  C   UNL A   1      41.073  30.618  30.193  1.00  0.00     0.031 A 
ATOM     43  C   UNL A   1      42.272  31.479  29.903  1.00  0.00     0.074 A 
ATOM     44  C   UNL A   1      41.036  29.343  29.769  1.00  0.00     0.049 A 
ATOM     45  N   UNL A   1      43.338  31.214  29.190  1.00  0.00    -0.248 NA
ATOM     46  C   UNL A   1      42.266  32.827  30.495  1.00  0.00     0.031 C 
ATOM     47  C   UNL A   1      39.952  28.397  30.022  1.00  0.00     0.029 A 
ATOM     48  N   UNL A   1      41.939  28.629  29.020  1.00  0.00    -0.354 N 
ATOM     49  C   UNL A   1      44.122  32.359  29.248  1.00  0.00     0.074 A 
ATOM     50  C   UNL A   1      43.399  33.334  30.034  1.00  0.00     0.031 C 
ATOM     51  C   UNL A   1      40.246  27.228  29.425  1.00  0.00     0.029 A 
ATOM     52  C   UNL A   1      41.519  27.356  28.718  1.00  0.00     0.049 A 
ATOM     53  H   UNL A   1      42.805  28.994  28.728  1.00  0.00     0.167 HD
ATOM     54  C   UNL A   1      45.343  32.573  28.704  1.00  0.00     0.037 A 
ATOM     55  C   UNL A   1      42.089  26.418  27.936  1.00  0.00     0.037 A 
ATOM     56  C   UNL A   1      46.059  31.605  27.919  1.00  0.00     0.049 A 
ATOM     57  C   UNL A   1      43.411  26.715  27.269  1.00  0.00     0.074 A 
ATOM     58  C   UNL A   1      47.303  31.725  27.325  1.00  0.00     0.029 A 
ATOM     59  N   UNL A   1      45.590  30.336  27.613  1.00  0.00    -0.354 N 
ATOM     60  N   UNL A   1      44.159  27.791  27.345  1.00  0.00    -0.248 NA
ATOM     61  C   UNL A   1      43.971  25.663  26.406  1.00  0.00     0.031 C 
ATOM     62  C   UNL A   1      47.564  30.549  26.616  1.00  0.00     0.029 A 
ATOM     63  C   UNL A   1      46.512  29.671  26.820  1.00  0.00     0.049 A 
ATOM     64  H   UNL A   1      44.731  29.962  27.916  1.00  0.00     0.167 HD
ATOM     65  C   UNL A   1      45.287  27.530  26.577  1.00  0.00     0.074 A 
ATOM     66  C   UNL A   1      45.135  26.189  26.054  1.00  0.00     0.031 C 
ATOM     67  C   UNL A   1      46.355  28.328  26.326  1.00  0.00     0.037 A 
BRANCH  54  68
ATOM     68  C   UNL A   1      45.976  33.916  28.920  1.00  0.00     0.064 A 
ATOM     69  C   UNL A   1      45.858  34.946  27.974  1.00  0.00     0.173 A 
ATOM     70  C   UNL A   1      46.666  34.193  30.110  1.00  0.00     0.173 A 
ATOM     71  F   UNL A   1      45.222  34.727  26.813  1.00  0.00    -0.203 F 
ATOM     72  C   UNL A   1      46.422  36.198  28.204  1.00  0.00     0.198 A 
ATOM     73  C   UNL A   1      47.203  35.455  30.350  1.00  0.00     0.198 A 
ATOM     74  F   UNL A   1      46.807  33.244  31.047  1.00  0.00    -0.203 F 
ATOM     75  F   UNL A   1      46.332  37.154  27.270  1.00  0.00    -0.200 F 
ATOM     76  C   UNL A   1      47.085  36.455  29.395  1.00  0.00     0.200 A 
ATOM     77  F   UNL A   1      47.832  35.704  31.507  1.00  0.00    -0.200 F 
ATOM     78  F   UNL A   1      47.615  37.664  29.622  1.00  0.00    -0.200 F 
ENDBRANCH  54  68
BRANCH  55  79
ATOM     79  C   UNL A   1      41.413  25.111  27.710  1.00  0.00     0.064 A 
ATOM     80  C   UNL A   1      41.906  23.929  28.282  1.00  0.00     0.173 A 
ATOM     81  C   UNL A   1      40.295  25.007  26.868  1.00  0.00     0.173 A 
ATOM     82  F   UNL A   1      42.991  23.970  29.070  1.00  0.00    -0.203 F 
ATOM     83  C   UNL A   1      41.331  22.692  27.994  1.00  0.00     0.198 A 
ATOM     84  C   UNL A   1      39.699  23.774  26.609  1.00  0.00     0.198 A 
ATOM     85  F   UNL A   1      39.785  26.103  26.289  1.00  0.00    -0.203 F 
ATOM     86  F   UNL A   1      41.867  21.573  28.498  1.00  0.00    -0.200 F 
ATOM     87  C   UNL A   1      40.225  22.617  27.160  1.00  0.00     0.200 A 
ATOM     88  F   UNL A   1      38.625  23.706  25.810  1.00  0.00    -0.200 F 
ATOM     89  F   UNL A   1      39.678  21.427  26.878  1.00  0.00    -0.200 F 
ENDBRANCH  55  79
BRANCH  67  90
ATOM     90  C   UNL A   1      47.470  27.757  25.495  1.00  0.00     0.064 A 
ATOM     91  C   UNL A   1      47.450  27.807  24.094  1.00  0.00     0.173 A 
ATOM     92  C   UNL A   1      48.596  27.194  26.116  1.00  0.00     0.173 A 
ATOM     93  F   UNL A   1      46.393  28.323  23.451  1.00  0.00    -0.203 F 
ATOM     94  C   UNL A   1      48.504  27.287  23.345  1.00  0.00     0.198 A 
ATOM     95  C   UNL A   1      49.662  26.708  25.366  1.00  0.00     0.198 A 
ATOM     96  F   UNL A   1      48.671  27.131  27.455  1.00  0.00    -0.203 F 
ATOM     97  F   UNL A   1      48.440  27.297  22.006  1.00  0.00    -0.200 F 
ATOM     98  C   UNL A   1      49.611  26.745  23.980  1.00  0.00     0.200 A 
ATOM     99  F   UNL A   1      50.739  26.202  25.983  1.00  0.00    -0.200 F 
ATOM    100  F   UNL A   1      50.627  26.254  23.258  1.00  0.00    -0.200 F 
ENDBRANCH  67  90
ENDBRANCH  41  42
ENDBRANCH  34  36
ENDBRANCH  33  34
ENDBRANCH  32  33
ENDBRANCH  31  32
ENDBRANCH  30  31
ENDBRANCH  29  30
ENDBRANCH  28  29
ENDBRANCH   1  28
TORSDOF 23
ENDMDL
MODEL 3
REMARK VINA RESULT:      -9.2      1.018      2.238
REMARK SMILES COc1ccc(C(=O)OCCOCCOCCOCCOC(=O)c2ccc(-c3c4nc(c(-c5c(F)c(F)c(F)c(F)c5F)c5ccc([nH]5)c(-c5c(F)c(F)c(F)c(F)c5F)c5nc(c(-c6c(F)c(F)c(F)c(F)c6F)c6ccc3[nH]6)C=C5)C=C4)cc2)cc1CN1CC(=O)N(C)CC1=O
REMARK SMILES IDX 15 1 14 2 13 3 12 4 11 5 10 6 9 7 7 8 8 9 6 10 3 11 4 12
REMARK SMILES IDX 88 13 5 14 87 15 2 16 1 17 89 18 90 19 91 20 97 21 92 22
REMARK SMILES IDX 96 23 98 24 93 25 94 26 95 27 16 28 17 29 18 30 19 31 20 32
REMARK SMILES IDX 21 33 22 34 23 35 24 36 25 37 86 38 26 39 85 40 27 41 28 42
REMARK SMILES IDX 29 43 79 44 30 45 84 46 78 47 80 48 31 49 83 50 77 51 76 52
REMARK SMILES IDX 32 54 64 55 44 56 63 57 45 58 48 59 62 60 81 61 46 62 47 63
REMARK SMILES IDX 61 65 82 66 49 67 33 68 34 69 42 70 35 71 36 72 40 73 43 74
REMARK SMILES IDX 37 75 38 76 41 77 39 78 65 79 66 80 74 81 67 82 68 83 72 84
REMARK SMILES IDX 75 85 69 86 70 87 73 88 71 89 50 90 51 91 59 92 52 93 53 94
REMARK SMILES IDX 57 95 60 96 54 97 55 98 58 99 56 100
REMARK H PARENT 80 53 48 64
REMARK Flexibility Score: inf
ROOT
ATOM      1  O   UNL A   1      35.587  30.792  27.516  1.00  0.00    -0.377 OA
ENDROOT
BRANCH   1   2
ATOM      2  C   UNL A   1      34.163  30.759  27.546  1.00  0.00     0.188 C 
BRANCH   2   3
ATOM      3  C   UNL A   1      33.345  29.716  26.748  1.00  0.00     0.188 C 
BRANCH   3   4
ATOM      4  O   UNL A   1      32.291  30.253  25.967  1.00  0.00    -0.376 OA
BRANCH   4   5
ATOM      5  C   UNL A   1      31.472  29.354  25.244  1.00  0.00     0.202 C 
BRANCH   5   6
ATOM      6  C   UNL A   1      31.924  29.060  23.811  1.00  0.00     0.261 C 
BRANCH   6   7
ATOM      7  O   UNL A   1      33.300  28.690  23.674  1.00  0.00    -0.460 OA
BRANCH   7   8
ATOM      8  C   UNL A   1      33.628  27.922  22.611  1.00  0.00     0.338 C 
ATOM      9  O   UNL A   1      34.346  28.236  21.679  1.00  0.00    -0.246 OA
BRANCH   8  10
ATOM     10  C   UNL A   1      33.106  26.557  22.851  1.00  0.00     0.060 A 
ATOM     11  C   UNL A   1      32.130  23.983  23.267  1.00  0.00     0.123 A 
ATOM     12  C   UNL A   1      31.921  24.619  22.038  1.00  0.00     0.047 A 
ATOM     13  C   UNL A   1      32.892  24.585  24.276  1.00  0.00     0.014 A 
ATOM     14  C   UNL A   1      32.398  25.913  21.832  1.00  0.00     0.019 A 
ATOM     15  C   UNL A   1      33.366  25.888  24.055  1.00  0.00     0.025 A 
BRANCH  11  16
ATOM     16  O   UNL A   1      31.583  22.740  23.446  1.00  0.00    -0.496 OA
ATOM     17  C   UNL A   1      32.138  21.834  22.485  1.00  0.00     0.278 C 
ENDBRANCH  11  16
BRANCH  13  18
ATOM     18  C   UNL A   1      33.272  23.865  25.549  1.00  0.00     0.159 C 
BRANCH  18  19
ATOM     19  N   UNL A   1      34.320  22.882  25.313  1.00  0.00    -0.327 N 
ATOM     20  C   UNL A   1      33.967  21.473  25.429  1.00  0.00     0.220 C 
ATOM     21  C   UNL A   1      35.653  23.265  25.388  1.00  0.00     0.242 C 
ATOM     22  C   UNL A   1      34.989  20.447  24.935  1.00  0.00     0.242 C 
ATOM     23  C   UNL A   1      36.613  22.283  24.719  1.00  0.00     0.219 C 
ATOM     24  O   UNL A   1      36.013  24.391  25.729  1.00  0.00    -0.273 OA
ATOM     25  O   UNL A   1      34.677  19.268  24.766  1.00  0.00    -0.273 OA
ATOM     26  N   UNL A   1      36.308  20.879  24.958  1.00  0.00    -0.335 N 
ATOM     27  C   UNL A   1      37.362  19.905  24.764  1.00  0.00     0.147 C 
ENDBRANCH  18  19
ENDBRANCH  13  18
ENDBRANCH   8  10
ENDBRANCH   7   8
ENDBRANCH   6   7
ENDBRANCH   5   6
ENDBRANCH   4   5
ENDBRANCH   3   4
ENDBRANCH   2   3
ENDBRANCH   1   2
BRANCH   1  28
ATOM     28  C   UNL A   1      36.292  31.740  28.307  1.00  0.00     0.188 C 
BRANCH  28  29
ATOM     29  C   UNL A   1      35.726  33.169  28.446  1.00  0.00     0.188 C 
BRANCH  29  30
ATOM     30  O   UNL A   1      35.827  33.699  29.758  1.00  0.00    -0.376 OA
BRANCH  30  31
ATOM     31  C   UNL A   1      34.694  33.550  30.596  1.00  0.00     0.202 C 
BRANCH  31  32
ATOM     32  C   UNL A   1      34.788  32.467  31.681  1.00  0.00     0.261 C 
BRANCH  32  33
ATOM     33  O   UNL A   1      35.999  31.692  31.699  1.00  0.00    -0.460 OA
BRANCH  33  34
ATOM     34  C   UNL A   1      36.896  31.957  32.673  1.00  0.00     0.338 C 
ATOM     35  O   UNL A   1      36.667  32.246  33.835  1.00  0.00    -0.246 OA
BRANCH  34  36
ATOM     36  C   UNL A   1      38.238  31.664  32.129  1.00  0.00     0.060 A 
ATOM     37  C   UNL A   1      38.651  32.287  30.945  1.00  0.00     0.016 A 
ATOM     38  C   UNL A   1      39.088  30.782  32.800  1.00  0.00     0.016 A 
ATOM     39  C   UNL A   1      39.910  32.006  30.411  1.00  0.00     0.010 A 
ATOM     40  C   UNL A   1      40.339  30.485  32.254  1.00  0.00     0.010 A 
ATOM     41  C   UNL A   1      40.742  31.072  31.041  1.00  0.00    -0.014 A 
BRANCH  41  42
ATOM     42  C   UNL A   1      41.940  30.551  30.336  1.00  0.00     0.031 A 
ATOM     43  C   UNL A   1      41.843  29.202  29.678  1.00  0.00     0.074 A 
ATOM     44  C   UNL A   1      43.082  31.257  30.271  1.00  0.00     0.049 A 
ATOM     45  N   UNL A   1      42.766  28.502  29.069  1.00  0.00    -0.248 NA
ATOM     46  C   UNL A   1      40.522  28.552  29.715  1.00  0.00     0.031 C 
ATOM     47  C   UNL A   1      43.288  32.590  30.831  1.00  0.00     0.029 A 
ATOM     48  N   UNL A   1      44.294  30.936  29.709  1.00  0.00    -0.354 N 
ATOM     49  C   UNL A   1      42.139  27.334  28.656  1.00  0.00     0.074 A 
ATOM     50  C   UNL A   1      40.768  27.400  29.111  1.00  0.00     0.031 C 
ATOM     51  C   UNL A   1      44.557  32.969  30.598  1.00  0.00     0.029 A 
ATOM     52  C   UNL A   1      45.261  31.892  29.906  1.00  0.00     0.049 A 
ATOM     53  H   UNL A   1      44.453  30.102  29.212  1.00  0.00     0.167 HD
ATOM     54  C   UNL A   1      42.658  26.303  27.949  1.00  0.00     0.037 A 
ATOM     55  C   UNL A   1      46.571  31.877  29.586  1.00  0.00     0.037 A 
ATOM     56  C   UNL A   1      44.023  26.236  27.501  1.00  0.00     0.049 A 
ATOM     57  C   UNL A   1      47.145  30.676  28.873  1.00  0.00     0.074 A 
ATOM     58  C   UNL A   1      44.645  25.235  26.776  1.00  0.00     0.029 A 
ATOM     59  N   UNL A   1      44.980  27.211  27.741  1.00  0.00    -0.354 N 
ATOM     60  N   UNL A   1      46.543  29.584  28.466  1.00  0.00    -0.248 NA
ATOM     61  C   UNL A   1      48.585  30.707  28.575  1.00  0.00     0.031 C 
ATOM     62  C   UNL A   1      45.992  25.579  26.623  1.00  0.00     0.029 A 
ATOM     63  C   UNL A   1      46.194  26.824  27.197  1.00  0.00     0.049 A 
ATOM     64  H   UNL A   1      44.820  28.054  28.225  1.00  0.00     0.167 HD
ATOM     65  C   UNL A   1      47.517  28.822  27.833  1.00  0.00     0.074 A 
ATOM     66  C   UNL A   1      48.748  29.580  27.896  1.00  0.00     0.031 C 
ATOM     67  C   UNL A   1      47.404  27.602  27.250  1.00  0.00     0.037 A 
BRANCH  54  68
ATOM     68  C   UNL A   1      41.753  25.149  27.633  1.00  0.00     0.064 A 
ATOM     69  C   UNL A   1      41.868  23.919  28.299  1.00  0.00     0.173 A 
ATOM     70  C   UNL A   1      40.726  25.290  26.688  1.00  0.00     0.173 A 
ATOM     71  F   UNL A   1      42.844  23.728  29.199  1.00  0.00    -0.203 F 
ATOM     72  C   UNL A   1      40.998  22.869  28.018  1.00  0.00     0.198 A 
ATOM     73  C   UNL A   1      39.839  24.249  26.431  1.00  0.00     0.198 A 
ATOM     74  F   UNL A   1      40.572  26.445  26.022  1.00  0.00    -0.203 F 
ATOM     75  F   UNL A   1      41.151  21.690  28.638  1.00  0.00    -0.200 F 
ATOM     76  C   UNL A   1      39.979  23.037  27.093  1.00  0.00     0.200 A 
ATOM     77  F   UNL A   1      38.847  24.417  25.546  1.00  0.00    -0.200 F 
ATOM     78  F   UNL A   1      39.133  22.030  26.834  1.00  0.00    -0.200 F 
ENDBRANCH  54  68
BRANCH  55  79
ATOM     79  C   UNL A   1      47.450  33.022  29.952  1.00  0.00     0.064 A 
ATOM     80  C   UNL A   1      47.574  34.140  29.113  1.00  0.00     0.173 A 
ATOM     81  C   UNL A   1      48.230  32.995  31.118  1.00  0.00     0.173 A 
ATOM     82  F   UNL A   1      46.873  34.200  27.972  1.00  0.00    -0.203 F 
ATOM     83  C   UNL A   1      48.469  35.168  29.408  1.00  0.00     0.198 A 
ATOM     84  C   UNL A   1      49.098  34.041  31.430  1.00  0.00     0.198 A 
ATOM     85  F   UNL A   1      48.156  31.949  31.952  1.00  0.00    -0.203 F 
ATOM     86  F   UNL A   1      48.618  36.188  28.553  1.00  0.00    -0.200 F 
ATOM     87  C   UNL A   1      49.227  35.119  30.568  1.00  0.00     0.200 A 
ATOM     88  F   UNL A   1      49.822  33.994  32.555  1.00  0.00    -0.200 F 
ATOM     89  F   UNL A   1      50.092  36.103  30.847  1.00  0.00    -0.200 F 
ENDBRANCH  55  79
BRANCH  67  90
ATOM     90  C   UNL A   1      48.627  27.033  26.585  1.00  0.00     0.064 A 
ATOM     91  C   UNL A   1      48.867  27.194  25.213  1.00  0.00     0.173 A 
ATOM     92  C   UNL A   1      49.593  26.357  27.346  1.00  0.00     0.173 A 
ATOM     93  F   UNL A   1      47.970  27.821  24.438  1.00  0.00    -0.203 F 
ATOM     94  C   UNL A   1      50.016  26.672  24.622  1.00  0.00     0.198 A 
ATOM     95  C   UNL A   1      50.756  25.867  26.759  1.00  0.00     0.198 A 
ATOM     96  F   UNL A   1      49.419  26.184  28.665  1.00  0.00    -0.203 F 
ATOM     97  F   UNL A   1      50.201  26.792  23.300  1.00  0.00    -0.200 F 
ATOM     98  C   UNL A   1      50.963  26.017  25.396  1.00  0.00     0.200 A 
ATOM     99  F   UNL A   1      51.678  25.251  27.512  1.00  0.00    -0.200 F 
ATOM    100  F   UNL A   1      52.071  25.525  24.827  1.00  0.00    -0.200 F 
ENDBRANCH  67  90
ENDBRANCH  41  42
ENDBRANCH  34  36
ENDBRANCH  33  34
ENDBRANCH  32  33
ENDBRANCH  31  32
ENDBRANCH  30  31
ENDBRANCH  29  30
ENDBRANCH  28  29
ENDBRANCH   1  28
TORSDOF 23
ENDMDL
