MODEL 1
REMARK VINA RESULT:     -10.3      0.000      0.000
REMARK SMILES O=C(OCCOCCOCCOCCOC(=O)[C@@H](c1ccccc1)[C@H](C(=O)c1ccccc1)c1ccccc1)c1ccc(-c2c3nc(c(-c4c(F)c(F)c(F)c(F)c4F)c4ccc([nH]4)c(-c4c(F)c(F)c(F)c(F)c4F)c4nc(c(-c5c(F)c(F)c(F)c(F)c5F)c5ccc2[nH]5)C=C4)C=C3)cc1
REMARK SMILES IDX 10 1 9 2 8 3 7 4 6 5 5 6 4 7 3 8 2 9 1 10 40 11 41 12 102 13
REMARK SMILES IDX 42 14 101 15 43 16 44 17 45 18 95 19 46 20 100 21 94 22
REMARK SMILES IDX 96 23 47 24 99 25 93 26 92 27 48 29 80 30 60 31 79 32 61 33
REMARK SMILES IDX 64 34 78 35 97 36 62 37 63 38 77 40 98 41 65 42 49 43 50 44
REMARK SMILES IDX 58 45 51 46 52 47 56 48 59 49 53 50 54 51 57 52 55 53 81 54
REMARK SMILES IDX 82 55 90 56 83 57 84 58 88 59 91 60 85 61 86 62 89 63 87 64
REMARK SMILES IDX 66 65 67 66 75 67 68 68 69 69 73 70 76 71 70 72 71 73 74 74
REMARK SMILES IDX 72 75 11 76 12 77 13 78 14 79 15 80 16 81 17 82 18 83 19 84
REMARK SMILES IDX 20 85 24 86 21 87 23 88 22 89 25 90 34 91 35 92 39 93 36 94
REMARK SMILES IDX 38 95 37 96 26 97 27 98 28 99 29 100 33 101 30 102 32 103
REMARK SMILES IDX 31 104
REMARK H PARENT 96 28 64 39
REMARK Flexibility Score: inf
ROOT
ATOM      1  C   UNL A   1      32.334  29.429  26.882  1.00  0.00     0.188 C 
ENDROOT
BRANCH   1   2
ATOM      2  O   UNL A   1      33.587  29.793  27.427  1.00  0.00    -0.377 OA
BRANCH   2   3
ATOM      3  C   UNL A   1      33.730  31.186  27.624  1.00  0.00     0.188 C 
BRANCH   3   4
ATOM      4  C   UNL A   1      32.460  31.921  27.252  1.00  0.00     0.188 C 
BRANCH   4   5
ATOM      5  O   UNL A   1      32.330  33.305  27.578  1.00  0.00    -0.376 OA
BRANCH   5   6
ATOM      6  C   UNL A   1      33.297  34.017  28.329  1.00  0.00     0.202 C 
BRANCH   6   7
ATOM      7  C   UNL A   1      33.011  35.450  28.774  1.00  0.00     0.261 C 
BRANCH   7   8
ATOM      8  O   UNL A   1      33.600  35.802  30.027  1.00  0.00    -0.460 OA
BRANCH   8   9
ATOM      9  C   UNL A   1      33.269  35.136  31.173  1.00  0.00     0.338 C 
ATOM     10  O   UNL A   1      32.210  35.331  31.738  1.00  0.00    -0.246 OA
BRANCH   9  11
ATOM     11  C   UNL A   1      34.397  34.478  31.898  1.00  0.00     0.060 A 
ATOM     12  C   UNL A   1      35.735  34.816  31.699  1.00  0.00     0.016 A 
ATOM     13  C   UNL A   1      34.059  33.579  32.928  1.00  0.00     0.016 A 
ATOM     14  C   UNL A   1      36.700  34.408  32.605  1.00  0.00     0.010 A 
ATOM     15  C   UNL A   1      35.046  33.078  33.782  1.00  0.00     0.010 A 
ATOM     16  C   UNL A   1      36.370  33.503  33.616  1.00  0.00    -0.014 A 
BRANCH  16  17
ATOM     17  C   UNL A   1      37.519  32.772  34.178  1.00  0.00     0.031 A 
ATOM     18  C   UNL A   1      38.078  31.694  33.290  1.00  0.00     0.074 A 
ATOM     19  C   UNL A   1      38.174  33.215  35.262  1.00  0.00     0.049 A 
ATOM     20  N   UNL A   1      39.216  31.063  33.360  1.00  0.00    -0.248 NA
ATOM     21  C   UNL A   1      37.272  31.351  32.100  1.00  0.00     0.031 C 
ATOM     22  C   UNL A   1      37.782  34.358  36.086  1.00  0.00     0.029 A 
ATOM     23  N   UNL A   1      39.343  32.777  35.828  1.00  0.00    -0.354 N 
ATOM     24  C   UNL A   1      39.288  30.311  32.196  1.00  0.00     0.074 A 
ATOM     25  C   UNL A   1      38.083  30.548  31.439  1.00  0.00     0.031 C 
ATOM     26  C   UNL A   1      38.693  34.523  37.063  1.00  0.00     0.029 A 
ATOM     27  C   UNL A   1      39.718  33.488  36.941  1.00  0.00     0.049 A 
ATOM     28  H   UNL A   1      39.865  32.024  35.469  1.00  0.00     0.167 HD
ATOM     29  C   UNL A   1      40.277  29.483  31.796  1.00  0.00     0.037 A 
ATOM     30  C   UNL A   1      40.766  33.291  37.765  1.00  0.00     0.037 A 
ATOM     31  C   UNL A   1      41.398  29.162  32.626  1.00  0.00     0.049 A 
ATOM     32  C   UNL A   1      41.742  32.193  37.411  1.00  0.00     0.074 A 
ATOM     33  C   UNL A   1      42.368  28.198  32.441  1.00  0.00     0.029 A 
ATOM     34  N   UNL A   1      41.671  29.793  33.834  1.00  0.00    -0.354 N 
ATOM     35  N   UNL A   1      41.784  31.434  36.339  1.00  0.00    -0.248 NA
ATOM     36  C   UNL A   1      42.814  31.919  38.377  1.00  0.00     0.031 C 
ATOM     37  C   UNL A   1      43.197  28.207  33.569  1.00  0.00     0.029 A 
ATOM     38  C   UNL A   1      42.782  29.220  34.422  1.00  0.00     0.049 A 
ATOM     39  H   UNL A   1      41.149  30.536  34.215  1.00  0.00     0.167 HD
ATOM     40  C   UNL A   1      42.893  30.611  36.490  1.00  0.00     0.074 A 
ATOM     41  C   UNL A   1      43.510  30.982  37.748  1.00  0.00     0.031 C 
ATOM     42  C   UNL A   1      43.362  29.632  35.675  1.00  0.00     0.037 A 
BRANCH  29  43
ATOM     43  C   UNL A   1      40.094  28.815  30.471  1.00  0.00     0.064 A 
ATOM     44  C   UNL A   1      39.427  27.585  30.355  1.00  0.00     0.173 A 
ATOM     45  C   UNL A   1      40.668  29.364  29.316  1.00  0.00     0.173 A 
ATOM     46  F   UNL A   1      38.904  26.996  31.441  1.00  0.00    -0.203 F 
ATOM     47  C   UNL A   1      39.360  26.921  29.133  1.00  0.00     0.198 A 
ATOM     48  C   UNL A   1      40.582  28.707  28.093  1.00  0.00     0.198 A 
ATOM     49  F   UNL A   1      41.343  30.521  29.382  1.00  0.00    -0.203 F 
ATOM     50  F   UNL A   1      38.772  25.719  29.056  1.00  0.00    -0.200 F 
ATOM     51  C   UNL A   1      39.934  27.483  28.003  1.00  0.00     0.200 A 
ATOM     52  F   UNL A   1      41.148  29.246  27.004  1.00  0.00    -0.200 F 
ATOM     53  F   UNL A   1      39.886  26.835  26.831  1.00  0.00    -0.200 F 
ENDBRANCH  29  43
BRANCH  30  54
ATOM     54  C   UNL A   1      40.915  34.082  39.020  1.00  0.00     0.064 A 
ATOM     55  C   UNL A   1      41.722  35.226  39.090  1.00  0.00     0.173 A 
ATOM     56  C   UNL A   1      40.306  33.651  40.212  1.00  0.00     0.173 A 
ATOM     57  F   UNL A   1      42.354  35.669  37.993  1.00  0.00    -0.203 F 
ATOM     58  C   UNL A   1      41.942  35.886  40.302  1.00  0.00     0.198 A 
ATOM     59  C   UNL A   1      40.498  34.329  41.414  1.00  0.00     0.198 A 
ATOM     60  F   UNL A   1      39.534  32.554  40.215  1.00  0.00    -0.203 F 
ATOM     61  F   UNL A   1      42.777  36.932  40.351  1.00  0.00    -0.200 F 
ATOM     62  C   UNL A   1      41.327  35.437  41.461  1.00  0.00     0.200 A 
ATOM     63  F   UNL A   1      39.897  33.894  42.530  1.00  0.00    -0.200 F 
ATOM     64  F   UNL A   1      41.550  36.062  42.627  1.00  0.00    -0.200 F 
ENDBRANCH  30  54
BRANCH  42  65
ATOM     65  C   UNL A   1      44.609  28.924  36.108  1.00  0.00     0.064 A 
ATOM     66  C   UNL A   1      44.559  27.734  36.847  1.00  0.00     0.173 A 
ATOM     67  C   UNL A   1      45.866  29.413  35.722  1.00  0.00     0.173 A 
ATOM     68  F   UNL A   1      43.380  27.235  37.245  1.00  0.00    -0.203 F 
ATOM     69  C   UNL A   1      45.729  27.072  37.208  1.00  0.00     0.198 A 
ATOM     70  C   UNL A   1      47.030  28.729  36.055  1.00  0.00     0.198 A 
ATOM     71  F   UNL A   1      45.961  30.541  35.002  1.00  0.00    -0.203 F 
ATOM     72  F   UNL A   1      45.662  25.961  37.955  1.00  0.00    -0.200 F 
ATOM     73  C   UNL A   1      46.961  27.565  36.804  1.00  0.00     0.200 A 
ATOM     74  F   UNL A   1      48.218  29.196  35.647  1.00  0.00    -0.200 F 
ATOM     75  F   UNL A   1      48.084  26.918  37.143  1.00  0.00    -0.200 F 
ENDBRANCH  42  65
ENDBRANCH  16  17
ENDBRANCH   9  11
ENDBRANCH   8   9
ENDBRANCH   7   8
ENDBRANCH   6   7
ENDBRANCH   5   6
ENDBRANCH   4   5
ENDBRANCH   3   4
ENDBRANCH   2   3
ENDBRANCH   1   2
BRANCH   1  76
ATOM     76  C   UNL A   1      31.626  28.249  27.576  1.00  0.00     0.188 C 
BRANCH  76  77
ATOM     77  O   UNL A   1      31.741  26.954  27.001  1.00  0.00    -0.376 OA
BRANCH  77  78
ATOM     78  C   UNL A   1      30.714  26.517  26.125  1.00  0.00     0.202 C 
BRANCH  78  79
ATOM     79  C   UNL A   1      30.165  25.105  26.363  1.00  0.00     0.261 C 
BRANCH  79  80
ATOM     80  O   UNL A   1      30.666  24.104  25.446  1.00  0.00    -0.463 OA
BRANCH  80  81
ATOM     81  C   UNL A   1      31.906  23.609  25.666  1.00  0.00     0.314 C 
ATOM     82  O   UNL A   1      32.305  23.244  26.768  1.00  0.00    -0.252 OA
BRANCH  81  83
ATOM     83  C   UNL A   1      32.801  23.587  24.428  1.00  0.00     0.144 C 
BRANCH  83  84
ATOM     84  C   UNL A   1      33.100  24.854  23.605  1.00  0.00    -0.033 A 
ATOM     85  C   UNL A   1      32.646  25.009  22.286  1.00  0.00     0.004 A 
ATOM     86  C   UNL A   1      33.648  26.009  24.186  1.00  0.00     0.004 A 
ATOM     87  C   UNL A   1      32.903  26.144  21.514  1.00  0.00     0.000 A 
ATOM     88  C   UNL A   1      33.881  27.175  23.432  1.00  0.00     0.000 A 
ATOM     89  C   UNL A   1      33.548  27.226  22.082  1.00  0.00     0.000 A 
ENDBRANCH  83  84
BRANCH  83  90
ATOM     90  C   UNL A   1      33.897  22.491  24.610  1.00  0.00     0.110 C 
BRANCH  90  91
ATOM     91  C   UNL A   1      33.312  21.093  24.293  1.00  0.00    -0.036 A 
ATOM     92  C   UNL A   1      33.593  19.961  25.063  1.00  0.00     0.004 A 
ATOM     93  C   UNL A   1      32.506  20.909  23.143  1.00  0.00     0.004 A 
ATOM     94  C   UNL A   1      33.202  18.690  24.625  1.00  0.00     0.000 A 
ATOM     95  C   UNL A   1      32.153  19.641  22.686  1.00  0.00     0.000 A 
ATOM     96  C   UNL A   1      32.519  18.527  23.422  1.00  0.00     0.000 A 
ENDBRANCH  90  91
BRANCH  90  97
ATOM     97  C   UNL A   1      35.345  22.762  24.068  1.00  0.00     0.171 C 
ATOM     98  O   UNL A   1      35.530  22.993  22.868  1.00  0.00    -0.293 OA
BRANCH  97  99
ATOM     99  C   UNL A   1      36.578  22.824  24.911  1.00  0.00     0.018 A 
ATOM    100  C   UNL A   1      36.954  24.023  25.531  1.00  0.00     0.012 A 
ATOM    101  C   UNL A   1      37.471  21.751  24.950  1.00  0.00     0.012 A 
ATOM    102  C   UNL A   1      38.096  24.077  26.342  1.00  0.00     0.001 A 
ATOM    103  C   UNL A   1      38.619  21.807  25.751  1.00  0.00     0.001 A 
ATOM    104  C   UNL A   1      38.913  22.958  26.476  1.00  0.00     0.000 A 
ENDBRANCH  97  99
ENDBRANCH  90  97
ENDBRANCH  83  90
ENDBRANCH  81  83
ENDBRANCH  80  81
ENDBRANCH  79  80
ENDBRANCH  78  79
ENDBRANCH  77  78
ENDBRANCH  76  77
ENDBRANCH   1  76
TORSDOF 25
ENDMDL
MODEL 2
REMARK VINA RESULT:     -10.0      1.499      3.525
REMARK SMILES O=C(OCCOCCOCCOCCOC(=O)[C@@H](c1ccccc1)[C@H](C(=O)c1ccccc1)c1ccccc1)c1ccc(-c2c3nc(c(-c4c(F)c(F)c(F)c(F)c4F)c4ccc([nH]4)c(-c4c(F)c(F)c(F)c(F)c4F)c4nc(c(-c5c(F)c(F)c(F)c(F)c5F)c5ccc2[nH]5)C=C4)C=C3)cc1
REMARK SMILES IDX 10 1 9 2 8 3 7 4 6 5 5 6 4 7 3 8 2 9 1 10 40 11 41 12 102 13
REMARK SMILES IDX 42 14 101 15 43 16 44 17 45 18 95 19 46 20 100 21 94 22
REMARK SMILES IDX 96 23 47 24 99 25 93 26 92 27 48 29 80 30 60 31 79 32 61 33
REMARK SMILES IDX 64 34 78 35 97 36 62 37 63 38 77 40 98 41 65 42 49 43 50 44
REMARK SMILES IDX 58 45 51 46 52 47 56 48 59 49 53 50 54 51 57 52 55 53 81 54
REMARK SMILES IDX 82 55 90 56 83 57 84 58 88 59 91 60 85 61 86 62 89 63 87 64
REMARK SMILES IDX 66 65 67 66 75 67 68 68 69 69 73 70 76 71 70 72 71 73 74 74
REMARK SMILES IDX 72 75 11 76 12 77 13 78 14 79 15 80 16 81 17 82 18 83 19 84
REMARK SMILES IDX 20 85 24 86 21 87 23 88 22 89 25 90 34 91 35 92 39 93 36 94
REMARK SMILES IDX 38 95 37 96 26 97 27 98 28 99 29 100 33 101 30 102 32 103
REMARK SMILES IDX 31 104
REMARK H PARENT 96 28 64 39
REMARK Flexibility Score: inf
ROOT
ATOM      1  C   UNL A   1      31.783  27.373  25.707  1.00  0.00     0.188 C 
ENDROOT
BRANCH   1   2
ATOM      2  O   UNL A   1      32.992  28.089  25.544  1.00  0.00    -0.377 OA
BRANCH   2   3
ATOM      3  C   UNL A   1      32.829  29.321  24.870  1.00  0.00     0.188 C 
BRANCH   3   4
ATOM      4  C   UNL A   1      31.420  29.849  25.036  1.00  0.00     0.188 C 
BRANCH   4   5
ATOM      5  O   UNL A   1      31.203  31.048  25.779  1.00  0.00    -0.376 OA
BRANCH   5   6
ATOM      6  C   UNL A   1      32.099  31.515  26.773  1.00  0.00     0.202 C 
BRANCH   6   7
ATOM      7  C   UNL A   1      32.128  32.999  27.135  1.00  0.00     0.261 C 
BRANCH   7   8
ATOM      8  O   UNL A   1      33.442  33.534  27.301  1.00  0.00    -0.460 OA
BRANCH   8   9
ATOM      9  C   UNL A   1      33.757  34.307  28.383  1.00  0.00     0.338 C 
ATOM     10  O   UNL A   1      33.517  35.499  28.402  1.00  0.00    -0.246 OA
BRANCH   9  11
ATOM     11  C   UNL A   1      34.739  33.723  29.343  1.00  0.00     0.060 A 
ATOM     12  C   UNL A   1      36.111  33.963  29.276  1.00  0.00     0.016 A 
ATOM     13  C   UNL A   1      34.216  33.015  30.444  1.00  0.00     0.016 A 
ATOM     14  C   UNL A   1      36.927  33.662  30.354  1.00  0.00     0.010 A 
ATOM     15  C   UNL A   1      35.054  32.612  31.488  1.00  0.00     0.010 A 
ATOM     16  C   UNL A   1      36.413  32.945  31.438  1.00  0.00    -0.014 A 
BRANCH  16  17
ATOM     17  C   UNL A   1      37.433  32.261  32.252  1.00  0.00     0.031 A 
ATOM     18  C   UNL A   1      38.122  31.112  31.569  1.00  0.00     0.074 A 
ATOM     19  C   UNL A   1      37.893  32.792  33.397  1.00  0.00     0.049 A 
ATOM     20  N   UNL A   1      39.219  30.487  31.892  1.00  0.00    -0.248 NA
ATOM     21  C   UNL A   1      37.534  30.673  30.287  1.00  0.00     0.031 C 
ATOM     22  C   UNL A   1      37.380  34.000  34.041  1.00  0.00     0.029 A 
ATOM     23  N   UNL A   1      38.935  32.401  34.195  1.00  0.00    -0.354 N 
ATOM     24  C   UNL A   1      39.484  29.641  30.824  1.00  0.00     0.074 A 
ATOM     25  C   UNL A   1      38.436  29.816  29.848  1.00  0.00     0.031 C 
ATOM     26  C   UNL A   1      38.106  34.245  35.148  1.00  0.00     0.029 A 
ATOM     27  C   UNL A   1      39.119  33.201  35.295  1.00  0.00     0.049 A 
ATOM     28  H   UNL A   1      39.501  31.619  33.997  1.00  0.00     0.167 HD
ATOM     29  C   UNL A   1      40.514  28.782  30.676  1.00  0.00     0.037 A 
ATOM     30  C   UNL A   1      40.002  33.072  36.305  1.00  0.00     0.037 A 
ATOM     31  C   UNL A   1      41.466  28.529  31.715  1.00  0.00     0.049 A 
ATOM     32  C   UNL A   1      41.006  31.946  36.221  1.00  0.00     0.074 A 
ATOM     33  C   UNL A   1      42.436  27.551  31.785  1.00  0.00     0.029 A 
ATOM     34  N   UNL A   1      41.530  29.257  32.897  1.00  0.00    -0.354 N 
ATOM     35  N   UNL A   1      41.225  31.101  35.240  1.00  0.00    -0.248 NA
ATOM     36  C   UNL A   1      41.886  31.752  37.381  1.00  0.00     0.031 C 
ATOM     37  C   UNL A   1      43.053  27.652  33.037  1.00  0.00     0.029 A 
ATOM     38  C   UNL A   1      42.510  28.733  33.717  1.00  0.00     0.049 A 
ATOM     39  H   UNL A   1      40.962  30.030  33.117  1.00  0.00     0.167 HD
ATOM     40  C   UNL A   1      42.276  30.291  35.652  1.00  0.00     0.074 A 
ATOM     41  C   UNL A   1      42.667  30.765  36.965  1.00  0.00     0.031 C 
ATOM     42  C   UNL A   1      42.865  29.248  35.016  1.00  0.00     0.037 A 
BRANCH  29  43
ATOM     43  C   UNL A   1      40.558  28.006  29.398  1.00  0.00     0.064 A 
ATOM     44  C   UNL A   1      41.336  28.428  28.309  1.00  0.00     0.173 A 
ATOM     45  C   UNL A   1      39.744  26.877  29.227  1.00  0.00     0.173 A 
ATOM     46  F   UNL A   1      42.094  29.532  28.408  1.00  0.00    -0.203 F 
ATOM     47  C   UNL A   1      41.282  27.759  27.089  1.00  0.00     0.198 A 
ATOM     48  C   UNL A   1      39.708  26.199  28.013  1.00  0.00     0.198 A 
ATOM     49  F   UNL A   1      38.959  26.454  30.228  1.00  0.00    -0.203 F 
ATOM     50  F   UNL A   1      41.987  28.215  26.044  1.00  0.00    -0.200 F 
ATOM     51  C   UNL A   1      40.471  26.644  26.943  1.00  0.00     0.200 A 
ATOM     52  F   UNL A   1      38.914  25.129  27.869  1.00  0.00    -0.200 F 
ATOM     53  F   UNL A   1      40.405  26.010  25.763  1.00  0.00    -0.200 F 
ENDBRANCH  29  43
BRANCH  30  54
ATOM     54  C   UNL A   1      39.939  33.964  37.498  1.00  0.00     0.064 A 
ATOM     55  C   UNL A   1      39.122  33.678  38.602  1.00  0.00     0.173 A 
ATOM     56  C   UNL A   1      40.645  35.180  37.519  1.00  0.00     0.173 A 
ATOM     57  F   UNL A   1      38.401  32.547  38.627  1.00  0.00    -0.203 F 
ATOM     58  C   UNL A   1      38.988  34.582  39.658  1.00  0.00     0.198 A 
ATOM     59  C   UNL A   1      40.536  36.066  38.589  1.00  0.00     0.198 A 
ATOM     60  F   UNL A   1      41.431  35.519  36.487  1.00  0.00    -0.203 F 
ATOM     61  F   UNL A   1      38.143  34.314  40.663  1.00  0.00    -0.200 F 
ATOM     62  C   UNL A   1      39.697  35.774  39.651  1.00  0.00     0.200 A 
ATOM     63  F   UNL A   1      41.229  37.213  38.578  1.00  0.00    -0.200 F 
ATOM     64  F   UNL A   1      39.556  36.648  40.657  1.00  0.00    -0.200 F 
ENDBRANCH  30  54
BRANCH  42  65
ATOM     65  C   UNL A   1      44.005  28.576  35.720  1.00  0.00     0.064 A 
ATOM     66  C   UNL A   1      45.331  28.991  35.534  1.00  0.00     0.173 A 
ATOM     67  C   UNL A   1      43.756  27.545  36.638  1.00  0.00     0.173 A 
ATOM     68  F   UNL A   1      45.616  29.968  34.659  1.00  0.00    -0.203 F 
ATOM     69  C   UNL A   1      46.372  28.378  36.224  1.00  0.00     0.198 A 
ATOM     70  C   UNL A   1      44.796  26.959  37.351  1.00  0.00     0.198 A 
ATOM     71  F   UNL A   1      42.502  27.124  36.859  1.00  0.00    -0.203 F 
ATOM     72  F   UNL A   1      47.637  28.758  35.997  1.00  0.00    -0.200 F 
ATOM     73  C   UNL A   1      46.102  27.370  37.138  1.00  0.00     0.200 A 
ATOM     74  F   UNL A   1      44.532  25.999  38.248  1.00  0.00    -0.200 F 
ATOM     75  F   UNL A   1      47.106  26.790  37.810  1.00  0.00    -0.200 F 
ENDBRANCH  42  65
ENDBRANCH  16  17
ENDBRANCH   9  11
ENDBRANCH   8   9
ENDBRANCH   7   8
ENDBRANCH   6   7
ENDBRANCH   5   6
ENDBRANCH   4   5
ENDBRANCH   3   4
ENDBRANCH   2   3
ENDBRANCH   1   2
BRANCH   1  76
ATOM     76  C   UNL A   1      31.921  25.970  26.329  1.00  0.00     0.188 C 
BRANCH  76  77
ATOM     77  O   UNL A   1      31.342  24.865  25.649  1.00  0.00    -0.376 OA
BRANCH  77  78
ATOM     78  C   UNL A   1      30.675  23.878  26.421  1.00  0.00     0.202 C 
BRANCH  78  79
ATOM     79  C   UNL A   1      31.225  22.450  26.330  1.00  0.00     0.261 C 
BRANCH  79  80
ATOM     80  O   UNL A   1      32.415  22.316  25.519  1.00  0.00    -0.463 OA
BRANCH  80  81
ATOM     81  C   UNL A   1      33.527  21.812  26.105  1.00  0.00     0.314 C 
ATOM     82  O   UNL A   1      33.800  21.973  27.291  1.00  0.00    -0.252 OA
BRANCH  81  83
ATOM     83  C   UNL A   1      34.453  21.061  25.150  1.00  0.00     0.144 C 
BRANCH  83  84
ATOM     84  C   UNL A   1      34.034  19.752  24.454  1.00  0.00    -0.033 A 
ATOM     85  C   UNL A   1      34.741  18.554  24.635  1.00  0.00     0.004 A 
ATOM     86  C   UNL A   1      32.808  19.625  23.780  1.00  0.00     0.004 A 
ATOM     87  C   UNL A   1      34.388  17.352  24.017  1.00  0.00     0.000 A 
ATOM     88  C   UNL A   1      32.418  18.411  23.182  1.00  0.00     0.000 A 
ATOM     89  C   UNL A   1      33.231  17.286  23.263  1.00  0.00     0.000 A 
ENDBRANCH  83  84
BRANCH  83  90
ATOM     90  C   UNL A   1      35.361  22.090  24.408  1.00  0.00     0.110 C 
BRANCH  90  91
ATOM     91  C   UNL A   1      34.494  23.191  23.751  1.00  0.00    -0.036 A 
ATOM     92  C   UNL A   1      33.604  22.933  22.704  1.00  0.00     0.004 A 
ATOM     93  C   UNL A   1      34.631  24.539  24.165  1.00  0.00     0.004 A 
ATOM     94  C   UNL A   1      32.992  23.987  22.016  1.00  0.00     0.000 A 
ATOM     95  C   UNL A   1      34.054  25.589  23.455  1.00  0.00     0.000 A 
ATOM     96  C   UNL A   1      33.246  25.312  22.366  1.00  0.00     0.000 A 
ENDBRANCH  90  91
BRANCH  90  97
ATOM     97  C   UNL A   1      36.679  22.586  25.102  1.00  0.00     0.171 C 
ATOM     98  O   UNL A   1      36.803  23.770  25.434  1.00  0.00    -0.293 OA
BRANCH  97  99
ATOM     99  C   UNL A   1      37.835  21.712  25.469  1.00  0.00     0.018 A 
ATOM    100  C   UNL A   1      38.950  22.248  26.126  1.00  0.00     0.012 A 
ATOM    101  C   UNL A   1      37.910  20.396  25.007  1.00  0.00     0.012 A 
ATOM    102  C   UNL A   1      40.024  21.426  26.493  1.00  0.00     0.001 A 
ATOM    103  C   UNL A   1      38.989  19.575  25.362  1.00  0.00     0.001 A 
ATOM    104  C   UNL A   1      40.029  20.081  26.136  1.00  0.00     0.000 A 
ENDBRANCH  97  99
ENDBRANCH  90  97
ENDBRANCH  83  90
ENDBRANCH  81  83
ENDBRANCH  80  81
ENDBRANCH  79  80
ENDBRANCH  78  79
ENDBRANCH  77  78
ENDBRANCH  76  77
ENDBRANCH   1  76
TORSDOF 25
ENDMDL
MODEL 3
REMARK VINA RESULT:      -9.5      1.805      3.405
REMARK SMILES O=C(OCCOCCOCCOCCOC(=O)[C@@H](c1ccccc1)[C@H](C(=O)c1ccccc1)c1ccccc1)c1ccc(-c2c3nc(c(-c4c(F)c(F)c(F)c(F)c4F)c4ccc([nH]4)c(-c4c(F)c(F)c(F)c(F)c4F)c4nc(c(-c5c(F)c(F)c(F)c(F)c5F)c5ccc2[nH]5)C=C4)C=C3)cc1
REMARK SMILES IDX 10 1 9 2 8 3 7 4 6 5 5 6 4 7 3 8 2 9 1 10 40 11 41 12 102 13
REMARK SMILES IDX 42 14 101 15 43 16 44 17 45 18 95 19 46 20 100 21 94 22
REMARK SMILES IDX 96 23 47 24 99 25 93 26 92 27 48 29 80 30 60 31 79 32 61 33
REMARK SMILES IDX 64 34 78 35 97 36 62 37 63 38 77 40 98 41 65 42 49 43 50 44
REMARK SMILES IDX 58 45 51 46 52 47 56 48 59 49 53 50 54 51 57 52 55 53 81 54
REMARK SMILES IDX 82 55 90 56 83 57 84 58 88 59 91 60 85 61 86 62 89 63 87 64
REMARK SMILES IDX 66 65 67 66 75 67 68 68 69 69 73 70 76 71 70 72 71 73 74 74
REMARK SMILES IDX 72 75 11 76 12 77 13 78 14 79 15 80 16 81 17 82 18 83 19 84
REMARK SMILES IDX 20 85 24 86 21 87 23 88 22 89 25 90 34 91 35 92 39 93 36 94
REMARK SMILES IDX 38 95 37 96 26 97 27 98 28 99 29 100 33 101 30 102 32 103
REMARK SMILES IDX 31 104
REMARK H PARENT 96 28 64 39
REMARK Flexibility Score: inf
ROOT
ATOM      1  C   UNL A   1      31.971  27.602  27.215  1.00  0.00     0.188 C 
ENDROOT
BRANCH   1   2
ATOM      2  O   UNL A   1      32.820  28.699  26.942  1.00  0.00    -0.377 OA
BRANCH   2   3
ATOM      3  C   UNL A   1      32.769  29.127  25.596  1.00  0.00     0.188 C 
BRANCH   3   4
ATOM      4  C   UNL A   1      31.519  29.942  25.332  1.00  0.00     0.188 C 
BRANCH   4   5
ATOM      5  O   UNL A   1      31.527  31.344  25.598  1.00  0.00    -0.376 OA
BRANCH   5   6
ATOM      6  C   UNL A   1      31.379  31.886  26.899  1.00  0.00     0.202 C 
BRANCH   6   7
ATOM      7  C   UNL A   1      31.868  33.303  27.194  1.00  0.00     0.261 C 
BRANCH   7   8
ATOM      8  O   UNL A   1      33.260  33.388  27.505  1.00  0.00    -0.460 OA
BRANCH   8   9
ATOM      9  C   UNL A   1      33.710  34.210  28.499  1.00  0.00     0.338 C 
ATOM     10  O   UNL A   1      33.430  35.393  28.519  1.00  0.00    -0.246 OA
BRANCH   9  11
ATOM     11  C   UNL A   1      34.854  33.695  29.308  1.00  0.00     0.060 A 
ATOM     12  C   UNL A   1      36.189  33.945  28.992  1.00  0.00     0.016 A 
ATOM     13  C   UNL A   1      34.542  33.050  30.521  1.00  0.00     0.016 A 
ATOM     14  C   UNL A   1      37.183  33.717  29.929  1.00  0.00     0.010 A 
ATOM     15  C   UNL A   1      35.554  32.719  31.427  1.00  0.00     0.010 A 
ATOM     16  C   UNL A   1      36.877  33.062  31.125  1.00  0.00    -0.014 A 
BRANCH  16  17
ATOM     17  C   UNL A   1      38.035  32.439  31.790  1.00  0.00     0.031 A 
ATOM     18  C   UNL A   1      38.554  31.195  31.123  1.00  0.00     0.074 A 
ATOM     19  C   UNL A   1      38.727  33.080  32.745  1.00  0.00     0.049 A 
ATOM     20  N   UNL A   1      39.687  30.572  31.288  1.00  0.00    -0.248 NA
ATOM     21  C   UNL A   1      37.708  30.635  30.049  1.00  0.00     0.031 C 
ATOM     22  C   UNL A   1      38.374  34.371  33.332  1.00  0.00     0.029 A 
ATOM     23  N   UNL A   1      39.908  32.745  33.355  1.00  0.00    -0.354 N 
ATOM     24  C   UNL A   1      39.714  29.601  30.297  1.00  0.00     0.074 A 
ATOM     25  C   UNL A   1      38.490  29.700  29.541  1.00  0.00     0.031 C 
ATOM     26  C   UNL A   1      39.316  34.714  34.230  1.00  0.00     0.029 A 
ATOM     27  C   UNL A   1      40.324  33.658  34.292  1.00  0.00     0.049 A 
ATOM     28  H   UNL A   1      40.411  31.926  33.141  1.00  0.00     0.167 HD
ATOM     29  C   UNL A   1      40.682  28.693  30.045  1.00  0.00     0.037 A 
ATOM     30  C   UNL A   1      41.395  33.613  35.108  1.00  0.00     0.037 A 
ATOM     31  C   UNL A   1      41.824  28.526  30.891  1.00  0.00     0.049 A 
ATOM     32  C   UNL A   1      42.347  32.449  34.956  1.00  0.00     0.074 A 
ATOM     33  C   UNL A   1      42.776  27.527  30.878  1.00  0.00     0.029 A 
ATOM     34  N   UNL A   1      42.140  29.381  31.940  1.00  0.00    -0.354 N 
ATOM     35  N   UNL A   1      42.348  31.490  34.059  1.00  0.00    -0.248 NA
ATOM     36  C   UNL A   1      43.445  32.357  35.927  1.00  0.00     0.031 C 
ATOM     37  C   UNL A   1      43.640  27.749  31.957  1.00  0.00     0.029 A 
ATOM     38  C   UNL A   1      43.262  28.919  32.600  1.00  0.00     0.049 A 
ATOM     39  H   UNL A   1      41.639  30.195  32.177  1.00  0.00     0.167 HD
ATOM     40  C   UNL A   1      43.451  30.695  34.342  1.00  0.00     0.074 A 
ATOM     41  C   UNL A   1      44.111  31.301  35.482  1.00  0.00     0.031 C 
ATOM     42  C   UNL A   1      43.885  29.565  33.728  1.00  0.00     0.037 A 
BRANCH  29  43
ATOM     43  C   UNL A   1      40.451  27.775  28.887  1.00  0.00     0.064 A 
ATOM     44  C   UNL A   1      39.647  26.630  29.006  1.00  0.00     0.173 A 
ATOM     45  C   UNL A   1      41.111  27.992  27.669  1.00  0.00     0.173 A 
ATOM     46  F   UNL A   1      39.034  26.353  30.168  1.00  0.00    -0.203 F 
ATOM     47  C   UNL A   1      39.530  25.726  27.954  1.00  0.00     0.198 A 
ATOM     48  C   UNL A   1      40.975  27.097  26.613  1.00  0.00     0.198 A 
ATOM     49  F   UNL A   1      41.915  29.054  27.517  1.00  0.00    -0.203 F 
ATOM     50  F   UNL A   1      38.807  24.608  28.109  1.00  0.00    -0.200 F 
ATOM     51  C   UNL A   1      40.191  25.961  26.758  1.00  0.00     0.200 A 
ATOM     52  F   UNL A   1      41.624  27.319  25.462  1.00  0.00    -0.200 F 
ATOM     53  F   UNL A   1      40.092  25.081  25.751  1.00  0.00    -0.200 F 
ENDBRANCH  29  43
BRANCH  30  54
ATOM     54  C   UNL A   1      41.591  34.637  36.174  1.00  0.00     0.064 A 
ATOM     55  C   UNL A   1      40.883  34.600  37.384  1.00  0.00     0.173 A 
ATOM     56  C   UNL A   1      42.445  35.734  35.962  1.00  0.00     0.173 A 
ATOM     57  F   UNL A   1      40.030  33.594  37.631  1.00  0.00    -0.203 F 
ATOM     58  C   UNL A   1      40.993  35.630  38.321  1.00  0.00     0.198 A 
ATOM     59  C   UNL A   1      42.580  36.745  36.912  1.00  0.00     0.198 A 
ATOM     60  F   UNL A   1      43.139  35.836  34.820  1.00  0.00    -0.203 F 
ATOM     61  F   UNL A   1      40.248  35.604  39.434  1.00  0.00    -0.200 F 
ATOM     62  C   UNL A   1      41.844  36.700  38.084  1.00  0.00     0.200 A 
ATOM     63  F   UNL A   1      43.408  37.773  36.680  1.00  0.00    -0.200 F 
ATOM     64  F   UNL A   1      41.938  37.696  38.977  1.00  0.00    -0.200 F 
ENDBRANCH  30  54
BRANCH  42  65
ATOM     65  C   UNL A   1      45.137  28.937  34.260  1.00  0.00     0.064 A 
ATOM     66  C   UNL A   1      45.099  27.962  35.266  1.00  0.00     0.173 A 
ATOM     67  C   UNL A   1      46.382  29.273  33.709  1.00  0.00     0.173 A 
ATOM     68  F   UNL A   1      43.931  27.615  35.828  1.00  0.00    -0.203 F 
ATOM     69  C   UNL A   1      46.270  27.364  35.721  1.00  0.00     0.198 A 
ATOM     70  C   UNL A   1      47.546  28.648  34.142  1.00  0.00     0.198 A 
ATOM     71  F   UNL A   1      46.465  30.191  32.733  1.00  0.00    -0.203 F 
ATOM     72  F   UNL A   1      46.218  26.468  36.717  1.00  0.00    -0.200 F 
ATOM     73  C   UNL A   1      47.490  27.701  35.152  1.00  0.00     0.200 A 
ATOM     74  F   UNL A   1      48.721  28.960  33.578  1.00  0.00    -0.200 F 
ATOM     75  F   UNL A   1      48.615  27.114  35.584  1.00  0.00    -0.200 F 
ENDBRANCH  42  65
ENDBRANCH  16  17
ENDBRANCH   9  11
ENDBRANCH   8   9
ENDBRANCH   7   8
ENDBRANCH   6   7
ENDBRANCH   5   6
ENDBRANCH   4   5
ENDBRANCH   3   4
ENDBRANCH   2   3
ENDBRANCH   1   2
BRANCH   1  76
ATOM     76  C   UNL A   1      32.356  26.277  26.528  1.00  0.00     0.188 C 
BRANCH  76  77
ATOM     77  O   UNL A   1      31.319  25.441  26.033  1.00  0.00    -0.376 OA
BRANCH  77  78
ATOM     78  C   UNL A   1      31.004  24.263  26.759  1.00  0.00     0.202 C 
BRANCH  78  79
ATOM     79  C   UNL A   1      30.882  22.969  25.945  1.00  0.00     0.261 C 
BRANCH  79  80
ATOM     80  O   UNL A   1      32.057  22.632  25.173  1.00  0.00    -0.463 OA
BRANCH  80  81
ATOM     81  C   UNL A   1      33.187  22.314  25.848  1.00  0.00     0.314 C 
ATOM     82  O   UNL A   1      33.463  22.761  26.957  1.00  0.00    -0.252 OA
BRANCH  81  83
ATOM     83  C   UNL A   1      34.130  21.383  25.087  1.00  0.00     0.144 C 
BRANCH  83  84
ATOM     84  C   UNL A   1      33.653  20.061  24.459  1.00  0.00    -0.033 A 
ATOM     85  C   UNL A   1      32.671  20.025  23.457  1.00  0.00     0.004 A 
ATOM     86  C   UNL A   1      34.317  18.844  24.687  1.00  0.00     0.004 A 
ATOM     87  C   UNL A   1      32.216  18.842  22.869  1.00  0.00     0.000 A 
ATOM     88  C   UNL A   1      33.895  17.648  24.075  1.00  0.00     0.000 A 
ATOM     89  C   UNL A   1      32.815  17.640  23.199  1.00  0.00     0.000 A 
ENDBRANCH  83  84
BRANCH  83  90
ATOM     90  C   UNL A   1      35.229  22.237  24.382  1.00  0.00     0.110 C 
BRANCH  90  91
ATOM     91  C   UNL A   1      34.577  23.395  23.588  1.00  0.00    -0.036 A 
ATOM     92  C   UNL A   1      34.605  24.724  24.023  1.00  0.00     0.004 A 
ATOM     93  C   UNL A   1      33.860  23.120  22.397  1.00  0.00     0.004 A 
ATOM     94  C   UNL A   1      33.838  25.699  23.375  1.00  0.00     0.000 A 
ATOM     95  C   UNL A   1      33.065  24.082  21.778  1.00  0.00     0.000 A 
ATOM     96  C   UNL A   1      33.041  25.371  22.281  1.00  0.00     0.000 A 
ENDBRANCH  90  91
BRANCH  90  97
ATOM     97  C   UNL A   1      36.535  22.605  25.172  1.00  0.00     0.171 C 
ATOM     98  O   UNL A   1      36.640  23.704  25.728  1.00  0.00    -0.293 OA
BRANCH  97  99
ATOM     99  C   UNL A   1      37.700  21.691  25.373  1.00  0.00     0.018 A 
ATOM    100  C   UNL A   1      37.608  20.336  25.029  1.00  0.00     0.012 A 
ATOM    101  C   UNL A   1      38.832  22.120  26.070  1.00  0.00     0.012 A 
ATOM    102  C   UNL A   1      38.708  19.483  25.193  1.00  0.00     0.001 A 
ATOM    103  C   UNL A   1      39.929  21.266  26.247  1.00  0.00     0.001 A 
ATOM    104  C   UNL A   1      39.880  19.957  25.775  1.00  0.00     0.000 A 
ENDBRANCH  97  99
ENDBRANCH  90  97
ENDBRANCH  83  90
ENDBRANCH  81  83
ENDBRANCH  80  81
ENDBRANCH  79  80
ENDBRANCH  78  79
ENDBRANCH  77  78
ENDBRANCH  76  77
ENDBRANCH   1  76
TORSDOF 25
ENDMDL
