MODEL 1
REMARK VINA RESULT:      -8.2      0.000      0.000
REMARK SMILES C[C@H]1CC[C@@](CCOCCO)(C(=O)OCCOCCOCCOCCOC(=O)c2ccc(-c3c4nc(c(-c5c(F)c(F)c(F)c(F)c5F)c5ccc([nH]5)c(-c5c(F)c(F)c(F)c(F)c5F)c5nc(c(-c6c(F)c(F)c(F)c(F)c6F)c6ccc3[nH]6)C=C5)C=C4)cc2)C1
REMARK SMILES IDX 18 1 17 2 16 3 15 4 14 5 12 6 13 7 5 8 1 9 2 10 3 11 92 12
REMARK SMILES IDX 4 13 6 14 7 15 8 16 9 17 10 18 11 19 19 21 20 22 21 23 22 24
REMARK SMILES IDX 23 25 24 26 25 27 26 28 27 29 28 30 29 31 30 32 91 33 31 34
REMARK SMILES IDX 90 35 32 36 33 37 34 38 84 39 35 40 89 41 83 42 85 43 36 44
REMARK SMILES IDX 88 45 82 46 81 47 37 49 69 50 49 51 68 52 50 53 53 54 67 55
REMARK SMILES IDX 86 56 51 57 52 58 66 60 87 61 54 62 38 63 39 64 47 65 40 66
REMARK SMILES IDX 41 67 45 68 48 69 42 70 43 71 46 72 44 73 70 74 71 75 79 76
REMARK SMILES IDX 72 77 73 78 77 79 80 80 74 81 75 82 78 83 76 84 55 85 56 86
REMARK SMILES IDX 64 87 57 88 58 89 62 90 65 91 59 92 60 93 63 94 61 95
REMARK H PARENT 11 20 85 48 53 59
REMARK Flexibility Score: inf
ROOT
ATOM      1  C   UNL A   1      34.228  35.475  28.053  1.00  0.00     0.188 C 
ENDROOT
BRANCH   1   2
ATOM      2  O   UNL A   1      34.782  34.197  28.307  1.00  0.00    -0.376 OA
BRANCH   2   3
ATOM      3  C   UNL A   1      33.864  33.092  28.250  1.00  0.00     0.202 C 
BRANCH   3   4
ATOM      4  C   UNL A   1      34.343  31.631  28.039  1.00  0.00     0.261 C 
BRANCH   4   5
ATOM      5  O   UNL A   1      33.502  30.824  27.184  1.00  0.00    -0.463 OA
BRANCH   5   6
ATOM      6  C   UNL A   1      33.872  29.527  27.013  1.00  0.00     0.312 C 
ATOM      7  O   UNL A   1      34.941  29.092  27.431  1.00  0.00    -0.252 OA
BRANCH   6   8
ATOM      8  C   UNL A   1      32.837  28.638  26.246  1.00  0.00     0.070 C 
ATOM      9  C   UNL A   1      33.346  24.819  25.862  1.00  0.00     0.007 C 
ATOM     10  C   UNL A   1      32.703  26.196  25.675  1.00  0.00    -0.013 C 
ATOM     11  C   UNL A   1      31.665  26.452  26.745  1.00  0.00     0.004 C 
ATOM     12  C   UNL A   1      33.669  27.366  25.852  1.00  0.00     0.022 C 
ATOM     13  C   UNL A   1      31.607  27.964  26.914  1.00  0.00     0.019 C 
BRANCH   8  14
ATOM     14  C   UNL A   1      32.377  29.517  25.057  1.00  0.00     0.047 C 
BRANCH  14  15
ATOM     15  C   UNL A   1      31.958  28.822  23.724  1.00  0.00     0.161 C 
BRANCH  15  16
ATOM     16  O   UNL A   1      32.806  28.949  22.584  1.00  0.00    -0.379 OA
BRANCH  16  17
ATOM     17  C   UNL A   1      33.594  27.836  22.159  1.00  0.00     0.188 C 
BRANCH  17  18
ATOM     18  C   UNL A   1      32.942  26.461  21.977  1.00  0.00     0.184 C 
BRANCH  18  19
ATOM     19  O   UNL A   1      33.279  25.788  20.775  1.00  0.00    -0.394 OA
ATOM     20  H   UNL A   1      32.894  26.262  20.021  1.00  0.00     0.210 HD
ENDBRANCH  18  19
ENDBRANCH  17  18
ENDBRANCH  16  17
ENDBRANCH  15  16
ENDBRANCH  14  15
ENDBRANCH   8  14
ENDBRANCH   6   8
ENDBRANCH   5   6
ENDBRANCH   4   5
ENDBRANCH   3   4
ENDBRANCH   2   3
ENDBRANCH   1   2
BRANCH   1  21
ATOM     21  C   UNL A   1      32.969  35.860  28.796  1.00  0.00     0.188 C 
BRANCH  21  22
ATOM     22  O   UNL A   1      33.262  36.731  29.900  1.00  0.00    -0.377 OA
BRANCH  22  23
ATOM     23  C   UNL A   1      33.081  36.163  31.192  1.00  0.00     0.188 C 
BRANCH  23  24
ATOM     24  C   UNL A   1      33.973  34.953  31.480  1.00  0.00     0.188 C 
BRANCH  24  25
ATOM     25  O   UNL A   1      34.846  35.096  32.582  1.00  0.00    -0.376 OA
BRANCH  25  26
ATOM     26  C   UNL A   1      34.799  34.235  33.709  1.00  0.00     0.202 C 
BRANCH  26  27
ATOM     27  C   UNL A   1      35.978  34.003  34.672  1.00  0.00     0.261 C 
BRANCH  27  28
ATOM     28  O   UNL A   1      36.542  32.690  34.748  1.00  0.00    -0.460 OA
BRANCH  28  29
ATOM     29  C   UNL A   1      37.416  32.426  35.740  1.00  0.00     0.338 C 
ATOM     30  O   UNL A   1      37.293  32.637  36.924  1.00  0.00    -0.246 OA
BRANCH  29  31
ATOM     31  C   UNL A   1      38.526  31.671  35.126  1.00  0.00     0.060 A 
ATOM     32  C   UNL A   1      39.826  31.835  35.620  1.00  0.00     0.016 A 
ATOM     33  C   UNL A   1      38.270  30.821  34.049  1.00  0.00     0.016 A 
ATOM     34  C   UNL A   1      40.889  31.189  34.997  1.00  0.00     0.010 A 
ATOM     35  C   UNL A   1      39.336  30.190  33.413  1.00  0.00     0.010 A 
ATOM     36  C   UNL A   1      40.651  30.412  33.856  1.00  0.00    -0.014 A 
BRANCH  36  37
ATOM     37  C   UNL A   1      41.782  30.019  32.991  1.00  0.00     0.031 A 
ATOM     38  C   UNL A   1      42.518  28.754  33.323  1.00  0.00     0.074 A 
ATOM     39  C   UNL A   1      42.151  30.775  31.945  1.00  0.00     0.049 A 
ATOM     40  N   UNL A   1      43.596  28.248  32.782  1.00  0.00    -0.248 NA
ATOM     41  C   UNL A   1      41.965  27.955  34.429  1.00  0.00     0.031 C 
ATOM     42  C   UNL A   1      41.487  32.002  31.517  1.00  0.00     0.029 A 
ATOM     43  N   UNL A   1      43.197  30.626  31.072  1.00  0.00    -0.354 N 
ATOM     44  C   UNL A   1      43.862  27.089  33.496  1.00  0.00     0.074 A 
ATOM     45  C   UNL A   1      42.854  26.980  34.527  1.00  0.00     0.031 C 
ATOM     46  C   UNL A   1      42.163  32.517  30.476  1.00  0.00     0.029 A 
ATOM     47  C   UNL A   1      43.325  31.673  30.196  1.00  0.00     0.049 A 
ATOM     48  H   UNL A   1      43.797  29.846  31.074  1.00  0.00     0.167 HD
ATOM     49  C   UNL A   1      44.861  26.194  33.304  1.00  0.00     0.037 A 
ATOM     50  C   UNL A   1      44.294  31.937  29.300  1.00  0.00     0.037 A 
ATOM     51  C   UNL A   1      45.860  26.322  32.278  1.00  0.00     0.049 A 
ATOM     52  C   UNL A   1      45.430  30.962  29.138  1.00  0.00     0.074 A 
ATOM     53  C   UNL A   1      46.892  25.456  31.965  1.00  0.00     0.029 A 
ATOM     54  N   UNL A   1      45.963  27.400  31.408  1.00  0.00    -0.354 N 
ATOM     55  N   UNL A   1      45.660  29.843  29.783  1.00  0.00    -0.248 NA
ATOM     56  C   UNL A   1      46.438  31.281  28.118  1.00  0.00     0.031 C 
ATOM     57  C   UNL A   1      47.664  26.045  30.958  1.00  0.00     0.029 A 
ATOM     58  C   UNL A   1      47.068  27.241  30.586  1.00  0.00     0.049 A 
ATOM     59  H   UNL A   1      45.344  28.164  31.380  1.00  0.00     0.167 HD
ATOM     60  C   UNL A   1      46.822  29.313  29.235  1.00  0.00     0.074 A 
ATOM     61  C   UNL A   1      47.243  30.230  28.195  1.00  0.00     0.031 C 
ATOM     62  C   UNL A   1      47.475  28.169  29.558  1.00  0.00     0.037 A 
BRANCH  49  63
ATOM     63  C   UNL A   1      44.945  25.039  34.264  1.00  0.00     0.064 A 
ATOM     64  C   UNL A   1      45.519  25.165  35.538  1.00  0.00     0.173 A 
ATOM     65  C   UNL A   1      44.455  23.778  33.891  1.00  0.00     0.173 A 
ATOM     66  F   UNL A   1      46.017  26.344  35.943  1.00  0.00    -0.203 F 
ATOM     67  C   UNL A   1      45.647  24.063  36.380  1.00  0.00     0.198 A 
ATOM     68  C   UNL A   1      44.548  22.687  34.751  1.00  0.00     0.198 A 
ATOM     69  F   UNL A   1      43.891  23.599  32.686  1.00  0.00    -0.203 F 
ATOM     70  F   UNL A   1      46.270  24.191  37.560  1.00  0.00    -0.200 F 
ATOM     71  C   UNL A   1      45.157  22.826  35.988  1.00  0.00     0.200 A 
ATOM     72  F   UNL A   1      44.059  21.497  34.375  1.00  0.00    -0.200 F 
ATOM     73  F   UNL A   1      45.284  21.765  36.796  1.00  0.00    -0.200 F 
ENDBRANCH  49  63
BRANCH  50  74
ATOM     74  C   UNL A   1      44.228  33.192  28.509  1.00  0.00     0.064 A 
ATOM     75  C   UNL A   1      43.858  33.183  27.159  1.00  0.00     0.173 A 
ATOM     76  C   UNL A   1      44.497  34.435  29.105  1.00  0.00     0.173 A 
ATOM     77  F   UNL A   1      43.613  32.019  26.541  1.00  0.00    -0.203 F 
ATOM     78  C   UNL A   1      43.761  34.368  26.433  1.00  0.00     0.198 A 
ATOM     79  C   UNL A   1      44.371  35.620  28.386  1.00  0.00     0.198 A 
ATOM     80  F   UNL A   1      44.853  34.497  30.397  1.00  0.00    -0.203 F 
ATOM     81  F   UNL A   1      43.431  34.330  25.135  1.00  0.00    -0.200 F 
ATOM     82  C   UNL A   1      44.007  35.586  27.050  1.00  0.00     0.200 A 
ATOM     83  F   UNL A   1      44.593  36.795  28.992  1.00  0.00    -0.200 F 
ATOM     84  F   UNL A   1      43.893  36.727  26.354  1.00  0.00    -0.200 F 
ENDBRANCH  50  74
BRANCH  62  85
ATOM     85  C   UNL A   1      48.701  27.819  28.759  1.00  0.00     0.064 A 
ATOM     86  C   UNL A   1      48.630  27.053  27.587  1.00  0.00     0.173 A 
ATOM     87  C   UNL A   1      49.959  28.314  29.144  1.00  0.00     0.173 A 
ATOM     88  F   UNL A   1      47.455  26.547  27.181  1.00  0.00    -0.203 F 
ATOM     89  C   UNL A   1      49.774  26.774  26.843  1.00  0.00     0.198 A 
ATOM     90  C   UNL A   1      51.094  28.063  28.379  1.00  0.00     0.198 A 
ATOM     91  F   UNL A   1      50.083  29.059  30.252  1.00  0.00    -0.203 F 
ATOM     92  F   UNL A   1      49.689  26.001  25.752  1.00  0.00    -0.200 F 
ATOM     93  C   UNL A   1      51.002  27.288  27.233  1.00  0.00     0.200 A 
ATOM     94  F   UNL A   1      52.275  28.577  28.747  1.00  0.00    -0.200 F 
ATOM     95  F   UNL A   1      52.099  27.031  26.507  1.00  0.00    -0.200 F 
ENDBRANCH  62  85
ENDBRANCH  36  37
ENDBRANCH  29  31
ENDBRANCH  28  29
ENDBRANCH  27  28
ENDBRANCH  26  27
ENDBRANCH  25  26
ENDBRANCH  24  25
ENDBRANCH  23  24
ENDBRANCH  22  23
ENDBRANCH  21  22
ENDBRANCH   1  21
TORSDOF 26
ENDMDL
MODEL 2
REMARK VINA RESULT:      -8.1      5.476     11.806
REMARK SMILES C[C@H]1CC[C@@](CCOCCO)(C(=O)OCCOCCOCCOCCOC(=O)c2ccc(-c3c4nc(c(-c5c(F)c(F)c(F)c(F)c5F)c5ccc([nH]5)c(-c5c(F)c(F)c(F)c(F)c5F)c5nc(c(-c6c(F)c(F)c(F)c(F)c6F)c6ccc3[nH]6)C=C5)C=C4)cc2)C1
REMARK SMILES IDX 18 1 17 2 16 3 15 4 14 5 12 6 13 7 5 8 1 9 2 10 3 11 92 12
REMARK SMILES IDX 4 13 6 14 7 15 8 16 9 17 10 18 11 19 19 21 20 22 21 23 22 24
REMARK SMILES IDX 23 25 24 26 25 27 26 28 27 29 28 30 29 31 30 32 91 33 31 34
REMARK SMILES IDX 90 35 32 36 33 37 34 38 84 39 35 40 89 41 83 42 85 43 36 44
REMARK SMILES IDX 88 45 82 46 81 47 37 49 69 50 49 51 68 52 50 53 53 54 67 55
REMARK SMILES IDX 86 56 51 57 52 58 66 60 87 61 54 62 38 63 39 64 47 65 40 66
REMARK SMILES IDX 41 67 45 68 48 69 42 70 43 71 46 72 44 73 70 74 71 75 79 76
REMARK SMILES IDX 72 77 73 78 77 79 80 80 74 81 75 82 78 83 76 84 55 85 56 86
REMARK SMILES IDX 64 87 57 88 58 89 62 90 65 91 59 92 60 93 63 94 61 95
REMARK H PARENT 11 20 85 48 53 59
REMARK Flexibility Score: inf
ROOT
ATOM      1  C   UNL A   1      46.916  28.045  27.407  1.00  0.00     0.188 C 
ENDROOT
BRANCH   1   2
ATOM      2  O   UNL A   1      47.692  28.692  28.399  1.00  0.00    -0.376 OA
BRANCH   2   3
ATOM      3  C   UNL A   1      47.420  30.090  28.596  1.00  0.00     0.202 C 
BRANCH   3   4
ATOM      4  C   UNL A   1      47.384  30.733  30.008  1.00  0.00     0.261 C 
BRANCH   4   5
ATOM      5  O   UNL A   1      46.407  31.785  30.182  1.00  0.00    -0.463 OA
BRANCH   5   6
ATOM      6  C   UNL A   1      45.212  31.424  30.719  1.00  0.00     0.312 C 
ATOM      7  O   UNL A   1      44.783  30.275  30.647  1.00  0.00    -0.252 OA
BRANCH   6   8
ATOM      8  C   UNL A   1      44.429  32.577  31.430  1.00  0.00     0.070 C 
ATOM      9  C   UNL A   1      41.005  33.811  30.106  1.00  0.00     0.007 C 
ATOM     10  C   UNL A   1      42.261  33.764  30.981  1.00  0.00    -0.013 C 
ATOM     11  C   UNL A   1      42.036  32.888  32.193  1.00  0.00     0.004 C 
ATOM     12  C   UNL A   1      43.468  33.112  30.309  1.00  0.00     0.022 C 
ATOM     13  C   UNL A   1      43.410  32.355  32.581  1.00  0.00     0.019 C 
BRANCH   8  14
ATOM     14  C   UNL A   1      45.528  33.571  31.882  1.00  0.00     0.047 C 
BRANCH  14  15
ATOM     15  C   UNL A   1      45.543  34.053  33.366  1.00  0.00     0.161 C 
BRANCH  15  16
ATOM     16  O   UNL A   1      45.391  35.444  33.642  1.00  0.00    -0.379 OA
BRANCH  16  17
ATOM     17  C   UNL A   1      45.098  36.350  32.577  1.00  0.00     0.188 C 
BRANCH  17  18
ATOM     18  C   UNL A   1      44.150  37.531  32.817  1.00  0.00     0.184 C 
BRANCH  18  19
ATOM     19  O   UNL A   1      43.823  38.285  31.662  1.00  0.00    -0.394 OA
ATOM     20  H   UNL A   1      43.260  37.752  31.077  1.00  0.00     0.210 HD
ENDBRANCH  18  19
ENDBRANCH  17  18
ENDBRANCH  16  17
ENDBRANCH  15  16
ENDBRANCH  14  15
ENDBRANCH   8  14
ENDBRANCH   6   8
ENDBRANCH   5   6
ENDBRANCH   4   5
ENDBRANCH   3   4
ENDBRANCH   2   3
ENDBRANCH   1   2
BRANCH   1  21
ATOM     21  C   UNL A   1      47.372  26.686  26.927  1.00  0.00     0.188 C 
BRANCH  21  22
ATOM     22  O   UNL A   1      48.793  26.661  26.711  1.00  0.00    -0.377 OA
BRANCH  22  23
ATOM     23  C   UNL A   1      49.204  26.313  25.393  1.00  0.00     0.188 C 
BRANCH  23  24
ATOM     24  C   UNL A   1      48.111  26.456  24.333  1.00  0.00     0.188 C 
BRANCH  24  25
ATOM     25  O   UNL A   1      47.556  25.241  23.872  1.00  0.00    -0.376 OA
BRANCH  25  26
ATOM     26  C   UNL A   1      47.090  24.231  24.755  1.00  0.00     0.202 C 
BRANCH  26  27
ATOM     27  C   UNL A   1      45.683  23.608  24.696  1.00  0.00     0.261 C 
BRANCH  27  28
ATOM     28  O   UNL A   1      44.556  24.487  24.630  1.00  0.00    -0.460 OA
BRANCH  28  29
ATOM     29  C   UNL A   1      43.344  23.998  24.961  1.00  0.00     0.338 C 
ATOM     30  O   UNL A   1      42.885  22.904  24.723  1.00  0.00    -0.246 OA
BRANCH  29  31
ATOM     31  C   UNL A   1      42.709  25.012  25.824  1.00  0.00     0.060 A 
ATOM     32  C   UNL A   1      43.208  26.321  25.829  1.00  0.00     0.016 A 
ATOM     33  C   UNL A   1      41.635  24.651  26.639  1.00  0.00     0.016 A 
ATOM     34  C   UNL A   1      42.667  27.264  26.698  1.00  0.00     0.010 A 
ATOM     35  C   UNL A   1      41.106  25.589  27.522  1.00  0.00     0.010 A 
ATOM     36  C   UNL A   1      41.655  26.882  27.586  1.00  0.00    -0.014 A 
BRANCH  36  37
ATOM     37  C   UNL A   1      41.323  27.751  28.734  1.00  0.00     0.031 A 
ATOM     38  C   UNL A   1      42.142  27.613  29.984  1.00  0.00     0.074 A 
ATOM     39  C   UNL A   1      40.311  28.631  28.668  1.00  0.00     0.049 A 
ATOM     40  N   UNL A   1      41.988  28.186  31.150  1.00  0.00    -0.248 NA
ATOM     41  C   UNL A   1      43.285  26.690  29.910  1.00  0.00     0.031 C 
ATOM     42  C   UNL A   1      39.476  28.868  27.495  1.00  0.00     0.029 A 
ATOM     43  N   UNL A   1      39.804  29.469  29.627  1.00  0.00    -0.354 N 
ATOM     44  C   UNL A   1      42.999  27.675  31.952  1.00  0.00     0.074 A 
ATOM     45  C   UNL A   1      43.740  26.725  31.152  1.00  0.00     0.031 C 
ATOM     46  C   UNL A   1      38.533  29.771  27.812  1.00  0.00     0.029 A 
ATOM     47  C   UNL A   1      38.681  30.142  29.219  1.00  0.00     0.049 A 
ATOM     48  H   UNL A   1      40.206  29.578  30.519  1.00  0.00     0.167 HD
ATOM     49  C   UNL A   1      43.283  27.975  33.242  1.00  0.00     0.037 A 
ATOM     50  C   UNL A   1      37.847  30.935  29.918  1.00  0.00     0.037 A 
ATOM     51  C   UNL A   1      42.530  28.918  34.025  1.00  0.00     0.049 A 
ATOM     52  C   UNL A   1      38.142  31.214  31.369  1.00  0.00     0.074 A 
ATOM     53  C   UNL A   1      42.751  29.331  35.326  1.00  0.00     0.029 A 
ATOM     54  N   UNL A   1      41.392  29.580  33.582  1.00  0.00    -0.354 N 
ATOM     55  N   UNL A   1      39.122  30.764  32.116  1.00  0.00    -0.248 NA
ATOM     56  C   UNL A   1      37.220  32.116  32.071  1.00  0.00     0.031 C 
ATOM     57  C   UNL A   1      41.706  30.184  35.695  1.00  0.00     0.029 A 
ATOM     58  C   UNL A   1      40.876  30.367  34.599  1.00  0.00     0.049 A 
ATOM     59  H   UNL A   1      41.009  29.502  32.679  1.00  0.00     0.167 HD
ATOM     60  C   UNL A   1      38.950  31.345  33.368  1.00  0.00     0.074 A 
ATOM     61  C   UNL A   1      37.776  32.188  33.273  1.00  0.00     0.031 C 
ATOM     62  C   UNL A   1      39.701  31.198  34.488  1.00  0.00     0.037 A 
BRANCH  49  63
ATOM     63  C   UNL A   1      44.417  27.230  33.889  1.00  0.00     0.064 A 
ATOM     64  C   UNL A   1      44.227  26.008  34.552  1.00  0.00     0.173 A 
ATOM     65  C   UNL A   1      45.715  27.761  33.859  1.00  0.00     0.173 A 
ATOM     66  F   UNL A   1      43.003  25.460  34.625  1.00  0.00    -0.203 F 
ATOM     67  C   UNL A   1      45.282  25.373  35.204  1.00  0.00     0.198 A 
ATOM     68  C   UNL A   1      46.775  27.104  34.477  1.00  0.00     0.198 A 
ATOM     69  F   UNL A   1      45.957  28.924  33.236  1.00  0.00    -0.203 F 
ATOM     70  F   UNL A   1      45.059  24.248  35.897  1.00  0.00    -0.200 F 
ATOM     71  C   UNL A   1      46.556  25.919  35.161  1.00  0.00     0.200 A 
ATOM     72  F   UNL A   1      48.009  27.626  34.421  1.00  0.00    -0.200 F 
ATOM     73  F   UNL A   1      47.570  25.310  35.793  1.00  0.00    -0.200 F 
ENDBRANCH  49  63
BRANCH  50  74
ATOM     74  C   UNL A   1      36.647  31.495  29.247  1.00  0.00     0.064 A 
ATOM     75  C   UNL A   1      36.556  32.858  28.939  1.00  0.00     0.173 A 
ATOM     76  C   UNL A   1      35.581  30.665  28.864  1.00  0.00     0.173 A 
ATOM     77  F   UNL A   1      37.540  33.693  29.304  1.00  0.00    -0.203 F 
ATOM     78  C   UNL A   1      35.444  33.371  28.275  1.00  0.00     0.198 A 
ATOM     79  C   UNL A   1      34.485  31.175  28.174  1.00  0.00     0.198 A 
ATOM     80  F   UNL A   1      35.622  29.352  29.134  1.00  0.00    -0.203 F 
ATOM     81  F   UNL A   1      35.370  34.684  28.015  1.00  0.00    -0.200 F 
ATOM     82  C   UNL A   1      34.415  32.528  27.883  1.00  0.00     0.200 A 
ATOM     83  F   UNL A   1      33.500  30.353  27.784  1.00  0.00    -0.200 F 
ATOM     84  F   UNL A   1      33.355  33.021  27.227  1.00  0.00    -0.200 F 
ENDBRANCH  50  74
BRANCH  62  85
ATOM     85  C   UNL A   1      39.298  31.991  35.702  1.00  0.00     0.064 A 
ATOM     86  C   UNL A   1      39.746  33.302  35.914  1.00  0.00     0.173 A 
ATOM     87  C   UNL A   1      38.401  31.445  36.635  1.00  0.00     0.173 A 
ATOM     88  F   UNL A   1      40.613  33.867  35.060  1.00  0.00    -0.203 F 
ATOM     89  C   UNL A   1      39.329  34.030  37.026  1.00  0.00     0.198 A 
ATOM     90  C   UNL A   1      37.960  32.188  37.726  1.00  0.00     0.198 A 
ATOM     91  F   UNL A   1      37.935  30.197  36.476  1.00  0.00    -0.203 F 
ATOM     92  F   UNL A   1      39.807  35.265  37.233  1.00  0.00    -0.200 F 
ATOM     93  C   UNL A   1      38.429  33.476  37.925  1.00  0.00     0.200 A 
ATOM     94  F   UNL A   1      37.074  31.658  38.581  1.00  0.00    -0.200 F 
ATOM     95  F   UNL A   1      38.018  34.184  38.986  1.00  0.00    -0.200 F 
ENDBRANCH  62  85
ENDBRANCH  36  37
ENDBRANCH  29  31
ENDBRANCH  28  29
ENDBRANCH  27  28
ENDBRANCH  26  27
ENDBRANCH  25  26
ENDBRANCH  24  25
ENDBRANCH  23  24
ENDBRANCH  22  23
ENDBRANCH  21  22
ENDBRANCH   1  21
TORSDOF 26
ENDMDL
MODEL 3
REMARK VINA RESULT:      -8.0      7.694     15.071
REMARK SMILES C[C@H]1CC[C@@](CCOCCO)(C(=O)OCCOCCOCCOCCOC(=O)c2ccc(-c3c4nc(c(-c5c(F)c(F)c(F)c(F)c5F)c5ccc([nH]5)c(-c5c(F)c(F)c(F)c(F)c5F)c5nc(c(-c6c(F)c(F)c(F)c(F)c6F)c6ccc3[nH]6)C=C5)C=C4)cc2)C1
REMARK SMILES IDX 18 1 17 2 16 3 15 4 14 5 12 6 13 7 5 8 1 9 2 10 3 11 92 12
REMARK SMILES IDX 4 13 6 14 7 15 8 16 9 17 10 18 11 19 19 21 20 22 21 23 22 24
REMARK SMILES IDX 23 25 24 26 25 27 26 28 27 29 28 30 29 31 30 32 91 33 31 34
REMARK SMILES IDX 90 35 32 36 33 37 34 38 84 39 35 40 89 41 83 42 85 43 36 44
REMARK SMILES IDX 88 45 82 46 81 47 37 49 69 50 49 51 68 52 50 53 53 54 67 55
REMARK SMILES IDX 86 56 51 57 52 58 66 60 87 61 54 62 38 63 39 64 47 65 40 66
REMARK SMILES IDX 41 67 45 68 48 69 42 70 43 71 46 72 44 73 70 74 71 75 79 76
REMARK SMILES IDX 72 77 73 78 77 79 80 80 74 81 75 82 78 83 76 84 55 85 56 86
REMARK SMILES IDX 64 87 57 88 58 89 62 90 65 91 59 92 60 93 63 94 61 95
REMARK H PARENT 11 20 85 48 53 59
REMARK Flexibility Score: inf
ROOT
ATOM      1  C   UNL A   1      49.021  20.872  37.328  1.00  0.00     0.188 C 
ENDROOT
BRANCH   1   2
ATOM      2  O   UNL A   1      48.980  19.694  38.113  1.00  0.00    -0.376 OA
BRANCH   2   3
ATOM      3  C   UNL A   1      48.063  19.708  39.220  1.00  0.00     0.202 C 
BRANCH   3   4
ATOM      4  C   UNL A   1      47.757  18.436  40.055  1.00  0.00     0.261 C 
BRANCH   4   5
ATOM      5  O   UNL A   1      46.418  18.360  40.594  1.00  0.00    -0.463 OA
BRANCH   5   6
ATOM      6  C   UNL A   1      45.959  17.121  40.915  1.00  0.00     0.312 C 
ATOM      7  O   UNL A   1      45.999  16.185  40.122  1.00  0.00    -0.252 OA
BRANCH   6   8
ATOM      8  C   UNL A   1      45.380  16.983  42.362  1.00  0.00     0.070 C 
ATOM      9  C   UNL A   1      47.278  15.043  45.123  1.00  0.00     0.007 C 
ATOM     10  C   UNL A   1      46.147  15.831  44.458  1.00  0.00    -0.013 C 
ATOM     11  C   UNL A   1      46.320  17.315  44.687  1.00  0.00     0.004 C 
ATOM     12  C   UNL A   1      46.122  15.723  42.934  1.00  0.00     0.022 C 
ATOM     13  C   UNL A   1      45.646  18.000  43.505  1.00  0.00     0.019 C 
BRANCH   8  14
ATOM     14  C   UNL A   1      43.855  16.810  42.154  1.00  0.00     0.047 C 
BRANCH  14  15
ATOM     15  C   UNL A   1      43.276  15.372  41.980  1.00  0.00     0.161 C 
BRANCH  15  16
ATOM     16  O   UNL A   1      42.348  15.124  40.926  1.00  0.00    -0.379 OA
BRANCH  16  17
ATOM     17  C   UNL A   1      41.193  14.320  41.172  1.00  0.00     0.188 C 
BRANCH  17  18
ATOM     18  C   UNL A   1      41.217  12.824  40.841  1.00  0.00     0.184 C 
BRANCH  18  19
ATOM     19  O   UNL A   1      41.125  12.511  39.462  1.00  0.00    -0.394 OA
ATOM     20  H   UNL A   1      40.951  13.321  38.957  1.00  0.00     0.210 HD
ENDBRANCH  18  19
ENDBRANCH  17  18
ENDBRANCH  16  17
ENDBRANCH  15  16
ENDBRANCH  14  15
ENDBRANCH   8  14
ENDBRANCH   6   8
ENDBRANCH   5   6
ENDBRANCH   4   5
ENDBRANCH   3   4
ENDBRANCH   2   3
ENDBRANCH   1   2
BRANCH   1  21
ATOM     21  C   UNL A   1      50.113  20.992  36.290  1.00  0.00     0.188 C 
BRANCH  21  22
ATOM     22  O   UNL A   1      51.121  21.931  36.699  1.00  0.00    -0.377 OA
BRANCH  22  23
ATOM     23  C   UNL A   1      51.387  22.983  35.779  1.00  0.00     0.188 C 
BRANCH  23  24
ATOM     24  C   UNL A   1      50.490  24.211  35.948  1.00  0.00     0.188 C 
BRANCH  24  25
ATOM     25  O   UNL A   1      50.655  24.914  37.162  1.00  0.00    -0.376 OA
BRANCH  25  26
ATOM     26  C   UNL A   1      49.575  25.552  37.828  1.00  0.00     0.202 C 
BRANCH  26  27
ATOM     27  C   UNL A   1      48.226  24.876  38.138  1.00  0.00     0.261 C 
BRANCH  27  28
ATOM     28  O   UNL A   1      47.085  25.258  37.365  1.00  0.00    -0.460 OA
BRANCH  28  29
ATOM     29  C   UNL A   1      46.337  26.294  37.796  1.00  0.00     0.338 C 
ATOM     30  O   UNL A   1      46.407  26.882  38.851  1.00  0.00    -0.246 OA
BRANCH  29  31
ATOM     31  C   UNL A   1      45.489  26.697  36.657  1.00  0.00     0.060 A 
ATOM     32  C   UNL A   1      45.931  27.707  35.794  1.00  0.00     0.016 A 
ATOM     33  C   UNL A   1      44.251  26.082  36.467  1.00  0.00     0.016 A 
ATOM     34  C   UNL A   1      45.105  28.148  34.765  1.00  0.00     0.010 A 
ATOM     35  C   UNL A   1      43.415  26.537  35.450  1.00  0.00     0.010 A 
ATOM     36  C   UNL A   1      43.823  27.603  34.630  1.00  0.00    -0.014 A 
BRANCH  36  37
ATOM     37  C   UNL A   1      42.821  28.291  33.789  1.00  0.00     0.031 A 
ATOM     38  C   UNL A   1      41.895  29.269  34.451  1.00  0.00     0.074 A 
ATOM     39  C   UNL A   1      42.731  28.042  32.473  1.00  0.00     0.049 A 
ATOM     40  N   UNL A   1      40.875  29.921  33.955  1.00  0.00    -0.248 NA
ATOM     41  C   UNL A   1      42.149  29.537  35.876  1.00  0.00     0.031 C 
ATOM     42  C   UNL A   1      43.599  27.137  31.726  1.00  0.00     0.029 A 
ATOM     43  N   UNL A   1      41.843  28.515  31.542  1.00  0.00    -0.354 N 
ATOM     44  C   UNL A   1      40.355  30.656  35.011  1.00  0.00     0.074 A 
ATOM     45  C   UNL A   1      41.148  30.347  36.180  1.00  0.00     0.031 C 
ATOM     46  C   UNL A   1      43.180  27.093  30.450  1.00  0.00     0.029 A 
ATOM     47  C   UNL A   1      41.994  27.938  30.307  1.00  0.00     0.049 A 
ATOM     48  H   UNL A   1      41.164  29.199  31.740  1.00  0.00     0.167 HD
ATOM     49  C   UNL A   1      39.306  31.514  35.002  1.00  0.00     0.037 A 
ATOM     50  C   UNL A   1      41.233  28.050  29.202  1.00  0.00     0.037 A 
ATOM     51  C   UNL A   1      38.523  31.804  33.831  1.00  0.00     0.049 A 
ATOM     52  C   UNL A   1      40.036  28.964  29.224  1.00  0.00     0.074 A 
ATOM     53  C   UNL A   1      37.467  32.686  33.695  1.00  0.00     0.029 A 
ATOM     54  N   UNL A   1      38.701  31.197  32.594  1.00  0.00    -0.354 N 
ATOM     55  N   UNL A   1      39.567  29.691  30.209  1.00  0.00    -0.248 NA
ATOM     56  C   UNL A   1      39.266  29.077  27.978  1.00  0.00     0.031 C 
ATOM     57  C   UNL A   1      36.958  32.558  32.398  1.00  0.00     0.029 A 
ATOM     58  C   UNL A   1      37.745  31.655  31.700  1.00  0.00     0.049 A 
ATOM     59  H   UNL A   1      39.401  30.539  32.383  1.00  0.00     0.167 HD
ATOM     60  C   UNL A   1      38.464  30.367  29.700  1.00  0.00     0.074 A 
ATOM     61  C   UNL A   1      38.342  29.968  28.313  1.00  0.00     0.031 C 
ATOM     62  C   UNL A   1      37.635  31.242  30.322  1.00  0.00     0.037 A 
BRANCH  49  63
ATOM     63  C   UNL A   1      38.922  32.146  36.311  1.00  0.00     0.064 A 
ATOM     64  C   UNL A   1      38.048  31.522  37.215  1.00  0.00     0.173 A 
ATOM     65  C   UNL A   1      39.427  33.408  36.657  1.00  0.00     0.173 A 
ATOM     66  F   UNL A   1      37.522  30.320  36.928  1.00  0.00    -0.203 F 
ATOM     67  C   UNL A   1      37.653  32.160  38.388  1.00  0.00     0.198 A 
ATOM     68  C   UNL A   1      39.062  34.026  37.851  1.00  0.00     0.198 A 
ATOM     69  F   UNL A   1      40.270  34.050  35.835  1.00  0.00    -0.203 F 
ATOM     70  F   UNL A   1      36.756  31.579  39.196  1.00  0.00    -0.200 F 
ATOM     71  C   UNL A   1      38.165  33.409  38.708  1.00  0.00     0.200 A 
ATOM     72  F   UNL A   1      39.570  35.226  38.164  1.00  0.00    -0.200 F 
ATOM     73  F   UNL A   1      37.781  34.025  39.835  1.00  0.00    -0.200 F 
ENDBRANCH  49  63
BRANCH  50  74
ATOM     74  C   UNL A   1      41.582  27.255  27.998  1.00  0.00     0.064 A 
ATOM     75  C   UNL A   1      41.079  25.962  27.809  1.00  0.00     0.173 A 
ATOM     76  C   UNL A   1      42.398  27.793  26.989  1.00  0.00     0.173 A 
ATOM     77  F   UNL A   1      40.314  25.398  28.755  1.00  0.00    -0.203 F 
ATOM     78  C   UNL A   1      41.379  25.236  26.658  1.00  0.00     0.198 A 
ATOM     79  C   UNL A   1      42.672  27.077  25.828  1.00  0.00     0.198 A 
ATOM     80  F   UNL A   1      42.903  29.029  27.122  1.00  0.00    -0.203 F 
ATOM     81  F   UNL A   1      40.907  23.990  26.514  1.00  0.00    -0.200 F 
ATOM     82  C   UNL A   1      42.166  25.798  25.664  1.00  0.00     0.200 A 
ATOM     83  F   UNL A   1      43.420  27.632  24.862  1.00  0.00    -0.200 F 
ATOM     84  F   UNL A   1      42.437  25.105  24.549  1.00  0.00    -0.200 F 
ENDBRANCH  50  74
BRANCH  62  85
ATOM     85  C   UNL A   1      36.535  31.858  29.502  1.00  0.00     0.064 A 
ATOM     86  C   UNL A   1      35.432  31.115  29.060  1.00  0.00     0.173 A 
ATOM     87  C   UNL A   1      36.560  33.232  29.207  1.00  0.00     0.173 A 
ATOM     88  F   UNL A   1      35.364  29.797  29.303  1.00  0.00    -0.203 F 
ATOM     89  C   UNL A   1      34.407  31.716  28.334  1.00  0.00     0.198 A 
ATOM     90  C   UNL A   1      35.516  33.836  28.512  1.00  0.00     0.198 A 
ATOM     91  F   UNL A   1      37.588  33.993  29.614  1.00  0.00    -0.203 F 
ATOM     92  F   UNL A   1      33.386  30.976  27.881  1.00  0.00    -0.200 F 
ATOM     93  C   UNL A   1      34.445  33.078  28.070  1.00  0.00     0.200 A 
ATOM     94  F   UNL A   1      35.546  35.155  28.277  1.00  0.00    -0.200 F 
ATOM     95  F   UNL A   1      33.450  33.657  27.384  1.00  0.00    -0.200 F 
ENDBRANCH  62  85
ENDBRANCH  36  37
ENDBRANCH  29  31
ENDBRANCH  28  29
ENDBRANCH  27  28
ENDBRANCH  26  27
ENDBRANCH  25  26
ENDBRANCH  24  25
ENDBRANCH  23  24
ENDBRANCH  22  23
ENDBRANCH  21  22
ENDBRANCH   1  21
TORSDOF 26
ENDMDL
