MODEL 1
REMARK VINA RESULT:     -11.7      0.000      0.000
REMARK SMILES CCc1cc(C(=O)c2[nH]c3cc(Cl)ccc3c2CC(=O)OCCOCCOCCOCCOC(=O)c2ccc(-c3c4nc(c(-c5c(F)c(F)c(F)c(F)c5F)c5ccc([nH]5)c(-c5c(F)c(F)c(F)c(F)c5F)c5nc(c(-c6c(F)c(F)c(F)c(F)c6F)c6ccc3[nH]6)C=C5)C=C4)cc2)ncc1Cl
REMARK SMILES IDX 26 1 25 2 24 3 23 4 22 5 21 6 19 7 20 8 18 9 17 10 8 11 9 12
REMARK SMILES IDX 10 13 16 15 11 16 15 17 12 18 14 19 13 20 6 21 7 22 5 23
REMARK SMILES IDX 3 24 4 25 101 26 100 27 102 28 99 29 2 30 1 31 27 32 28 33
REMARK SMILES IDX 29 34 30 35 31 36 32 37 33 38 34 39 35 40 36 41 37 42 98 43
REMARK SMILES IDX 38 44 97 45 39 46 40 47 41 48 91 49 42 50 96 51 90 52 92 53
REMARK SMILES IDX 43 54 95 55 89 56 88 57 44 59 76 60 56 61 75 62 57 63 60 64
REMARK SMILES IDX 74 65 93 66 58 67 59 68 73 70 94 71 61 72 45 73 46 74 54 75
REMARK SMILES IDX 47 76 48 77 52 78 55 79 49 80 50 81 53 82 51 83 77 84 78 85
REMARK SMILES IDX 86 86 79 87 80 88 84 89 87 90 81 91 82 92 85 93 83 94 62 95
REMARK SMILES IDX 63 96 71 97 64 98 65 99 69 100 72 101 66 102 67 103 70 104
REMARK SMILES IDX 68 105
REMARK H PARENT 9 14 92 58 60 69
REMARK Flexibility Score: inf
ROOT
ATOM      1  C   UNL A   1      42.101  20.882  26.531  1.00  0.00     0.188 C 
ENDROOT
BRANCH   1   2
ATOM      2  C   UNL A   1      40.681  21.172  27.011  1.00  0.00     0.188 C 
BRANCH   2   3
ATOM      3  O   UNL A   1      39.621  20.845  26.139  1.00  0.00    -0.376 OA
BRANCH   3   4
ATOM      4  C   UNL A   1      38.736  21.899  25.764  1.00  0.00     0.202 C 
BRANCH   4   5
ATOM      5  C   UNL A   1      37.349  21.579  25.165  1.00  0.00     0.261 C 
BRANCH   5   6
ATOM      6  O   UNL A   1      37.047  22.205  23.885  1.00  0.00    -0.463 OA
BRANCH   6   7
ATOM      7  C   UNL A   1      36.048  23.123  23.891  1.00  0.00     0.310 C 
ATOM      8  O   UNL A   1      35.347  23.344  22.901  1.00  0.00    -0.252 OA
BRANCH   7   9
ATOM      9  C   UNL A   1      35.786  23.902  25.170  1.00  0.00     0.161 C 
BRANCH   9  10
ATOM     10  C   UNL A   1      34.397  24.280  25.642  1.00  0.00     0.000 A 
ATOM     11  C   UNL A   1      33.408  23.440  26.184  1.00  0.00     0.093 A 
ATOM     12  N   UNL A   1      32.349  24.260  26.520  1.00  0.00    -0.351 N 
ATOM     13  C   UNL A   1      32.428  25.438  25.817  1.00  0.00     0.048 A 
ATOM     14  H   UNL A   1      31.642  24.034  27.167  1.00  0.00     0.167 HD
ATOM     15  C   UNL A   1      33.710  25.491  25.271  1.00  0.00     0.004 A 
ATOM     16  C   UNL A   1      31.463  26.432  25.598  1.00  0.00     0.047 A 
ATOM     17  C   UNL A   1      34.036  26.584  24.439  1.00  0.00     0.012 A 
ATOM     18  C   UNL A   1      31.803  27.474  24.732  1.00  0.00     0.043 A 
ATOM     19  C   UNL A   1      33.065  27.553  24.154  1.00  0.00     0.021 A 
ATOM     20  Cl  UNL A   1      30.620  28.667  24.346  1.00  0.00    -0.084 Cl
BRANCH  11  21
ATOM     21  C   UNL A   1      33.456  21.987  26.361  1.00  0.00     0.227 C 
ATOM     22  O   UNL A   1      33.627  21.459  27.460  1.00  0.00    -0.285 OA
BRANCH  21  23
ATOM     23  C   UNL A   1      33.369  21.048  25.208  1.00  0.00     0.113 A 
ATOM     24  C   UNL A   1      33.702  18.818  24.307  1.00  0.00    -0.026 A 
ATOM     25  C   UNL A   1      34.033  19.827  25.243  1.00  0.00     0.037 A 
ATOM     26  C   UNL A   1      32.742  19.130  23.333  1.00  0.00     0.062 A 
ATOM     27  C   UNL A   1      32.156  20.394  23.362  1.00  0.00     0.132 A 
ATOM     28  Cl  UNL A   1      32.226  18.066  22.085  1.00  0.00    -0.082 Cl
ATOM     29  N   UNL A   1      32.447  21.356  24.268  1.00  0.00    -0.251 NA
BRANCH  24  30
ATOM     30  C   UNL A   1      34.438  17.502  24.471  1.00  0.00     0.034 C 
ATOM     31  C   UNL A   1      33.753  16.348  25.188  1.00  0.00     0.009 C 
ENDBRANCH  24  30
ENDBRANCH  21  23
ENDBRANCH  11  21
ENDBRANCH   9  10
ENDBRANCH   7   9
ENDBRANCH   6   7
ENDBRANCH   5   6
ENDBRANCH   4   5
ENDBRANCH   3   4
ENDBRANCH   2   3
ENDBRANCH   1   2
BRANCH   1  32
ATOM     32  O   UNL A   1      42.307  19.855  25.574  1.00  0.00    -0.377 OA
BRANCH  32  33
ATOM     33  C   UNL A   1      43.584  19.249  25.446  1.00  0.00     0.188 C 
BRANCH  33  34
ATOM     34  C   UNL A   1      44.613  19.916  24.535  1.00  0.00     0.188 C 
BRANCH  34  35
ATOM     35  O   UNL A   1      45.704  20.616  25.136  1.00  0.00    -0.376 OA
BRANCH  35  36
ATOM     36  C   UNL A   1      45.866  22.010  24.901  1.00  0.00     0.202 C 
BRANCH  36  37
ATOM     37  C   UNL A   1      44.692  22.683  24.200  1.00  0.00     0.261 C 
BRANCH  37  38
ATOM     38  O   UNL A   1      43.960  23.506  25.117  1.00  0.00    -0.460 OA
BRANCH  38  39
ATOM     39  C   UNL A   1      44.400  24.780  25.194  1.00  0.00     0.338 C 
ATOM     40  O   UNL A   1      45.315  25.293  24.569  1.00  0.00    -0.246 OA
BRANCH  39  41
ATOM     41  C   UNL A   1      43.492  25.552  26.054  1.00  0.00     0.060 A 
ATOM     42  C   UNL A   1      43.735  26.925  26.179  1.00  0.00     0.016 A 
ATOM     43  C   UNL A   1      42.462  24.937  26.772  1.00  0.00     0.016 A 
ATOM     44  C   UNL A   1      42.991  27.680  27.072  1.00  0.00     0.010 A 
ATOM     45  C   UNL A   1      41.724  25.692  27.682  1.00  0.00     0.010 A 
ATOM     46  C   UNL A   1      42.027  27.052  27.869  1.00  0.00    -0.014 A 
BRANCH  46  47
ATOM     47  C   UNL A   1      41.521  27.780  29.050  1.00  0.00     0.031 A 
ATOM     48  C   UNL A   1      42.288  27.660  30.335  1.00  0.00     0.074 A 
ATOM     49  C   UNL A   1      40.460  28.595  28.946  1.00  0.00     0.049 A 
ATOM     50  N   UNL A   1      42.065  28.223  31.494  1.00  0.00    -0.248 NA
ATOM     51  C   UNL A   1      43.473  26.786  30.311  1.00  0.00     0.031 C 
ATOM     52  C   UNL A   1      39.687  28.820  27.726  1.00  0.00     0.029 A 
ATOM     53  N   UNL A   1      39.859  29.391  29.884  1.00  0.00    -0.354 N 
ATOM     54  C   UNL A   1      43.076  27.772  32.332  1.00  0.00     0.074 A 
ATOM     55  C   UNL A   1      43.892  26.857  31.564  1.00  0.00     0.031 C 
ATOM     56  C   UNL A   1      38.706  29.699  27.993  1.00  0.00     0.029 A 
ATOM     57  C   UNL A   1      38.768  30.069  29.405  1.00  0.00     0.049 A 
ATOM     58  H   UNL A   1      40.178  29.467  30.811  1.00  0.00     0.167 HD
ATOM     59  C   UNL A   1      43.309  28.102  33.623  1.00  0.00     0.037 A 
ATOM     60  C   UNL A   1      37.911  30.883  30.049  1.00  0.00     0.037 A 
ATOM     61  C   UNL A   1      42.484  29.012  34.374  1.00  0.00     0.049 A 
ATOM     62  C   UNL A   1      38.149  31.174  31.509  1.00  0.00     0.074 A 
ATOM     63  C   UNL A   1      42.623  29.423  35.687  1.00  0.00     0.029 A 
ATOM     64  N   UNL A   1      41.354  29.644  33.873  1.00  0.00    -0.354 N 
ATOM     65  N   UNL A   1      39.115  30.758  32.294  1.00  0.00    -0.248 NA
ATOM     66  C   UNL A   1      37.179  32.057  32.169  1.00  0.00     0.031 C 
ATOM     67  C   UNL A   1      41.541  30.253  35.999  1.00  0.00     0.029 A 
ATOM     68  C   UNL A   1      40.768  30.419  34.861  1.00  0.00     0.049 A 
ATOM     69  H   UNL A   1      41.019  29.555  32.952  1.00  0.00     0.167 HD
ATOM     70  C   UNL A   1      38.886  31.352  33.530  1.00  0.00     0.074 A 
ATOM     71  C   UNL A   1      37.704  32.175  33.379  1.00  0.00     0.031 C 
ATOM     72  C   UNL A   1      39.587  31.228  34.686  1.00  0.00     0.037 A 
BRANCH  59  73
ATOM     73  C   UNL A   1      44.474  27.448  34.308  1.00  0.00     0.064 A 
ATOM     74  C   UNL A   1      44.368  26.189  34.919  1.00  0.00     0.173 A 
ATOM     75  C   UNL A   1      45.724  28.086  34.343  1.00  0.00     0.173 A 
ATOM     76  F   UNL A   1      43.192  25.541  34.934  1.00  0.00    -0.203 F 
ATOM     77  C   UNL A   1      45.458  25.609  35.565  1.00  0.00     0.198 A 
ATOM     78  C   UNL A   1      46.820  27.489  34.958  1.00  0.00     0.198 A 
ATOM     79  F   UNL A   1      45.882  29.293  33.778  1.00  0.00    -0.203 F 
ATOM     80  F   UNL A   1      45.317  24.432  36.191  1.00  0.00    -0.200 F 
ATOM     81  C   UNL A   1      46.685  26.255  35.576  1.00  0.00     0.200 A 
ATOM     82  F   UNL A   1      48.007  28.111  34.959  1.00  0.00    -0.200 F 
ATOM     83  F   UNL A   1      47.734  25.695  36.193  1.00  0.00    -0.200 F 
ENDBRANCH  59  73
BRANCH  60  84
ATOM     84  C   UNL A   1      36.752  31.469  29.327  1.00  0.00     0.064 A 
ATOM     85  C   UNL A   1      35.635  30.691  28.994  1.00  0.00     0.173 A 
ATOM     86  C   UNL A   1      36.747  32.817  28.936  1.00  0.00     0.173 A 
ATOM     87  F   UNL A   1      35.600  29.392  29.326  1.00  0.00    -0.203 F 
ATOM     88  C   UNL A   1      34.570  31.231  28.274  1.00  0.00     0.198 A 
ATOM     89  C   UNL A   1      35.667  33.364  28.247  1.00  0.00     0.198 A 
ATOM     90  F   UNL A   1      37.790  33.607  29.231  1.00  0.00    -0.203 F 
ATOM     91  F   UNL A   1      33.541  30.450  27.919  1.00  0.00    -0.200 F 
ATOM     92  C   UNL A   1      34.585  32.568  27.906  1.00  0.00     0.200 A 
ATOM     93  F   UNL A   1      35.679  34.660  27.907  1.00  0.00    -0.200 F 
ATOM     94  F   UNL A   1      33.560  33.086  27.216  1.00  0.00    -0.200 F 
ENDBRANCH  60  84
BRANCH  72  95
ATOM     95  C   UNL A   1      39.108  32.033  35.862  1.00  0.00     0.064 A 
ATOM     96  C   UNL A   1      39.489  33.370  36.051  1.00  0.00     0.173 A 
ATOM     97  C   UNL A   1      38.248  31.457  36.811  1.00  0.00     0.173 A 
ATOM     98  F   UNL A   1      40.317  33.965  35.179  1.00  0.00    -0.203 F 
ATOM     99  C   UNL A   1      39.069  34.084  37.170  1.00  0.00     0.198 A 
ATOM    100  C   UNL A   1      37.796  32.187  37.907  1.00  0.00     0.198 A 
ATOM    101  F   UNL A   1      37.841  30.186  36.674  1.00  0.00    -0.203 F 
ATOM    102  F   UNL A   1      39.508  35.334  37.367  1.00  0.00    -0.200 F 
ATOM    103  C   UNL A   1      38.220  33.493  38.094  1.00  0.00     0.200 A 
ATOM    104  F   UNL A   1      36.958  31.621  38.787  1.00  0.00    -0.200 F 
ATOM    105  F   UNL A   1      37.818  34.182  39.171  1.00  0.00    -0.200 F 
ENDBRANCH  72  95
ENDBRANCH  46  47
ENDBRANCH  39  41
ENDBRANCH  38  39
ENDBRANCH  37  38
ENDBRANCH  36  37
ENDBRANCH  35  36
ENDBRANCH  34  35
ENDBRANCH  33  34
ENDBRANCH  32  33
ENDBRANCH   1  32
TORSDOF 24
ENDMDL
MODEL 2
REMARK VINA RESULT:     -11.4      0.978      3.721
REMARK SMILES CCc1cc(C(=O)c2[nH]c3cc(Cl)ccc3c2CC(=O)OCCOCCOCCOCCOC(=O)c2ccc(-c3c4nc(c(-c5c(F)c(F)c(F)c(F)c5F)c5ccc([nH]5)c(-c5c(F)c(F)c(F)c(F)c5F)c5nc(c(-c6c(F)c(F)c(F)c(F)c6F)c6ccc3[nH]6)C=C5)C=C4)cc2)ncc1Cl
REMARK SMILES IDX 26 1 25 2 24 3 23 4 22 5 21 6 19 7 20 8 18 9 17 10 8 11 9 12
REMARK SMILES IDX 10 13 16 15 11 16 15 17 12 18 14 19 13 20 6 21 7 22 5 23
REMARK SMILES IDX 3 24 4 25 101 26 100 27 102 28 99 29 2 30 1 31 27 32 28 33
REMARK SMILES IDX 29 34 30 35 31 36 32 37 33 38 34 39 35 40 36 41 37 42 98 43
REMARK SMILES IDX 38 44 97 45 39 46 40 47 41 48 91 49 42 50 96 51 90 52 92 53
REMARK SMILES IDX 43 54 95 55 89 56 88 57 44 59 76 60 56 61 75 62 57 63 60 64
REMARK SMILES IDX 74 65 93 66 58 67 59 68 73 70 94 71 61 72 45 73 46 74 54 75
REMARK SMILES IDX 47 76 48 77 52 78 55 79 49 80 50 81 53 82 51 83 77 84 78 85
REMARK SMILES IDX 86 86 79 87 80 88 84 89 87 90 81 91 82 92 85 93 83 94 62 95
REMARK SMILES IDX 63 96 71 97 64 98 65 99 69 100 72 101 66 102 67 103 70 104
REMARK SMILES IDX 68 105
REMARK H PARENT 9 14 92 58 60 69
REMARK Flexibility Score: inf
ROOT
ATOM      1  C   UNL A   1      41.094  21.895  25.923  1.00  0.00     0.188 C 
ENDROOT
BRANCH   1   2
ATOM      2  C   UNL A   1      40.008  22.015  26.989  1.00  0.00     0.188 C 
BRANCH   2   3
ATOM      3  O   UNL A   1      39.688  23.310  27.448  1.00  0.00    -0.376 OA
BRANCH   3   4
ATOM      4  C   UNL A   1      38.889  24.126  26.593  1.00  0.00     0.202 C 
BRANCH   4   5
ATOM      5  C   UNL A   1      37.471  23.673  26.182  1.00  0.00     0.261 C 
BRANCH   5   6
ATOM      6  O   UNL A   1      37.329  23.179  24.820  1.00  0.00    -0.463 OA
BRANCH   6   7
ATOM      7  C   UNL A   1      36.060  23.086  24.348  1.00  0.00     0.310 C 
ATOM      8  O   UNL A   1      35.799  23.112  23.143  1.00  0.00    -0.252 OA
BRANCH   7   9
ATOM      9  C   UNL A   1      34.923  22.942  25.348  1.00  0.00     0.161 C 
BRANCH   9  10
ATOM     10  C   UNL A   1      33.798  21.941  25.187  1.00  0.00     0.000 A 
ATOM     11  C   UNL A   1      32.468  22.056  25.627  1.00  0.00     0.093 A 
ATOM     12  N   UNL A   1      31.817  20.922  25.185  1.00  0.00    -0.351 N 
ATOM     13  C   UNL A   1      32.732  19.931  24.918  1.00  0.00     0.048 A 
ATOM     14  H   UNL A   1      30.842  20.834  25.078  1.00  0.00     0.167 HD
ATOM     15  C   UNL A   1      33.984  20.543  24.891  1.00  0.00     0.004 A 
ATOM     16  C   UNL A   1      32.551  18.553  24.734  1.00  0.00     0.047 A 
ATOM     17  C   UNL A   1      35.121  19.728  24.696  1.00  0.00     0.012 A 
ATOM     18  C   UNL A   1      33.700  17.770  24.591  1.00  0.00     0.043 A 
ATOM     19  C   UNL A   1      34.968  18.342  24.577  1.00  0.00     0.021 A 
ATOM     20  Cl  UNL A   1      33.541  16.059  24.466  1.00  0.00    -0.084 Cl
BRANCH  11  21
ATOM     21  C   UNL A   1      31.866  23.141  26.405  1.00  0.00     0.227 C 
ATOM     22  O   UNL A   1      31.804  23.119  27.635  1.00  0.00    -0.285 OA
BRANCH  21  23
ATOM     23  C   UNL A   1      31.223  24.317  25.755  1.00  0.00     0.113 A 
ATOM     24  C   UNL A   1      31.072  26.725  25.486  1.00  0.00    -0.026 A 
ATOM     25  C   UNL A   1      31.410  25.596  26.268  1.00  0.00     0.037 A 
ATOM     26  C   UNL A   1      30.494  26.491  24.229  1.00  0.00     0.062 A 
ATOM     27  C   UNL A   1      30.318  25.172  23.816  1.00  0.00     0.132 A 
ATOM     28  Cl  UNL A   1      29.976  27.718  23.141  1.00  0.00    -0.082 Cl
ATOM     29  N   UNL A   1      30.662  24.085  24.546  1.00  0.00    -0.251 NA
BRANCH  24  30
ATOM     30  C   UNL A   1      31.375  28.073  26.112  1.00  0.00     0.034 C 
ATOM     31  C   UNL A   1      31.658  28.156  27.604  1.00  0.00     0.009 C 
ENDBRANCH  24  30
ENDBRANCH  21  23
ENDBRANCH  11  21
ENDBRANCH   9  10
ENDBRANCH   7   9
ENDBRANCH   6   7
ENDBRANCH   5   6
ENDBRANCH   4   5
ENDBRANCH   3   4
ENDBRANCH   2   3
ENDBRANCH   1   2
BRANCH   1  32
ATOM     32  O   UNL A   1      41.695  20.631  25.692  1.00  0.00    -0.377 OA
BRANCH  32  33
ATOM     33  C   UNL A   1      43.016  20.379  26.144  1.00  0.00     0.188 C 
BRANCH  33  34
ATOM     34  C   UNL A   1      44.113  20.188  25.099  1.00  0.00     0.188 C 
BRANCH  34  35
ATOM     35  O   UNL A   1      45.390  20.786  25.333  1.00  0.00    -0.376 OA
BRANCH  35  36
ATOM     36  C   UNL A   1      45.819  21.878  24.526  1.00  0.00     0.202 C 
BRANCH  36  37
ATOM     37  C   UNL A   1      44.742  22.911  24.222  1.00  0.00     0.261 C 
BRANCH  37  38
ATOM     38  O   UNL A   1      44.402  23.650  25.402  1.00  0.00    -0.460 OA
BRANCH  38  39
ATOM     39  C   UNL A   1      44.702  24.965  25.342  1.00  0.00     0.338 C 
ATOM     40  O   UNL A   1      45.513  25.513  24.611  1.00  0.00    -0.246 OA
BRANCH  39  41
ATOM     41  C   UNL A   1      43.771  25.712  26.199  1.00  0.00     0.060 A 
ATOM     42  C   UNL A   1      43.999  27.084  26.354  1.00  0.00     0.016 A 
ATOM     43  C   UNL A   1      42.734  25.074  26.887  1.00  0.00     0.016 A 
ATOM     44  C   UNL A   1      43.231  27.815  27.248  1.00  0.00     0.010 A 
ATOM     45  C   UNL A   1      41.973  25.804  27.797  1.00  0.00     0.010 A 
ATOM     46  C   UNL A   1      42.259  27.163  28.015  1.00  0.00    -0.014 A 
BRANCH  46  47
ATOM     47  C   UNL A   1      41.725  27.864  29.200  1.00  0.00     0.031 A 
ATOM     48  C   UNL A   1      42.469  27.726  30.497  1.00  0.00     0.074 A 
ATOM     49  C   UNL A   1      40.658  28.671  29.092  1.00  0.00     0.049 A 
ATOM     50  N   UNL A   1      42.220  28.265  31.662  1.00  0.00    -0.248 NA
ATOM     51  C   UNL A   1      43.663  26.864  30.478  1.00  0.00     0.031 C 
ATOM     52  C   UNL A   1      39.905  28.912  27.863  1.00  0.00     0.029 A 
ATOM     53  N   UNL A   1      40.032  29.443  30.033  1.00  0.00    -0.354 N 
ATOM     54  C   UNL A   1      43.220  27.807  32.509  1.00  0.00     0.074 A 
ATOM     55  C   UNL A   1      44.058  26.915  31.740  1.00  0.00     0.031 C 
ATOM     56  C   UNL A   1      38.911  29.776  28.128  1.00  0.00     0.029 A 
ATOM     57  C   UNL A   1      38.943  30.120  29.547  1.00  0.00     0.049 A 
ATOM     58  H   UNL A   1      40.333  29.505  30.968  1.00  0.00     0.167 HD
ATOM     59  C   UNL A   1      43.426  28.116  33.811  1.00  0.00     0.037 A 
ATOM     60  C   UNL A   1      38.068  30.914  30.191  1.00  0.00     0.037 A 
ATOM     61  C   UNL A   1      42.579  29.003  34.563  1.00  0.00     0.049 A 
ATOM     62  C   UNL A   1      38.275  31.179  31.661  1.00  0.00     0.074 A 
ATOM     63  C   UNL A   1      42.690  29.390  35.886  1.00  0.00     0.029 A 
ATOM     64  N   UNL A   1      41.451  29.634  34.054  1.00  0.00    -0.354 N 
ATOM     65  N   UNL A   1      39.231  30.757  32.455  1.00  0.00    -0.248 NA
ATOM     66  C   UNL A   1      37.285  32.040  32.319  1.00  0.00     0.031 C 
ATOM     67  C   UNL A   1      41.594  30.204  36.194  1.00  0.00     0.029 A 
ATOM     68  C   UNL A   1      40.840  30.384  35.045  1.00  0.00     0.049 A 
ATOM     69  H   UNL A   1      41.134  29.559  33.125  1.00  0.00     0.167 HD
ATOM     70  C   UNL A   1      38.974  31.325  33.697  1.00  0.00     0.074 A 
ATOM     71  C   UNL A   1      37.787  32.140  33.541  1.00  0.00     0.031 C 
ATOM     72  C   UNL A   1      39.655  31.186  34.864  1.00  0.00     0.037 A 
BRANCH  59  73
ATOM     73  C   UNL A   1      44.584  27.459  34.504  1.00  0.00     0.064 A 
ATOM     74  C   UNL A   1      45.819  28.105  34.668  1.00  0.00     0.173 A 
ATOM     75  C   UNL A   1      44.453  26.163  35.027  1.00  0.00     0.173 A 
ATOM     76  F   UNL A   1      46.008  29.338  34.170  1.00  0.00    -0.203 F 
ATOM     77  C   UNL A   1      46.886  27.469  35.298  1.00  0.00     0.198 A 
ATOM     78  C   UNL A   1      45.509  25.542  35.687  1.00  0.00     0.198 A 
ATOM     79  F   UNL A   1      43.296  25.496  34.897  1.00  0.00    -0.203 F 
ATOM     80  F   UNL A   1      48.073  28.084  35.390  1.00  0.00    -0.200 F 
ATOM     81  C   UNL A   1      46.728  26.192  35.815  1.00  0.00     0.200 A 
ATOM     82  F   UNL A   1      45.351  24.313  36.195  1.00  0.00    -0.200 F 
ATOM     83  F   UNL A   1      47.752  25.582  36.426  1.00  0.00    -0.200 F 
ENDBRANCH  59  73
BRANCH  60  84
ATOM     84  C   UNL A   1      36.916  31.502  29.459  1.00  0.00     0.064 A 
ATOM     85  C   UNL A   1      35.841  30.709  29.036  1.00  0.00     0.173 A 
ATOM     86  C   UNL A   1      36.877  32.871  29.148  1.00  0.00     0.173 A 
ATOM     87  F   UNL A   1      35.840  29.391  29.290  1.00  0.00    -0.203 F 
ATOM     88  C   UNL A   1      34.786  31.255  28.307  1.00  0.00     0.198 A 
ATOM     89  C   UNL A   1      35.804  33.421  28.450  1.00  0.00     0.198 A 
ATOM     90  F   UNL A   1      37.879  33.676  29.531  1.00  0.00    -0.203 F 
ATOM     91  F   UNL A   1      33.799  30.461  27.866  1.00  0.00    -0.200 F 
ATOM     92  C   UNL A   1      34.765  32.611  28.020  1.00  0.00     0.200 A 
ATOM     93  F   UNL A   1      35.783  34.735  28.188  1.00  0.00    -0.200 F 
ATOM     94  F   UNL A   1      33.749  33.135  27.321  1.00  0.00    -0.200 F 
ENDBRANCH  60  84
BRANCH  72  95
ATOM     95  C   UNL A   1      39.147  31.963  36.046  1.00  0.00     0.064 A 
ATOM     96  C   UNL A   1      38.237  31.411  36.961  1.00  0.00     0.173 A 
ATOM     97  C   UNL A   1      39.584  33.278  36.271  1.00  0.00     0.173 A 
ATOM     98  F   UNL A   1      37.779  30.162  36.788  1.00  0.00    -0.203 F 
ATOM     99  C   UNL A   1      37.745  32.163  38.024  1.00  0.00     0.198 A 
ATOM    100  C   UNL A   1      39.122  34.013  37.359  1.00  0.00     0.198 A 
ATOM    101  F   UNL A   1      40.464  33.851  35.435  1.00  0.00    -0.203 F 
ATOM    102  F   UNL A   1      36.819  31.640  38.840  1.00  0.00    -0.200 F 
ATOM    103  C   UNL A   1      38.192  33.460  38.225  1.00  0.00     0.200 A 
ATOM    104  F   UNL A   1      39.572  35.259  37.564  1.00  0.00    -0.200 F 
ATOM    105  F   UNL A   1      37.717  34.183  39.249  1.00  0.00    -0.200 F 
ENDBRANCH  72  95
ENDBRANCH  46  47
ENDBRANCH  39  41
ENDBRANCH  38  39
ENDBRANCH  37  38
ENDBRANCH  36  37
ENDBRANCH  35  36
ENDBRANCH  34  35
ENDBRANCH  33  34
ENDBRANCH  32  33
ENDBRANCH   1  32
TORSDOF 24
ENDMDL
MODEL 3
REMARK VINA RESULT:      -9.5      7.001     11.795
REMARK SMILES CCc1cc(C(=O)c2[nH]c3cc(Cl)ccc3c2CC(=O)OCCOCCOCCOCCOC(=O)c2ccc(-c3c4nc(c(-c5c(F)c(F)c(F)c(F)c5F)c5ccc([nH]5)c(-c5c(F)c(F)c(F)c(F)c5F)c5nc(c(-c6c(F)c(F)c(F)c(F)c6F)c6ccc3[nH]6)C=C5)C=C4)cc2)ncc1Cl
REMARK SMILES IDX 26 1 25 2 24 3 23 4 22 5 21 6 19 7 20 8 18 9 17 10 8 11 9 12
REMARK SMILES IDX 10 13 16 15 11 16 15 17 12 18 14 19 13 20 6 21 7 22 5 23
REMARK SMILES IDX 3 24 4 25 101 26 100 27 102 28 99 29 2 30 1 31 27 32 28 33
REMARK SMILES IDX 29 34 30 35 31 36 32 37 33 38 34 39 35 40 36 41 37 42 98 43
REMARK SMILES IDX 38 44 97 45 39 46 40 47 41 48 91 49 42 50 96 51 90 52 92 53
REMARK SMILES IDX 43 54 95 55 89 56 88 57 44 59 76 60 56 61 75 62 57 63 60 64
REMARK SMILES IDX 74 65 93 66 58 67 59 68 73 70 94 71 61 72 45 73 46 74 54 75
REMARK SMILES IDX 47 76 48 77 52 78 55 79 49 80 50 81 53 82 51 83 77 84 78 85
REMARK SMILES IDX 86 86 79 87 80 88 84 89 87 90 81 91 82 92 85 93 83 94 62 95
REMARK SMILES IDX 63 96 71 97 64 98 65 99 69 100 72 101 66 102 67 103 70 104
REMARK SMILES IDX 68 105
REMARK H PARENT 9 14 92 58 60 69
REMARK Flexibility Score: inf
ROOT
ATOM      1  C   UNL A   1      34.245  33.782  29.943  1.00  0.00     0.188 C 
ENDROOT
BRANCH   1   2
ATOM      2  C   UNL A   1      34.692  32.986  28.719  1.00  0.00     0.188 C 
BRANCH   2   3
ATOM      3  O   UNL A   1      34.469  31.593  28.731  1.00  0.00    -0.376 OA
BRANCH   3   4
ATOM      4  C   UNL A   1      34.747  30.878  27.529  1.00  0.00     0.202 C 
BRANCH   4   5
ATOM      5  C   UNL A   1      33.638  30.061  26.831  1.00  0.00     0.261 C 
BRANCH   5   6
ATOM      6  O   UNL A   1      33.362  28.748  27.396  1.00  0.00    -0.463 OA
BRANCH   6   7
ATOM      7  C   UNL A   1      33.088  27.761  26.505  1.00  0.00     0.310 C 
ATOM      8  O   UNL A   1      32.760  26.626  26.856  1.00  0.00    -0.252 OA
BRANCH   7   9
ATOM      9  C   UNL A   1      33.189  28.075  25.021  1.00  0.00     0.161 C 
BRANCH   9  10
ATOM     10  C   UNL A   1      32.023  27.944  24.063  1.00  0.00     0.000 A 
ATOM     11  C   UNL A   1      31.916  27.108  22.938  1.00  0.00     0.093 A 
ATOM     12  N   UNL A   1      30.645  27.300  22.435  1.00  0.00    -0.351 N 
ATOM     13  C   UNL A   1      30.143  28.501  22.878  1.00  0.00     0.048 A 
ATOM     14  H   UNL A   1      30.168  26.670  21.847  1.00  0.00     0.167 HD
ATOM     15  C   UNL A   1      30.974  28.921  23.915  1.00  0.00     0.004 A 
ATOM     16  C   UNL A   1      29.049  29.252  22.423  1.00  0.00     0.047 A 
ATOM     17  C   UNL A   1      30.714  30.174  24.512  1.00  0.00     0.012 A 
ATOM     18  C   UNL A   1      28.850  30.507  23.002  1.00  0.00     0.043 A 
ATOM     19  C   UNL A   1      29.668  30.970  24.027  1.00  0.00     0.021 A 
ATOM     20  Cl  UNL A   1      27.585  31.516  22.408  1.00  0.00    -0.084 Cl
BRANCH  11  21
ATOM     21  C   UNL A   1      32.931  26.211  22.381  1.00  0.00     0.227 C 
ATOM     22  O   UNL A   1      33.795  26.596  21.592  1.00  0.00    -0.285 OA
BRANCH  21  23
ATOM     23  C   UNL A   1      32.945  24.752  22.681  1.00  0.00     0.113 A 
ATOM     24  C   UNL A   1      34.109  22.821  23.585  1.00  0.00    -0.026 A 
ATOM     25  C   UNL A   1      34.137  24.110  23.000  1.00  0.00     0.037 A 
ATOM     26  C   UNL A   1      32.854  22.219  23.760  1.00  0.00     0.062 A 
ATOM     27  C   UNL A   1      31.718  22.931  23.380  1.00  0.00     0.132 A 
ATOM     28  Cl  UNL A   1      32.600  20.649  24.414  1.00  0.00    -0.082 Cl
ATOM     29  N   UNL A   1      31.733  24.174  22.844  1.00  0.00    -0.251 NA
BRANCH  24  30
ATOM     30  C   UNL A   1      35.459  22.237  23.953  1.00  0.00     0.034 C 
ATOM     31  C   UNL A   1      36.721  22.842  23.358  1.00  0.00     0.009 C 
ENDBRANCH  24  30
ENDBRANCH  21  23
ENDBRANCH  11  21
ENDBRANCH   9  10
ENDBRANCH   7   9
ENDBRANCH   6   7
ENDBRANCH   5   6
ENDBRANCH   4   5
ENDBRANCH   3   4
ENDBRANCH   2   3
ENDBRANCH   1   2
BRANCH   1  32
ATOM     32  O   UNL A   1      35.216  34.489  30.696  1.00  0.00    -0.377 OA
BRANCH  32  33
ATOM     33  C   UNL A   1      35.751  33.920  31.881  1.00  0.00     0.188 C 
BRANCH  33  34
ATOM     34  C   UNL A   1      35.081  32.670  32.448  1.00  0.00     0.188 C 
BRANCH  34  35
ATOM     35  O   UNL A   1      35.421  31.400  31.888  1.00  0.00    -0.376 OA
BRANCH  35  36
ATOM     36  C   UNL A   1      36.787  31.059  31.681  1.00  0.00     0.202 C 
BRANCH  36  37
ATOM     37  C   UNL A   1      37.361  30.075  32.692  1.00  0.00     0.261 C 
BRANCH  37  38
ATOM     38  O   UNL A   1      38.007  28.983  32.026  1.00  0.00    -0.460 OA
BRANCH  38  39
ATOM     39  C   UNL A   1      39.271  28.747  32.439  1.00  0.00     0.338 C 
ATOM     40  O   UNL A   1      39.677  27.799  33.094  1.00  0.00    -0.246 OA
BRANCH  39  41
ATOM     41  C   UNL A   1      40.169  29.743  31.838  1.00  0.00     0.060 A 
ATOM     42  C   UNL A   1      40.286  29.745  30.443  1.00  0.00     0.016 A 
ATOM     43  C   UNL A   1      40.930  30.614  32.623  1.00  0.00     0.016 A 
ATOM     44  C   UNL A   1      41.212  30.574  29.828  1.00  0.00     0.010 A 
ATOM     45  C   UNL A   1      41.871  31.437  32.008  1.00  0.00     0.010 A 
ATOM     46  C   UNL A   1      42.048  31.376  30.615  1.00  0.00    -0.014 A 
BRANCH  46  47
ATOM     47  C   UNL A   1      43.251  31.953  29.983  1.00  0.00     0.031 A 
ATOM     48  C   UNL A   1      43.203  33.392  29.557  1.00  0.00     0.074 A 
ATOM     49  C   UNL A   1      44.378  31.234  29.878  1.00  0.00     0.049 A 
ATOM     50  N   UNL A   1      44.133  34.131  29.011  1.00  0.00    -0.248 NA
ATOM     51  C   UNL A   1      41.930  34.099  29.781  1.00  0.00     0.031 C 
ATOM     52  C   UNL A   1      44.537  29.848  30.315  1.00  0.00     0.029 A 
ATOM     53  N   UNL A   1      45.606  31.577  29.378  1.00  0.00    -0.354 N 
ATOM     54  C   UNL A   1      43.559  35.382  28.826  1.00  0.00     0.074 A 
ATOM     55  C   UNL A   1      42.189  35.296  29.279  1.00  0.00     0.031 C 
ATOM     56  C   UNL A   1      45.798  29.456  30.060  1.00  0.00     0.029 A 
ATOM     57  C   UNL A   1      46.517  30.553  29.417  1.00  0.00     0.049 A 
ATOM     58  H   UNL A   1      45.814  32.472  29.025  1.00  0.00     0.167 HD
ATOM     59  C   UNL A   1      44.132  36.506  28.333  1.00  0.00     0.037 A 
ATOM     60  C   UNL A   1      47.783  30.513  28.963  1.00  0.00     0.037 A 
ATOM     61  C   UNL A   1      45.496  36.573  27.883  1.00  0.00     0.049 A 
ATOM     62  C   UNL A   1      48.372  31.756  28.347  1.00  0.00     0.074 A 
ATOM     63  C   UNL A   1      46.185  37.655  27.367  1.00  0.00     0.029 A 
ATOM     64  N   UNL A   1      46.380  35.501  27.888  1.00  0.00    -0.354 N 
ATOM     65  N   UNL A   1      47.832  32.942  28.188  1.00  0.00    -0.248 NA
ATOM     66  C   UNL A   1      49.752  31.656  27.856  1.00  0.00     0.031 C 
ATOM     67  C   UNL A   1      47.464  37.222  27.000  1.00  0.00     0.029 A 
ATOM     68  C   UNL A   1      47.598  35.889  27.355  1.00  0.00     0.049 A 
ATOM     69  H   UNL A   1      46.171  34.599  28.221  1.00  0.00     0.167 HD
ATOM     70  C   UNL A   1      48.814  33.735  27.607  1.00  0.00     0.074 A 
ATOM     71  C   UNL A   1      49.989  32.900  27.467  1.00  0.00     0.031 C 
ATOM     72  C   UNL A   1      48.753  35.036  27.223  1.00  0.00     0.037 A 
BRANCH  59  73
ATOM     73  C   UNL A   1      43.271  37.731  28.222  1.00  0.00     0.064 A 
ATOM     74  C   UNL A   1      43.264  38.729  29.209  1.00  0.00     0.173 A 
ATOM     75  C   UNL A   1      42.446  37.916  27.101  1.00  0.00     0.173 A 
ATOM     76  F   UNL A   1      44.017  38.594  30.311  1.00  0.00    -0.203 F 
ATOM     77  C   UNL A   1      42.443  39.848  29.093  1.00  0.00     0.198 A 
ATOM     78  C   UNL A   1      41.653  39.052  26.972  1.00  0.00     0.198 A 
ATOM     79  F   UNL A   1      42.410  36.992  26.129  1.00  0.00    -0.203 F 
ATOM     80  F   UNL A   1      42.410  40.759  30.076  1.00  0.00    -0.200 F 
ATOM     81  C   UNL A   1      41.645  40.013  27.970  1.00  0.00     0.200 A 
ATOM     82  F   UNL A   1      40.891  39.214  25.882  1.00  0.00    -0.200 F 
ATOM     83  F   UNL A   1      40.859  41.093  27.857  1.00  0.00    -0.200 F 
ENDBRANCH  59  73
BRANCH  60  84
ATOM     84  C   UNL A   1      48.572  29.258  29.064  1.00  0.00     0.064 A 
ATOM     85  C   UNL A   1      48.521  28.284  28.057  1.00  0.00     0.173 A 
ATOM     86  C   UNL A   1      49.379  28.995  30.183  1.00  0.00     0.173 A 
ATOM     87  F   UNL A   1      47.749  28.477  26.977  1.00  0.00    -0.203 F 
ATOM     88  C   UNL A   1      49.224  27.086  28.177  1.00  0.00     0.198 A 
ATOM     89  C   UNL A   1      50.108  27.813  30.284  1.00  0.00     0.198 A 
ATOM     90  F   UNL A   1      49.465  29.894  31.174  1.00  0.00    -0.203 F 
ATOM     91  F   UNL A   1      49.111  26.149  27.225  1.00  0.00    -0.200 F 
ATOM     92  C   UNL A   1      50.021  26.854  29.288  1.00  0.00     0.200 A 
ATOM     93  F   UNL A   1      50.888  27.600  31.353  1.00  0.00    -0.200 F 
ATOM     94  F   UNL A   1      50.697  25.703  29.401  1.00  0.00    -0.200 F 
ENDBRANCH  60  84
BRANCH  72  95
ATOM     95  C   UNL A   1      50.007  35.636  26.649  1.00  0.00     0.064 A 
ATOM     96  C   UNL A   1      50.210  35.747  25.265  1.00  0.00     0.173 A 
ATOM     97  C   UNL A   1      51.017  36.114  27.499  1.00  0.00     0.173 A 
ATOM     98  F   UNL A   1      49.281  35.297  24.408  1.00  0.00    -0.203 F 
ATOM     99  C   UNL A   1      51.396  36.266  24.754  1.00  0.00     0.198 A 
ATOM    100  C   UNL A   1      52.184  36.672  26.985  1.00  0.00     0.198 A 
ATOM    101  F   UNL A   1      50.870  36.046  28.831  1.00  0.00    -0.203 F 
ATOM    102  F   UNL A   1      51.598  36.292  23.430  1.00  0.00    -0.200 F 
ATOM    103  C   UNL A   1      52.379  36.732  25.614  1.00  0.00     0.200 A 
ATOM    104  F   UNL A   1      53.123  37.141  27.818  1.00  0.00    -0.200 F 
ATOM    105  F   UNL A   1      53.521  37.231  25.121  1.00  0.00    -0.200 F 
ENDBRANCH  72  95
ENDBRANCH  46  47
ENDBRANCH  39  41
ENDBRANCH  38  39
ENDBRANCH  37  38
ENDBRANCH  36  37
ENDBRANCH  35  36
ENDBRANCH  34  35
ENDBRANCH  33  34
ENDBRANCH  32  33
ENDBRANCH   1  32
TORSDOF 24
ENDMDL
