MODEL 1
REMARK VINA RESULT:     -11.5      0.000      0.000
REMARK SMILES CC1(C)Cc2c(c(N3CCOCC3)nc3sc(C(=O)OCCOCCOCCOCCOC(=O)c4ccc(-c5c6nc(c(-c7c(F)c(F)c(F)c(F)c7F)c7ccc([nH]7)c(-c7c(F)c(F)c(F)c(F)c7F)c7nc(c(-c8c(F)c(F)c(F)c(F)c8F)c8ccc5[nH]8)C=C7)C=C6)cc4)c(N)c23)CS1
REMARK SMILES IDX 27 1 26 2 25 3 24 4 23 5 22 6 21 7 20 8 18 9 19 10 17 11
REMARK SMILES IDX 1 12 2 13 3 14 4 15 102 16 5 17 101 18 6 19 100 20 7 21
REMARK SMILES IDX 15 22 98 23 14 24 16 25 8 26 9 27 13 28 10 29 12 30 11 31
REMARK SMILES IDX 99 32 28 35 29 36 30 37 31 38 32 39 33 40 34 41 35 42 36 43
REMARK SMILES IDX 97 44 37 45 96 46 38 47 39 48 40 49 90 50 41 51 95 52 89 53
REMARK SMILES IDX 91 54 42 55 94 56 88 57 87 58 43 60 75 61 55 62 74 63 56 64
REMARK SMILES IDX 59 65 73 66 92 67 57 68 58 69 72 71 93 72 60 73 44 74 45 75
REMARK SMILES IDX 53 76 46 77 47 78 51 79 54 80 48 81 49 82 52 83 50 84 76 85
REMARK SMILES IDX 77 86 85 87 78 88 79 89 83 90 86 91 80 92 81 93 84 94 82 95
REMARK SMILES IDX 61 96 62 97 70 98 63 99 64 100 68 101 71 102 65 103 66 104
REMARK SMILES IDX 69 105 67 106
REMARK H PARENT 99 33 99 34 91 59 59 70
REMARK Flexibility Score: inf
ROOT
ATOM      1  C   UNL A   1      46.884  24.397  24.801  1.00  0.00     0.188 C 
ENDROOT
BRANCH   1   2
ATOM      2  O   UNL A   1      46.347  23.496  23.841  1.00  0.00    -0.377 OA
BRANCH   2   3
ATOM      3  C   UNL A   1      45.858  22.218  24.236  1.00  0.00     0.188 C 
BRANCH   3   4
ATOM      4  C   UNL A   1      44.376  21.997  24.615  1.00  0.00     0.188 C 
BRANCH   4   5
ATOM      5  O   UNL A   1      43.987  20.641  24.654  1.00  0.00    -0.376 OA
BRANCH   5   6
ATOM      6  C   UNL A   1      43.621  20.036  25.871  1.00  0.00     0.202 C 
BRANCH   6   7
ATOM      7  C   UNL A   1      42.133  19.801  26.162  1.00  0.00     0.261 C 
BRANCH   7   8
ATOM      8  O   UNL A   1      41.200  20.608  25.435  1.00  0.00    -0.459 OA
BRANCH   8   9
ATOM      9  C   UNL A   1      40.506  21.542  26.137  1.00  0.00     0.350 C 
ATOM     10  O   UNL A   1      41.037  22.425  26.813  1.00  0.00    -0.245 OA
BRANCH   9  11
ATOM     11  C   UNL A   1      39.102  21.479  25.791  1.00  0.00     0.138 A 
ATOM     12  C   UNL A   1      34.103  26.346  25.754  1.00  0.00     0.023 C 
ATOM     13  C   UNL A   1      34.078  24.900  25.235  1.00  0.00     0.015 C 
ATOM     14  C   UNL A   1      33.674  24.919  23.752  1.00  0.00     0.023 C 
ATOM     15  C   UNL A   1      35.452  24.239  25.461  1.00  0.00     0.054 C 
ATOM     16  S   UNL A   1      32.855  24.002  26.238  1.00  0.00    -0.150 SA
ATOM     17  C   UNL A   1      35.580  22.735  25.305  1.00  0.00    -0.027 A 
ATOM     18  C   UNL A   1      33.033  22.392  25.454  1.00  0.00     0.109 C 
ATOM     19  C   UNL A   1      34.439  21.896  25.193  1.00  0.00     0.009 A 
ATOM     20  C   UNL A   1      36.848  22.078  25.393  1.00  0.00     0.039 A 
ATOM     21  C   UNL A   1      34.603  20.520  24.932  1.00  0.00     0.134 A 
ATOM     22  C   UNL A   1      36.852  20.702  25.193  1.00  0.00     0.128 A 
ATOM     23  C   UNL A   1      38.191  22.520  25.712  1.00  0.00     0.067 A 
ATOM     24  N   UNL A   1      35.799  19.922  24.916  1.00  0.00    -0.220 NA
ATOM     25  S   UNL A   1      38.388  19.991  25.363  1.00  0.00    -0.106 S 
BRANCH  21  26
ATOM     26  N   UNL A   1      33.512  19.698  24.801  1.00  0.00    -0.352 N 
ATOM     27  C   UNL A   1      32.919  18.928  25.892  1.00  0.00     0.146 C 
ATOM     28  C   UNL A   1      32.679  19.798  23.606  1.00  0.00     0.146 C 
ATOM     29  C   UNL A   1      32.585  17.521  25.356  1.00  0.00     0.181 C 
ATOM     30  C   UNL A   1      32.403  18.359  23.136  1.00  0.00     0.181 C 
ATOM     31  O   UNL A   1      31.768  17.579  24.170  1.00  0.00    -0.378 OA
ENDBRANCH  21  26
BRANCH  23  32
ATOM     32  N   UNL A   1      38.549  23.806  25.934  1.00  0.00    -0.397 N 
ATOM     33  H   UNL A   1      39.477  24.093  25.775  1.00  0.00     0.156 HD
ATOM     34  H   UNL A   1      37.882  24.454  26.255  1.00  0.00     0.156 HD
ENDBRANCH  23  32
ENDBRANCH   9  11
ENDBRANCH   8   9
ENDBRANCH   7   8
ENDBRANCH   6   7
ENDBRANCH   5   6
ENDBRANCH   4   5
ENDBRANCH   3   4
ENDBRANCH   2   3
ENDBRANCH   1   2
BRANCH   1  35
ATOM     35  C   UNL A   1      46.129  25.691  25.207  1.00  0.00     0.188 C 
BRANCH  35  36
ATOM     36  O   UNL A   1      44.918  25.500  25.913  1.00  0.00    -0.376 OA
BRANCH  36  37
ATOM     37  C   UNL A   1      44.688  24.459  26.838  1.00  0.00     0.202 C 
BRANCH  37  38
ATOM     38  C   UNL A   1      45.529  24.324  28.102  1.00  0.00     0.261 C 
BRANCH  38  39
ATOM     39  O   UNL A   1      44.862  24.701  29.285  1.00  0.00    -0.460 OA
BRANCH  39  40
ATOM     40  C   UNL A   1      44.916  26.011  29.546  1.00  0.00     0.338 C 
ATOM     41  O   UNL A   1      45.920  26.723  29.587  1.00  0.00    -0.246 OA
BRANCH  40  42
ATOM     42  C   UNL A   1      43.574  26.464  29.889  1.00  0.00     0.060 A 
ATOM     43  C   UNL A   1      42.706  26.623  28.812  1.00  0.00     0.016 A 
ATOM     44  C   UNL A   1      43.394  27.115  31.120  1.00  0.00     0.016 A 
ATOM     45  C   UNL A   1      41.867  27.702  28.850  1.00  0.00     0.010 A 
ATOM     46  C   UNL A   1      42.562  28.200  31.153  1.00  0.00     0.010 A 
ATOM     47  C   UNL A   1      41.914  28.540  29.973  1.00  0.00    -0.014 A 
BRANCH  47  48
ATOM     48  C   UNL A   1      41.239  29.805  29.862  1.00  0.00     0.031 A 
ATOM     49  C   UNL A   1      42.155  30.899  29.506  1.00  0.00     0.074 A 
ATOM     50  C   UNL A   1      39.918  29.933  30.068  1.00  0.00     0.049 A 
ATOM     51  N   UNL A   1      42.534  31.871  30.263  1.00  0.00    -0.248 NA
ATOM     52  C   UNL A   1      42.887  30.784  28.238  1.00  0.00     0.031 C 
ATOM     53  C   UNL A   1      38.889  28.898  30.190  1.00  0.00     0.029 A 
ATOM     54  N   UNL A   1      39.204  31.084  30.130  1.00  0.00    -0.354 N 
ATOM     55  C   UNL A   1      43.428  32.605  29.498  1.00  0.00     0.074 A 
ATOM     56  C   UNL A   1      43.739  31.802  28.344  1.00  0.00     0.031 C 
ATOM     57  C   UNL A   1      37.669  29.474  30.070  1.00  0.00     0.029 A 
ATOM     58  C   UNL A   1      37.836  30.916  29.997  1.00  0.00     0.049 A 
ATOM     59  H   UNL A   1      39.624  31.965  30.258  1.00  0.00     0.167 HD
ATOM     60  C   UNL A   1      43.639  33.921  29.759  1.00  0.00     0.037 A 
ATOM     61  C   UNL A   1      36.966  31.918  29.716  1.00  0.00     0.037 A 
ATOM     62  C   UNL A   1      43.252  34.253  31.107  1.00  0.00     0.049 A 
ATOM     63  C   UNL A   1      37.627  33.193  30.124  1.00  0.00     0.074 A 
ATOM     64  C   UNL A   1      43.655  33.817  32.356  1.00  0.00     0.029 A 
ATOM     65  N   UNL A   1      42.042  34.876  31.307  1.00  0.00    -0.354 N 
ATOM     66  N   UNL A   1      37.886  33.506  31.367  1.00  0.00    -0.248 NA
ATOM     67  C   UNL A   1      38.446  33.877  29.127  1.00  0.00     0.031 C 
ATOM     68  C   UNL A   1      42.461  33.756  33.131  1.00  0.00     0.029 A 
ATOM     69  C   UNL A   1      41.414  34.215  32.333  1.00  0.00     0.049 A 
ATOM     70  H   UNL A   1      41.693  35.650  30.809  1.00  0.00     0.167 HD
ATOM     71  C   UNL A   1      39.144  34.090  31.334  1.00  0.00     0.074 A 
ATOM     72  C   UNL A   1      39.414  34.344  29.921  1.00  0.00     0.031 C 
ATOM     73  C   UNL A   1      39.982  34.044  32.412  1.00  0.00     0.037 A 
BRANCH  60  74
ATOM     74  C   UNL A   1      43.820  34.953  28.680  1.00  0.00     0.064 A 
ATOM     75  C   UNL A   1      45.093  35.526  28.499  1.00  0.00     0.173 A 
ATOM     76  C   UNL A   1      42.753  35.618  28.034  1.00  0.00     0.173 A 
ATOM     77  F   UNL A   1      46.175  34.983  29.077  1.00  0.00    -0.203 F 
ATOM     78  C   UNL A   1      45.266  36.724  27.804  1.00  0.00     0.198 A 
ATOM     79  C   UNL A   1      42.940  36.782  27.295  1.00  0.00     0.198 A 
ATOM     80  F   UNL A   1      41.477  35.246  28.180  1.00  0.00    -0.203 F 
ATOM     81  F   UNL A   1      46.473  37.303  27.775  1.00  0.00    -0.200 F 
ATOM     82  C   UNL A   1      44.189  37.356  27.211  1.00  0.00     0.200 A 
ATOM     83  F   UNL A   1      41.878  37.386  26.742  1.00  0.00    -0.200 F 
ATOM     84  F   UNL A   1      44.342  38.539  26.603  1.00  0.00    -0.200 F 
ENDBRANCH  60  74
BRANCH  61  85
ATOM     85  C   UNL A   1      35.844  31.865  28.743  1.00  0.00     0.064 A 
ATOM     86  C   UNL A   1      35.627  30.722  27.956  1.00  0.00     0.173 A 
ATOM     87  C   UNL A   1      34.804  32.819  28.750  1.00  0.00     0.173 A 
ATOM     88  F   UNL A   1      36.542  29.742  27.927  1.00  0.00    -0.203 F 
ATOM     89  C   UNL A   1      34.437  30.535  27.242  1.00  0.00     0.198 A 
ATOM     90  C   UNL A   1      33.622  32.635  28.032  1.00  0.00     0.198 A 
ATOM     91  F   UNL A   1      34.867  33.908  29.530  1.00  0.00    -0.203 F 
ATOM     92  F   UNL A   1      34.243  29.402  26.552  1.00  0.00    -0.200 F 
ATOM     93  C   UNL A   1      33.433  31.487  27.288  1.00  0.00     0.200 A 
ATOM     94  F   UNL A   1      32.646  33.550  28.115  1.00  0.00    -0.200 F 
ATOM     95  F   UNL A   1      32.271  31.283  26.653  1.00  0.00    -0.200 F 
ENDBRANCH  61  85
BRANCH  73  96
ATOM     96  C   UNL A   1      39.444  33.533  33.720  1.00  0.00     0.064 A 
ATOM     97  C   UNL A   1      38.920  34.365  34.725  1.00  0.00     0.173 A 
ATOM     98  C   UNL A   1      39.272  32.151  33.872  1.00  0.00     0.173 A 
ATOM     99  F   UNL A   1      38.954  35.697  34.604  1.00  0.00    -0.203 F 
ATOM    100  C   UNL A   1      38.277  33.831  35.842  1.00  0.00     0.198 A 
ATOM    101  C   UNL A   1      38.597  31.623  34.969  1.00  0.00     0.198 A 
ATOM    102  F   UNL A   1      39.702  31.311  32.917  1.00  0.00    -0.203 F 
ATOM    103  F   UNL A   1      37.781  34.646  36.785  1.00  0.00    -0.200 F 
ATOM    104  C   UNL A   1      38.105  32.462  35.956  1.00  0.00     0.200 A 
ATOM    105  F   UNL A   1      38.388  30.302  35.049  1.00  0.00    -0.200 F 
ATOM    106  F   UNL A   1      37.438  31.951  37.001  1.00  0.00    -0.200 F 
ENDBRANCH  73  96
ENDBRANCH  47  48
ENDBRANCH  40  42
ENDBRANCH  39  40
ENDBRANCH  38  39
ENDBRANCH  37  38
ENDBRANCH  36  37
ENDBRANCH  35  36
ENDBRANCH   1  35
TORSDOF 22
ENDMDL
MODEL 2
REMARK VINA RESULT:     -11.4      1.511      2.889
REMARK SMILES CC1(C)Cc2c(c(N3CCOCC3)nc3sc(C(=O)OCCOCCOCCOCCOC(=O)c4ccc(-c5c6nc(c(-c7c(F)c(F)c(F)c(F)c7F)c7ccc([nH]7)c(-c7c(F)c(F)c(F)c(F)c7F)c7nc(c(-c8c(F)c(F)c(F)c(F)c8F)c8ccc5[nH]8)C=C7)C=C6)cc4)c(N)c23)CS1
REMARK SMILES IDX 27 1 26 2 25 3 24 4 23 5 22 6 21 7 20 8 18 9 19 10 17 11
REMARK SMILES IDX 1 12 2 13 3 14 4 15 102 16 5 17 101 18 6 19 100 20 7 21
REMARK SMILES IDX 15 22 98 23 14 24 16 25 8 26 9 27 13 28 10 29 12 30 11 31
REMARK SMILES IDX 99 32 28 35 29 36 30 37 31 38 32 39 33 40 34 41 35 42 36 43
REMARK SMILES IDX 97 44 37 45 96 46 38 47 39 48 40 49 90 50 41 51 95 52 89 53
REMARK SMILES IDX 91 54 42 55 94 56 88 57 87 58 43 60 75 61 55 62 74 63 56 64
REMARK SMILES IDX 59 65 73 66 92 67 57 68 58 69 72 71 93 72 60 73 44 74 45 75
REMARK SMILES IDX 53 76 46 77 47 78 51 79 54 80 48 81 49 82 52 83 50 84 76 85
REMARK SMILES IDX 77 86 85 87 78 88 79 89 83 90 86 91 80 92 81 93 84 94 82 95
REMARK SMILES IDX 61 96 62 97 70 98 63 99 64 100 68 101 71 102 65 103 66 104
REMARK SMILES IDX 69 105 67 106
REMARK H PARENT 99 33 99 34 91 59 59 70
REMARK Flexibility Score: inf
ROOT
ATOM      1  C   UNL A   1      46.395  24.401  25.155  1.00  0.00     0.188 C 
ENDROOT
BRANCH   1   2
ATOM      2  O   UNL A   1      45.641  23.689  24.183  1.00  0.00    -0.377 OA
BRANCH   2   3
ATOM      3  C   UNL A   1      44.881  22.542  24.548  1.00  0.00     0.188 C 
BRANCH   3   4
ATOM      4  C   UNL A   1      43.384  22.643  24.918  1.00  0.00     0.188 C 
BRANCH   4   5
ATOM      5  O   UNL A   1      42.736  21.395  25.048  1.00  0.00    -0.376 OA
BRANCH   5   6
ATOM      6  C   UNL A   1      42.415  20.885  26.321  1.00  0.00     0.202 C 
BRANCH   6   7
ATOM      7  C   UNL A   1      40.951  20.550  26.635  1.00  0.00     0.261 C 
BRANCH   7   8
ATOM      8  O   UNL A   1      39.970  21.019  25.704  1.00  0.00    -0.459 OA
BRANCH   8   9
ATOM      9  C   UNL A   1      39.342  22.188  25.998  1.00  0.00     0.350 C 
ATOM     10  O   UNL A   1      39.934  23.245  26.223  1.00  0.00    -0.245 OA
BRANCH   9  11
ATOM     11  C   UNL A   1      37.917  22.053  25.784  1.00  0.00     0.138 A 
ATOM     12  C   UNL A   1      34.017  16.637  23.751  1.00  0.00     0.023 C 
ATOM     13  C   UNL A   1      33.594  18.020  24.268  1.00  0.00     0.015 C 
ATOM     14  C   UNL A   1      32.672  17.827  25.483  1.00  0.00     0.023 C 
ATOM     15  C   UNL A   1      34.843  18.858  24.606  1.00  0.00     0.054 C 
ATOM     16  S   UNL A   1      32.720  18.848  22.904  1.00  0.00    -0.150 SA
ATOM     17  C   UNL A   1      34.687  20.348  24.848  1.00  0.00    -0.027 A 
ATOM     18  C   UNL A   1      32.359  20.394  23.749  1.00  0.00     0.109 C 
ATOM     19  C   UNL A   1      33.480  21.032  24.543  1.00  0.00     0.009 A 
ATOM     20  C   UNL A   1      35.788  21.157  25.272  1.00  0.00     0.039 A 
ATOM     21  C   UNL A   1      33.336  22.390  24.892  1.00  0.00     0.134 A 
ATOM     22  C   UNL A   1      35.521  22.502  25.503  1.00  0.00     0.128 A 
ATOM     23  C   UNL A   1      37.201  20.908  25.475  1.00  0.00     0.067 A 
ATOM     24  N   UNL A   1      34.340  23.124  25.383  1.00  0.00    -0.220 NA
ATOM     25  S   UNL A   1      36.890  23.403  25.956  1.00  0.00    -0.106 S 
BRANCH  21  26
ATOM     26  N   UNL A   1      32.170  23.062  24.624  1.00  0.00    -0.352 N 
ATOM     27  C   UNL A   1      31.735  23.467  23.290  1.00  0.00     0.146 C 
ATOM     28  C   UNL A   1      31.131  23.130  25.648  1.00  0.00     0.146 C 
ATOM     29  C   UNL A   1      31.174  24.900  23.385  1.00  0.00     0.181 C 
ATOM     30  C   UNL A   1      30.636  24.587  25.682  1.00  0.00     0.181 C 
ATOM     31  O   UNL A   1      30.148  25.008  24.391  1.00  0.00    -0.378 OA
ENDBRANCH  21  26
BRANCH  23  32
ATOM     32  N   UNL A   1      37.797  19.697  25.364  1.00  0.00    -0.397 N 
ATOM     33  H   UNL A   1      37.382  18.993  24.817  1.00  0.00     0.156 HD
ATOM     34  H   UNL A   1      38.646  19.522  25.831  1.00  0.00     0.156 HD
ENDBRANCH  23  32
ENDBRANCH   9  11
ENDBRANCH   8   9
ENDBRANCH   7   8
ENDBRANCH   6   7
ENDBRANCH   5   6
ENDBRANCH   4   5
ENDBRANCH   3   4
ENDBRANCH   2   3
ENDBRANCH   1   2
BRANCH   1  35
ATOM     35  C   UNL A   1      45.798  25.618  25.911  1.00  0.00     0.188 C 
BRANCH  35  36
ATOM     36  O   UNL A   1      44.796  25.318  26.864  1.00  0.00    -0.376 OA
BRANCH  36  37
ATOM     37  C   UNL A   1      44.855  24.240  27.774  1.00  0.00     0.202 C 
BRANCH  37  38
ATOM     38  C   UNL A   1      45.804  24.262  28.966  1.00  0.00     0.261 C 
BRANCH  38  39
ATOM     39  O   UNL A   1      45.221  24.729  30.161  1.00  0.00    -0.460 OA
BRANCH  39  40
ATOM     40  C   UNL A   1      45.199  26.062  30.271  1.00  0.00     0.338 C 
ATOM     41  O   UNL A   1      46.149  26.836  30.157  1.00  0.00    -0.246 OA
BRANCH  40  42
ATOM     42  C   UNL A   1      43.854  26.465  30.663  1.00  0.00     0.060 A 
ATOM     43  C   UNL A   1      42.913  26.477  29.636  1.00  0.00     0.016 A 
ATOM     44  C   UNL A   1      43.710  27.212  31.844  1.00  0.00     0.016 A 
ATOM     45  C   UNL A   1      42.012  27.505  29.639  1.00  0.00     0.010 A 
ATOM     46  C   UNL A   1      42.814  28.246  31.839  1.00  0.00     0.010 A 
ATOM     47  C   UNL A   1      42.075  28.441  30.680  1.00  0.00    -0.014 A 
BRANCH  47  48
ATOM     48  C   UNL A   1      41.316  29.650  30.506  1.00  0.00     0.031 A 
ATOM     49  C   UNL A   1      42.145  30.769  30.035  1.00  0.00     0.074 A 
ATOM     50  C   UNL A   1      39.997  29.710  30.757  1.00  0.00     0.049 A 
ATOM     51  N   UNL A   1      42.487  31.817  30.704  1.00  0.00    -0.248 NA
ATOM     52  C   UNL A   1      42.835  30.605  28.749  1.00  0.00     0.031 C 
ATOM     53  C   UNL A   1      39.043  28.626  30.996  1.00  0.00     0.029 A 
ATOM     54  N   UNL A   1      39.213  30.816  30.766  1.00  0.00    -0.354 N 
ATOM     55  C   UNL A   1      43.302  32.545  29.851  1.00  0.00     0.074 A 
ATOM     56  C   UNL A   1      43.622  31.680  28.746  1.00  0.00     0.031 C 
ATOM     57  C   UNL A   1      37.785  29.114  30.886  1.00  0.00     0.029 A 
ATOM     58  C   UNL A   1      37.854  30.554  30.703  1.00  0.00     0.049 A 
ATOM     59  H   UNL A   1      39.579  31.729  30.813  1.00  0.00     0.167 HD
ATOM     60  C   UNL A   1      43.437  33.888  30.008  1.00  0.00     0.037 A 
ATOM     61  C   UNL A   1      36.911  31.476  30.387  1.00  0.00     0.037 A 
ATOM     62  C   UNL A   1      43.079  34.295  31.343  1.00  0.00     0.049 A 
ATOM     63  C   UNL A   1      37.503  32.817  30.674  1.00  0.00     0.074 A 
ATOM     64  C   UNL A   1      43.556  33.979  32.602  1.00  0.00     0.029 A 
ATOM     65  N   UNL A   1      41.840  34.855  31.548  1.00  0.00    -0.354 N 
ATOM     66  N   UNL A   1      37.786  33.237  31.879  1.00  0.00    -0.248 NA
ATOM     67  C   UNL A   1      38.238  33.474  29.598  1.00  0.00     0.031 C 
ATOM     68  C   UNL A   1      42.397  33.902  33.429  1.00  0.00     0.029 A 
ATOM     69  C   UNL A   1      41.294  34.234  32.644  1.00  0.00     0.049 A 
ATOM     70  H   UNL A   1      41.423  35.566  31.011  1.00  0.00     0.167 HD
ATOM     71  C   UNL A   1      39.002  33.894  31.753  1.00  0.00     0.074 A 
ATOM     72  C   UNL A   1      39.202  34.058  30.314  1.00  0.00     0.031 C 
ATOM     73  C   UNL A   1      39.880  33.981  32.795  1.00  0.00     0.037 A 
BRANCH  60  74
ATOM     74  C   UNL A   1      43.510  34.846  28.851  1.00  0.00     0.064 A 
ATOM     75  C   UNL A   1      44.775  35.283  28.413  1.00  0.00     0.173 A 
ATOM     76  C   UNL A   1      42.407  35.581  28.361  1.00  0.00     0.173 A 
ATOM     77  F   UNL A   1      45.892  34.665  28.827  1.00  0.00    -0.203 F 
ATOM     78  C   UNL A   1      44.924  36.424  27.625  1.00  0.00     0.198 A 
ATOM     79  C   UNL A   1      42.559  36.686  27.528  1.00  0.00     0.198 A 
ATOM     80  F   UNL A   1      41.150  35.343  28.752  1.00  0.00    -0.203 F 
ATOM     81  F   UNL A   1      46.153  36.882  27.348  1.00  0.00    -0.200 F 
ATOM     82  C   UNL A   1      43.818  37.130  27.191  1.00  0.00     0.200 A 
ATOM     83  F   UNL A   1      41.472  37.364  27.133  1.00  0.00    -0.200 F 
ATOM     84  F   UNL A   1      43.962  38.263  26.492  1.00  0.00    -0.200 F 
ENDBRANCH  60  74
BRANCH  61  85
ATOM     85  C   UNL A   1      35.760  31.282  29.468  1.00  0.00     0.064 A 
ATOM     86  C   UNL A   1      34.775  32.274  29.328  1.00  0.00     0.173 A 
ATOM     87  C   UNL A   1      35.736  30.246  28.510  1.00  0.00     0.173 A 
ATOM     88  F   UNL A   1      34.753  33.322  30.166  1.00  0.00    -0.203 F 
ATOM     89  C   UNL A   1      33.843  32.244  28.284  1.00  0.00     0.198 A 
ATOM     90  C   UNL A   1      34.800  30.212  27.475  1.00  0.00     0.198 A 
ATOM     91  F   UNL A   1      36.677  29.292  28.496  1.00  0.00    -0.203 F 
ATOM     92  F   UNL A   1      32.959  33.242  28.149  1.00  0.00    -0.200 F 
ATOM     93  C   UNL A   1      33.862  31.218  27.354  1.00  0.00     0.200 A 
ATOM     94  F   UNL A   1      34.855  29.231  26.563  1.00  0.00    -0.200 F 
ATOM     95  F   UNL A   1      33.008  31.219  26.322  1.00  0.00    -0.200 F 
ENDBRANCH  61  85
BRANCH  73  96
ATOM     96  C   UNL A   1      39.426  33.536  34.157  1.00  0.00     0.064 A 
ATOM     97  C   UNL A   1      39.320  32.188  34.542  1.00  0.00     0.173 A 
ATOM     98  C   UNL A   1      39.289  34.505  35.161  1.00  0.00     0.173 A 
ATOM     99  F   UNL A   1      39.539  31.202  33.664  1.00  0.00    -0.203 F 
ATOM    100  C   UNL A   1      39.063  31.832  35.866  1.00  0.00     0.198 A 
ATOM    101  C   UNL A   1      39.069  34.147  36.488  1.00  0.00     0.198 A 
ATOM    102  F   UNL A   1      39.436  35.806  34.862  1.00  0.00    -0.203 F 
ATOM    103  F   UNL A   1      38.971  30.539  36.209  1.00  0.00    -0.200 F 
ATOM    104  C   UNL A   1      38.950  32.812  36.839  1.00  0.00     0.200 A 
ATOM    105  F   UNL A   1      39.014  35.095  37.433  1.00  0.00    -0.200 F 
ATOM    106  F   UNL A   1      38.760  32.469  38.121  1.00  0.00    -0.200 F 
ENDBRANCH  73  96
ENDBRANCH  47  48
ENDBRANCH  40  42
ENDBRANCH  39  40
ENDBRANCH  38  39
ENDBRANCH  37  38
ENDBRANCH  36  37
ENDBRANCH  35  36
ENDBRANCH   1  35
TORSDOF 22
ENDMDL
MODEL 3
REMARK VINA RESULT:     -11.1      5.966     11.598
REMARK SMILES CC1(C)Cc2c(c(N3CCOCC3)nc3sc(C(=O)OCCOCCOCCOCCOC(=O)c4ccc(-c5c6nc(c(-c7c(F)c(F)c(F)c(F)c7F)c7ccc([nH]7)c(-c7c(F)c(F)c(F)c(F)c7F)c7nc(c(-c8c(F)c(F)c(F)c(F)c8F)c8ccc5[nH]8)C=C7)C=C6)cc4)c(N)c23)CS1
REMARK SMILES IDX 27 1 26 2 25 3 24 4 23 5 22 6 21 7 20 8 18 9 19 10 17 11
REMARK SMILES IDX 1 12 2 13 3 14 4 15 102 16 5 17 101 18 6 19 100 20 7 21
REMARK SMILES IDX 15 22 98 23 14 24 16 25 8 26 9 27 13 28 10 29 12 30 11 31
REMARK SMILES IDX 99 32 28 35 29 36 30 37 31 38 32 39 33 40 34 41 35 42 36 43
REMARK SMILES IDX 97 44 37 45 96 46 38 47 39 48 40 49 90 50 41 51 95 52 89 53
REMARK SMILES IDX 91 54 42 55 94 56 88 57 87 58 43 60 75 61 55 62 74 63 56 64
REMARK SMILES IDX 59 65 73 66 92 67 57 68 58 69 72 71 93 72 60 73 44 74 45 75
REMARK SMILES IDX 53 76 46 77 47 78 51 79 54 80 48 81 49 82 52 83 50 84 76 85
REMARK SMILES IDX 77 86 85 87 78 88 79 89 83 90 86 91 80 92 81 93 84 94 82 95
REMARK SMILES IDX 61 96 62 97 70 98 63 99 64 100 68 101 71 102 65 103 66 104
REMARK SMILES IDX 69 105 67 106
REMARK H PARENT 99 33 99 34 91 59 59 70
REMARK Flexibility Score: inf
ROOT
ATOM      1  C   UNL A   1      34.501  33.434  33.216  1.00  0.00     0.188 C 
ENDROOT
BRANCH   1   2
ATOM      2  O   UNL A   1      34.969  34.762  33.014  1.00  0.00    -0.377 OA
BRANCH   2   3
ATOM      3  C   UNL A   1      34.534  35.822  33.858  1.00  0.00     0.188 C 
BRANCH   3   4
ATOM      4  C   UNL A   1      33.998  37.152  33.280  1.00  0.00     0.188 C 
BRANCH   4   5
ATOM      5  O   UNL A   1      32.606  37.158  33.042  1.00  0.00    -0.376 OA
BRANCH   5   6
ATOM      6  C   UNL A   1      31.997  36.104  32.335  1.00  0.00     0.202 C 
BRANCH   6   7
ATOM      7  C   UNL A   1      32.205  36.013  30.818  1.00  0.00     0.261 C 
BRANCH   7   8
ATOM      8  O   UNL A   1      33.465  36.470  30.313  1.00  0.00    -0.459 OA
BRANCH   8   9
ATOM      9  C   UNL A   1      33.719  36.260  28.995  1.00  0.00     0.350 C 
ATOM     10  O   UNL A   1      33.954  37.164  28.190  1.00  0.00    -0.245 OA
BRANCH   9  11
ATOM     11  C   UNL A   1      33.894  34.845  28.743  1.00  0.00     0.138 A 
ATOM     12  C   UNL A   1      39.204  30.513  30.051  1.00  0.00     0.023 C 
ATOM     13  C   UNL A   1      37.784  30.212  29.547  1.00  0.00     0.015 C 
ATOM     14  C   UNL A   1      37.131  29.198  30.501  1.00  0.00     0.023 C 
ATOM     15  C   UNL A   1      36.978  31.521  29.439  1.00  0.00     0.054 C 
ATOM     16  S   UNL A   1      37.955  29.523  27.872  1.00  0.00    -0.150 SA
ATOM     17  C   UNL A   1      35.659  31.515  28.688  1.00  0.00    -0.027 A 
ATOM     18  C   UNL A   1      36.205  29.281  27.529  1.00  0.00     0.109 C 
ATOM     19  C   UNL A   1      35.263  30.411  27.885  1.00  0.00     0.009 A 
ATOM     20  C   UNL A   1      34.814  32.668  28.647  1.00  0.00     0.039 A 
ATOM     21  C   UNL A   1      33.981  30.395  27.299  1.00  0.00     0.134 A 
ATOM     22  C   UNL A   1      33.611  32.536  27.964  1.00  0.00     0.128 A 
ATOM     23  C   UNL A   1      34.945  34.029  29.126  1.00  0.00     0.067 A 
ATOM     24  N   UNL A   1      33.148  31.441  27.345  1.00  0.00    -0.220 NA
ATOM     25  S   UNL A   1      32.688  33.964  27.920  1.00  0.00    -0.106 S 
BRANCH  21  26
ATOM     26  N   UNL A   1      33.573  29.329  26.536  1.00  0.00    -0.352 N 
ATOM     27  C   UNL A   1      33.075  28.067  27.076  1.00  0.00     0.146 C 
ATOM     28  C   UNL A   1      33.317  29.524  25.112  1.00  0.00     0.146 C 
ATOM     29  C   UNL A   1      33.701  26.918  26.259  1.00  0.00     0.181 C 
ATOM     30  C   UNL A   1      33.979  28.347  24.376  1.00  0.00     0.181 C 
ATOM     31  O   UNL A   1      33.473  27.080  24.846  1.00  0.00    -0.378 OA
ENDBRANCH  21  26
BRANCH  23  32
ATOM     32  N   UNL A   1      35.984  34.494  29.860  1.00  0.00    -0.397 N 
ATOM     33  H   UNL A   1      36.624  33.864  30.262  1.00  0.00     0.156 HD
ATOM     34  H   UNL A   1      36.099  35.463  29.990  1.00  0.00     0.156 HD
ENDBRANCH  23  32
ENDBRANCH   9  11
ENDBRANCH   8   9
ENDBRANCH   7   8
ENDBRANCH   6   7
ENDBRANCH   5   6
ENDBRANCH   4   5
ENDBRANCH   3   4
ENDBRANCH   2   3
ENDBRANCH   1   2
BRANCH   1  35
ATOM     35  C   UNL A   1      35.127  32.232  32.460  1.00  0.00     0.188 C 
BRANCH  35  36
ATOM     36  O   UNL A   1      36.227  31.610  33.097  1.00  0.00    -0.376 OA
BRANCH  36  37
ATOM     37  C   UNL A   1      37.477  32.228  33.315  1.00  0.00     0.202 C 
BRANCH  37  38
ATOM     38  C   UNL A   1      38.245  32.022  34.615  1.00  0.00     0.261 C 
BRANCH  38  39
ATOM     39  O   UNL A   1      39.635  31.864  34.448  1.00  0.00    -0.460 OA
BRANCH  39  40
ATOM     40  C   UNL A   1      40.327  33.006  34.533  1.00  0.00     0.338 C 
ATOM     41  O   UNL A   1      39.962  34.062  35.050  1.00  0.00    -0.246 OA
BRANCH  40  42
ATOM     42  C   UNL A   1      41.577  32.838  33.804  1.00  0.00     0.060 A 
ATOM     43  C   UNL A   1      41.443  32.585  32.441  1.00  0.00     0.016 A 
ATOM     44  C   UNL A   1      42.725  32.492  34.537  1.00  0.00     0.016 A 
ATOM     45  C   UNL A   1      42.303  31.673  31.895  1.00  0.00     0.010 A 
ATOM     46  C   UNL A   1      43.577  31.573  33.992  1.00  0.00     0.010 A 
ATOM     47  C   UNL A   1      43.270  31.091  32.726  1.00  0.00    -0.014 A 
BRANCH  47  48
ATOM     48  C   UNL A   1      43.963  29.945  32.205  1.00  0.00     0.031 A 
ATOM     49  C   UNL A   1      45.056  30.318  31.295  1.00  0.00     0.074 A 
ATOM     50  C   UNL A   1      43.620  28.689  32.535  1.00  0.00     0.049 A 
ATOM     51  N   UNL A   1      45.096  30.146  30.018  1.00  0.00    -0.248 NA
ATOM     52  C   UNL A   1      46.132  31.156  31.838  1.00  0.00     0.031 C 
ATOM     53  C   UNL A   1      42.723  28.214  33.591  1.00  0.00     0.029 A 
ATOM     54  N   UNL A   1      44.102  27.539  32.003  1.00  0.00    -0.354 N 
ATOM     55  C   UNL A   1      46.300  30.701  29.611  1.00  0.00     0.074 A 
ATOM     56  C   UNL A   1      46.805  31.456  30.728  1.00  0.00     0.031 C 
ATOM     57  C   UNL A   1      42.918  26.886  33.770  1.00  0.00     0.029 A 
ATOM     58  C   UNL A   1      43.846  26.407  32.759  1.00  0.00     0.049 A 
ATOM     59  H   UNL A   1      44.594  27.511  31.150  1.00  0.00     0.167 HD
ATOM     60  C   UNL A   1      46.898  30.282  28.466  1.00  0.00     0.037 A 
ATOM     61  C   UNL A   1      44.483  25.220  32.601  1.00  0.00     0.037 A 
ATOM     62  C   UNL A   1      45.952  29.646  27.585  1.00  0.00     0.049 A 
ATOM     63  C   UNL A   1      45.030  25.204  31.211  1.00  0.00     0.074 A 
ATOM     64  C   UNL A   1      44.789  30.065  26.964  1.00  0.00     0.029 A 
ATOM     65  N   UNL A   1      45.923  28.272  27.534  1.00  0.00    -0.354 N 
ATOM     66  N   UNL A   1      44.279  25.164  30.141  1.00  0.00    -0.248 NA
ATOM     67  C   UNL A   1      46.373  25.739  31.008  1.00  0.00     0.031 C 
ATOM     68  C   UNL A   1      43.910  28.944  27.029  1.00  0.00     0.029 A 
ATOM     69  C   UNL A   1      44.607  27.894  27.626  1.00  0.00     0.049 A 
ATOM     70  H   UNL A   1      46.699  27.674  27.448  1.00  0.00     0.167 HD
ATOM     71  C   UNL A   1      44.886  26.032  29.245  1.00  0.00     0.074 A 
ATOM     72  C   UNL A   1      46.203  26.312  29.813  1.00  0.00     0.031 C 
ATOM     73  C   UNL A   1      44.169  26.684  28.283  1.00  0.00     0.037 A 
BRANCH  60  74
ATOM     74  C   UNL A   1      48.387  30.104  28.336  1.00  0.00     0.064 A 
ATOM     75  C   UNL A   1      49.086  30.905  27.415  1.00  0.00     0.173 A 
ATOM     76  C   UNL A   1      49.097  28.991  28.841  1.00  0.00     0.173 A 
ATOM     77  F   UNL A   1      48.502  31.980  26.864  1.00  0.00    -0.203 F 
ATOM     78  C   UNL A   1      50.362  30.563  26.964  1.00  0.00     0.198 A 
ATOM     79  C   UNL A   1      50.391  28.686  28.430  1.00  0.00     0.198 A 
ATOM     80  F   UNL A   1      48.541  28.089  29.657  1.00  0.00    -0.203 F 
ATOM     81  F   UNL A   1      50.932  31.277  25.985  1.00  0.00    -0.200 F 
ATOM     82  C   UNL A   1      51.009  29.448  27.465  1.00  0.00     0.200 A 
ATOM     83  F   UNL A   1      50.994  27.591  28.918  1.00  0.00    -0.200 F 
ATOM     84  F   UNL A   1      52.203  29.080  26.984  1.00  0.00    -0.200 F 
ENDBRANCH  60  74
BRANCH  61  85
ATOM     85  C   UNL A   1      45.006  24.348  33.684  1.00  0.00     0.064 A 
ATOM     86  C   UNL A   1      44.522  23.040  33.851  1.00  0.00     0.173 A 
ATOM     87  C   UNL A   1      46.174  24.673  34.407  1.00  0.00     0.173 A 
ATOM     88  F   UNL A   1      43.444  22.629  33.164  1.00  0.00    -0.203 F 
ATOM     89  C   UNL A   1      45.176  22.111  34.669  1.00  0.00     0.198 A 
ATOM     90  C   UNL A   1      46.820  23.749  35.229  1.00  0.00     0.198 A 
ATOM     91  F   UNL A   1      46.771  25.864  34.260  1.00  0.00    -0.203 F 
ATOM     92  F   UNL A   1      44.717  20.855  34.753  1.00  0.00    -0.200 F 
ATOM     93  C   UNL A   1      46.329  22.464  35.350  1.00  0.00     0.200 A 
ATOM     94  F   UNL A   1      47.954  24.097  35.854  1.00  0.00    -0.200 F 
ATOM     95  F   UNL A   1      46.988  21.560  36.087  1.00  0.00    -0.200 F 
ENDBRANCH  61  85
BRANCH  73  96
ATOM     96  C   UNL A   1      42.735  26.291  28.064  1.00  0.00     0.064 A 
ATOM     97  C   UNL A   1      42.338  25.207  27.261  1.00  0.00     0.173 A 
ATOM     98  C   UNL A   1      41.750  26.904  28.851  1.00  0.00     0.173 A 
ATOM     99  F   UNL A   1      43.235  24.505  26.559  1.00  0.00    -0.203 F 
ATOM    100  C   UNL A   1      41.011  24.778  27.230  1.00  0.00     0.198 A 
ATOM    101  C   UNL A   1      40.434  26.450  28.847  1.00  0.00     0.198 A 
ATOM    102  F   UNL A   1      42.081  27.907  29.680  1.00  0.00    -0.203 F 
ATOM    103  F   UNL A   1      40.658  23.739  26.460  1.00  0.00    -0.200 F 
ATOM    104  C   UNL A   1      40.064  25.392  28.033  1.00  0.00     0.200 A 
ATOM    105  F   UNL A   1      39.533  27.013  29.663  1.00  0.00    -0.200 F 
ATOM    106  F   UNL A   1      38.800  24.945  28.047  1.00  0.00    -0.200 F 
ENDBRANCH  73  96
ENDBRANCH  47  48
ENDBRANCH  40  42
ENDBRANCH  39  40
ENDBRANCH  38  39
ENDBRANCH  37  38
ENDBRANCH  36  37
ENDBRANCH  35  36
ENDBRANCH   1  35
TORSDOF 22
ENDMDL
