MODEL 1
REMARK VINA RESULT:      -9.8      0.000      0.000
REMARK SMILES Cc1cccc(CN(C)c2nc(C)c(C(=O)OCCOCCOCCOCCOC(=O)c3ccc(-c4c5nc(c(-c6c(F)c(F)c(F)c(F)c6F)c6ccc([nH]6)c(-c6c(F)c(F)c(F)c(F)c6F)c6nc(c(-c7c(F)c(F)c(F)c(F)c7F)c7ccc4[nH]7)C=C6)C=C5)cc3)s2)n1
REMARK SMILES IDX 22 1 21 2 20 3 19 4 18 5 17 6 15 7 16 8 14 9 10 10 11 11
REMARK SMILES IDX 95 12 12 13 13 14 8 15 9 16 7 17 6 18 1 19 2 20 3 21 96 22
REMARK SMILES IDX 4 23 5 24 23 25 24 26 25 27 26 28 27 29 28 30 29 31 30 32
REMARK SMILES IDX 31 33 32 34 33 35 94 36 34 37 93 38 35 39 36 40 37 41 87 42
REMARK SMILES IDX 38 43 92 44 86 45 88 46 39 47 91 48 85 49 84 50 40 52 72 53
REMARK SMILES IDX 52 54 71 55 53 56 56 57 70 58 89 59 54 60 55 61 69 63 90 64
REMARK SMILES IDX 57 65 41 66 42 67 50 68 43 69 44 70 48 71 51 72 45 73 46 74
REMARK SMILES IDX 49 75 47 76 73 77 74 78 82 79 75 80 76 81 80 82 83 83 77 84
REMARK SMILES IDX 78 85 81 86 79 87 58 88 59 89 67 90 60 91 61 92 65 93 68 94
REMARK SMILES IDX 62 95 63 96 66 97 64 98
REMARK H PARENT 88 51 56 62
REMARK Flexibility Score: inf
ROOT
ATOM      1  C   UNL A   1      33.014  34.992  29.355  1.00  0.00     0.188 C 
ENDROOT
BRANCH   1   2
ATOM      2  C   UNL A   1      34.281  34.948  28.485  1.00  0.00     0.188 C 
BRANCH   2   3
ATOM      3  O   UNL A   1      34.319  33.826  27.601  1.00  0.00    -0.376 OA
BRANCH   3   4
ATOM      4  C   UNL A   1      33.945  32.573  28.166  1.00  0.00     0.202 C 
BRANCH   4   5
ATOM      5  C   UNL A   1      33.001  31.724  27.301  1.00  0.00     0.261 C 
BRANCH   5   6
ATOM      6  O   UNL A   1      33.038  30.317  27.588  1.00  0.00    -0.459 OA
BRANCH   6   7
ATOM      7  C   UNL A   1      33.920  29.560  26.886  1.00  0.00     0.350 C 
ATOM      8  O   UNL A   1      35.135  29.623  27.034  1.00  0.00    -0.245 OA
BRANCH   7   9
ATOM      9  C   UNL A   1      33.198  28.610  26.072  1.00  0.00     0.137 A 
ATOM     10  C   UNL A   1      31.512  27.039  25.259  1.00  0.00     0.186 A 
ATOM     11  N   UNL A   1      32.399  27.286  24.320  1.00  0.00    -0.225 NA
ATOM     12  S   UNL A   1      31.820  27.850  26.745  1.00  0.00    -0.089 S 
ATOM     13  C   UNL A   1      33.356  28.196  24.756  1.00  0.00     0.065 A 
ATOM     14  C   UNL A   1      34.413  28.577  23.781  1.00  0.00     0.069 C 
BRANCH  10  15
ATOM     15  N   UNL A   1      30.493  26.150  25.121  1.00  0.00    -0.345 N 
ATOM     16  C   UNL A   1      30.545  24.966  25.956  1.00  0.00     0.146 C 
BRANCH  15  17
ATOM     17  C   UNL A   1      29.811  26.031  23.827  1.00  0.00     0.174 C 
BRANCH  17  18
ATOM     18  C   UNL A   1      28.880  27.193  23.517  1.00  0.00     0.060 A 
ATOM     19  C   UNL A   1      29.174  30.340  21.642  1.00  0.00     0.067 C 
ATOM     20  C   UNL A   1      28.569  29.256  22.480  1.00  0.00     0.038 A 
ATOM     21  C   UNL A   1      27.220  29.263  22.809  1.00  0.00     0.023 A 
ATOM     22  N   UNL A   1      29.401  28.260  22.856  1.00  0.00    -0.256 NA
ATOM     23  C   UNL A   1      26.706  28.199  23.545  1.00  0.00     0.004 A 
ATOM     24  C   UNL A   1      27.542  27.146  23.901  1.00  0.00     0.026 A 
ENDBRANCH  17  18
ENDBRANCH  15  17
ENDBRANCH  10  15
ENDBRANCH   7   9
ENDBRANCH   6   7
ENDBRANCH   5   6
ENDBRANCH   4   5
ENDBRANCH   3   4
ENDBRANCH   2   3
ENDBRANCH   1   2
BRANCH   1  25
ATOM     25  O   UNL A   1      32.664  36.304  29.765  1.00  0.00    -0.377 OA
BRANCH  25  26
ATOM     26  C   UNL A   1      33.120  36.748  31.041  1.00  0.00     0.188 C 
BRANCH  26  27
ATOM     27  C   UNL A   1      33.145  35.809  32.266  1.00  0.00     0.188 C 
BRANCH  27  28
ATOM     28  O   UNL A   1      34.055  36.208  33.291  1.00  0.00    -0.376 OA
BRANCH  28  29
ATOM     29  C   UNL A   1      35.348  35.614  33.258  1.00  0.00     0.202 C 
BRANCH  29  30
ATOM     30  C   UNL A   1      35.308  34.081  33.242  1.00  0.00     0.261 C 
BRANCH  30  31
ATOM     31  O   UNL A   1      36.094  33.483  32.199  1.00  0.00    -0.460 OA
BRANCH  31  32
ATOM     32  C   UNL A   1      35.587  32.366  31.634  1.00  0.00     0.338 C 
ATOM     33  O   UNL A   1      34.414  32.095  31.455  1.00  0.00    -0.246 OA
BRANCH  32  34
ATOM     34  C   UNL A   1      36.705  31.573  31.092  1.00  0.00     0.060 A 
ATOM     35  C   UNL A   1      37.502  30.852  31.989  1.00  0.00     0.016 A 
ATOM     36  C   UNL A   1      36.989  31.573  29.724  1.00  0.00     0.016 A 
ATOM     37  C   UNL A   1      38.627  30.175  31.523  1.00  0.00     0.010 A 
ATOM     38  C   UNL A   1      38.123  30.904  29.260  1.00  0.00     0.010 A 
ATOM     39  C   UNL A   1      38.970  30.242  30.165  1.00  0.00    -0.014 A 
BRANCH  39  40
ATOM     40  C   UNL A   1      40.316  29.795  29.739  1.00  0.00     0.031 A 
ATOM     41  C   UNL A   1      40.466  28.405  29.186  1.00  0.00     0.074 A 
ATOM     42  C   UNL A   1      41.375  30.619  29.804  1.00  0.00     0.049 A 
ATOM     43  N   UNL A   1      41.526  27.812  28.702  1.00  0.00    -0.248 NA
ATOM     44  C   UNL A   1      39.253  27.570  29.179  1.00  0.00     0.031 C 
ATOM     45  C   UNL A   1      41.352  31.989  30.307  1.00  0.00     0.029 A 
ATOM     46  N   UNL A   1      42.681  30.414  29.437  1.00  0.00    -0.354 N 
ATOM     47  C   UNL A   1      41.107  26.544  28.322  1.00  0.00     0.074 A 
ATOM     48  C   UNL A   1      39.706  26.436  28.669  1.00  0.00     0.031 C 
ATOM     49  C   UNL A   1      42.591  32.504  30.221  1.00  0.00     0.029 A 
ATOM     50  C   UNL A   1      43.493  31.495  29.668  1.00  0.00     0.049 A 
ATOM     51  H   UNL A   1      43.005  29.570  29.047  1.00  0.00     0.167 HD
ATOM     52  C   UNL A   1      41.820  25.562  27.723  1.00  0.00     0.037 A 
ATOM     53  C   UNL A   1      44.815  31.645  29.455  1.00  0.00     0.037 A 
ATOM     54  C   UNL A   1      43.214  25.662  27.388  1.00  0.00     0.049 A 
ATOM     55  C   UNL A   1      45.599  30.518  28.834  1.00  0.00     0.074 A 
ATOM     56  C   UNL A   1      44.024  24.728  26.768  1.00  0.00     0.029 A 
ATOM     57  N   UNL A   1      44.010  26.766  27.658  1.00  0.00    -0.354 N 
ATOM     58  N   UNL A   1      45.184  29.342  28.430  1.00  0.00    -0.248 NA
ATOM     59  C   UNL A   1      47.036  30.747  28.627  1.00  0.00     0.031 C 
ATOM     60  C   UNL A   1      45.320  25.250  26.700  1.00  0.00     0.029 A 
ATOM     61  C   UNL A   1      45.307  26.528  27.237  1.00  0.00     0.049 A 
ATOM     62  H   UNL A   1      43.698  27.596  28.087  1.00  0.00     0.167 HD
ATOM     63  C   UNL A   1      46.297  28.704  27.898  1.00  0.00     0.074 A 
ATOM     64  C   UNL A   1      47.404  29.629  28.019  1.00  0.00     0.031 C 
ATOM     65  C   UNL A   1      46.394  27.464  27.358  1.00  0.00     0.037 A 
BRANCH  52  66
ATOM     66  C   UNL A   1      41.099  24.286  27.406  1.00  0.00     0.064 A 
ATOM     67  C   UNL A   1      41.415  23.085  28.059  1.00  0.00     0.173 A 
ATOM     68  C   UNL A   1      40.070  24.268  26.454  1.00  0.00     0.173 A 
ATOM     69  F   UNL A   1      42.405  23.048  28.964  1.00  0.00    -0.203 F 
ATOM     70  C   UNL A   1      40.741  21.906  27.753  1.00  0.00     0.198 A 
ATOM     71  C   UNL A   1      39.381  23.093  26.169  1.00  0.00     0.198 A 
ATOM     72  F   UNL A   1      39.732  25.390  25.803  1.00  0.00    -0.203 F 
ATOM     73  F   UNL A   1      41.088  20.760  28.356  1.00  0.00    -0.200 F 
ATOM     74  C   UNL A   1      39.720  21.912  26.813  1.00  0.00     0.200 A 
ATOM     75  F   UNL A   1      38.391  23.101  25.266  1.00  0.00    -0.200 F 
ATOM     76  F   UNL A   1      39.070  20.777  26.522  1.00  0.00    -0.200 F 
ENDBRANCH  52  66
BRANCH  53  77
ATOM     77  C   UNL A   1      45.485  32.920  29.819  1.00  0.00     0.064 A 
ATOM     78  C   UNL A   1      45.994  33.127  31.108  1.00  0.00     0.173 A 
ATOM     79  C   UNL A   1      45.608  33.965  28.892  1.00  0.00     0.173 A 
ATOM     80  F   UNL A   1      45.877  32.166  32.037  1.00  0.00    -0.203 F 
ATOM     81  C   UNL A   1      46.582  34.341  31.462  1.00  0.00     0.198 A 
ATOM     82  C   UNL A   1      46.218  35.168  29.240  1.00  0.00     0.198 A 
ATOM     83  F   UNL A   1      45.133  33.817  27.646  1.00  0.00    -0.203 F 
ATOM     84  F   UNL A   1      47.018  34.530  32.715  1.00  0.00    -0.200 F 
ATOM     85  C   UNL A   1      46.697  35.357  30.527  1.00  0.00     0.200 A 
ATOM     86  F   UNL A   1      46.333  36.146  28.331  1.00  0.00    -0.200 F 
ATOM     87  F   UNL A   1      47.261  36.524  30.869  1.00  0.00    -0.200 F 
ENDBRANCH  53  77
BRANCH  65  88
ATOM     88  C   UNL A   1      47.736  27.048  26.827  1.00  0.00     0.064 A 
ATOM     89  C   UNL A   1      48.671  26.380  27.630  1.00  0.00     0.173 A 
ATOM     90  C   UNL A   1      48.076  27.294  25.487  1.00  0.00     0.173 A 
ATOM     91  F   UNL A   1      48.398  26.133  28.921  1.00  0.00    -0.203 F 
ATOM     92  C   UNL A   1      49.908  25.996  27.120  1.00  0.00     0.198 A 
ATOM     93  C   UNL A   1      49.302  26.885  24.973  1.00  0.00     0.198 A 
ATOM     94  F   UNL A   1      47.213  27.923  24.676  1.00  0.00    -0.203 F 
ATOM     95  F   UNL A   1      50.805  25.401  27.919  1.00  0.00    -0.200 F 
ATOM     96  C   UNL A   1      50.220  26.244  25.791  1.00  0.00     0.200 A 
ATOM     97  F   UNL A   1      49.598  27.113  23.686  1.00  0.00    -0.200 F 
ATOM     98  F   UNL A   1      51.411  25.872  25.301  1.00  0.00    -0.200 F 
ENDBRANCH  65  88
ENDBRANCH  39  40
ENDBRANCH  32  34
ENDBRANCH  31  32
ENDBRANCH  30  31
ENDBRANCH  29  30
ENDBRANCH  28  29
ENDBRANCH  27  28
ENDBRANCH  26  27
ENDBRANCH  25  26
ENDBRANCH   1  25
TORSDOF 23
ENDMDL
MODEL 2
REMARK VINA RESULT:      -9.7      1.350      2.688
REMARK SMILES Cc1cccc(CN(C)c2nc(C)c(C(=O)OCCOCCOCCOCCOC(=O)c3ccc(-c4c5nc(c(-c6c(F)c(F)c(F)c(F)c6F)c6ccc([nH]6)c(-c6c(F)c(F)c(F)c(F)c6F)c6nc(c(-c7c(F)c(F)c(F)c(F)c7F)c7ccc4[nH]7)C=C6)C=C5)cc3)s2)n1
REMARK SMILES IDX 22 1 21 2 20 3 19 4 18 5 17 6 15 7 16 8 14 9 10 10 11 11
REMARK SMILES IDX 95 12 12 13 13 14 8 15 9 16 7 17 6 18 1 19 2 20 3 21 96 22
REMARK SMILES IDX 4 23 5 24 23 25 24 26 25 27 26 28 27 29 28 30 29 31 30 32
REMARK SMILES IDX 31 33 32 34 33 35 94 36 34 37 93 38 35 39 36 40 37 41 87 42
REMARK SMILES IDX 38 43 92 44 86 45 88 46 39 47 91 48 85 49 84 50 40 52 72 53
REMARK SMILES IDX 52 54 71 55 53 56 56 57 70 58 89 59 54 60 55 61 69 63 90 64
REMARK SMILES IDX 57 65 41 66 42 67 50 68 43 69 44 70 48 71 51 72 45 73 46 74
REMARK SMILES IDX 49 75 47 76 73 77 74 78 82 79 75 80 76 81 80 82 83 83 77 84
REMARK SMILES IDX 78 85 81 86 79 87 58 88 59 89 67 90 60 91 61 92 65 93 68 94
REMARK SMILES IDX 62 95 63 96 66 97 64 98
REMARK H PARENT 88 51 56 62
REMARK Flexibility Score: inf
ROOT
ATOM      1  C   UNL A   1      33.001  34.555  29.042  1.00  0.00     0.188 C 
ENDROOT
BRANCH   1   2
ATOM      2  C   UNL A   1      34.403  34.060  28.650  1.00  0.00     0.188 C 
BRANCH   2   3
ATOM      3  O   UNL A   1      34.377  32.919  27.791  1.00  0.00    -0.376 OA
BRANCH   3   4
ATOM      4  C   UNL A   1      33.292  32.017  27.983  1.00  0.00     0.202 C 
BRANCH   4   5
ATOM      5  C   UNL A   1      33.292  30.790  27.059  1.00  0.00     0.261 C 
BRANCH   5   6
ATOM      6  O   UNL A   1      32.001  30.187  26.874  1.00  0.00    -0.459 OA
BRANCH   6   7
ATOM      7  C   UNL A   1      31.928  28.834  26.954  1.00  0.00     0.350 C 
ATOM      8  O   UNL A   1      31.784  28.224  28.008  1.00  0.00    -0.245 OA
BRANCH   7   9
ATOM      9  C   UNL A   1      31.907  28.272  25.624  1.00  0.00     0.137 A 
ATOM     10  C   UNL A   1      32.192  26.763  23.723  1.00  0.00     0.186 A 
ATOM     11  N   UNL A   1      31.464  27.802  23.378  1.00  0.00    -0.225 NA
ATOM     12  S   UNL A   1      32.735  26.797  25.355  1.00  0.00    -0.089 S 
ATOM     13  C   UNL A   1      31.272  28.663  24.453  1.00  0.00     0.065 A 
ATOM     14  C   UNL A   1      30.447  29.876  24.202  1.00  0.00     0.069 C 
BRANCH  10  15
ATOM     15  N   UNL A   1      32.574  25.787  22.857  1.00  0.00    -0.345 N 
ATOM     16  C   UNL A   1      33.293  26.214  21.672  1.00  0.00     0.146 C 
BRANCH  15  17
ATOM     17  C   UNL A   1      31.773  24.562  22.752  1.00  0.00     0.174 C 
BRANCH  17  18
ATOM     18  C   UNL A   1      32.115  23.516  23.801  1.00  0.00     0.060 A 
ATOM     19  C   UNL A   1      35.097  21.533  24.629  1.00  0.00     0.067 C 
ATOM     20  C   UNL A   1      33.697  22.061  24.702  1.00  0.00     0.038 A 
ATOM     21  C   UNL A   1      32.847  21.718  25.743  1.00  0.00     0.023 A 
ATOM     22  N   UNL A   1      33.332  22.916  23.721  1.00  0.00    -0.256 NA
ATOM     23  C   UNL A   1      31.576  22.284  25.784  1.00  0.00     0.004 A 
ATOM     24  C   UNL A   1      31.203  23.200  24.805  1.00  0.00     0.026 A 
ENDBRANCH  17  18
ENDBRANCH  15  17
ENDBRANCH  10  15
ENDBRANCH   7   9
ENDBRANCH   6   7
ENDBRANCH   5   6
ENDBRANCH   4   5
ENDBRANCH   3   4
ENDBRANCH   2   3
ENDBRANCH   1   2
BRANCH   1  25
ATOM     25  O   UNL A   1      32.958  35.945  29.322  1.00  0.00    -0.377 OA
BRANCH  25  26
ATOM     26  C   UNL A   1      33.299  36.372  30.639  1.00  0.00     0.188 C 
BRANCH  26  27
ATOM     27  C   UNL A   1      33.099  35.456  31.866  1.00  0.00     0.188 C 
BRANCH  27  28
ATOM     28  O   UNL A   1      33.856  35.842  33.012  1.00  0.00    -0.376 OA
BRANCH  28  29
ATOM     29  C   UNL A   1      35.165  35.292  33.124  1.00  0.00     0.202 C 
BRANCH  29  30
ATOM     30  C   UNL A   1      35.166  33.771  33.322  1.00  0.00     0.261 C 
BRANCH  30  31
ATOM     31  O   UNL A   1      36.086  33.068  32.472  1.00  0.00    -0.460 OA
BRANCH  31  32
ATOM     32  C   UNL A   1      35.559  32.102  31.690  1.00  0.00     0.338 C 
ATOM     33  O   UNL A   1      34.390  31.955  31.383  1.00  0.00    -0.246 OA
BRANCH  32  34
ATOM     34  C   UNL A   1      36.666  31.327  31.102  1.00  0.00     0.060 A 
ATOM     35  C   UNL A   1      37.545  30.667  31.968  1.00  0.00     0.016 A 
ATOM     36  C   UNL A   1      36.858  31.283  29.719  1.00  0.00     0.016 A 
ATOM     37  C   UNL A   1      38.660  30.011  31.451  1.00  0.00     0.010 A 
ATOM     38  C   UNL A   1      37.982  30.635  29.203  1.00  0.00     0.010 A 
ATOM     39  C   UNL A   1      38.910  30.036  30.071  1.00  0.00    -0.014 A 
BRANCH  39  40
ATOM     40  C   UNL A   1      40.240  29.619  29.572  1.00  0.00     0.031 A 
ATOM     41  C   UNL A   1      40.391  28.229  29.019  1.00  0.00     0.074 A 
ATOM     42  C   UNL A   1      41.281  30.469  29.571  1.00  0.00     0.049 A 
ATOM     43  N   UNL A   1      41.436  27.657  28.478  1.00  0.00    -0.248 NA
ATOM     44  C   UNL A   1      39.200  27.366  29.086  1.00  0.00     0.031 C 
ATOM     45  C   UNL A   1      41.254  31.841  30.067  1.00  0.00     0.029 A 
ATOM     46  N   UNL A   1      42.568  30.291  29.131  1.00  0.00    -0.354 N 
ATOM     47  C   UNL A   1      41.026  26.378  28.130  1.00  0.00     0.074 A 
ATOM     48  C   UNL A   1      39.650  26.239  28.558  1.00  0.00     0.031 C 
ATOM     49  C   UNL A   1      42.473  32.384  29.907  1.00  0.00     0.029 A 
ATOM     50  C   UNL A   1      43.366  31.393  29.309  1.00  0.00     0.049 A 
ATOM     51  H   UNL A   1      42.890  29.453  28.727  1.00  0.00     0.167 HD
ATOM     52  C   UNL A   1      41.727  25.409  27.497  1.00  0.00     0.037 A 
ATOM     53  C   UNL A   1      44.670  31.573  29.019  1.00  0.00     0.037 A 
ATOM     54  C   UNL A   1      43.097  25.540  27.081  1.00  0.00     0.049 A 
ATOM     55  C   UNL A   1      45.443  30.461  28.360  1.00  0.00     0.074 A 
ATOM     56  C   UNL A   1      43.892  24.621  26.421  1.00  0.00     0.029 A 
ATOM     57  N   UNL A   1      43.880  26.663  27.299  1.00  0.00    -0.354 N 
ATOM     58  N   UNL A   1      45.034  29.272  27.988  1.00  0.00    -0.248 NA
ATOM     59  C   UNL A   1      46.860  30.722  28.071  1.00  0.00     0.031 C 
ATOM     60  C   UNL A   1      45.169  25.173  26.276  1.00  0.00     0.029 A 
ATOM     61  C   UNL A   1      45.156  26.453  26.806  1.00  0.00     0.049 A 
ATOM     62  H   UNL A   1      43.573  27.489  27.741  1.00  0.00     0.167 HD
ATOM     63  C   UNL A   1      46.130  28.657  27.396  1.00  0.00     0.074 A 
ATOM     64  C   UNL A   1      47.219  29.608  27.448  1.00  0.00     0.031 C 
ATOM     65  C   UNL A   1      46.226  27.416  26.859  1.00  0.00     0.037 A 
BRANCH  52  66
ATOM     66  C   UNL A   1      41.020  24.114  27.229  1.00  0.00     0.064 A 
ATOM     67  C   UNL A   1      41.425  22.918  27.841  1.00  0.00     0.173 A 
ATOM     68  C   UNL A   1      39.915  24.071  26.366  1.00  0.00     0.173 A 
ATOM     69  F   UNL A   1      42.488  22.904  28.659  1.00  0.00    -0.203 F 
ATOM     70  C   UNL A   1      40.762  21.721  27.580  1.00  0.00     0.198 A 
ATOM     71  C   UNL A   1      39.240  22.878  26.128  1.00  0.00     0.198 A 
ATOM     72  F   UNL A   1      39.490  25.188  25.757  1.00  0.00    -0.203 F 
ATOM     73  F   UNL A   1      41.194  20.582  28.141  1.00  0.00    -0.200 F 
ATOM     74  C   UNL A   1      39.667  21.704  26.730  1.00  0.00     0.200 A 
ATOM     75  F   UNL A   1      38.177  22.863  25.312  1.00  0.00    -0.200 F 
ATOM     76  F   UNL A   1      39.028  20.552  26.483  1.00  0.00    -0.200 F 
ENDBRANCH  52  66
BRANCH  53  77
ATOM     77  C   UNL A   1      45.328  32.865  29.337  1.00  0.00     0.064 A 
ATOM     78  C   UNL A   1      45.989  33.060  30.558  1.00  0.00     0.173 A 
ATOM     79  C   UNL A   1      45.290  33.940  28.437  1.00  0.00     0.173 A 
ATOM     80  F   UNL A   1      46.030  32.070  31.462  1.00  0.00    -0.203 F 
ATOM     81  C   UNL A   1      46.567  34.288  30.874  1.00  0.00     0.198 A 
ATOM     82  C   UNL A   1      45.890  35.158  28.744  1.00  0.00     0.198 A 
ATOM     83  F   UNL A   1      44.666  33.805  27.257  1.00  0.00    -0.203 F 
ATOM     84  F   UNL A   1      47.151  34.463  32.068  1.00  0.00    -0.200 F 
ATOM     85  C   UNL A   1      46.522  35.334  29.966  1.00  0.00     0.200 A 
ATOM     86  F   UNL A   1      45.849  36.165  27.860  1.00  0.00    -0.200 F 
ATOM     87  F   UNL A   1      47.077  36.515  30.272  1.00  0.00    -0.200 F 
ENDBRANCH  53  77
BRANCH  65  88
ATOM     88  C   UNL A   1      47.545  27.028  26.254  1.00  0.00     0.064 A 
ATOM     89  C   UNL A   1      47.895  27.403  24.949  1.00  0.00     0.173 A 
ATOM     90  C   UNL A   1      48.482  26.301  27.003  1.00  0.00     0.173 A 
ATOM     91  F   UNL A   1      47.028  28.089  24.188  1.00  0.00    -0.203 F 
ATOM     92  C   UNL A   1      49.125  27.041  24.406  1.00  0.00     0.198 A 
ATOM     93  C   UNL A   1      49.721  25.964  26.468  1.00  0.00     0.198 A 
ATOM     94  F   UNL A   1      48.198  25.925  28.259  1.00  0.00    -0.203 F 
ATOM     95  F   UNL A   1      49.419  27.369  23.141  1.00  0.00    -0.200 F 
ATOM     96  C   UNL A   1      50.038  26.327  25.167  1.00  0.00     0.200 A 
ATOM     97  F   UNL A   1      50.608  25.285  27.208  1.00  0.00    -0.200 F 
ATOM     98  F   UNL A   1      51.223  25.980  24.644  1.00  0.00    -0.200 F 
ENDBRANCH  65  88
ENDBRANCH  39  40
ENDBRANCH  32  34
ENDBRANCH  31  32
ENDBRANCH  30  31
ENDBRANCH  29  30
ENDBRANCH  28  29
ENDBRANCH  27  28
ENDBRANCH  26  27
ENDBRANCH  25  26
ENDBRANCH   1  25
TORSDOF 23
ENDMDL
MODEL 3
REMARK VINA RESULT:      -9.2      5.540     11.237
REMARK SMILES Cc1cccc(CN(C)c2nc(C)c(C(=O)OCCOCCOCCOCCOC(=O)c3ccc(-c4c5nc(c(-c6c(F)c(F)c(F)c(F)c6F)c6ccc([nH]6)c(-c6c(F)c(F)c(F)c(F)c6F)c6nc(c(-c7c(F)c(F)c(F)c(F)c7F)c7ccc4[nH]7)C=C6)C=C5)cc3)s2)n1
REMARK SMILES IDX 22 1 21 2 20 3 19 4 18 5 17 6 15 7 16 8 14 9 10 10 11 11
REMARK SMILES IDX 95 12 12 13 13 14 8 15 9 16 7 17 6 18 1 19 2 20 3 21 96 22
REMARK SMILES IDX 4 23 5 24 23 25 24 26 25 27 26 28 27 29 28 30 29 31 30 32
REMARK SMILES IDX 31 33 32 34 33 35 94 36 34 37 93 38 35 39 36 40 37 41 87 42
REMARK SMILES IDX 38 43 92 44 86 45 88 46 39 47 91 48 85 49 84 50 40 52 72 53
REMARK SMILES IDX 52 54 71 55 53 56 56 57 70 58 89 59 54 60 55 61 69 63 90 64
REMARK SMILES IDX 57 65 41 66 42 67 50 68 43 69 44 70 48 71 51 72 45 73 46 74
REMARK SMILES IDX 49 75 47 76 73 77 74 78 82 79 75 80 76 81 80 82 83 83 77 84
REMARK SMILES IDX 78 85 81 86 79 87 58 88 59 89 67 90 60 91 61 92 65 93 68 94
REMARK SMILES IDX 62 95 63 96 66 97 64 98
REMARK H PARENT 88 51 56 62
REMARK Flexibility Score: inf
ROOT
ATOM      1  C   UNL A   1      42.698  22.196  25.427  1.00  0.00     0.188 C 
ENDROOT
BRANCH   1   2
ATOM      2  C   UNL A   1      41.920  21.254  26.361  1.00  0.00     0.188 C 
BRANCH   2   3
ATOM      3  O   UNL A   1      40.894  21.918  27.102  1.00  0.00    -0.376 OA
BRANCH   3   4
ATOM      4  C   UNL A   1      39.920  22.617  26.333  1.00  0.00     0.202 C 
BRANCH   4   5
ATOM      5  C   UNL A   1      38.535  21.955  26.279  1.00  0.00     0.261 C 
BRANCH   5   6
ATOM      6  O   UNL A   1      37.472  22.836  25.882  1.00  0.00    -0.459 OA
BRANCH   6   7
ATOM      7  C   UNL A   1      36.225  22.307  25.789  1.00  0.00     0.350 C 
ATOM      8  O   UNL A   1      35.800  21.438  26.542  1.00  0.00    -0.245 OA
BRANCH   7   9
ATOM      9  C   UNL A   1      35.472  23.019  24.783  1.00  0.00     0.137 A 
ATOM     10  C   UNL A   1      33.811  24.423  23.669  1.00  0.00     0.186 A 
ATOM     11  N   UNL A   1      34.754  24.071  22.824  1.00  0.00    -0.225 NA
ATOM     12  S   UNL A   1      34.010  23.777  25.252  1.00  0.00    -0.089 S 
ATOM     13  C   UNL A   1      35.722  23.289  23.445  1.00  0.00     0.065 A 
ATOM     14  C   UNL A   1      36.861  22.835  22.601  1.00  0.00     0.069 C 
BRANCH  10  15
ATOM     15  N   UNL A   1      32.715  25.149  23.320  1.00  0.00    -0.345 N 
ATOM     16  C   UNL A   1      32.830  25.964  22.127  1.00  0.00     0.146 C 
BRANCH  15  17
ATOM     17  C   UNL A   1      31.794  25.610  24.364  1.00  0.00     0.174 C 
BRANCH  17  18
ATOM     18  C   UNL A   1      32.004  27.060  24.770  1.00  0.00     0.060 A 
ATOM     19  C   UNL A   1      34.696  28.940  26.422  1.00  0.00     0.067 C 
ATOM     20  C   UNL A   1      33.383  28.657  25.757  1.00  0.00     0.038 A 
ATOM     21  C   UNL A   1      32.510  29.680  25.414  1.00  0.00     0.023 A 
ATOM     22  N   UNL A   1      33.125  27.361  25.477  1.00  0.00    -0.256 NA
ATOM     23  C   UNL A   1      31.331  29.359  24.749  1.00  0.00     0.004 A 
ATOM     24  C   UNL A   1      31.073  28.033  24.416  1.00  0.00     0.026 A 
ENDBRANCH  17  18
ENDBRANCH  15  17
ENDBRANCH  10  15
ENDBRANCH   7   9
ENDBRANCH   6   7
ENDBRANCH   5   6
ENDBRANCH   4   5
ENDBRANCH   3   4
ENDBRANCH   2   3
ENDBRANCH   1   2
BRANCH   1  25
ATOM     25  O   UNL A   1      43.616  21.516  24.587  1.00  0.00    -0.377 OA
BRANCH  25  26
ATOM     26  C   UNL A   1      44.898  21.195  25.122  1.00  0.00     0.188 C 
BRANCH  26  27
ATOM     27  C   UNL A   1      45.835  22.281  25.693  1.00  0.00     0.188 C 
BRANCH  27  28
ATOM     28  O   UNL A   1      46.840  22.725  24.782  1.00  0.00    -0.376 OA
BRANCH  28  29
ATOM     29  C   UNL A   1      47.182  24.106  24.838  1.00  0.00     0.202 C 
BRANCH  29  30
ATOM     30  C   UNL A   1      46.390  24.882  25.896  1.00  0.00     0.261 C 
BRANCH  30  31
ATOM     31  O   UNL A   1      45.612  25.969  25.369  1.00  0.00    -0.460 OA
BRANCH  31  32
ATOM     32  C   UNL A   1      44.316  25.703  25.102  1.00  0.00     0.338 C 
ATOM     33  O   UNL A   1      43.876  24.876  24.324  1.00  0.00    -0.246 OA
BRANCH  32  34
ATOM     34  C   UNL A   1      43.482  26.465  26.049  1.00  0.00     0.060 A 
ATOM     35  C   UNL A   1      43.945  27.712  26.484  1.00  0.00     0.016 A 
ATOM     36  C   UNL A   1      42.279  25.942  26.530  1.00  0.00     0.016 A 
ATOM     37  C   UNL A   1      43.233  28.412  27.455  1.00  0.00     0.010 A 
ATOM     38  C   UNL A   1      41.573  26.639  27.512  1.00  0.00     0.010 A 
ATOM     39  C   UNL A   1      42.072  27.854  28.010  1.00  0.00    -0.014 A 
BRANCH  39  40
ATOM     40  C   UNL A   1      41.507  28.445  29.244  1.00  0.00     0.031 A 
ATOM     41  C   UNL A   1      42.200  28.169  30.549  1.00  0.00     0.074 A 
ATOM     42  C   UNL A   1      40.427  29.243  29.203  1.00  0.00     0.049 A 
ATOM     43  N   UNL A   1      41.927  28.616  31.748  1.00  0.00    -0.248 NA
ATOM     44  C   UNL A   1      43.360  27.264  30.495  1.00  0.00     0.031 C 
ATOM     45  C   UNL A   1      39.680  29.594  28.000  1.00  0.00     0.029 A 
ATOM     46  N   UNL A   1      39.775  29.904  30.213  1.00  0.00    -0.354 N 
ATOM     47  C   UNL A   1      42.885  28.059  32.584  1.00  0.00     0.074 A 
ATOM     48  C   UNL A   1      43.722  27.207  31.767  1.00  0.00     0.031 C 
ATOM     49  C   UNL A   1      38.665  30.407  28.341  1.00  0.00     0.029 A 
ATOM     50  C   UNL A   1      38.687  30.622  29.787  1.00  0.00     0.049 A 
ATOM     51  H   UNL A   1      40.061  29.866  31.154  1.00  0.00     0.167 HD
ATOM     52  C   UNL A   1      43.061  28.251  33.912  1.00  0.00     0.037 A 
ATOM     53  C   UNL A   1      37.811  31.365  30.491  1.00  0.00     0.037 A 
ATOM     54  C   UNL A   1      42.225  29.087  34.729  1.00  0.00     0.049 A 
ATOM     55  C   UNL A   1      38.000  31.523  31.978  1.00  0.00     0.074 A 
ATOM     56  C   UNL A   1      42.329  29.358  36.082  1.00  0.00     0.029 A 
ATOM     57  N   UNL A   1      41.117  29.781  34.266  1.00  0.00    -0.354 N 
ATOM     58  N   UNL A   1      38.938  31.035  32.752  1.00  0.00    -0.248 NA
ATOM     59  C   UNL A   1      37.010  32.347  32.686  1.00  0.00     0.031 C 
ATOM     60  C   UNL A   1      41.259  30.183  36.445  1.00  0.00     0.029 A 
ATOM     61  C   UNL A   1      40.515  30.462  35.310  1.00  0.00     0.049 A 
ATOM     62  H   UNL A   1      40.804  29.787  33.332  1.00  0.00     0.167 HD
ATOM     63  C   UNL A   1      38.671  31.514  34.028  1.00  0.00     0.074 A 
ATOM     64  C   UNL A   1      37.488  32.342  33.922  1.00  0.00     0.031 C 
ATOM     65  C   UNL A   1      39.343  31.289  35.184  1.00  0.00     0.037 A 
BRANCH  52  66
ATOM     66  C   UNL A   1      44.202  27.528  34.564  1.00  0.00     0.064 A 
ATOM     67  C   UNL A   1      45.465  28.124  34.700  1.00  0.00     0.173 A 
ATOM     68  C   UNL A   1      44.025  26.234  35.075  1.00  0.00     0.173 A 
ATOM     69  F   UNL A   1      45.688  29.352  34.211  1.00  0.00    -0.203 F 
ATOM     70  C   UNL A   1      46.517  27.440  35.304  1.00  0.00     0.198 A 
ATOM     71  C   UNL A   1      45.072  25.563  35.700  1.00  0.00     0.198 A 
ATOM     72  F   UNL A   1      42.837  25.622  34.969  1.00  0.00    -0.203 F 
ATOM     73  F   UNL A   1      47.728  28.010  35.384  1.00  0.00    -0.200 F 
ATOM     74  C   UNL A   1      46.318  26.163  35.809  1.00  0.00     0.200 A 
ATOM     75  F   UNL A   1      44.877  24.333  36.195  1.00  0.00    -0.200 F 
ATOM     76  F   UNL A   1      47.330  25.508  36.394  1.00  0.00    -0.200 F 
ENDBRANCH  52  66
BRANCH  53  77
ATOM     77  C   UNL A   1      36.679  32.033  29.798  1.00  0.00     0.064 A 
ATOM     78  C   UNL A   1      36.649  33.424  29.638  1.00  0.00     0.173 A 
ATOM     79  C   UNL A   1      35.594  31.294  29.304  1.00  0.00     0.173 A 
ATOM     80  F   UNL A   1      37.651  34.176  30.117  1.00  0.00    -0.203 F 
ATOM     81  C   UNL A   1      35.565  34.054  29.028  1.00  0.00     0.198 A 
ATOM     82  C   UNL A   1      34.524  31.922  28.673  1.00  0.00     0.198 A 
ATOM     83  F   UNL A   1      35.575  29.959  29.436  1.00  0.00    -0.203 F 
ATOM     84  F   UNL A   1      35.538  35.391  28.931  1.00  0.00    -0.200 F 
ATOM     85  C   UNL A   1      34.506  33.303  28.542  1.00  0.00     0.200 A 
ATOM     86  F   UNL A   1      33.506  31.191  28.198  1.00  0.00    -0.200 F 
ATOM     87  F   UNL A   1      33.464  33.909  27.958  1.00  0.00    -0.200 F 
ENDBRANCH  53  77
BRANCH  65  88
ATOM     88  C   UNL A   1      38.835  31.974  36.420  1.00  0.00     0.064 A 
ATOM     89  C   UNL A   1      39.190  33.295  36.728  1.00  0.00     0.173 A 
ATOM     90  C   UNL A   1      37.955  31.309  37.289  1.00  0.00     0.173 A 
ATOM     91  F   UNL A   1      40.038  33.968  35.936  1.00  0.00    -0.203 F 
ATOM     92  C   UNL A   1      38.705  33.917  37.875  1.00  0.00     0.198 A 
ATOM     93  C   UNL A   1      37.451  31.944  38.419  1.00  0.00     0.198 A 
ATOM     94  F   UNL A   1      37.579  30.047  37.034  1.00  0.00    -0.203 F 
ATOM     95  F   UNL A   1      39.095  35.164  38.175  1.00  0.00    -0.200 F 
ATOM     96  C   UNL A   1      37.832  33.243  38.716  1.00  0.00     0.200 A 
ATOM     97  F   UNL A   1      36.597  31.296  39.225  1.00  0.00    -0.200 F 
ATOM     98  F   UNL A   1      37.364  33.844  39.819  1.00  0.00    -0.200 F 
ENDBRANCH  65  88
ENDBRANCH  39  40
ENDBRANCH  32  34
ENDBRANCH  31  32
ENDBRANCH  30  31
ENDBRANCH  29  30
ENDBRANCH  28  29
ENDBRANCH  27  28
ENDBRANCH  26  27
ENDBRANCH  25  26
ENDBRANCH   1  25
TORSDOF 23
ENDMDL
