MODEL 1
REMARK VINA RESULT:      -8.3      0.000      0.000
REMARK SMILES CC(C)C[C@H](NC(N)=O)C(=O)N[C@@H](C(=O)OCCOCCOCCOCCOC(=O)c1ccc(-c2c3nc(c(-c4c(F)c(F)c(F)c(F)c4F)c4ccc([nH]4)c(-c4c(F)c(F)c(F)c(F)c4F)c4nc(c(-c5c(F)c(F)c(F)c(F)c5F)c5ccc2[nH]5)C=C4)C=C3)cc1)C(C)C
REMARK SMILES IDX 21 1 20 2 19 3 18 4 17 5 16 6 14 7 15 8 13 9 12 10 10 11
REMARK SMILES IDX 11 12 5 14 4 15 2 16 1 17 3 18 6 19 7 20 8 22 9 23 94 26
REMARK SMILES IDX 95 27 96 28 22 29 23 30 24 31 25 32 26 33 27 34 28 35 29 36
REMARK SMILES IDX 30 37 31 38 32 39 93 40 33 41 92 42 34 43 35 44 36 45 86 46
REMARK SMILES IDX 37 47 91 48 85 49 87 50 38 51 90 52 84 53 83 54 39 56 71 57
REMARK SMILES IDX 51 58 70 59 52 60 55 61 69 62 88 63 53 64 54 65 68 67 89 68
REMARK SMILES IDX 56 69 40 70 41 71 49 72 42 73 43 74 47 75 50 76 44 77 45 78
REMARK SMILES IDX 48 79 46 80 72 81 73 82 81 83 74 84 75 85 79 86 82 87 76 88
REMARK SMILES IDX 77 89 80 90 78 91 57 92 58 93 66 94 59 95 60 96 64 97 67 98
REMARK SMILES IDX 61 99 62 100 65 101 63 102
REMARK H PARENT 12 13 6 21 8 24 8 25 87 55 55 66
REMARK Flexibility Score: inf
ROOT
ATOM      1  C   UNL A   1      42.815  23.340  27.271  1.00  0.00     0.188 C 
ENDROOT
BRANCH   1   2
ATOM      2  C   UNL A   1      42.908  24.869  27.268  1.00  0.00     0.188 C 
BRANCH   2   3
ATOM      3  O   UNL A   1      41.709  25.580  27.469  1.00  0.00    -0.376 OA
BRANCH   3   4
ATOM      4  C   UNL A   1      40.537  25.239  26.743  1.00  0.00     0.202 C 
BRANCH   4   5
ATOM      5  C   UNL A   1      39.356  24.363  27.236  1.00  0.00     0.261 C 
BRANCH   5   6
ATOM      6  O   UNL A   1      38.166  24.297  26.437  1.00  0.00    -0.462 OA
BRANCH   6   7
ATOM      7  C   UNL A   1      37.759  23.069  26.020  1.00  0.00     0.328 C 
ATOM      8  O   UNL A   1      38.473  22.073  26.061  1.00  0.00    -0.250 OA
BRANCH   7   9
ATOM      9  C   UNL A   1      36.246  23.025  25.643  1.00  0.00     0.194 C 
BRANCH   9  10
ATOM     10  N   UNL A   1      35.353  22.572  26.742  1.00  0.00    -0.341 N 
ATOM     11  C   UNL A   1      34.062  22.877  27.053  1.00  0.00     0.243 C 
ATOM     12  O   UNL A   1      33.592  22.405  28.091  1.00  0.00    -0.273 OA
ATOM     13  H   UNL A   1      35.773  21.933  27.361  1.00  0.00     0.164 HD
BRANCH  11  14
ATOM     14  C   UNL A   1      33.217  23.738  26.115  1.00  0.00     0.173 C 
BRANCH  14  15
ATOM     15  C   UNL A   1      33.694  25.209  26.053  1.00  0.00     0.038 C 
BRANCH  15  16
ATOM     16  C   UNL A   1      34.030  25.773  24.650  1.00  0.00    -0.015 C 
ATOM     17  C   UNL A   1      33.361  25.054  23.484  1.00  0.00     0.007 C 
ATOM     18  C   UNL A   1      33.756  27.277  24.585  1.00  0.00     0.007 C 
ENDBRANCH  15  16
ENDBRANCH  14  15
BRANCH  14  19
ATOM     19  N   UNL A   1      31.848  23.467  26.569  1.00  0.00    -0.327 N 
ATOM     20  C   UNL A   1      31.036  22.455  26.188  1.00  0.00     0.312 C 
ATOM     21  H   UNL A   1      31.479  24.096  27.229  1.00  0.00     0.166 HD
ATOM     22  N   UNL A   1      29.803  22.557  26.746  1.00  0.00    -0.352 N 
ATOM     23  O   UNL A   1      31.311  21.565  25.402  1.00  0.00    -0.249 OA
ATOM     24  H   UNL A   1      29.608  23.285  27.378  1.00  0.00     0.161 HD
ATOM     25  H   UNL A   1      29.105  21.901  26.518  1.00  0.00     0.161 HD
ENDBRANCH  14  19
ENDBRANCH  11  14
ENDBRANCH   9  10
BRANCH   9  26
ATOM     26  C   UNL A   1      36.044  22.132  24.372  1.00  0.00     0.017 C 
ATOM     27  C   UNL A   1      34.597  21.697  24.138  1.00  0.00     0.010 C 
ATOM     28  C   UNL A   1      36.567  22.794  23.092  1.00  0.00     0.010 C 
ENDBRANCH   9  26
ENDBRANCH   7   9
ENDBRANCH   6   7
ENDBRANCH   5   6
ENDBRANCH   4   5
ENDBRANCH   3   4
ENDBRANCH   2   3
ENDBRANCH   1   2
BRANCH   1  29
ATOM     29  O   UNL A   1      42.848  22.741  25.994  1.00  0.00    -0.377 OA
BRANCH  29  30
ATOM     30  C   UNL A   1      43.800  21.706  25.791  1.00  0.00     0.188 C 
BRANCH  30  31
ATOM     31  C   UNL A   1      45.071  21.985  24.958  1.00  0.00     0.188 C 
BRANCH  31  32
ATOM     32  O   UNL A   1      46.196  22.444  25.695  1.00  0.00    -0.376 OA
BRANCH  32  33
ATOM     33  C   UNL A   1      46.316  23.822  26.019  1.00  0.00     0.202 C 
BRANCH  33  34
ATOM     34  C   UNL A   1      45.999  24.869  24.936  1.00  0.00     0.261 C 
BRANCH  34  35
ATOM     35  O   UNL A   1      47.061  25.773  24.595  1.00  0.00    -0.460 OA
BRANCH  35  36
ATOM     36  C   UNL A   1      46.750  27.075  24.462  1.00  0.00     0.338 C 
ATOM     37  O   UNL A   1      46.713  27.725  23.427  1.00  0.00    -0.246 OA
BRANCH  36  38
ATOM     38  C   UNL A   1      46.241  27.565  25.758  1.00  0.00     0.060 A 
ATOM     39  C   UNL A   1      44.871  27.832  25.874  1.00  0.00     0.016 A 
ATOM     40  C   UNL A   1      47.100  27.781  26.838  1.00  0.00     0.016 A 
ATOM     41  C   UNL A   1      44.365  28.384  27.046  1.00  0.00     0.010 A 
ATOM     42  C   UNL A   1      46.597  28.363  28.006  1.00  0.00     0.010 A 
ATOM     43  C   UNL A   1      45.237  28.718  28.089  1.00  0.00    -0.014 A 
BRANCH  43  44
ATOM     44  C   UNL A   1      44.760  29.665  29.124  1.00  0.00     0.031 A 
ATOM     45  C   UNL A   1      44.428  29.115  30.485  1.00  0.00     0.074 A 
ATOM     46  C   UNL A   1      44.714  30.989  28.895  1.00  0.00     0.049 A 
ATOM     47  N   UNL A   1      44.034  29.741  31.565  1.00  0.00    -0.248 NA
ATOM     48  C   UNL A   1      44.564  27.659  30.652  1.00  0.00     0.031 C 
ATOM     49  C   UNL A   1      45.063  31.642  27.637  1.00  0.00     0.029 A 
ATOM     50  N   UNL A   1      44.360  32.021  29.727  1.00  0.00    -0.354 N 
ATOM     51  C   UNL A   1      43.873  28.755  32.531  1.00  0.00     0.074 A 
ATOM     52  C   UNL A   1      44.172  27.488  31.904  1.00  0.00     0.031 C 
ATOM     53  C   UNL A   1      44.903  32.970  27.779  1.00  0.00     0.029 A 
ATOM     54  C   UNL A   1      44.414  33.253  29.128  1.00  0.00     0.049 A 
ATOM     55  H   UNL A   1      44.094  31.889  30.666  1.00  0.00     0.167 HD
ATOM     56  C   UNL A   1      43.521  28.896  33.831  1.00  0.00     0.037 A 
ATOM     57  C   UNL A   1      44.088  34.468  29.613  1.00  0.00     0.037 A 
ATOM     58  C   UNL A   1      43.225  30.159  34.453  1.00  0.00     0.049 A 
ATOM     59  C   UNL A   1      43.623  34.588  31.043  1.00  0.00     0.074 A 
ATOM     60  C   UNL A   1      42.870  30.413  35.766  1.00  0.00     0.029 A 
ATOM     61  N   UNL A   1      43.238  31.382  33.798  1.00  0.00    -0.354 N 
ATOM     62  N   UNL A   1      43.499  33.658  31.960  1.00  0.00    -0.248 NA
ATOM     63  C   UNL A   1      43.262  35.934  31.508  1.00  0.00     0.031 C 
ATOM     64  C   UNL A   1      42.606  31.781  35.890  1.00  0.00     0.029 A 
ATOM     65  C   UNL A   1      42.866  32.390  34.674  1.00  0.00     0.049 A 
ATOM     66  H   UNL A   1      43.477  31.514  32.852  1.00  0.00     0.167 HD
ATOM     67  C   UNL A   1      43.075  34.307  33.113  1.00  0.00     0.074 A 
ATOM     68  C   UNL A   1      42.988  35.715  32.785  1.00  0.00     0.031 C 
ATOM     69  C   UNL A   1      42.783  33.788  34.332  1.00  0.00     0.037 A 
BRANCH  56  70
ATOM     70  C   UNL A   1      43.404  27.647  34.657  1.00  0.00     0.064 A 
ATOM     71  C   UNL A   1      44.489  27.130  35.384  1.00  0.00     0.173 A 
ATOM     72  C   UNL A   1      42.180  26.964  34.737  1.00  0.00     0.173 A 
ATOM     73  F   UNL A   1      45.686  27.733  35.328  1.00  0.00    -0.203 F 
ATOM     74  C   UNL A   1      44.359  25.965  36.136  1.00  0.00     0.198 A 
ATOM     75  C   UNL A   1      42.044  25.820  35.517  1.00  0.00     0.198 A 
ATOM     76  F   UNL A   1      41.111  27.413  34.061  1.00  0.00    -0.203 F 
ATOM     77  F   UNL A   1      45.422  25.462  36.777  1.00  0.00    -0.200 F 
ATOM     78  C   UNL A   1      43.136  25.316  36.208  1.00  0.00     0.200 A 
ATOM     79  F   UNL A   1      40.858  25.202  35.596  1.00  0.00    -0.200 F 
ATOM     80  F   UNL A   1      43.010  24.200  36.938  1.00  0.00    -0.200 F 
ENDBRANCH  56  70
BRANCH  57  81
ATOM     81  C   UNL A   1      44.177  35.669  28.740  1.00  0.00     0.064 A 
ATOM     82  C   UNL A   1      45.359  36.417  28.648  1.00  0.00     0.173 A 
ATOM     83  C   UNL A   1      43.069  36.113  28.004  1.00  0.00     0.173 A 
ATOM     84  F   UNL A   1      46.441  36.048  29.352  1.00  0.00    -0.203 F 
ATOM     85  C   UNL A   1      45.422  37.574  27.875  1.00  0.00     0.198 A 
ATOM     86  C   UNL A   1      43.141  37.251  27.204  1.00  0.00     0.198 A 
ATOM     87  F   UNL A   1      41.912  35.436  28.057  1.00  0.00    -0.203 F 
ATOM     88  F   UNL A   1      46.548  38.300  27.850  1.00  0.00    -0.200 F 
ATOM     89  C   UNL A   1      44.315  37.988  27.149  1.00  0.00     0.200 A 
ATOM     90  F   UNL A   1      42.073  37.637  26.493  1.00  0.00    -0.200 F 
ATOM     91  F   UNL A   1      44.376  39.099  26.403  1.00  0.00    -0.200 F 
ENDBRANCH  57  81
BRANCH  69  92
ATOM     92  C   UNL A   1      42.379  34.753  35.413  1.00  0.00     0.064 A 
ATOM     93  C   UNL A   1      43.327  35.410  36.213  1.00  0.00     0.173 A 
ATOM     94  C   UNL A   1      41.023  35.040  35.638  1.00  0.00     0.173 A 
ATOM     95  F   UNL A   1      44.636  35.165  36.048  1.00  0.00    -0.203 F 
ATOM     96  C   UNL A   1      42.930  36.280  37.226  1.00  0.00     0.198 A 
ATOM     97  C   UNL A   1      40.633  35.942  36.624  1.00  0.00     0.198 A 
ATOM     98  F   UNL A   1      40.075  34.451  34.894  1.00  0.00    -0.203 F 
ATOM     99  F   UNL A   1      43.851  36.842  38.021  1.00  0.00    -0.200 F 
ATOM    100  C   UNL A   1      41.585  36.551  37.425  1.00  0.00     0.200 A 
ATOM    101  F   UNL A   1      39.333  36.216  36.802  1.00  0.00    -0.200 F 
ATOM    102  F   UNL A   1      41.206  37.390  38.399  1.00  0.00    -0.200 F 
ENDBRANCH  69  92
ENDBRANCH  43  44
ENDBRANCH  36  38
ENDBRANCH  35  36
ENDBRANCH  34  35
ENDBRANCH  33  34
ENDBRANCH  32  33
ENDBRANCH  31  32
ENDBRANCH  30  31
ENDBRANCH  29  30
ENDBRANCH   1  29
TORSDOF 26
ENDMDL
MODEL 2
REMARK VINA RESULT:      -8.2      5.960     10.580
REMARK SMILES CC(C)C[C@H](NC(N)=O)C(=O)N[C@@H](C(=O)OCCOCCOCCOCCOC(=O)c1ccc(-c2c3nc(c(-c4c(F)c(F)c(F)c(F)c4F)c4ccc([nH]4)c(-c4c(F)c(F)c(F)c(F)c4F)c4nc(c(-c5c(F)c(F)c(F)c(F)c5F)c5ccc2[nH]5)C=C4)C=C3)cc1)C(C)C
REMARK SMILES IDX 21 1 20 2 19 3 18 4 17 5 16 6 14 7 15 8 13 9 12 10 10 11
REMARK SMILES IDX 11 12 5 14 4 15 2 16 1 17 3 18 6 19 7 20 8 22 9 23 94 26
REMARK SMILES IDX 95 27 96 28 22 29 23 30 24 31 25 32 26 33 27 34 28 35 29 36
REMARK SMILES IDX 30 37 31 38 32 39 93 40 33 41 92 42 34 43 35 44 36 45 86 46
REMARK SMILES IDX 37 47 91 48 85 49 87 50 38 51 90 52 84 53 83 54 39 56 71 57
REMARK SMILES IDX 51 58 70 59 52 60 55 61 69 62 88 63 53 64 54 65 68 67 89 68
REMARK SMILES IDX 56 69 40 70 41 71 49 72 42 73 43 74 47 75 50 76 44 77 45 78
REMARK SMILES IDX 48 79 46 80 72 81 73 82 81 83 74 84 75 85 79 86 82 87 76 88
REMARK SMILES IDX 77 89 80 90 78 91 57 92 58 93 66 94 59 95 60 96 64 97 67 98
REMARK SMILES IDX 61 99 62 100 65 101 63 102
REMARK H PARENT 12 13 6 21 8 24 8 25 87 55 55 66
REMARK Flexibility Score: inf
ROOT
ATOM      1  C   UNL A   1      50.267  25.154  32.300  1.00  0.00     0.188 C 
ENDROOT
BRANCH   1   2
ATOM      2  C   UNL A   1      49.974  23.963  33.217  1.00  0.00     0.188 C 
BRANCH   2   3
ATOM      3  O   UNL A   1      48.935  24.122  34.155  1.00  0.00    -0.376 OA
BRANCH   3   4
ATOM      4  C   UNL A   1      47.759  23.331  34.070  1.00  0.00     0.202 C 
BRANCH   4   5
ATOM      5  C   UNL A   1      47.114  22.496  35.207  1.00  0.00     0.261 C 
BRANCH   5   6
ATOM      6  O   UNL A   1      47.953  22.001  36.261  1.00  0.00    -0.462 OA
BRANCH   6   7
ATOM      7  C   UNL A   1      47.891  20.673  36.540  1.00  0.00     0.328 C 
ATOM      8  O   UNL A   1      47.279  19.868  35.848  1.00  0.00    -0.250 OA
BRANCH   7   9
ATOM      9  C   UNL A   1      48.810  20.257  37.730  1.00  0.00     0.194 C 
BRANCH   9  10
ATOM     10  N   UNL A   1      49.871  19.280  37.372  1.00  0.00    -0.341 N 
ATOM     11  C   UNL A   1      50.887  19.326  36.464  1.00  0.00     0.243 C 
ATOM     12  O   UNL A   1      51.580  18.315  36.323  1.00  0.00    -0.273 OA
ATOM     13  H   UNL A   1      49.833  18.442  37.887  1.00  0.00     0.164 HD
BRANCH  11  14
ATOM     14  C   UNL A   1      51.178  20.609  35.686  1.00  0.00     0.173 C 
BRANCH  14  15
ATOM     15  C   UNL A   1      51.451  20.354  34.184  1.00  0.00     0.038 C 
BRANCH  15  16
ATOM     16  C   UNL A   1      52.931  20.389  33.730  1.00  0.00    -0.015 C 
ATOM     17  C   UNL A   1      53.582  19.025  33.531  1.00  0.00     0.007 C 
ATOM     18  C   UNL A   1      53.100  21.256  32.480  1.00  0.00     0.007 C 
ENDBRANCH  15  16
ENDBRANCH  14  15
BRANCH  14  19
ATOM     19  N   UNL A   1      52.230  21.244  36.489  1.00  0.00    -0.327 N 
ATOM     20  C   UNL A   1      52.105  22.289  37.338  1.00  0.00     0.312 C 
ATOM     21  H   UNL A   1      53.133  20.862  36.399  1.00  0.00     0.166 HD
ATOM     22  N   UNL A   1      53.302  22.671  37.851  1.00  0.00    -0.352 N 
ATOM     23  O   UNL A   1      51.075  22.884  37.603  1.00  0.00    -0.249 OA
ATOM     24  H   UNL A   1      54.118  22.173  37.620  1.00  0.00     0.161 HD
ATOM     25  H   UNL A   1      53.352  23.448  38.454  1.00  0.00     0.161 HD
ENDBRANCH  14  19
ENDBRANCH  11  14
ENDBRANCH   9  10
BRANCH   9  26
ATOM     26  C   UNL A   1      47.935  19.707  38.908  1.00  0.00     0.017 C 
ATOM     27  C   UNL A   1      48.726  18.940  39.968  1.00  0.00     0.010 C 
ATOM     28  C   UNL A   1      47.121  20.804  39.604  1.00  0.00     0.010 C 
ENDBRANCH   9  26
ENDBRANCH   7   9
ENDBRANCH   6   7
ENDBRANCH   5   6
ENDBRANCH   4   5
ENDBRANCH   3   4
ENDBRANCH   2   3
ENDBRANCH   1   2
BRANCH   1  29
ATOM     29  O   UNL A   1      49.246  25.452  31.371  1.00  0.00    -0.377 OA
BRANCH  29  30
ATOM     30  C   UNL A   1      49.638  25.624  30.016  1.00  0.00     0.188 C 
BRANCH  30  31
ATOM     31  C   UNL A   1      48.779  26.499  29.075  1.00  0.00     0.188 C 
BRANCH  31  32
ATOM     32  O   UNL A   1      48.684  26.041  27.733  1.00  0.00    -0.376 OA
BRANCH  32  33
ATOM     33  C   UNL A   1      47.932  24.874  27.435  1.00  0.00     0.202 C 
BRANCH  33  34
ATOM     34  C   UNL A   1      47.024  24.873  26.192  1.00  0.00     0.261 C 
BRANCH  34  35
ATOM     35  O   UNL A   1      45.727  24.278  26.351  1.00  0.00    -0.460 OA
BRANCH  35  36
ATOM     36  C   UNL A   1      44.739  24.718  25.552  1.00  0.00     0.338 C 
ATOM     37  O   UNL A   1      44.526  24.395  24.393  1.00  0.00    -0.246 OA
BRANCH  36  38
ATOM     38  C   UNL A   1      43.800  25.511  26.370  1.00  0.00     0.060 A 
ATOM     39  C   UNL A   1      44.022  26.888  26.487  1.00  0.00     0.016 A 
ATOM     40  C   UNL A   1      42.730  24.906  27.034  1.00  0.00     0.016 A 
ATOM     41  C   UNL A   1      43.220  27.656  27.324  1.00  0.00     0.010 A 
ATOM     42  C   UNL A   1      41.941  25.672  27.898  1.00  0.00     0.010 A 
ATOM     43  C   UNL A   1      42.222  27.038  28.087  1.00  0.00    -0.014 A 
BRANCH  43  44
ATOM     44  C   UNL A   1      41.677  27.773  29.253  1.00  0.00     0.031 A 
ATOM     45  C   UNL A   1      42.420  27.675  30.559  1.00  0.00     0.074 A 
ATOM     46  C   UNL A   1      40.611  28.581  29.135  1.00  0.00     0.049 A 
ATOM     47  N   UNL A   1      42.172  28.255  31.705  1.00  0.00    -0.248 NA
ATOM     48  C   UNL A   1      43.610  26.808  30.570  1.00  0.00     0.031 C 
ATOM     49  C   UNL A   1      39.844  28.798  27.912  1.00  0.00     0.029 A 
ATOM     50  N   UNL A   1      39.996  29.379  30.068  1.00  0.00    -0.354 N 
ATOM     51  C   UNL A   1      43.169  27.818  32.569  1.00  0.00     0.074 A 
ATOM     52  C   UNL A   1      44.002  26.897  31.830  1.00  0.00     0.031 C 
ATOM     53  C   UNL A   1      38.855  29.673  28.169  1.00  0.00     0.029 A 
ATOM     54  C   UNL A   1      38.904  30.052  29.581  1.00  0.00     0.049 A 
ATOM     55  H   UNL A   1      40.308  29.460  30.998  1.00  0.00     0.167 HD
ATOM     56  C   UNL A   1      43.380  28.166  33.861  1.00  0.00     0.037 A 
ATOM     57  C   UNL A   1      38.037  30.869  30.212  1.00  0.00     0.037 A 
ATOM     58  C   UNL A   1      42.549  29.084  34.594  1.00  0.00     0.049 A 
ATOM     59  C   UNL A   1      38.249  31.179  31.673  1.00  0.00     0.074 A 
ATOM     60  C   UNL A   1      42.682  29.514  35.902  1.00  0.00     0.029 A 
ATOM     61  N   UNL A   1      41.419  29.706  34.081  1.00  0.00    -0.354 N 
ATOM     62  N   UNL A   1      39.209  30.786  32.477  1.00  0.00    -0.248 NA
ATOM     63  C   UNL A   1      37.259  32.057  32.312  1.00  0.00     0.031 C 
ATOM     64  C   UNL A   1      41.598  30.345  36.201  1.00  0.00     0.029 A 
ATOM     65  C   UNL A   1      40.828  30.491  35.059  1.00  0.00     0.049 A 
ATOM     66  H   UNL A   1      41.088  29.605  33.160  1.00  0.00     0.167 HD
ATOM     67  C   UNL A   1      38.955  31.390  33.703  1.00  0.00     0.074 A 
ATOM     68  C   UNL A   1      37.765  32.195  33.528  1.00  0.00     0.031 C 
ATOM     69  C   UNL A   1      39.642  31.288  34.868  1.00  0.00     0.037 A 
BRANCH  56  70
ATOM     70  C   UNL A   1      44.536  27.523  34.572  1.00  0.00     0.064 A 
ATOM     71  C   UNL A   1      45.824  28.083  34.557  1.00  0.00     0.173 A 
ATOM     72  C   UNL A   1      44.348  26.336  35.297  1.00  0.00     0.173 A 
ATOM     73  F   UNL A   1      46.063  29.207  33.864  1.00  0.00    -0.203 F 
ATOM     74  C   UNL A   1      46.883  27.464  35.217  1.00  0.00     0.198 A 
ATOM     75  C   UNL A   1      45.401  25.739  35.984  1.00  0.00     0.198 A 
ATOM     76  F   UNL A   1      43.138  25.758  35.345  1.00  0.00    -0.203 F 
ATOM     77  F   UNL A   1      48.113  27.987  35.142  1.00  0.00    -0.200 F 
ATOM     78  C   UNL A   1      46.669  26.298  35.936  1.00  0.00     0.200 A 
ATOM     79  F   UNL A   1      45.189  24.620  36.691  1.00  0.00    -0.200 F 
ATOM     80  F   UNL A   1      47.687  25.708  36.577  1.00  0.00    -0.200 F 
ENDBRANCH  56  70
BRANCH  57  81
ATOM     81  C   UNL A   1      36.881  31.443  29.474  1.00  0.00     0.064 A 
ATOM     82  C   UNL A   1      35.812  30.639  29.054  1.00  0.00     0.173 A 
ATOM     83  C   UNL A   1      36.836  32.806  29.145  1.00  0.00     0.173 A 
ATOM     84  F   UNL A   1      35.818  29.324  29.323  1.00  0.00    -0.203 F 
ATOM     85  C   UNL A   1      34.758  31.170  28.313  1.00  0.00     0.198 A 
ATOM     86  C   UNL A   1      35.766  33.343  28.433  1.00  0.00     0.198 A 
ATOM     87  F   UNL A   1      37.833  33.621  29.520  1.00  0.00    -0.203 F 
ATOM     88  F   UNL A   1      33.778  30.366  27.876  1.00  0.00    -0.200 F 
ATOM     89  C   UNL A   1      34.733  32.522  28.007  1.00  0.00     0.200 A 
ATOM     90  F   UNL A   1      35.739  34.653  28.154  1.00  0.00    -0.200 F 
ATOM     91  F   UNL A   1      33.717  33.032  27.297  1.00  0.00    -0.200 F 
ENDBRANCH  57  81
BRANCH  69  92
ATOM     92  C   UNL A   1      39.144  32.096  36.035  1.00  0.00     0.064 A 
ATOM     93  C   UNL A   1      39.562  33.419  36.252  1.00  0.00     0.173 A 
ATOM     94  C   UNL A   1      38.221  31.547  36.938  1.00  0.00     0.173 A 
ATOM     95  F   UNL A   1      40.451  33.991  35.427  1.00  0.00    -0.203 F 
ATOM     96  C   UNL A   1      39.109  34.142  37.353  1.00  0.00     0.198 A 
ATOM     97  C   UNL A   1      37.738  32.287  38.014  1.00  0.00     0.198 A 
ATOM     98  F   UNL A   1      37.777  30.292  36.772  1.00  0.00    -0.203 F 
ATOM     99  F   UNL A   1      39.575  35.379  37.577  1.00  0.00    -0.200 F 
ATOM    100  C   UNL A   1      38.193  33.578  38.228  1.00  0.00     0.200 A 
ATOM    101  F   UNL A   1      36.839  31.746  38.848  1.00  0.00    -0.200 F 
ATOM    102  F   UNL A   1      37.757  34.277  39.286  1.00  0.00    -0.200 F 
ENDBRANCH  69  92
ENDBRANCH  43  44
ENDBRANCH  36  38
ENDBRANCH  35  36
ENDBRANCH  34  35
ENDBRANCH  33  34
ENDBRANCH  32  33
ENDBRANCH  31  32
ENDBRANCH  30  31
ENDBRANCH  29  30
ENDBRANCH   1  29
TORSDOF 26
ENDMDL
MODEL 3
REMARK VINA RESULT:      -8.0      3.294      4.268
REMARK SMILES CC(C)C[C@H](NC(N)=O)C(=O)N[C@@H](C(=O)OCCOCCOCCOCCOC(=O)c1ccc(-c2c3nc(c(-c4c(F)c(F)c(F)c(F)c4F)c4ccc([nH]4)c(-c4c(F)c(F)c(F)c(F)c4F)c4nc(c(-c5c(F)c(F)c(F)c(F)c5F)c5ccc2[nH]5)C=C4)C=C3)cc1)C(C)C
REMARK SMILES IDX 21 1 20 2 19 3 18 4 17 5 16 6 14 7 15 8 13 9 12 10 10 11
REMARK SMILES IDX 11 12 5 14 4 15 2 16 1 17 3 18 6 19 7 20 8 22 9 23 94 26
REMARK SMILES IDX 95 27 96 28 22 29 23 30 24 31 25 32 26 33 27 34 28 35 29 36
REMARK SMILES IDX 30 37 31 38 32 39 93 40 33 41 92 42 34 43 35 44 36 45 86 46
REMARK SMILES IDX 37 47 91 48 85 49 87 50 38 51 90 52 84 53 83 54 39 56 71 57
REMARK SMILES IDX 51 58 70 59 52 60 55 61 69 62 88 63 53 64 54 65 68 67 89 68
REMARK SMILES IDX 56 69 40 70 41 71 49 72 42 73 43 74 47 75 50 76 44 77 45 78
REMARK SMILES IDX 48 79 46 80 72 81 73 82 81 83 74 84 75 85 79 86 82 87 76 88
REMARK SMILES IDX 77 89 80 90 78 91 57 92 58 93 66 94 59 95 60 96 64 97 67 98
REMARK SMILES IDX 61 99 62 100 65 101 63 102
REMARK H PARENT 12 13 6 21 8 24 8 25 87 55 55 66
REMARK Flexibility Score: inf
ROOT
ATOM      1  C   UNL A   1      43.305  22.872  27.000  1.00  0.00     0.188 C 
ENDROOT
BRANCH   1   2
ATOM      2  C   UNL A   1      43.807  24.272  27.367  1.00  0.00     0.188 C 
BRANCH   2   3
ATOM      3  O   UNL A   1      42.971  25.052  28.189  1.00  0.00    -0.376 OA
BRANCH   3   4
ATOM      4  C   UNL A   1      41.784  25.632  27.668  1.00  0.00     0.202 C 
BRANCH   4   5
ATOM      5  C   UNL A   1      40.560  26.135  28.477  1.00  0.00     0.261 C 
BRANCH   5   6
ATOM      6  O   UNL A   1      40.661  27.384  29.175  1.00  0.00    -0.462 OA
BRANCH   6   7
ATOM      7  C   UNL A   1      39.536  28.141  29.274  1.00  0.00     0.328 C 
ATOM      8  O   UNL A   1      38.602  28.064  28.484  1.00  0.00    -0.250 OA
BRANCH   7   9
ATOM      9  C   UNL A   1      39.487  28.990  30.581  1.00  0.00     0.194 C 
BRANCH   9  10
ATOM     10  N   UNL A   1      38.142  29.069  31.210  1.00  0.00    -0.341 N 
ATOM     11  C   UNL A   1      37.110  29.946  31.051  1.00  0.00     0.243 C 
ATOM     12  O   UNL A   1      36.124  29.812  31.779  1.00  0.00    -0.273 OA
ATOM     13  H   UNL A   1      37.963  28.356  31.863  1.00  0.00     0.164 HD
BRANCH  11  14
ATOM     14  C   UNL A   1      37.165  31.025  29.971  1.00  0.00     0.173 C 
BRANCH  14  15
ATOM     15  C   UNL A   1      36.481  32.345  30.403  1.00  0.00     0.038 C 
BRANCH  15  16
ATOM     16  C   UNL A   1      37.415  33.525  30.767  1.00  0.00    -0.015 C 
ATOM     17  C   UNL A   1      38.106  33.412  32.121  1.00  0.00     0.007 C 
ATOM     18  C   UNL A   1      38.438  33.777  29.658  1.00  0.00     0.007 C 
ENDBRANCH  15  16
ENDBRANCH  14  15
BRANCH  14  19
ATOM     19  N   UNL A   1      36.650  30.327  28.787  1.00  0.00    -0.327 N 
ATOM     20  C   UNL A   1      35.890  30.837  27.791  1.00  0.00     0.312 C 
ATOM     21  H   UNL A   1      36.887  29.375  28.709  1.00  0.00     0.166 HD
ATOM     22  N   UNL A   1      35.523  29.886  26.896  1.00  0.00    -0.352 N 
ATOM     23  O   UNL A   1      35.509  31.991  27.692  1.00  0.00    -0.249 OA
ATOM     24  H   UNL A   1      35.845  28.963  27.000  1.00  0.00     0.161 HD
ATOM     25  H   UNL A   1      34.934  30.122  26.142  1.00  0.00     0.161 HD
ENDBRANCH  14  19
ENDBRANCH  11  14
ENDBRANCH   9  10
BRANCH   9  26
ATOM     26  C   UNL A   1      40.043  30.427  30.300  1.00  0.00     0.017 C 
ATOM     27  C   UNL A   1      40.658  31.109  31.522  1.00  0.00     0.010 C 
ATOM     28  C   UNL A   1      41.067  30.454  29.159  1.00  0.00     0.010 C 
ENDBRANCH   9  26
ENDBRANCH   7   9
ENDBRANCH   6   7
ENDBRANCH   5   6
ENDBRANCH   4   5
ENDBRANCH   3   4
ENDBRANCH   2   3
ENDBRANCH   1   2
BRANCH   1  29
ATOM     29  O   UNL A   1      43.542  22.488  25.663  1.00  0.00    -0.377 OA
BRANCH  29  30
ATOM     30  C   UNL A   1      44.127  21.211  25.452  1.00  0.00     0.188 C 
BRANCH  30  31
ATOM     31  C   UNL A   1      45.635  21.102  25.135  1.00  0.00     0.188 C 
BRANCH  31  32
ATOM     32  O   UNL A   1      46.404  22.264  25.414  1.00  0.00    -0.376 OA
BRANCH  32  33
ATOM     33  C   UNL A   1      46.612  23.235  24.399  1.00  0.00     0.202 C 
BRANCH  33  34
ATOM     34  C   UNL A   1      46.149  24.682  24.650  1.00  0.00     0.261 C 
BRANCH  34  35
ATOM     35  O   UNL A   1      47.183  25.673  24.746  1.00  0.00    -0.460 OA
BRANCH  35  36
ATOM     36  C   UNL A   1      46.825  26.961  24.587  1.00  0.00     0.338 C 
ATOM     37  O   UNL A   1      46.778  27.592  23.542  1.00  0.00    -0.246 OA
BRANCH  36  38
ATOM     38  C   UNL A   1      46.279  27.450  25.869  1.00  0.00     0.060 A 
ATOM     39  C   UNL A   1      44.905  27.705  25.950  1.00  0.00     0.016 A 
ATOM     40  C   UNL A   1      47.110  27.679  26.968  1.00  0.00     0.016 A 
ATOM     41  C   UNL A   1      44.365  28.258  27.106  1.00  0.00     0.010 A 
ATOM     42  C   UNL A   1      46.572  28.261  28.121  1.00  0.00     0.010 A 
ATOM     43  C   UNL A   1      45.208  28.603  28.169  1.00  0.00    -0.014 A 
BRANCH  43  44
ATOM     44  C   UNL A   1      44.697  29.550  29.188  1.00  0.00     0.031 A 
ATOM     45  C   UNL A   1      44.347  29.004  30.547  1.00  0.00     0.074 A 
ATOM     46  C   UNL A   1      44.637  30.871  28.949  1.00  0.00     0.049 A 
ATOM     47  N   UNL A   1      43.923  29.631  31.614  1.00  0.00    -0.248 NA
ATOM     48  C   UNL A   1      44.502  27.551  30.726  1.00  0.00     0.031 C 
ATOM     49  C   UNL A   1      45.000  31.521  27.693  1.00  0.00     0.029 A 
ATOM     50  N   UNL A   1      44.251  31.904  29.768  1.00  0.00    -0.354 N 
ATOM     51  C   UNL A   1      43.758  28.650  32.584  1.00  0.00     0.074 A 
ATOM     52  C   UNL A   1      44.088  27.383  31.971  1.00  0.00     0.031 C 
ATOM     53  C   UNL A   1      44.818  32.848  27.823  1.00  0.00     0.029 A 
ATOM     54  C   UNL A   1      44.298  33.133  29.160  1.00  0.00     0.049 A 
ATOM     55  H   UNL A   1      43.968  31.774  30.702  1.00  0.00     0.167 HD
ATOM     56  C   UNL A   1      43.379  28.794  33.876  1.00  0.00     0.037 A 
ATOM     57  C   UNL A   1      43.945  34.345  29.631  1.00  0.00     0.037 A 
ATOM     58  C   UNL A   1      43.053  30.056  34.484  1.00  0.00     0.049 A 
ATOM     59  C   UNL A   1      43.451  34.468  31.051  1.00  0.00     0.074 A 
ATOM     60  C   UNL A   1      42.669  30.314  35.787  1.00  0.00     0.029 A 
ATOM     61  N   UNL A   1      43.060  31.276  33.821  1.00  0.00    -0.354 N 
ATOM     62  N   UNL A   1      43.323  33.542  31.971  1.00  0.00    -0.248 NA
ATOM     63  C   UNL A   1      43.061  35.812  31.500  1.00  0.00     0.031 C 
ATOM     64  C   UNL A   1      42.382  31.678  35.897  1.00  0.00     0.029 A 
ATOM     65  C   UNL A   1      42.656  32.284  34.682  1.00  0.00     0.049 A 
ATOM     66  H   UNL A   1      43.315  31.405  32.879  1.00  0.00     0.167 HD
ATOM     67  C   UNL A   1      42.867  34.193  33.112  1.00  0.00     0.074 A 
ATOM     68  C   UNL A   1      42.765  35.597  32.773  1.00  0.00     0.031 C 
ATOM     69  C   UNL A   1      42.560  33.678  34.329  1.00  0.00     0.037 A 
BRANCH  56  70
ATOM     70  C   UNL A   1      43.265  27.549  34.708  1.00  0.00     0.064 A 
ATOM     71  C   UNL A   1      44.333  27.069  35.482  1.00  0.00     0.173 A 
ATOM     72  C   UNL A   1      42.058  26.832  34.745  1.00  0.00     0.173 A 
ATOM     73  F   UNL A   1      45.514  27.706  35.468  1.00  0.00    -0.203 F 
ATOM     74  C   UNL A   1      44.207  25.907  36.239  1.00  0.00     0.198 A 
ATOM     75  C   UNL A   1      41.923  25.691  35.530  1.00  0.00     0.198 A 
ATOM     76  F   UNL A   1      41.004  27.245  34.024  1.00  0.00    -0.203 F 
ATOM     77  F   UNL A   1      45.257  25.440  36.926  1.00  0.00    -0.200 F 
ATOM     78  C   UNL A   1      43.000  25.224  36.269  1.00  0.00     0.200 A 
ATOM     79  F   UNL A   1      40.753  25.040  35.568  1.00  0.00    -0.200 F 
ATOM     80  F   UNL A   1      42.877  24.110  37.004  1.00  0.00    -0.200 F 
ENDBRANCH  56  70
BRANCH  57  81
ATOM     81  C   UNL A   1      44.033  35.542  28.752  1.00  0.00     0.064 A 
ATOM     82  C   UNL A   1      45.230  36.260  28.616  1.00  0.00     0.173 A 
ATOM     83  C   UNL A   1      42.911  36.012  28.054  1.00  0.00     0.173 A 
ATOM     84  F   UNL A   1      46.326  35.866  29.282  1.00  0.00    -0.203 F 
ATOM     85  C   UNL A   1      45.294  37.414  27.837  1.00  0.00     0.198 A 
ATOM     86  C   UNL A   1      42.984  37.146  27.248  1.00  0.00     0.198 A 
ATOM     87  F   UNL A   1      41.741  35.365  28.150  1.00  0.00    -0.203 F 
ATOM     88  F   UNL A   1      46.436  38.111  27.770  1.00  0.00    -0.200 F 
ATOM     89  C   UNL A   1      44.173  37.853  27.150  1.00  0.00     0.200 A 
ATOM     90  F   UNL A   1      41.902  37.557  26.574  1.00  0.00    -0.200 F 
ATOM     91  F   UNL A   1      44.236  38.961  26.398  1.00  0.00    -0.200 F 
ENDBRANCH  57  81
BRANCH  69  92
ATOM     92  C   UNL A   1      42.120  34.644  35.395  1.00  0.00     0.064 A 
ATOM     93  C   UNL A   1      43.042  35.313  36.215  1.00  0.00     0.173 A 
ATOM     94  C   UNL A   1      40.757  34.919  35.586  1.00  0.00     0.173 A 
ATOM     95  F   UNL A   1      44.357  35.080  36.082  1.00  0.00    -0.203 F 
ATOM     96  C   UNL A   1      42.613  36.185  37.213  1.00  0.00     0.198 A 
ATOM     97  C   UNL A   1      40.334  35.821  36.558  1.00  0.00     0.198 A 
ATOM     98  F   UNL A   1      39.832  34.318  34.822  1.00  0.00    -0.203 F 
ATOM     99  F   UNL A   1      43.509  36.759  38.028  1.00  0.00    -0.200 F 
ATOM    100  C   UNL A   1      41.261  36.443  37.379  1.00  0.00     0.200 A 
ATOM    101  F   UNL A   1      39.028  36.084  36.703  1.00  0.00    -0.200 F 
ATOM    102  F   UNL A   1      40.851  37.283  38.339  1.00  0.00    -0.200 F 
ENDBRANCH  69  92
ENDBRANCH  43  44
ENDBRANCH  36  38
ENDBRANCH  35  36
ENDBRANCH  34  35
ENDBRANCH  33  34
ENDBRANCH  32  33
ENDBRANCH  31  32
ENDBRANCH  30  31
ENDBRANCH  29  30
ENDBRANCH   1  29
TORSDOF 26
ENDMDL
