MODEL 1
REMARK VINA RESULT:     -10.4      0.000      0.000
REMARK SMILES O=C(OCCOCCOCCOCCOC(=O)c1ccc(-c2c3nc(c(-c4c(F)c(F)c(F)c(F)c4F)c4ccc([nH]4)c(-c4c(F)c(F)c(F)c(F)c4F)c4nc(c(-c5c(F)c(F)c(F)c(F)c5F)c5ccc2[nH]5)C=C4)C=C3)cc1)C1=Cc2cc(Cl)cc(-c3ccccc3)c2O[C@@H]1C(F)(F)F
REMARK SMILES IDX 10 1 9 2 8 3 7 4 6 5 5 6 4 7 3 8 2 9 1 10 81 11 82 12 97 13
REMARK SMILES IDX 83 14 96 15 84 16 95 17 85 18 88 19 86 20 87 21 98 22 99 23
REMARK SMILES IDX 100 24 101 25 89 26 90 27 94 28 91 29 93 30 92 31 11 32
REMARK SMILES IDX 12 33 13 34 14 35 15 36 16 37 17 38 18 39 19 40 80 41 20 42
REMARK SMILES IDX 79 43 21 44 22 45 23 46 73 47 24 48 78 49 72 50 74 51 25 52
REMARK SMILES IDX 77 53 71 54 70 55 26 57 58 58 38 59 57 60 39 61 42 62 56 63
REMARK SMILES IDX 75 64 40 65 41 66 55 68 76 69 43 70 27 71 28 72 36 73 29 74
REMARK SMILES IDX 30 75 34 76 37 77 31 78 32 79 35 80 33 81 59 82 60 83 68 84
REMARK SMILES IDX 61 85 62 86 66 87 69 88 63 89 64 90 67 91 65 92 44 93 45 94
REMARK SMILES IDX 53 95 46 96 47 97 51 98 54 99 48 100 49 101 52 102 50 103
REMARK H PARENT 74 56 42 67
REMARK Flexibility Score: inf
ROOT
ATOM      1  C   UNL A   1      37.886  21.464  24.959  1.00  0.00     0.188 C 
ENDROOT
BRANCH   1   2
ATOM      2  O   UNL A   1      36.547  21.811  25.308  1.00  0.00    -0.377 OA
BRANCH   2   3
ATOM      3  C   UNL A   1      35.570  20.792  25.098  1.00  0.00     0.188 C 
BRANCH   3   4
ATOM      4  C   UNL A   1      34.242  21.105  25.775  1.00  0.00     0.188 C 
BRANCH   4   5
ATOM      5  O   UNL A   1      34.399  21.432  27.137  1.00  0.00    -0.376 OA
BRANCH   5   6
ATOM      6  C   UNL A   1      33.742  22.579  27.639  1.00  0.00     0.202 C 
BRANCH   6   7
ATOM      7  C   UNL A   1      32.282  22.799  27.216  1.00  0.00     0.261 C 
BRANCH   7   8
ATOM      8  O   UNL A   1      31.952  24.167  26.883  1.00  0.00    -0.460 OA
BRANCH   8   9
ATOM      9  C   UNL A   1      30.741  24.403  26.296  1.00  0.00     0.338 C 
ATOM     10  O   UNL A   1      29.682  24.249  26.883  1.00  0.00    -0.246 OA
BRANCH   9  11
ATOM     11  C   UNL A   1      30.853  24.790  24.858  1.00  0.00     0.087 C 
ATOM     12  C   UNL A   1      29.878  25.510  24.277  1.00  0.00     0.027 C 
ATOM     13  C   UNL A   1      32.230  24.997  24.335  1.00  0.00     0.316 C 
ATOM     14  C   UNL A   1      30.256  26.867  23.864  1.00  0.00     0.019 A 
ATOM     15  O   UNL A   1      32.574  26.409  24.305  1.00  0.00    -0.475 OA
ATOM     16  C   UNL A   1      29.328  27.779  23.363  1.00  0.00     0.032 A 
ATOM     17  C   UNL A   1      31.538  27.316  24.217  1.00  0.00     0.135 A 
ATOM     18  C   UNL A   1      29.675  29.127  23.281  1.00  0.00     0.042 A 
ATOM     19  C   UNL A   1      31.752  28.695  24.453  1.00  0.00     0.026 A 
ATOM     20  Cl  UNL A   1      28.603  30.248  22.541  1.00  0.00    -0.084 Cl
ATOM     21  C   UNL A   1      30.840  29.593  23.885  1.00  0.00     0.033 A 
BRANCH  13  22
ATOM     22  C   UNL A   1      32.488  24.124  23.094  1.00  0.00     0.430 C 
ATOM     23  F   UNL A   1      32.349  24.830  21.948  1.00  0.00    -0.167 F 
ATOM     24  F   UNL A   1      33.781  23.683  23.104  1.00  0.00    -0.167 F 
ATOM     25  F   UNL A   1      31.703  23.033  23.018  1.00  0.00    -0.167 F 
ENDBRANCH  13  22
BRANCH  19  26
ATOM     26  C   UNL A   1      32.661  29.222  25.500  1.00  0.00    -0.015 A 
ATOM     27  C   UNL A   1      32.315  30.409  26.197  1.00  0.00     0.009 A 
ATOM     28  C   UNL A   1      33.857  28.607  25.854  1.00  0.00     0.009 A 
ATOM     29  C   UNL A   1      33.098  30.918  27.243  1.00  0.00     0.001 A 
ATOM     30  C   UNL A   1      34.616  29.095  26.931  1.00  0.00     0.001 A 
ATOM     31  C   UNL A   1      34.239  30.238  27.632  1.00  0.00     0.000 A 
ENDBRANCH  19  26
ENDBRANCH   9  11
ENDBRANCH   8   9
ENDBRANCH   7   8
ENDBRANCH   6   7
ENDBRANCH   5   6
ENDBRANCH   4   5
ENDBRANCH   3   4
ENDBRANCH   2   3
ENDBRANCH   1   2
BRANCH   1  32
ATOM     32  C   UNL A   1      38.902  21.462  26.124  1.00  0.00     0.188 C 
BRANCH  32  33
ATOM     33  O   UNL A   1      39.851  20.423  26.324  1.00  0.00    -0.376 OA
BRANCH  33  34
ATOM     34  C   UNL A   1      41.216  20.720  26.127  1.00  0.00     0.202 C 
BRANCH  34  35
ATOM     35  C   UNL A   1      41.497  22.198  25.804  1.00  0.00     0.261 C 
BRANCH  35  36
ATOM     36  O   UNL A   1      42.726  22.448  25.086  1.00  0.00    -0.460 OA
BRANCH  36  37
ATOM     37  C   UNL A   1      43.794  22.866  25.822  1.00  0.00     0.338 C 
ATOM     38  O   UNL A   1      44.872  22.334  25.889  1.00  0.00    -0.246 OA
BRANCH  37  39
ATOM     39  C   UNL A   1      43.472  24.189  26.461  1.00  0.00     0.060 A 
ATOM     40  C   UNL A   1      43.311  25.307  25.628  1.00  0.00     0.016 A 
ATOM     41  C   UNL A   1      43.313  24.351  27.843  1.00  0.00     0.016 A 
ATOM     42  C   UNL A   1      43.052  26.582  26.167  1.00  0.00     0.010 A 
ATOM     43  C   UNL A   1      43.045  25.626  28.382  1.00  0.00     0.010 A 
ATOM     44  C   UNL A   1      42.950  26.764  27.554  1.00  0.00    -0.014 A 
BRANCH  44  45
ATOM     45  C   UNL A   1      42.976  28.139  28.153  1.00  0.00     0.031 A 
ATOM     46  C   UNL A   1      44.322  28.767  28.410  1.00  0.00     0.074 A 
ATOM     47  C   UNL A   1      41.874  28.856  28.461  1.00  0.00     0.049 A 
ATOM     48  N   UNL A   1      44.611  29.951  28.891  1.00  0.00    -0.248 NA
ATOM     49  C   UNL A   1      45.499  27.959  28.057  1.00  0.00     0.031 C 
ATOM     50  C   UNL A   1      40.501  28.453  28.205  1.00  0.00     0.029 A 
ATOM     51  N   UNL A   1      41.737  30.078  29.086  1.00  0.00    -0.354 N 
ATOM     52  C   UNL A   1      45.993  30.049  28.836  1.00  0.00     0.074 A 
ATOM     53  C   UNL A   1      46.493  28.771  28.381  1.00  0.00     0.031 C 
ATOM     54  C   UNL A   1      39.656  29.343  28.756  1.00  0.00     0.029 A 
ATOM     55  C   UNL A   1      40.431  30.420  29.361  1.00  0.00     0.049 A 
ATOM     56  H   UNL A   1      42.503  30.653  29.315  1.00  0.00     0.167 HD
ATOM     57  C   UNL A   1      46.781  31.123  29.084  1.00  0.00     0.037 A 
ATOM     58  C   UNL A   1      39.914  31.485  30.009  1.00  0.00     0.037 A 
ATOM     59  C   UNL A   1      46.311  32.391  29.569  1.00  0.00     0.049 A 
ATOM     60  C   UNL A   1      40.826  32.611  30.431  1.00  0.00     0.074 A 
ATOM     61  C   UNL A   1      47.043  33.534  29.842  1.00  0.00     0.029 A 
ATOM     62  N   UNL A   1      44.990  32.682  29.873  1.00  0.00    -0.354 N 
ATOM     63  N   UNL A   1      42.122  32.726  30.281  1.00  0.00    -0.248 NA
ATOM     64  C   UNL A   1      40.193  33.784  31.056  1.00  0.00     0.031 C 
ATOM     65  C   UNL A   1      46.175  34.496  30.369  1.00  0.00     0.029 A 
ATOM     66  C   UNL A   1      44.891  33.974  30.363  1.00  0.00     0.049 A 
ATOM     67  H   UNL A   1      44.234  32.061  29.757  1.00  0.00     0.167 HD
ATOM     68  C   UNL A   1      42.448  34.000  30.731  1.00  0.00     0.074 A 
ATOM     69  C   UNL A   1      41.213  34.623  31.153  1.00  0.00     0.031 C 
ATOM     70  C   UNL A   1      43.662  34.602  30.776  1.00  0.00     0.037 A 
BRANCH  57  71
ATOM     71  C   UNL A   1      48.247  30.963  28.808  1.00  0.00     0.064 A 
ATOM     72  C   UNL A   1      49.107  30.406  29.768  1.00  0.00     0.173 A 
ATOM     73  C   UNL A   1      48.792  31.347  27.577  1.00  0.00     0.173 A 
ATOM     74  F   UNL A   1      48.634  30.040  30.970  1.00  0.00    -0.203 F 
ATOM     75  C   UNL A   1      50.468  30.266  29.513  1.00  0.00     0.198 A 
ATOM     76  C   UNL A   1      50.148  31.176  27.314  1.00  0.00     0.198 A 
ATOM     77  F   UNL A   1      48.011  31.883  26.628  1.00  0.00    -0.203 F 
ATOM     78  F   UNL A   1      51.280  29.781  30.462  1.00  0.00    -0.200 F 
ATOM     79  C   UNL A   1      50.985  30.644  28.283  1.00  0.00     0.200 A 
ATOM     80  F   UNL A   1      50.646  31.532  26.122  1.00  0.00    -0.200 F 
ATOM     81  F   UNL A   1      52.295  30.503  28.036  1.00  0.00    -0.200 F 
ENDBRANCH  57  71
BRANCH  58  82
ATOM     82  C   UNL A   1      38.450  31.576  30.287  1.00  0.00     0.064 A 
ATOM     83  C   UNL A   1      37.593  32.323  29.467  1.00  0.00     0.173 A 
ATOM     84  C   UNL A   1      37.900  30.997  31.441  1.00  0.00     0.173 A 
ATOM     85  F   UNL A   1      38.073  32.922  28.367  1.00  0.00    -0.203 F 
ATOM     86  C   UNL A   1      36.257  32.528  29.813  1.00  0.00     0.198 A 
ATOM     87  C   UNL A   1      36.556  31.178  31.770  1.00  0.00     0.198 A 
ATOM     88  F   UNL A   1      38.672  30.274  32.265  1.00  0.00    -0.203 F 
ATOM     89  F   UNL A   1      35.483  33.314  29.051  1.00  0.00    -0.200 F 
ATOM     90  C   UNL A   1      35.740  31.957  30.965  1.00  0.00     0.200 A 
ATOM     91  F   UNL A   1      36.059  30.617  32.881  1.00  0.00    -0.200 F 
ATOM     92  F   UNL A   1      34.462  32.170  31.307  1.00  0.00    -0.200 F 
ENDBRANCH  58  82
BRANCH  70  93
ATOM     93  C   UNL A   1      43.715  36.028  31.253  1.00  0.00     0.064 A 
ATOM     94  C   UNL A   1      43.744  36.356  32.617  1.00  0.00     0.173 A 
ATOM     95  C   UNL A   1      43.751  37.084  30.328  1.00  0.00     0.173 A 
ATOM     96  F   UNL A   1      43.701  35.388  33.545  1.00  0.00    -0.203 F 
ATOM     97  C   UNL A   1      43.765  37.684  33.036  1.00  0.00     0.198 A 
ATOM     98  C   UNL A   1      43.813  38.410  30.750  1.00  0.00     0.198 A 
ATOM     99  F   UNL A   1      43.735  36.832  29.010  1.00  0.00    -0.203 F 
ATOM    100  F   UNL A   1      43.722  37.971  34.344  1.00  0.00    -0.200 F 
ATOM    101  C   UNL A   1      43.805  38.710  32.103  1.00  0.00     0.200 A 
ATOM    102  F   UNL A   1      43.871  39.398  29.846  1.00  0.00    -0.200 F 
ATOM    103  F   UNL A   1      43.827  39.986  32.509  1.00  0.00    -0.200 F 
ENDBRANCH  70  93
ENDBRANCH  44  45
ENDBRANCH  37  39
ENDBRANCH  36  37
ENDBRANCH  35  36
ENDBRANCH  34  35
ENDBRANCH  33  34
ENDBRANCH  32  33
ENDBRANCH   1  32
TORSDOF 22
ENDMDL
MODEL 2
REMARK VINA RESULT:     -10.1      3.231      5.615
REMARK SMILES O=C(OCCOCCOCCOCCOC(=O)c1ccc(-c2c3nc(c(-c4c(F)c(F)c(F)c(F)c4F)c4ccc([nH]4)c(-c4c(F)c(F)c(F)c(F)c4F)c4nc(c(-c5c(F)c(F)c(F)c(F)c5F)c5ccc2[nH]5)C=C4)C=C3)cc1)C1=Cc2cc(Cl)cc(-c3ccccc3)c2O[C@@H]1C(F)(F)F
REMARK SMILES IDX 10 1 9 2 8 3 7 4 6 5 5 6 4 7 3 8 2 9 1 10 81 11 82 12 97 13
REMARK SMILES IDX 83 14 96 15 84 16 95 17 85 18 88 19 86 20 87 21 98 22 99 23
REMARK SMILES IDX 100 24 101 25 89 26 90 27 94 28 91 29 93 30 92 31 11 32
REMARK SMILES IDX 12 33 13 34 14 35 15 36 16 37 17 38 18 39 19 40 80 41 20 42
REMARK SMILES IDX 79 43 21 44 22 45 23 46 73 47 24 48 78 49 72 50 74 51 25 52
REMARK SMILES IDX 77 53 71 54 70 55 26 57 58 58 38 59 57 60 39 61 42 62 56 63
REMARK SMILES IDX 75 64 40 65 41 66 55 68 76 69 43 70 27 71 28 72 36 73 29 74
REMARK SMILES IDX 30 75 34 76 37 77 31 78 32 79 35 80 33 81 59 82 60 83 68 84
REMARK SMILES IDX 61 85 62 86 66 87 69 88 63 89 64 90 67 91 65 92 44 93 45 94
REMARK SMILES IDX 53 95 46 96 47 97 51 98 54 99 48 100 49 101 52 102 50 103
REMARK H PARENT 74 56 42 67
REMARK Flexibility Score: inf
ROOT
ATOM      1  C   UNL A   1      38.628  22.038  25.431  1.00  0.00     0.188 C 
ENDROOT
BRANCH   1   2
ATOM      2  O   UNL A   1      37.358  22.534  25.853  1.00  0.00    -0.377 OA
BRANCH   2   3
ATOM      3  C   UNL A   1      36.294  22.388  24.913  1.00  0.00     0.188 C 
BRANCH   3   4
ATOM      4  C   UNL A   1      35.186  21.475  25.420  1.00  0.00     0.188 C 
BRANCH   4   5
ATOM      5  O   UNL A   1      35.148  21.407  26.828  1.00  0.00    -0.376 OA
BRANCH   5   6
ATOM      6  C   UNL A   1      33.917  21.639  27.485  1.00  0.00     0.202 C 
BRANCH   6   7
ATOM      7  C   UNL A   1      32.761  22.201  26.643  1.00  0.00     0.261 C 
BRANCH   7   8
ATOM      8  O   UNL A   1      32.524  23.616  26.818  1.00  0.00    -0.460 OA
BRANCH   8   9
ATOM      9  C   UNL A   1      31.338  24.122  26.363  1.00  0.00     0.338 C 
ATOM     10  O   UNL A   1      30.336  24.175  27.056  1.00  0.00    -0.246 OA
BRANCH   9  11
ATOM     11  C   UNL A   1      31.386  24.526  24.927  1.00  0.00     0.087 C 
ATOM     12  C   UNL A   1      30.311  25.086  24.349  1.00  0.00     0.027 C 
ATOM     13  C   UNL A   1      32.714  24.945  24.403  1.00  0.00     0.316 C 
ATOM     14  C   UNL A   1      30.472  26.486  23.938  1.00  0.00     0.019 A 
ATOM     15  O   UNL A   1      32.834  26.394  24.376  1.00  0.00    -0.475 OA
ATOM     16  C   UNL A   1      29.413  27.244  23.441  1.00  0.00     0.032 A 
ATOM     17  C   UNL A   1      31.669  27.129  24.291  1.00  0.00     0.135 A 
ATOM     18  C   UNL A   1      29.545  28.630  23.363  1.00  0.00     0.042 A 
ATOM     19  C   UNL A   1      31.666  28.524  24.531  1.00  0.00     0.026 A 
ATOM     20  Cl  UNL A   1      28.310  29.572  22.627  1.00  0.00    -0.084 Cl
ATOM     21  C   UNL A   1      30.624  29.270  23.966  1.00  0.00     0.033 A 
BRANCH  13  22
ATOM     22  C   UNL A   1      33.103  24.127  23.159  1.00  0.00     0.430 C 
ATOM     23  F   UNL A   1      32.471  24.572  22.048  1.00  0.00    -0.167 F 
ATOM     24  F   UNL A   1      34.438  24.275  22.911  1.00  0.00    -0.167 F 
ATOM     25  F   UNL A   1      32.871  22.806  23.278  1.00  0.00    -0.167 F 
ENDBRANCH  13  22
BRANCH  19  26
ATOM     26  C   UNL A   1      32.483  29.184  25.579  1.00  0.00    -0.015 A 
ATOM     27  C   UNL A   1      33.753  28.648  25.918  1.00  0.00     0.009 A 
ATOM     28  C   UNL A   1      32.074  30.324  26.261  1.00  0.00     0.009 A 
ATOM     29  C   UNL A   1      34.599  29.265  26.850  1.00  0.00     0.001 A 
ATOM     30  C   UNL A   1      32.942  30.963  27.162  1.00  0.00     0.001 A 
ATOM     31  C   UNL A   1      34.203  30.447  27.452  1.00  0.00     0.000 A 
ENDBRANCH  19  26
ENDBRANCH   9  11
ENDBRANCH   8   9
ENDBRANCH   7   8
ENDBRANCH   6   7
ENDBRANCH   5   6
ENDBRANCH   4   5
ENDBRANCH   3   4
ENDBRANCH   2   3
ENDBRANCH   1   2
BRANCH   1  32
ATOM     32  C   UNL A   1      39.444  21.286  26.507  1.00  0.00     0.188 C 
BRANCH  32  33
ATOM     33  O   UNL A   1      40.224  20.133  26.224  1.00  0.00    -0.376 OA
BRANCH  33  34
ATOM     34  C   UNL A   1      41.626  20.275  26.161  1.00  0.00     0.202 C 
BRANCH  34  35
ATOM     35  C   UNL A   1      42.203  21.266  27.189  1.00  0.00     0.261 C 
BRANCH  35  36
ATOM     36  O   UNL A   1      42.644  22.529  26.644  1.00  0.00    -0.460 OA
BRANCH  36  37
ATOM     37  C   UNL A   1      43.950  22.613  26.263  1.00  0.00     0.338 C 
ATOM     38  O   UNL A   1      44.618  21.730  25.789  1.00  0.00    -0.246 OA
BRANCH  37  39
ATOM     39  C   UNL A   1      44.422  24.034  26.408  1.00  0.00     0.060 A 
ATOM     40  C   UNL A   1      44.549  24.813  25.247  1.00  0.00     0.016 A 
ATOM     41  C   UNL A   1      44.727  24.615  27.645  1.00  0.00     0.016 A 
ATOM     42  C   UNL A   1      45.027  26.136  25.310  1.00  0.00     0.010 A 
ATOM     43  C   UNL A   1      45.197  25.942  27.709  1.00  0.00     0.010 A 
ATOM     44  C   UNL A   1      45.390  26.707  26.538  1.00  0.00    -0.014 A 
BRANCH  44  45
ATOM     45  C   UNL A   1      46.173  27.985  26.591  1.00  0.00     0.031 A 
ATOM     46  C   UNL A   1      47.676  27.891  26.518  1.00  0.00     0.074 A 
ATOM     47  C   UNL A   1      45.620  29.213  26.682  1.00  0.00     0.049 A 
ATOM     48  N   UNL A   1      48.571  28.847  26.514  1.00  0.00    -0.248 NA
ATOM     49  C   UNL A   1      48.243  26.538  26.414  1.00  0.00     0.031 C 
ATOM     50  C   UNL A   1      44.196  29.504  26.676  1.00  0.00     0.029 A 
ATOM     51  N   UNL A   1      46.200  30.457  26.825  1.00  0.00    -0.354 N 
ATOM     52  C   UNL A   1      49.794  28.214  26.343  1.00  0.00     0.074 A 
ATOM     53  C   UNL A   1      49.541  26.791  26.357  1.00  0.00     0.031 C 
ATOM     54  C   UNL A   1      43.998  30.814  26.914  1.00  0.00     0.029 A 
ATOM     55  C   UNL A   1      45.294  31.474  27.035  1.00  0.00     0.049 A 
ATOM     56  H   UNL A   1      47.172  30.605  26.780  1.00  0.00     0.167 HD
ATOM     57  C   UNL A   1      51.014  28.762  26.133  1.00  0.00     0.037 A 
ATOM     58  C   UNL A   1      45.480  32.788  27.279  1.00  0.00     0.037 A 
ATOM     59  C   UNL A   1      51.295  30.171  26.149  1.00  0.00     0.049 A 
ATOM     60  C   UNL A   1      46.872  33.365  27.203  1.00  0.00     0.074 A 
ATOM     61  C   UNL A   1      52.505  30.811  25.940  1.00  0.00     0.029 A 
ATOM     62  N   UNL A   1      50.360  31.162  26.405  1.00  0.00    -0.354 N 
ATOM     63  N   UNL A   1      48.005  32.762  26.943  1.00  0.00    -0.248 NA
ATOM     64  C   UNL A   1      47.003  34.819  27.394  1.00  0.00     0.031 C 
ATOM     65  C   UNL A   1      52.315  32.183  26.131  1.00  0.00     0.029 A 
ATOM     66  C   UNL A   1      50.973  32.405  26.395  1.00  0.00     0.049 A 
ATOM     67  H   UNL A   1      49.401  31.005  26.571  1.00  0.00     0.167 HD
ATOM     68  C   UNL A   1      48.966  33.764  26.876  1.00  0.00     0.074 A 
ATOM     69  C   UNL A   1      48.282  35.016  27.115  1.00  0.00     0.031 C 
ATOM     70  C   UNL A   1      50.294  33.654  26.623  1.00  0.00     0.037 A 
BRANCH  57  71
ATOM     71  C   UNL A   1      52.140  27.813  25.847  1.00  0.00     0.064 A 
ATOM     72  C   UNL A   1      52.871  27.221  26.888  1.00  0.00     0.173 A 
ATOM     73  C   UNL A   1      52.479  27.477  24.530  1.00  0.00     0.173 A 
ATOM     74  F   UNL A   1      52.596  27.526  28.166  1.00  0.00    -0.203 F 
ATOM     75  C   UNL A   1      53.920  26.347  26.620  1.00  0.00     0.198 A 
ATOM     76  C   UNL A   1      53.507  26.578  24.265  1.00  0.00     0.198 A 
ATOM     77  F   UNL A   1      51.809  28.016  23.500  1.00  0.00    -0.203 F 
ATOM     78  F   UNL A   1      54.638  25.834  27.628  1.00  0.00    -0.200 F 
ATOM     79  C   UNL A   1      54.232  26.021  25.309  1.00  0.00     0.200 A 
ATOM     80  F   UNL A   1      53.802  26.255  22.999  1.00  0.00    -0.200 F 
ATOM     81  F   UNL A   1      55.238  25.174  25.051  1.00  0.00    -0.200 F 
ENDBRANCH  57  71
BRANCH  58  82
ATOM     82  C   UNL A   1      44.325  33.680  27.593  1.00  0.00     0.064 A 
ATOM     83  C   UNL A   1      43.767  34.525  26.624  1.00  0.00     0.173 A 
ATOM     84  C   UNL A   1      43.825  33.776  28.901  1.00  0.00     0.173 A 
ATOM     85  F   UNL A   1      44.227  34.496  25.364  1.00  0.00    -0.203 F 
ATOM     86  C   UNL A   1      42.790  35.464  26.958  1.00  0.00     0.198 A 
ATOM     87  C   UNL A   1      42.827  34.694  29.228  1.00  0.00     0.198 A 
ATOM     88  F   UNL A   1      44.323  32.994  29.870  1.00  0.00    -0.203 F 
ATOM     89  F   UNL A   1      42.333  36.312  26.027  1.00  0.00    -0.200 F 
ATOM     90  C   UNL A   1      42.321  35.548  28.260  1.00  0.00     0.200 A 
ATOM     91  F   UNL A   1      42.372  34.766  30.486  1.00  0.00    -0.200 F 
ATOM     92  F   UNL A   1      41.397  36.462  28.585  1.00  0.00    -0.200 F 
ENDBRANCH  58  82
BRANCH  70  93
ATOM     93  C   UNL A   1      51.094  34.926  26.542  1.00  0.00     0.064 A 
ATOM     94  C   UNL A   1      51.301  35.598  25.328  1.00  0.00     0.173 A 
ATOM     95  C   UNL A   1      51.650  35.489  27.702  1.00  0.00     0.173 A 
ATOM     96  F   UNL A   1      50.801  35.100  24.186  1.00  0.00    -0.203 F 
ATOM     97  C   UNL A   1      52.069  36.760  25.272  1.00  0.00     0.198 A 
ATOM     98  C   UNL A   1      52.383  36.672  27.648  1.00  0.00     0.198 A 
ATOM     99  F   UNL A   1      51.477  34.896  28.893  1.00  0.00    -0.203 F 
ATOM    100  F   UNL A   1      52.309  37.343  24.090  1.00  0.00    -0.200 F 
ATOM    101  C   UNL A   1      52.603  37.299  26.432  1.00  0.00     0.200 A 
ATOM    102  F   UNL A   1      52.882  37.202  28.774  1.00  0.00    -0.200 F 
ATOM    103  F   UNL A   1      53.339  38.417  26.375  1.00  0.00    -0.200 F 
ENDBRANCH  70  93
ENDBRANCH  44  45
ENDBRANCH  37  39
ENDBRANCH  36  37
ENDBRANCH  35  36
ENDBRANCH  34  35
ENDBRANCH  33  34
ENDBRANCH  32  33
ENDBRANCH   1  32
TORSDOF 22
ENDMDL
MODEL 3
REMARK VINA RESULT:     -10.0      6.248     12.798
REMARK SMILES O=C(OCCOCCOCCOCCOC(=O)c1ccc(-c2c3nc(c(-c4c(F)c(F)c(F)c(F)c4F)c4ccc([nH]4)c(-c4c(F)c(F)c(F)c(F)c4F)c4nc(c(-c5c(F)c(F)c(F)c(F)c5F)c5ccc2[nH]5)C=C4)C=C3)cc1)C1=Cc2cc(Cl)cc(-c3ccccc3)c2O[C@@H]1C(F)(F)F
REMARK SMILES IDX 10 1 9 2 8 3 7 4 6 5 5 6 4 7 3 8 2 9 1 10 81 11 82 12 97 13
REMARK SMILES IDX 83 14 96 15 84 16 95 17 85 18 88 19 86 20 87 21 98 22 99 23
REMARK SMILES IDX 100 24 101 25 89 26 90 27 94 28 91 29 93 30 92 31 11 32
REMARK SMILES IDX 12 33 13 34 14 35 15 36 16 37 17 38 18 39 19 40 80 41 20 42
REMARK SMILES IDX 79 43 21 44 22 45 23 46 73 47 24 48 78 49 72 50 74 51 25 52
REMARK SMILES IDX 77 53 71 54 70 55 26 57 58 58 38 59 57 60 39 61 42 62 56 63
REMARK SMILES IDX 75 64 40 65 41 66 55 68 76 69 43 70 27 71 28 72 36 73 29 74
REMARK SMILES IDX 30 75 34 76 37 77 31 78 32 79 35 80 33 81 59 82 60 83 68 84
REMARK SMILES IDX 61 85 62 86 66 87 69 88 63 89 64 90 67 91 65 92 44 93 45 94
REMARK SMILES IDX 53 95 46 96 47 97 51 98 54 99 48 100 49 101 52 102 50 103
REMARK H PARENT 74 56 42 67
REMARK Flexibility Score: inf
ROOT
ATOM      1  C   UNL A   1      37.417  32.305  34.831  1.00  0.00     0.188 C 
ENDROOT
BRANCH   1   2
ATOM      2  O   UNL A   1      38.787  31.920  34.734  1.00  0.00    -0.377 OA
BRANCH   2   3
ATOM      3  C   UNL A   1      39.070  30.864  33.817  1.00  0.00     0.188 C 
BRANCH   3   4
ATOM      4  C   UNL A   1      40.042  29.839  34.385  1.00  0.00     0.188 C 
BRANCH   4   5
ATOM      5  O   UNL A   1      41.062  29.502  33.471  1.00  0.00    -0.376 OA
BRANCH   5   6
ATOM      6  C   UNL A   1      42.075  28.606  33.885  1.00  0.00     0.202 C 
BRANCH   6   7
ATOM      7  C   UNL A   1      42.440  27.461  32.929  1.00  0.00     0.261 C 
BRANCH   7   8
ATOM      8  O   UNL A   1      43.846  27.127  32.901  1.00  0.00    -0.460 OA
BRANCH   8   9
ATOM      9  C   UNL A   1      44.380  26.537  34.013  1.00  0.00     0.338 C 
ATOM     10  O   UNL A   1      45.389  26.952  34.559  1.00  0.00    -0.246 OA
BRANCH   9  11
ATOM     11  C   UNL A   1      43.647  25.306  34.433  1.00  0.00     0.087 C 
ATOM     12  C   UNL A   1      43.981  24.113  33.912  1.00  0.00     0.027 C 
ATOM     13  C   UNL A   1      43.112  25.296  35.820  1.00  0.00     0.316 C 
ATOM     14  C   UNL A   1      44.555  23.149  34.859  1.00  0.00     0.019 A 
ATOM     15  O   UNL A   1      43.992  24.566  36.718  1.00  0.00    -0.475 OA
ATOM     16  C   UNL A   1      45.066  21.919  34.451  1.00  0.00     0.032 A 
ATOM     17  C   UNL A   1      44.806  23.598  36.165  1.00  0.00     0.135 A 
ATOM     18  C   UNL A   1      45.867  21.190  35.330  1.00  0.00     0.042 A 
ATOM     19  C   UNL A   1      45.875  23.035  36.902  1.00  0.00     0.026 A 
ATOM     20  Cl  UNL A   1      46.396  19.610  34.905  1.00  0.00    -0.084 Cl
ATOM     21  C   UNL A   1      46.328  21.769  36.510  1.00  0.00     0.033 A 
BRANCH  13  22
ATOM     22  C   UNL A   1      41.602  25.001  35.831  1.00  0.00     0.430 C 
ATOM     23  F   UNL A   1      41.336  23.733  35.442  1.00  0.00    -0.167 F 
ATOM     24  F   UNL A   1      41.121  25.108  37.105  1.00  0.00    -0.167 F 
ATOM     25  F   UNL A   1      40.874  25.840  35.067  1.00  0.00    -0.167 F 
ENDBRANCH  13  22
BRANCH  19  26
ATOM     26  C   UNL A   1      46.740  23.809  37.826  1.00  0.00    -0.015 A 
ATOM     27  C   UNL A   1      48.037  24.205  37.406  1.00  0.00     0.009 A 
ATOM     28  C   UNL A   1      46.347  24.183  39.106  1.00  0.00     0.009 A 
ATOM     29  C   UNL A   1      48.873  24.995  38.207  1.00  0.00     0.001 A 
ATOM     30  C   UNL A   1      47.170  25.011  39.888  1.00  0.00     0.001 A 
ATOM     31  C   UNL A   1      48.423  25.426  39.443  1.00  0.00     0.000 A 
ENDBRANCH  19  26
ENDBRANCH   9  11
ENDBRANCH   8   9
ENDBRANCH   7   8
ENDBRANCH   6   7
ENDBRANCH   5   6
ENDBRANCH   4   5
ENDBRANCH   3   4
ENDBRANCH   2   3
ENDBRANCH   1   2
BRANCH   1  32
ATOM     32  C   UNL A   1      36.708  32.595  33.488  1.00  0.00     0.188 C 
BRANCH  32  33
ATOM     33  O   UNL A   1      36.066  33.830  33.200  1.00  0.00    -0.376 OA
BRANCH  33  34
ATOM     34  C   UNL A   1      34.846  33.799  32.493  1.00  0.00     0.202 C 
BRANCH  34  35
ATOM     35  C   UNL A   1      34.694  32.587  31.556  1.00  0.00     0.261 C 
BRANCH  35  36
ATOM     36  O   UNL A   1      35.234  32.765  30.228  1.00  0.00    -0.460 OA
BRANCH  36  37
ATOM     37  C   UNL A   1      35.092  31.724  29.361  1.00  0.00     0.338 C 
ATOM     38  O   UNL A   1      34.137  31.494  28.665  1.00  0.00    -0.246 OA
BRANCH  37  39
ATOM     39  C   UNL A   1      36.379  30.946  29.300  1.00  0.00     0.060 A 
ATOM     40  C   UNL A   1      36.716  30.134  30.394  1.00  0.00     0.016 A 
ATOM     41  C   UNL A   1      37.245  30.987  28.201  1.00  0.00     0.016 A 
ATOM     42  C   UNL A   1      37.927  29.416  30.418  1.00  0.00     0.010 A 
ATOM     43  C   UNL A   1      38.453  30.261  28.221  1.00  0.00     0.010 A 
ATOM     44  C   UNL A   1      38.827  29.497  29.347  1.00  0.00    -0.014 A 
BRANCH  44  45
ATOM     45  C   UNL A   1      40.233  28.991  29.484  1.00  0.00     0.031 A 
ATOM     46  C   UNL A   1      41.253  29.910  30.105  1.00  0.00     0.074 A 
ATOM     47  C   UNL A   1      40.639  27.761  29.101  1.00  0.00     0.049 A 
ATOM     48  N   UNL A   1      42.520  29.698  30.360  1.00  0.00    -0.248 NA
ATOM     49  C   UNL A   1      40.773  31.239  30.514  1.00  0.00     0.031 C 
ATOM     50  C   UNL A   1      39.784  26.714  28.566  1.00  0.00     0.029 A 
ATOM     51  N   UNL A   1      41.894  27.189  29.083  1.00  0.00    -0.354 N 
ATOM     52  C   UNL A   1      42.967  30.837  31.012  1.00  0.00     0.074 A 
ATOM     53  C   UNL A   1      41.871  31.780  31.019  1.00  0.00     0.031 C 
ATOM     54  C   UNL A   1      40.537  25.670  28.171  1.00  0.00     0.029 A 
ATOM     55  C   UNL A   1      41.934  25.952  28.478  1.00  0.00     0.049 A 
ATOM     56  H   UNL A   1      42.689  27.626  29.466  1.00  0.00     0.167 HD
ATOM     57  C   UNL A   1      44.161  31.064  31.609  1.00  0.00     0.037 A 
ATOM     58  C   UNL A   1      42.971  25.129  28.217  1.00  0.00     0.037 A 
ATOM     59  C   UNL A   1      45.275  30.156  31.586  1.00  0.00     0.049 A 
ATOM     60  C   UNL A   1      44.342  25.471  28.748  1.00  0.00     0.074 A 
ATOM     61  C   UNL A   1      46.521  30.308  32.170  1.00  0.00     0.029 A 
ATOM     62  N   UNL A   1      45.288  28.935  30.931  1.00  0.00    -0.354 N 
ATOM     63  N   UNL A   1      44.721  26.510  29.449  1.00  0.00    -0.248 NA
ATOM     64  C   UNL A   1      45.415  24.494  28.505  1.00  0.00     0.031 C 
ATOM     65  C   UNL A   1      47.309  29.206  31.816  1.00  0.00     0.029 A 
ATOM     66  C   UNL A   1      46.532  28.339  31.066  1.00  0.00     0.049 A 
ATOM     67  H   UNL A   1      44.525  28.549  30.441  1.00  0.00     0.167 HD
ATOM     68  C   UNL A   1      46.051  26.283  29.783  1.00  0.00     0.074 A 
ATOM     69  C   UNL A   1      46.411  25.002  29.214  1.00  0.00     0.031 C 
ATOM     70  C   UNL A   1      46.891  27.060  30.509  1.00  0.00     0.037 A 
BRANCH  57  71
ATOM     71  C   UNL A   1      44.307  32.355  32.359  1.00  0.00     0.064 A 
ATOM     72  C   UNL A   1      44.751  33.520  31.714  1.00  0.00     0.173 A 
ATOM     73  C   UNL A   1      43.986  32.435  33.719  1.00  0.00     0.173 A 
ATOM     74  F   UNL A   1      45.088  33.489  30.415  1.00  0.00    -0.203 F 
ATOM     75  C   UNL A   1      44.893  34.715  32.413  1.00  0.00     0.198 A 
ATOM     76  C   UNL A   1      44.098  33.639  34.409  1.00  0.00     0.198 A 
ATOM     77  F   UNL A   1      43.557  31.348  34.379  1.00  0.00    -0.203 F 
ATOM     78  F   UNL A   1      45.367  35.802  31.791  1.00  0.00    -0.200 F 
ATOM     79  C   UNL A   1      44.559  34.774  33.758  1.00  0.00     0.200 A 
ATOM     80  F   UNL A   1      43.767  33.699  35.706  1.00  0.00    -0.200 F 
ATOM     81  F   UNL A   1      44.691  35.926  34.430  1.00  0.00    -0.200 F 
ENDBRANCH  57  71
BRANCH  58  82
ATOM     82  C   UNL A   1      42.774  23.872  27.436  1.00  0.00     0.064 A 
ATOM     83  C   UNL A   1      42.391  22.675  28.056  1.00  0.00     0.173 A 
ATOM     84  C   UNL A   1      43.065  23.826  26.063  1.00  0.00     0.173 A 
ATOM     85  F   UNL A   1      42.129  22.657  29.372  1.00  0.00    -0.203 F 
ATOM     86  C   UNL A   1      42.354  21.472  27.349  1.00  0.00     0.198 A 
ATOM     87  C   UNL A   1      42.999  22.628  25.351  1.00  0.00     0.198 A 
ATOM     88  F   UNL A   1      43.440  24.939  25.417  1.00  0.00    -0.203 F 
ATOM     89  F   UNL A   1      42.063  20.331  27.988  1.00  0.00    -0.200 F 
ATOM     90  C   UNL A   1      42.659  21.450  25.998  1.00  0.00     0.200 A 
ATOM     91  F   UNL A   1      43.287  22.613  24.042  1.00  0.00    -0.200 F 
ATOM     92  F   UNL A   1      42.642  20.292  25.323  1.00  0.00    -0.200 F 
ENDBRANCH  58  82
BRANCH  70  93
ATOM     93  C   UNL A   1      48.274  26.529  30.777  1.00  0.00     0.064 A 
ATOM     94  C   UNL A   1      49.357  26.818  29.933  1.00  0.00     0.173 A 
ATOM     95  C   UNL A   1      48.521  25.731  31.905  1.00  0.00     0.173 A 
ATOM     96  F   UNL A   1      49.178  27.567  28.835  1.00  0.00    -0.203 F 
ATOM     97  C   UNL A   1      50.623  26.293  30.185  1.00  0.00     0.198 A 
ATOM     98  C   UNL A   1      49.796  25.241  32.175  1.00  0.00     0.198 A 
ATOM     99  F   UNL A   1      47.525  25.429  32.753  1.00  0.00    -0.203 F 
ATOM    100  F   UNL A   1      51.625  26.527  29.326  1.00  0.00    -0.200 F 
ATOM    101  C   UNL A   1      50.843  25.510  31.309  1.00  0.00     0.200 A 
ATOM    102  F   UNL A   1      50.009  24.501  33.273  1.00  0.00    -0.200 F 
ATOM    103  F   UNL A   1      52.062  25.009  31.550  1.00  0.00    -0.200 F 
ENDBRANCH  70  93
ENDBRANCH  44  45
ENDBRANCH  37  39
ENDBRANCH  36  37
ENDBRANCH  35  36
ENDBRANCH  34  35
ENDBRANCH  33  34
ENDBRANCH  32  33
ENDBRANCH   1  32
TORSDOF 22
ENDMDL
