MODEL 1
REMARK VINA RESULT:     -11.2      0.000      0.000
REMARK SMILES C[C@@H]1C(C(=O)OCCOCCOCCOCCOC(=O)c2ccc(-c3c4nc(c(-c5c(F)c(F)c(F)c(F)c5F)c5ccc([nH]5)c(-c5c(F)c(F)c(F)c(F)c5F)c5nc(c(-c6c(F)c(F)c(F)c(F)c6F)c6ccc3[nH]6)C=C5)C=C4)cc2)=NC2=C1C(=O)C[C@H](c1ccccc1)C2
REMARK SMILES IDX 13 1 12 2 11 3 10 4 9 5 8 6 7 7 6 8 4 9 5 10 3 11 1 12 2 13
REMARK SMILES IDX 86 14 84 15 85 16 87 17 97 18 88 19 89 20 90 21 91 22 92 23
REMARK SMILES IDX 96 24 93 25 95 26 94 27 14 28 15 29 16 30 17 31 18 32 19 33
REMARK SMILES IDX 20 34 21 35 22 36 83 37 23 38 82 39 24 40 25 41 26 42 76 43
REMARK SMILES IDX 27 44 81 45 75 46 77 47 28 48 80 49 74 50 73 51 29 53 61 54
REMARK SMILES IDX 41 55 60 56 42 57 45 58 59 59 78 60 43 61 44 62 58 64 79 65
REMARK SMILES IDX 46 66 30 67 31 68 39 69 32 70 33 71 37 72 40 73 34 74 35 75
REMARK SMILES IDX 38 76 36 77 62 78 63 79 71 80 64 81 65 82 69 83 72 84 66 85
REMARK SMILES IDX 67 86 70 87 68 88 47 89 48 90 56 91 49 92 50 93 54 94 57 95
REMARK SMILES IDX 51 96 52 97 55 98 53 99
REMARK H PARENT 77 52 45 63
REMARK Flexibility Score: inf
ROOT
ATOM      1  C   UNL A   1      34.353  30.408  27.581  1.00  0.00     0.188 C 
ENDROOT
BRANCH   1   2
ATOM      2  O   UNL A   1      33.186  30.099  26.844  1.00  0.00    -0.377 OA
BRANCH   2   3
ATOM      3  C   UNL A   1      33.309  29.363  25.635  1.00  0.00     0.188 C 
BRANCH   3   4
ATOM      4  C   UNL A   1      32.123  29.345  24.675  1.00  0.00     0.188 C 
BRANCH   4   5
ATOM      5  O   UNL A   1      32.426  29.049  23.319  1.00  0.00    -0.376 OA
BRANCH   5   6
ATOM      6  C   UNL A   1      32.199  27.689  22.919  1.00  0.00     0.202 C 
BRANCH   6   7
ATOM      7  C   UNL A   1      33.386  26.950  22.260  1.00  0.00     0.261 C 
BRANCH   7   8
ATOM      8  O   UNL A   1      33.685  25.683  22.894  1.00  0.00    -0.459 OA
BRANCH   8   9
ATOM      9  C   UNL A   1      33.292  24.554  22.262  1.00  0.00     0.353 C 
ATOM     10  O   UNL A   1      33.680  24.159  21.184  1.00  0.00    -0.245 OA
BRANCH   9  11
ATOM     11  C   UNL A   1      32.510  23.695  23.263  1.00  0.00     0.133 C 
ATOM     12  C   UNL A   1      30.160  24.392  23.704  1.00  0.00     0.020 C 
ATOM     13  C   UNL A   1      31.571  24.334  24.268  1.00  0.00     0.078 C 
ATOM     14  C   UNL A   1      31.766  23.247  25.262  1.00  0.00     0.026 C 
ATOM     15  N   UNL A   1      32.713  22.409  23.410  1.00  0.00    -0.249 NA
ATOM     16  C   UNL A   1      32.262  22.152  24.685  1.00  0.00     0.049 C 
ATOM     17  C   UNL A   1      31.942  23.420  26.709  1.00  0.00     0.161 C 
ATOM     18  C   UNL A   1      32.749  20.990  25.495  1.00  0.00     0.065 C 
ATOM     19  O   UNL A   1      31.296  24.286  27.296  1.00  0.00    -0.294 OA
ATOM     20  C   UNL A   1      33.009  22.584  27.426  1.00  0.00     0.089 C 
ATOM     21  C   UNL A   1      33.737  21.507  26.563  1.00  0.00     0.033 C 
BRANCH  21  22
ATOM     22  C   UNL A   1      35.111  21.913  26.003  1.00  0.00    -0.044 A 
ATOM     23  C   UNL A   1      35.646  23.205  26.181  1.00  0.00     0.004 A 
ATOM     24  C   UNL A   1      35.845  21.038  25.191  1.00  0.00     0.004 A 
ATOM     25  C   UNL A   1      36.896  23.573  25.680  1.00  0.00     0.000 A 
ATOM     26  C   UNL A   1      37.079  21.425  24.645  1.00  0.00     0.000 A 
ATOM     27  C   UNL A   1      37.624  22.675  24.921  1.00  0.00     0.000 A 
ENDBRANCH  21  22
ENDBRANCH   9  11
ENDBRANCH   8   9
ENDBRANCH   7   8
ENDBRANCH   6   7
ENDBRANCH   5   6
ENDBRANCH   4   5
ENDBRANCH   3   4
ENDBRANCH   2   3
ENDBRANCH   1   2
BRANCH   1  28
ATOM     28  C   UNL A   1      34.643  31.861  28.014  1.00  0.00     0.188 C 
BRANCH  28  29
ATOM     29  O   UNL A   1      33.711  32.918  28.168  1.00  0.00    -0.376 OA
BRANCH  29  30
ATOM     30  C   UNL A   1      34.032  34.292  28.156  1.00  0.00     0.202 C 
BRANCH  30  31
ATOM     31  C   UNL A   1      33.873  35.191  29.387  1.00  0.00     0.261 C 
BRANCH  31  32
ATOM     32  O   UNL A   1      33.503  34.477  30.547  1.00  0.00    -0.460 OA
BRANCH  32  33
ATOM     33  C   UNL A   1      33.922  35.083  31.675  1.00  0.00     0.338 C 
ATOM     34  O   UNL A   1      33.631  36.203  32.060  1.00  0.00    -0.246 OA
BRANCH  33  35
ATOM     35  C   UNL A   1      34.871  34.216  32.375  1.00  0.00     0.060 A 
ATOM     36  C   UNL A   1      36.088  34.817  32.685  1.00  0.00     0.016 A 
ATOM     37  C   UNL A   1      34.680  32.827  32.430  1.00  0.00     0.016 A 
ATOM     38  C   UNL A   1      37.194  34.014  32.729  1.00  0.00     0.010 A 
ATOM     39  C   UNL A   1      35.789  32.019  32.493  1.00  0.00     0.010 A 
ATOM     40  C   UNL A   1      37.032  32.641  32.509  1.00  0.00    -0.014 A 
BRANCH  40  41
ATOM     41  C   UNL A   1      38.243  31.912  32.226  1.00  0.00     0.031 A 
ATOM     42  C   UNL A   1      39.139  31.765  33.382  1.00  0.00     0.074 A 
ATOM     43  C   UNL A   1      38.529  31.465  30.992  1.00  0.00     0.049 A 
ATOM     44  N   UNL A   1      40.332  32.235  33.529  1.00  0.00    -0.248 NA
ATOM     45  C   UNL A   1      38.580  31.110  34.572  1.00  0.00     0.031 C 
ATOM     46  C   UNL A   1      37.636  31.325  29.839  1.00  0.00     0.029 A 
ATOM     47  N   UNL A   1      39.703  30.946  30.547  1.00  0.00    -0.354 N 
ATOM     48  C   UNL A   1      40.744  31.800  34.780  1.00  0.00     0.074 A 
ATOM     49  C   UNL A   1      39.590  31.231  35.428  1.00  0.00     0.031 C 
ATOM     50  C   UNL A   1      38.243  30.556  28.907  1.00  0.00     0.029 A 
ATOM     51  C   UNL A   1      39.598  30.264  29.350  1.00  0.00     0.049 A 
ATOM     52  H   UNL A   1      40.552  31.047  31.034  1.00  0.00     0.167 HD
ATOM     53  C   UNL A   1      42.060  31.731  35.100  1.00  0.00     0.037 A 
ATOM     54  C   UNL A   1      40.533  29.435  28.833  1.00  0.00     0.037 A 
ATOM     55  C   UNL A   1      42.856  32.626  34.303  1.00  0.00     0.049 A 
ATOM     56  C   UNL A   1      41.833  29.752  29.479  1.00  0.00     0.074 A 
ATOM     57  C   UNL A   1      42.862  33.996  34.112  1.00  0.00     0.029 A 
ATOM     58  N   UNL A   1      43.620  32.112  33.286  1.00  0.00    -0.354 N 
ATOM     59  N   UNL A   1      42.519  30.841  29.265  1.00  0.00    -0.248 NA
ATOM     60  C   UNL A   1      42.189  29.025  30.690  1.00  0.00     0.031 C 
ATOM     61  C   UNL A   1      43.229  34.187  32.749  1.00  0.00     0.029 A 
ATOM     62  C   UNL A   1      43.439  32.925  32.195  1.00  0.00     0.049 A 
ATOM     63  H   UNL A   1      44.190  31.310  33.330  1.00  0.00     0.167 HD
ATOM     64  C   UNL A   1      43.087  31.152  30.493  1.00  0.00     0.074 A 
ATOM     65  C   UNL A   1      42.941  29.945  31.297  1.00  0.00     0.031 C 
ATOM     66  C   UNL A   1      43.370  32.442  30.836  1.00  0.00     0.037 A 
BRANCH  53  67
ATOM     67  C   UNL A   1      42.632  30.590  35.895  1.00  0.00     0.064 A 
ATOM     68  C   UNL A   1      43.456  30.863  36.999  1.00  0.00     0.173 A 
ATOM     69  C   UNL A   1      42.634  29.250  35.444  1.00  0.00     0.173 A 
ATOM     70  F   UNL A   1      43.555  32.109  37.486  1.00  0.00    -0.203 F 
ATOM     71  C   UNL A   1      44.267  29.879  37.570  1.00  0.00     0.198 A 
ATOM     72  C   UNL A   1      43.398  28.259  36.052  1.00  0.00     0.198 A 
ATOM     73  F   UNL A   1      41.988  28.867  34.335  1.00  0.00    -0.203 F 
ATOM     74  F   UNL A   1      45.129  30.211  38.540  1.00  0.00    -0.200 F 
ATOM     75  C   UNL A   1      44.239  28.579  37.094  1.00  0.00     0.200 A 
ATOM     76  F   UNL A   1      43.370  27.011  35.562  1.00  0.00    -0.200 F 
ATOM     77  F   UNL A   1      45.058  27.650  37.602  1.00  0.00    -0.200 F 
ENDBRANCH  53  67
BRANCH  54  78
ATOM     78  C   UNL A   1      40.303  28.196  28.058  1.00  0.00     0.064 A 
ATOM     79  C   UNL A   1      40.969  27.969  26.846  1.00  0.00     0.173 A 
ATOM     80  C   UNL A   1      39.618  27.095  28.612  1.00  0.00     0.173 A 
ATOM     81  F   UNL A   1      41.688  28.949  26.278  1.00  0.00    -0.203 F 
ATOM     82  C   UNL A   1      40.964  26.713  26.231  1.00  0.00     0.198 A 
ATOM     83  C   UNL A   1      39.598  25.848  27.990  1.00  0.00     0.198 A 
ATOM     84  F   UNL A   1      39.031  27.178  29.815  1.00  0.00    -0.203 F 
ATOM     85  F   UNL A   1      41.663  26.518  25.105  1.00  0.00    -0.200 F 
ATOM     86  C   UNL A   1      40.282  25.653  26.806  1.00  0.00     0.200 A 
ATOM     87  F   UNL A   1      38.963  24.822  28.577  1.00  0.00    -0.200 F 
ATOM     88  F   UNL A   1      40.319  24.437  26.244  1.00  0.00    -0.200 F 
ENDBRANCH  54  78
BRANCH  66  89
ATOM     89  C   UNL A   1      43.326  33.475  29.747  1.00  0.00     0.064 A 
ATOM     90  C   UNL A   1      42.159  34.169  29.381  1.00  0.00     0.173 A 
ATOM     91  C   UNL A   1      44.527  33.867  29.140  1.00  0.00     0.173 A 
ATOM     92  F   UNL A   1      40.993  33.926  29.996  1.00  0.00    -0.203 F 
ATOM     93  C   UNL A   1      42.187  35.168  28.410  1.00  0.00     0.198 A 
ATOM     94  C   UNL A   1      44.559  34.892  28.198  1.00  0.00     0.198 A 
ATOM     95  F   UNL A   1      45.682  33.283  29.496  1.00  0.00    -0.203 F 
ATOM     96  F   UNL A   1      41.058  35.802  28.064  1.00  0.00    -0.200 F 
ATOM     97  C   UNL A   1      43.388  35.532  27.824  1.00  0.00     0.200 A 
ATOM     98  F   UNL A   1      45.730  35.275  27.670  1.00  0.00    -0.200 F 
ATOM     99  F   UNL A   1      43.422  36.517  26.916  1.00  0.00    -0.200 F 
ENDBRANCH  66  89
ENDBRANCH  40  41
ENDBRANCH  33  35
ENDBRANCH  32  33
ENDBRANCH  31  32
ENDBRANCH  30  31
ENDBRANCH  29  30
ENDBRANCH  28  29
ENDBRANCH   1  28
TORSDOF 21
ENDMDL
MODEL 2
REMARK VINA RESULT:     -11.0      2.352      3.227
REMARK SMILES C[C@@H]1C(C(=O)OCCOCCOCCOCCOC(=O)c2ccc(-c3c4nc(c(-c5c(F)c(F)c(F)c(F)c5F)c5ccc([nH]5)c(-c5c(F)c(F)c(F)c(F)c5F)c5nc(c(-c6c(F)c(F)c(F)c(F)c6F)c6ccc3[nH]6)C=C5)C=C4)cc2)=NC2=C1C(=O)C[C@H](c1ccccc1)C2
REMARK SMILES IDX 13 1 12 2 11 3 10 4 9 5 8 6 7 7 6 8 4 9 5 10 3 11 1 12 2 13
REMARK SMILES IDX 86 14 84 15 85 16 87 17 97 18 88 19 89 20 90 21 91 22 92 23
REMARK SMILES IDX 96 24 93 25 95 26 94 27 14 28 15 29 16 30 17 31 18 32 19 33
REMARK SMILES IDX 20 34 21 35 22 36 83 37 23 38 82 39 24 40 25 41 26 42 76 43
REMARK SMILES IDX 27 44 81 45 75 46 77 47 28 48 80 49 74 50 73 51 29 53 61 54
REMARK SMILES IDX 41 55 60 56 42 57 45 58 59 59 78 60 43 61 44 62 58 64 79 65
REMARK SMILES IDX 46 66 30 67 31 68 39 69 32 70 33 71 37 72 40 73 34 74 35 75
REMARK SMILES IDX 38 76 36 77 62 78 63 79 71 80 64 81 65 82 69 83 72 84 66 85
REMARK SMILES IDX 67 86 70 87 68 88 47 89 48 90 56 91 49 92 50 93 54 94 57 95
REMARK SMILES IDX 51 96 52 97 55 98 53 99
REMARK H PARENT 77 52 45 63
REMARK Flexibility Score: inf
ROOT
ATOM      1  C   UNL A   1      33.667  31.460  27.677  1.00  0.00     0.188 C 
ENDROOT
BRANCH   1   2
ATOM      2  O   UNL A   1      32.483  30.814  27.250  1.00  0.00    -0.377 OA
BRANCH   2   3
ATOM      3  C   UNL A   1      32.585  29.590  26.536  1.00  0.00     0.188 C 
BRANCH   3   4
ATOM      4  C   UNL A   1      32.893  29.647  25.043  1.00  0.00     0.188 C 
BRANCH   4   5
ATOM      5  O   UNL A   1      31.850  29.222  24.177  1.00  0.00    -0.376 OA
BRANCH   5   6
ATOM      6  C   UNL A   1      32.264  28.436  23.050  1.00  0.00     0.202 C 
BRANCH   6   7
ATOM      7  C   UNL A   1      33.709  27.887  23.078  1.00  0.00     0.261 C 
BRANCH   7   8
ATOM      8  O   UNL A   1      33.767  26.461  23.325  1.00  0.00    -0.459 OA
BRANCH   8   9
ATOM      9  C   UNL A   1      33.178  25.642  22.425  1.00  0.00     0.353 C 
ATOM     10  O   UNL A   1      33.450  25.551  21.247  1.00  0.00    -0.245 OA
BRANCH   9  11
ATOM     11  C   UNL A   1      32.325  24.624  23.192  1.00  0.00     0.133 C 
ATOM     12  C   UNL A   1      29.979  25.304  23.675  1.00  0.00     0.020 C 
ATOM     13  C   UNL A   1      31.359  25.076  24.271  1.00  0.00     0.078 C 
ATOM     14  C   UNL A   1      31.475  23.800  25.023  1.00  0.00     0.026 C 
ATOM     15  N   UNL A   1      32.483  23.329  23.075  1.00  0.00    -0.249 NA
ATOM     16  C   UNL A   1      31.966  22.831  24.249  1.00  0.00     0.049 C 
ATOM     17  C   UNL A   1      31.588  23.662  26.480  1.00  0.00     0.161 C 
ATOM     18  C   UNL A   1      32.380  21.508  24.817  1.00  0.00     0.065 C 
ATOM     19  O   UNL A   1      30.941  24.412  27.208  1.00  0.00    -0.294 OA
ATOM     20  C   UNL A   1      32.596  22.655  27.048  1.00  0.00     0.089 C 
ATOM     21  C   UNL A   1      33.331  21.754  26.009  1.00  0.00     0.033 C 
BRANCH  21  22
ATOM     22  C   UNL A   1      34.742  22.214  25.601  1.00  0.00    -0.044 A 
ATOM     23  C   UNL A   1      35.402  23.283  26.242  1.00  0.00     0.004 A 
ATOM     24  C   UNL A   1      35.390  21.655  24.491  1.00  0.00     0.004 A 
ATOM     25  C   UNL A   1      36.684  23.697  25.879  1.00  0.00     0.000 A 
ATOM     26  C   UNL A   1      36.658  22.106  24.094  1.00  0.00     0.000 A 
ATOM     27  C   UNL A   1      37.323  23.096  24.809  1.00  0.00     0.000 A 
ENDBRANCH  21  22
ENDBRANCH   9  11
ENDBRANCH   8   9
ENDBRANCH   7   8
ENDBRANCH   6   7
ENDBRANCH   5   6
ENDBRANCH   4   5
ENDBRANCH   3   4
ENDBRANCH   2   3
ENDBRANCH   1   2
BRANCH   1  28
ATOM     28  C   UNL A   1      33.757  33.001  27.690  1.00  0.00     0.188 C 
BRANCH  28  29
ATOM     29  O   UNL A   1      34.607  33.808  28.487  1.00  0.00    -0.376 OA
BRANCH  29  30
ATOM     30  C   UNL A   1      34.238  34.428  29.700  1.00  0.00     0.202 C 
BRANCH  30  31
ATOM     31  C   UNL A   1      34.466  33.776  31.067  1.00  0.00     0.261 C 
BRANCH  31  32
ATOM     32  O   UNL A   1      34.509  32.366  31.006  1.00  0.00    -0.460 OA
BRANCH  32  33
ATOM     33  C   UNL A   1      35.562  31.858  31.675  1.00  0.00     0.338 C 
ATOM     34  O   UNL A   1      35.785  31.943  32.870  1.00  0.00    -0.246 OA
BRANCH  33  35
ATOM     35  C   UNL A   1      36.483  31.223  30.731  1.00  0.00     0.060 A 
ATOM     36  C   UNL A   1      36.377  29.836  30.659  1.00  0.00     0.016 A 
ATOM     37  C   UNL A   1      37.576  31.924  30.201  1.00  0.00     0.016 A 
ATOM     38  C   UNL A   1      37.510  29.133  30.355  1.00  0.00     0.010 A 
ATOM     39  C   UNL A   1      38.709  31.217  29.878  1.00  0.00     0.010 A 
ATOM     40  C   UNL A   1      38.686  29.844  30.090  1.00  0.00    -0.014 A 
BRANCH  40  41
ATOM     41  C   UNL A   1      39.900  29.066  30.119  1.00  0.00     0.031 A 
ATOM     42  C   UNL A   1      40.535  28.994  31.443  1.00  0.00     0.074 A 
ATOM     43  C   UNL A   1      40.414  28.513  29.009  1.00  0.00     0.049 A 
ATOM     44  N   UNL A   1      41.690  29.448  31.797  1.00  0.00    -0.248 NA
ATOM     45  C   UNL A   1      39.719  28.453  32.538  1.00  0.00     0.031 C 
ATOM     46  C   UNL A   1      39.770  28.299  27.710  1.00  0.00     0.029 A 
ATOM     47  N   UNL A   1      41.633  27.933  28.856  1.00  0.00    -0.354 N 
ATOM     48  C   UNL A   1      41.821  29.108  33.135  1.00  0.00     0.074 A 
ATOM     49  C   UNL A   1      40.538  28.620  33.573  1.00  0.00     0.031 C 
ATOM     50  C   UNL A   1      40.525  27.443  26.985  1.00  0.00     0.029 A 
ATOM     51  C   UNL A   1      41.748  27.157  27.719  1.00  0.00     0.049 A 
ATOM     52  H   UNL A   1      42.368  28.055  29.499  1.00  0.00     0.167 HD
ATOM     53  C   UNL A   1      43.041  29.036  33.724  1.00  0.00     0.037 A 
ATOM     54  C   UNL A   1      42.736  26.267  27.470  1.00  0.00     0.037 A 
ATOM     55  C   UNL A   1      44.017  29.844  33.044  1.00  0.00     0.049 A 
ATOM     56  C   UNL A   1      43.888  26.607  28.345  1.00  0.00     0.074 A 
ATOM     57  C   UNL A   1      44.115  31.193  32.755  1.00  0.00     0.029 A 
ATOM     58  N   UNL A   1      44.951  29.231  32.248  1.00  0.00    -0.354 N 
ATOM     59  N   UNL A   1      44.645  27.659  28.195  1.00  0.00    -0.248 NA
ATOM     60  C   UNL A   1      43.960  25.974  29.654  1.00  0.00     0.031 C 
ATOM     61  C   UNL A   1      44.760  31.263  31.486  1.00  0.00     0.029 A 
ATOM     62  C   UNL A   1      45.029  29.955  31.085  1.00  0.00     0.049 A 
ATOM     63  H   UNL A   1      45.469  28.423  32.470  1.00  0.00     0.167 HD
ATOM     64  C   UNL A   1      44.962  28.057  29.487  1.00  0.00     0.074 A 
ATOM     65  C   UNL A   1      44.608  26.924  30.333  1.00  0.00     0.031 C 
ATOM     66  C   UNL A   1      45.219  29.364  29.781  1.00  0.00     0.037 A 
BRANCH  53  67
ATOM     67  C   UNL A   1      43.393  27.952  34.705  1.00  0.00     0.064 A 
ATOM     68  C   UNL A   1      43.743  28.297  36.020  1.00  0.00     0.173 A 
ATOM     69  C   UNL A   1      43.676  26.619  34.325  1.00  0.00     0.173 A 
ATOM     70  F   UNL A   1      43.549  29.545  36.473  1.00  0.00    -0.203 F 
ATOM     71  C   UNL A   1      44.383  27.393  36.871  1.00  0.00     0.198 A 
ATOM     72  C   UNL A   1      44.261  25.704  35.193  1.00  0.00     0.198 A 
ATOM     73  F   UNL A   1      43.505  26.181  33.071  1.00  0.00    -0.203 F 
ATOM     74  F   UNL A   1      44.810  27.802  38.073  1.00  0.00    -0.200 F 
ATOM     75  C   UNL A   1      44.644  26.098  36.456  1.00  0.00     0.200 A 
ATOM     76  F   UNL A   1      44.522  24.461  34.763  1.00  0.00    -0.200 F 
ATOM     77  F   UNL A   1      45.309  25.250  37.248  1.00  0.00    -0.200 F 
ENDBRANCH  53  67
BRANCH  54  78
ATOM     78  C   UNL A   1      42.620  24.974  26.760  1.00  0.00     0.064 A 
ATOM     79  C   UNL A   1      43.298  24.751  25.554  1.00  0.00     0.173 A 
ATOM     80  C   UNL A   1      42.047  23.843  27.376  1.00  0.00     0.173 A 
ATOM     81  F   UNL A   1      43.916  25.764  24.930  1.00  0.00    -0.203 F 
ATOM     82  C   UNL A   1      43.409  23.471  25.003  1.00  0.00     0.198 A 
ATOM     83  C   UNL A   1      42.143  22.569  26.818  1.00  0.00     0.198 A 
ATOM     84  F   UNL A   1      41.463  23.930  28.580  1.00  0.00    -0.203 F 
ATOM     85  F   UNL A   1      44.117  23.287  23.880  1.00  0.00    -0.200 F 
ATOM     86  C   UNL A   1      42.835  22.381  25.637  1.00  0.00     0.200 A 
ATOM     87  F   UNL A   1      41.613  21.519  27.462  1.00  0.00    -0.200 F 
ATOM     88  F   UNL A   1      42.984  21.148  25.136  1.00  0.00    -0.200 F 
ENDBRANCH  54  78
BRANCH  66  89
ATOM     89  C   UNL A   1      45.439  30.305  28.632  1.00  0.00     0.064 A 
ATOM     90  C   UNL A   1      44.395  30.948  27.944  1.00  0.00     0.173 A 
ATOM     91  C   UNL A   1      46.752  30.666  28.297  1.00  0.00     0.173 A 
ATOM     92  F   UNL A   1      43.116  30.737  28.283  1.00  0.00    -0.203 F 
ATOM     93  C   UNL A   1      44.657  31.865  26.929  1.00  0.00     0.198 A 
ATOM     94  C   UNL A   1      47.010  31.611  27.309  1.00  0.00     0.198 A 
ATOM     95  F   UNL A   1      47.787  30.131  28.964  1.00  0.00    -0.203 F 
ATOM     96  F   UNL A   1      43.644  32.451  26.274  1.00  0.00    -0.200 F 
ATOM     97  C   UNL A   1      45.964  32.200  26.616  1.00  0.00     0.200 A 
ATOM     98  F   UNL A   1      48.274  31.969  27.043  1.00  0.00    -0.200 F 
ATOM     99  F   UNL A   1      46.216  33.109  25.664  1.00  0.00    -0.200 F 
ENDBRANCH  66  89
ENDBRANCH  40  41
ENDBRANCH  33  35
ENDBRANCH  32  33
ENDBRANCH  31  32
ENDBRANCH  30  31
ENDBRANCH  29  30
ENDBRANCH  28  29
ENDBRANCH   1  28
TORSDOF 21
ENDMDL
MODEL 3
REMARK VINA RESULT:     -11.0      3.320      5.686
REMARK SMILES C[C@@H]1C(C(=O)OCCOCCOCCOCCOC(=O)c2ccc(-c3c4nc(c(-c5c(F)c(F)c(F)c(F)c5F)c5ccc([nH]5)c(-c5c(F)c(F)c(F)c(F)c5F)c5nc(c(-c6c(F)c(F)c(F)c(F)c6F)c6ccc3[nH]6)C=C5)C=C4)cc2)=NC2=C1C(=O)C[C@H](c1ccccc1)C2
REMARK SMILES IDX 13 1 12 2 11 3 10 4 9 5 8 6 7 7 6 8 4 9 5 10 3 11 1 12 2 13
REMARK SMILES IDX 86 14 84 15 85 16 87 17 97 18 88 19 89 20 90 21 91 22 92 23
REMARK SMILES IDX 96 24 93 25 95 26 94 27 14 28 15 29 16 30 17 31 18 32 19 33
REMARK SMILES IDX 20 34 21 35 22 36 83 37 23 38 82 39 24 40 25 41 26 42 76 43
REMARK SMILES IDX 27 44 81 45 75 46 77 47 28 48 80 49 74 50 73 51 29 53 61 54
REMARK SMILES IDX 41 55 60 56 42 57 45 58 59 59 78 60 43 61 44 62 58 64 79 65
REMARK SMILES IDX 46 66 30 67 31 68 39 69 32 70 33 71 37 72 40 73 34 74 35 75
REMARK SMILES IDX 38 76 36 77 62 78 63 79 71 80 64 81 65 82 69 83 72 84 66 85
REMARK SMILES IDX 67 86 70 87 68 88 47 89 48 90 56 91 49 92 50 93 54 94 57 95
REMARK SMILES IDX 51 96 52 97 55 98 53 99
REMARK H PARENT 77 52 45 63
REMARK Flexibility Score: inf
ROOT
ATOM      1  C   UNL A   1      33.530  35.784  31.580  1.00  0.00     0.188 C 
ENDROOT
BRANCH   1   2
ATOM      2  O   UNL A   1      32.928  35.029  30.546  1.00  0.00    -0.377 OA
BRANCH   2   3
ATOM      3  C   UNL A   1      33.399  35.184  29.215  1.00  0.00     0.188 C 
BRANCH   3   4
ATOM      4  C   UNL A   1      33.379  33.967  28.294  1.00  0.00     0.188 C 
BRANCH   4   5
ATOM      5  O   UNL A   1      34.597  33.679  27.622  1.00  0.00    -0.376 OA
BRANCH   5   6
ATOM      6  C   UNL A   1      35.124  32.361  27.839  1.00  0.00     0.202 C 
BRANCH   6   7
ATOM      7  C   UNL A   1      34.099  31.208  27.931  1.00  0.00     0.261 C 
BRANCH   7   8
ATOM      8  O   UNL A   1      33.605  30.785  26.636  1.00  0.00    -0.459 OA
BRANCH   8   9
ATOM      9  C   UNL A   1      32.309  30.411  26.550  1.00  0.00     0.353 C 
ATOM     10  O   UNL A   1      31.342  31.138  26.623  1.00  0.00    -0.245 OA
BRANCH   9  11
ATOM     11  C   UNL A   1      32.263  28.968  26.032  1.00  0.00     0.133 C 
ATOM     12  C   UNL A   1      34.420  27.725  26.062  1.00  0.00     0.020 C 
ATOM     13  C   UNL A   1      33.389  28.413  25.181  1.00  0.00     0.078 C 
ATOM     14  C   UNL A   1      32.492  27.465  24.470  1.00  0.00     0.026 C 
ATOM     15  N   UNL A   1      31.211  28.198  26.158  1.00  0.00    -0.249 NA
ATOM     16  C   UNL A   1      31.361  27.273  25.150  1.00  0.00     0.049 C 
ATOM     17  C   UNL A   1      32.506  27.175  23.031  1.00  0.00     0.161 C 
ATOM     18  C   UNL A   1      30.203  26.534  24.553  1.00  0.00     0.065 C 
ATOM     19  O   UNL A   1      33.581  27.113  22.439  1.00  0.00    -0.294 OA
ATOM     20  C   UNL A   1      31.167  27.067  22.289  1.00  0.00     0.089 C 
ATOM     21  C   UNL A   1      29.882  27.143  23.171  1.00  0.00     0.033 C 
BRANCH  21  22
ATOM     22  C   UNL A   1      29.193  28.517  23.234  1.00  0.00    -0.044 A 
ATOM     23  C   UNL A   1      27.794  28.664  23.154  1.00  0.00     0.004 A 
ATOM     24  C   UNL A   1      29.945  29.700  23.263  1.00  0.00     0.004 A 
ATOM     25  C   UNL A   1      27.166  29.909  23.219  1.00  0.00     0.000 A 
ATOM     26  C   UNL A   1      29.316  30.954  23.277  1.00  0.00     0.000 A 
ATOM     27  C   UNL A   1      27.929  31.060  23.297  1.00  0.00     0.000 A 
ENDBRANCH  21  22
ENDBRANCH   9  11
ENDBRANCH   8   9
ENDBRANCH   7   8
ENDBRANCH   6   7
ENDBRANCH   5   6
ENDBRANCH   4   5
ENDBRANCH   3   4
ENDBRANCH   2   3
ENDBRANCH   1   2
BRANCH   1  28
ATOM     28  C   UNL A   1      33.943  35.109  32.905  1.00  0.00     0.188 C 
BRANCH  28  29
ATOM     29  O   UNL A   1      35.092  35.379  33.689  1.00  0.00    -0.376 OA
BRANCH  29  30
ATOM     30  C   UNL A   1      36.308  34.665  33.622  1.00  0.00     0.202 C 
BRANCH  30  31
ATOM     31  C   UNL A   1      36.839  34.051  32.323  1.00  0.00     0.261 C 
BRANCH  31  32
ATOM     32  O   UNL A   1      36.948  32.646  32.381  1.00  0.00    -0.460 OA
BRANCH  32  33
ATOM     33  C   UNL A   1      36.166  32.034  31.471  1.00  0.00     0.338 C 
ATOM     34  O   UNL A   1      34.950  32.084  31.394  1.00  0.00    -0.246 OA
BRANCH  33  35
ATOM     35  C   UNL A   1      36.992  31.206  30.591  1.00  0.00     0.060 A 
ATOM     36  C   UNL A   1      36.712  29.843  30.645  1.00  0.00     0.016 A 
ATOM     37  C   UNL A   1      38.159  31.714  30.002  1.00  0.00     0.016 A 
ATOM     38  C   UNL A   1      37.745  28.979  30.409  1.00  0.00     0.010 A 
ATOM     39  C   UNL A   1      39.192  30.845  29.747  1.00  0.00     0.010 A 
ATOM     40  C   UNL A   1      38.999  29.510  30.083  1.00  0.00    -0.014 A 
BRANCH  40  41
ATOM     41  C   UNL A   1      40.106  28.592  30.186  1.00  0.00     0.031 A 
ATOM     42  C   UNL A   1      40.650  28.457  31.545  1.00  0.00     0.074 A 
ATOM     43  C   UNL A   1      40.613  27.970  29.109  1.00  0.00     0.049 A 
ATOM     44  N   UNL A   1      41.829  28.772  31.964  1.00  0.00    -0.248 NA
ATOM     45  C   UNL A   1      39.714  28.029  32.591  1.00  0.00     0.031 C 
ATOM     46  C   UNL A   1      40.024  27.822  27.775  1.00  0.00     0.029 A 
ATOM     47  N   UNL A   1      41.760  27.246  29.029  1.00  0.00    -0.354 N 
ATOM     48  C   UNL A   1      41.841  28.432  33.309  1.00  0.00     0.074 A 
ATOM     49  C   UNL A   1      40.485  28.106  33.672  1.00  0.00     0.031 C 
ATOM     50  C   UNL A   1      40.710  26.874  27.098  1.00  0.00     0.029 A 
ATOM     51  C   UNL A   1      41.846  26.450  27.903  1.00  0.00     0.049 A 
ATOM     52  H   UNL A   1      42.466  27.284  29.714  1.00  0.00     0.167 HD
ATOM     53  C   UNL A   1      43.007  28.219  33.969  1.00  0.00     0.037 A 
ATOM     54  C   UNL A   1      42.731  25.445  27.715  1.00  0.00     0.037 A 
ATOM     55  C   UNL A   1      44.111  28.897  33.344  1.00  0.00     0.049 A 
ATOM     56  C   UNL A   1      43.864  25.653  28.655  1.00  0.00     0.074 A 
ATOM     57  C   UNL A   1      44.388  30.221  33.058  1.00  0.00     0.029 A 
ATOM     58  N   UNL A   1      45.009  28.168  32.606  1.00  0.00    -0.354 N 
ATOM     59  N   UNL A   1      44.750  26.604  28.546  1.00  0.00    -0.248 NA
ATOM     60  C   UNL A   1      43.783  25.028  29.968  1.00  0.00     0.031 C 
ATOM     61  C   UNL A   1      45.109  30.201  31.829  1.00  0.00     0.029 A 
ATOM     62  C   UNL A   1      45.241  28.866  31.447  1.00  0.00     0.049 A 
ATOM     63  H   UNL A   1      45.411  27.305  32.860  1.00  0.00     0.167 HD
ATOM     64  C   UNL A   1      45.037  26.974  29.853  1.00  0.00     0.074 A 
ATOM     65  C   UNL A   1      44.501  25.899  30.680  1.00  0.00     0.031 C 
ATOM     66  C   UNL A   1      45.433  28.243  30.159  1.00  0.00     0.037 A 
BRANCH  53  67
ATOM     67  C   UNL A   1      43.168  27.110  34.971  1.00  0.00     0.064 A 
ATOM     68  C   UNL A   1      43.407  27.426  36.319  1.00  0.00     0.173 A 
ATOM     69  C   UNL A   1      43.381  25.759  34.611  1.00  0.00     0.173 A 
ATOM     70  F   UNL A   1      43.268  28.686  36.759  1.00  0.00    -0.203 F 
ATOM     71  C   UNL A   1      43.882  26.474  37.223  1.00  0.00     0.198 A 
ATOM     72  C   UNL A   1      43.798  24.799  35.528  1.00  0.00     0.198 A 
ATOM     73  F   UNL A   1      43.306  25.336  33.342  1.00  0.00    -0.203 F 
ATOM     74  F   UNL A   1      44.214  26.847  38.466  1.00  0.00    -0.200 F 
ATOM     75  C   UNL A   1      44.080  25.162  36.826  1.00  0.00     0.200 A 
ATOM     76  F   UNL A   1      44.002  23.539  35.116  1.00  0.00    -0.200 F 
ATOM     77  F   UNL A   1      44.589  24.263  37.676  1.00  0.00    -0.200 F 
ENDBRANCH  53  67
BRANCH  54  78
ATOM     78  C   UNL A   1      42.502  24.169  27.003  1.00  0.00     0.064 A 
ATOM     79  C   UNL A   1      43.344  23.764  25.959  1.00  0.00     0.173 A 
ATOM     80  C   UNL A   1      41.605  23.199  27.498  1.00  0.00     0.173 A 
ATOM     81  F   UNL A   1      44.262  24.608  25.466  1.00  0.00    -0.203 F 
ATOM     82  C   UNL A   1      43.303  22.463  25.448  1.00  0.00     0.198 A 
ATOM     83  C   UNL A   1      41.552  21.907  26.977  1.00  0.00     0.198 A 
ATOM     84  F   UNL A   1      40.825  23.453  28.559  1.00  0.00    -0.203 F 
ATOM     85  F   UNL A   1      44.166  22.094  24.492  1.00  0.00    -0.200 F 
ATOM     86  C   UNL A   1      42.410  21.535  25.960  1.00  0.00     0.200 A 
ATOM     87  F   UNL A   1      40.707  21.011  27.506  1.00  0.00    -0.200 F 
ATOM     88  F   UNL A   1      42.406  20.275  25.506  1.00  0.00    -0.200 F 
ENDBRANCH  54  78
BRANCH  66  89
ATOM     89  C   UNL A   1      45.831  29.139  29.021  1.00  0.00     0.064 A 
ATOM     90  C   UNL A   1      44.911  29.875  28.254  1.00  0.00     0.173 A 
ATOM     91  C   UNL A   1      47.194  29.359  28.781  1.00  0.00     0.173 A 
ATOM     92  F   UNL A   1      43.596  29.801  28.500  1.00  0.00    -0.203 F 
ATOM     93  C   UNL A   1      45.338  30.745  27.254  1.00  0.00     0.198 A 
ATOM     94  C   UNL A   1      47.620  30.258  27.807  1.00  0.00     0.198 A 
ATOM     95  F   UNL A   1      48.118  28.731  29.526  1.00  0.00    -0.203 F 
ATOM     96  F   UNL A   1      44.441  31.422  26.522  1.00  0.00    -0.200 F 
ATOM     97  C   UNL A   1      46.693  30.940  27.035  1.00  0.00     0.200 A 
ATOM     98  F   UNL A   1      48.929  30.481  27.632  1.00  0.00    -0.200 F 
ATOM     99  F   UNL A   1      47.105  31.804  26.097  1.00  0.00    -0.200 F 
ENDBRANCH  66  89
ENDBRANCH  40  41
ENDBRANCH  33  35
ENDBRANCH  32  33
ENDBRANCH  31  32
ENDBRANCH  30  31
ENDBRANCH  29  30
ENDBRANCH  28  29
ENDBRANCH   1  28
TORSDOF 21
ENDMDL
