MODEL 1
REMARK VINA RESULT:     -11.1      0.000      0.000
REMARK SMILES O=C(OCCOCCOCCOCCOC(=O)c1cn(C2C[NH+](Cc3cc(F)ccc3F)C2)nn1)c1ccc(-c2c3nc(c(-c4c(F)c(F)c(F)c(F)c4F)c4ccc([nH]4)c(-c4c(F)c(F)c(F)c(F)c4F)c4nc(c(-c5c(F)c(F)c(F)c(F)c5F)c5ccc2[nH]5)C=C4)C=C3)cc1
REMARK SMILES IDX 10 1 9 2 8 3 7 4 6 5 5 6 4 7 3 8 2 9 1 10 36 11 37 12 98 13
REMARK SMILES IDX 38 14 97 15 39 16 40 17 41 18 91 19 42 20 96 21 90 22 92 23
REMARK SMILES IDX 43 24 95 25 89 26 88 27 44 29 76 30 56 31 75 32 57 33 60 34
REMARK SMILES IDX 74 35 93 36 58 37 59 38 73 40 94 41 61 42 45 43 46 44 54 45
REMARK SMILES IDX 47 46 48 47 52 48 55 49 49 50 50 51 53 52 51 53 77 54 78 55
REMARK SMILES IDX 86 56 79 57 80 58 84 59 87 60 81 61 82 62 85 63 83 64 62 65
REMARK SMILES IDX 63 66 71 67 64 68 65 69 69 70 72 71 66 72 67 73 70 74 68 75
REMARK SMILES IDX 11 76 12 77 13 78 14 79 15 80 16 81 17 82 18 83 19 84 35 85
REMARK SMILES IDX 20 86 34 87 21 88 22 89 33 90 23 91 24 93 25 94 26 95 31 96
REMARK SMILES IDX 27 97 30 98 32 99 28 100 29 101
REMARK H PARENT 92 28 60 39 23 92
REMARK Flexibility Score: inf
ROOT
ATOM      1  C   UNL A   1      33.905  26.146  23.857  1.00  0.00     0.188 C 
ENDROOT
BRANCH   1   2
ATOM      2  O   UNL A   1      33.972  27.522  23.558  1.00  0.00    -0.377 OA
BRANCH   2   3
ATOM      3  C   UNL A   1      33.996  28.373  24.691  1.00  0.00     0.188 C 
BRANCH   3   4
ATOM      4  C   UNL A   1      33.498  27.754  26.008  1.00  0.00     0.188 C 
BRANCH   4   5
ATOM      5  O   UNL A   1      32.546  28.348  26.883  1.00  0.00    -0.376 OA
BRANCH   5   6
ATOM      6  C   UNL A   1      32.029  29.658  26.799  1.00  0.00     0.202 C 
BRANCH   6   7
ATOM      7  C   UNL A   1      32.883  30.888  27.114  1.00  0.00     0.261 C 
BRANCH   7   8
ATOM      8  O   UNL A   1      34.048  30.645  27.899  1.00  0.00    -0.460 OA
BRANCH   8   9
ATOM      9  C   UNL A   1      35.187  31.358  28.004  1.00  0.00     0.338 C 
ATOM     10  O   UNL A   1      35.166  32.524  27.611  1.00  0.00    -0.246 OA
BRANCH   9  11
ATOM     11  C   UNL A   1      36.481  30.823  28.520  1.00  0.00     0.060 A 
ATOM     12  C   UNL A   1      37.628  31.560  28.820  1.00  0.00     0.016 A 
ATOM     13  C   UNL A   1      36.520  29.427  28.705  1.00  0.00     0.016 A 
ATOM     14  C   UNL A   1      38.818  30.921  29.121  1.00  0.00     0.010 A 
ATOM     15  C   UNL A   1      37.696  28.781  29.047  1.00  0.00     0.010 A 
ATOM     16  C   UNL A   1      38.859  29.532  29.170  1.00  0.00    -0.014 A 
BRANCH  16  17
ATOM     17  C   UNL A   1      40.166  28.917  29.316  1.00  0.00     0.031 A 
ATOM     18  C   UNL A   1      40.711  28.823  30.696  1.00  0.00     0.074 A 
ATOM     19  C   UNL A   1      40.823  28.433  28.247  1.00  0.00     0.049 A 
ATOM     20  N   UNL A   1      41.840  29.269  31.147  1.00  0.00    -0.248 NA
ATOM     21  C   UNL A   1      39.859  28.202  31.720  1.00  0.00     0.031 C 
ATOM     22  C   UNL A   1      40.314  28.237  26.886  1.00  0.00     0.029 A 
ATOM     23  N   UNL A   1      42.080  27.916  28.187  1.00  0.00    -0.354 N 
ATOM     24  C   UNL A   1      41.915  28.856  32.476  1.00  0.00     0.074 A 
ATOM     25  C   UNL A   1      40.633  28.289  32.802  1.00  0.00     0.031 C 
ATOM     26  C   UNL A   1      41.169  27.448  26.203  1.00  0.00     0.029 A 
ATOM     27  C   UNL A   1      42.336  27.199  27.030  1.00  0.00     0.049 A 
ATOM     28  H   UNL A   1      42.747  28.040  28.900  1.00  0.00     0.167 HD
ATOM     29  C   UNL A   1      43.093  28.847  33.160  1.00  0.00     0.037 A 
ATOM     30  C   UNL A   1      43.398  26.393  26.808  1.00  0.00     0.037 A 
ATOM     31  C   UNL A   1      44.043  29.762  32.589  1.00  0.00     0.049 A 
ATOM     32  C   UNL A   1      44.469  26.791  27.754  1.00  0.00     0.074 A 
ATOM     33  C   UNL A   1      44.081  31.131  32.404  1.00  0.00     0.029 A 
ATOM     34  N   UNL A   1      45.066  29.262  31.825  1.00  0.00    -0.354 N 
ATOM     35  N   UNL A   1      45.123  27.917  27.695  1.00  0.00    -0.248 NA
ATOM     36  C   UNL A   1      44.555  26.087  29.025  1.00  0.00     0.031 C 
ATOM     37  C   UNL A   1      44.794  31.324  31.186  1.00  0.00     0.029 A 
ATOM     38  C   UNL A   1      45.168  30.063  30.718  1.00  0.00     0.049 A 
ATOM     39  H   UNL A   1      45.621  28.476  32.031  1.00  0.00     0.167 HD
ATOM     40  C   UNL A   1      45.350  28.264  29.018  1.00  0.00     0.074 A 
ATOM     41  C   UNL A   1      45.083  27.050  29.781  1.00  0.00     0.031 C 
ATOM     42  C   UNL A   1      45.464  29.570  29.395  1.00  0.00     0.037 A 
BRANCH  29  43
ATOM     43  C   UNL A   1      43.488  27.778  34.151  1.00  0.00     0.064 A 
ATOM     44  C   UNL A   1      43.417  27.946  35.551  1.00  0.00     0.173 A 
ATOM     45  C   UNL A   1      43.648  26.447  33.710  1.00  0.00     0.173 A 
ATOM     46  F   UNL A   1      43.182  29.136  36.115  1.00  0.00    -0.203 F 
ATOM     47  C   UNL A   1      43.471  26.869  36.436  1.00  0.00     0.198 A 
ATOM     48  C   UNL A   1      43.649  25.367  34.597  1.00  0.00     0.198 A 
ATOM     49  F   UNL A   1      43.711  26.163  32.400  1.00  0.00    -0.203 F 
ATOM     50  F   UNL A   1      43.359  27.093  37.753  1.00  0.00    -0.200 F 
ATOM     51  C   UNL A   1      43.553  25.578  35.959  1.00  0.00     0.200 A 
ATOM     52  F   UNL A   1      43.672  24.115  34.121  1.00  0.00    -0.200 F 
ATOM     53  F   UNL A   1      43.487  24.544  36.807  1.00  0.00    -0.200 F 
ENDBRANCH  29  43
BRANCH  30  54
ATOM     54  C   UNL A   1      43.420  25.115  26.060  1.00  0.00     0.064 A 
ATOM     55  C   UNL A   1      42.601  24.029  26.428  1.00  0.00     0.173 A 
ATOM     56  C   UNL A   1      44.441  24.841  25.137  1.00  0.00     0.173 A 
ATOM     57  F   UNL A   1      41.650  24.163  27.365  1.00  0.00    -0.203 F 
ATOM     58  C   UNL A   1      42.798  22.747  25.916  1.00  0.00     0.198 A 
ATOM     59  C   UNL A   1      44.648  23.552  24.635  1.00  0.00     0.198 A 
ATOM     60  F   UNL A   1      45.293  25.808  24.767  1.00  0.00    -0.203 F 
ATOM     61  F   UNL A   1      42.023  21.737  26.336  1.00  0.00    -0.200 F 
ATOM     62  C   UNL A   1      43.832  22.505  25.033  1.00  0.00     0.200 A 
ATOM     63  F   UNL A   1      45.677  23.315  23.811  1.00  0.00    -0.200 F 
ATOM     64  F   UNL A   1      44.069  21.259  24.600  1.00  0.00    -0.200 F 
ENDBRANCH  30  54
BRANCH  42  65
ATOM     65  C   UNL A   1      45.628  30.602  28.316  1.00  0.00     0.064 A 
ATOM     66  C   UNL A   1      46.906  31.127  28.081  1.00  0.00     0.173 A 
ATOM     67  C   UNL A   1      44.549  31.194  27.638  1.00  0.00     0.173 A 
ATOM     68  F   UNL A   1      47.965  30.641  28.747  1.00  0.00    -0.203 F 
ATOM     69  C   UNL A   1      47.098  32.192  27.207  1.00  0.00     0.198 A 
ATOM     70  C   UNL A   1      44.749  32.236  26.735  1.00  0.00     0.198 A 
ATOM     71  F   UNL A   1      43.288  30.819  27.888  1.00  0.00    -0.203 F 
ATOM     72  F   UNL A   1      48.323  32.713  27.049  1.00  0.00    -0.200 F 
ATOM     73  C   UNL A   1      46.022  32.741  26.528  1.00  0.00     0.200 A 
ATOM     74  F   UNL A   1      43.703  32.783  26.097  1.00  0.00    -0.200 F 
ATOM     75  F   UNL A   1      46.208  33.777  25.698  1.00  0.00    -0.200 F 
ENDBRANCH  42  65
ENDBRANCH  16  17
ENDBRANCH   9  11
ENDBRANCH   8   9
ENDBRANCH   7   8
ENDBRANCH   6   7
ENDBRANCH   5   6
ENDBRANCH   4   5
ENDBRANCH   3   4
ENDBRANCH   2   3
ENDBRANCH   1   2
BRANCH   1  76
ATOM     76  C   UNL A   1      33.740  25.230  22.629  1.00  0.00     0.188 C 
BRANCH  76  77
ATOM     77  O   UNL A   1      34.289  23.919  22.555  1.00  0.00    -0.376 OA
BRANCH  77  78
ATOM     78  C   UNL A   1      34.962  23.309  23.641  1.00  0.00     0.202 C 
BRANCH  78  79
ATOM     79  C   UNL A   1      34.348  22.075  24.315  1.00  0.00     0.261 C 
BRANCH  79  80
ATOM     80  O   UNL A   1      33.423  22.349  25.368  1.00  0.00    -0.458 OA
BRANCH  80  81
ATOM     81  C   UNL A   1      32.121  22.035  25.071  1.00  0.00     0.360 C 
ATOM     82  O   UNL A   1      31.598  20.967  25.264  1.00  0.00    -0.244 OA
BRANCH  81  83
ATOM     83  C   UNL A   1      31.402  23.214  24.610  1.00  0.00     0.190 A 
ATOM     84  C   UNL A   1      31.059  24.361  25.295  1.00  0.00     0.147 A 
ATOM     85  N   UNL A   1      30.877  23.273  23.343  1.00  0.00    -0.123 NA
ATOM     86  N   UNL A   1      30.407  25.109  24.356  1.00  0.00    -0.237 N 
ATOM     87  N   UNL A   1      30.204  24.405  23.229  1.00  0.00    -0.066 NA
BRANCH  86  88
ATOM     88  C   UNL A   1      30.111  26.502  24.365  1.00  0.00     0.218 C 
ATOM     89  C   UNL A   1      30.572  27.375  23.182  1.00  0.00     0.296 C 
ATOM     90  C   UNL A   1      28.683  26.752  23.809  1.00  0.00     0.296 C 
ATOM     91  N   UNL A   1      29.199  27.902  23.046  1.00  0.00    -0.327 N 
ATOM     92  H   UNL A   1      28.833  28.125  22.120  1.00  0.00     0.348 HD
BRANCH  91  93
ATOM     93  C   UNL A   1      28.955  29.211  23.693  1.00  0.00     0.302 C 
BRANCH  93  94
ATOM     94  C   UNL A   1      28.605  30.414  22.843  1.00  0.00     0.045 A 
ATOM     95  C   UNL A   1      28.060  30.270  21.558  1.00  0.00     0.051 A 
ATOM     96  C   UNL A   1      28.868  31.712  23.305  1.00  0.00     0.132 A 
ATOM     97  C   UNL A   1      27.881  31.387  20.746  1.00  0.00     0.123 A 
ATOM     98  C   UNL A   1      28.665  32.831  22.498  1.00  0.00     0.043 A 
ATOM     99  F   UNL A   1      29.360  31.896  24.538  1.00  0.00    -0.206 F 
ATOM    100  F   UNL A   1      27.435  31.222  19.494  1.00  0.00    -0.207 F 
ATOM    101  C   UNL A   1      28.186  32.666  21.201  1.00  0.00     0.042 A 
ENDBRANCH  93  94
ENDBRANCH  91  93
ENDBRANCH  86  88
ENDBRANCH  81  83
ENDBRANCH  80  81
ENDBRANCH  79  80
ENDBRANCH  78  79
ENDBRANCH  77  78
ENDBRANCH  76  77
ENDBRANCH   1  76
TORSDOF 23
ENDMDL
MODEL 2
REMARK VINA RESULT:     -10.7      1.017      1.770
REMARK SMILES O=C(OCCOCCOCCOCCOC(=O)c1cn(C2C[NH+](Cc3cc(F)ccc3F)C2)nn1)c1ccc(-c2c3nc(c(-c4c(F)c(F)c(F)c(F)c4F)c4ccc([nH]4)c(-c4c(F)c(F)c(F)c(F)c4F)c4nc(c(-c5c(F)c(F)c(F)c(F)c5F)c5ccc2[nH]5)C=C4)C=C3)cc1
REMARK SMILES IDX 10 1 9 2 8 3 7 4 6 5 5 6 4 7 3 8 2 9 1 10 36 11 37 12 98 13
REMARK SMILES IDX 38 14 97 15 39 16 40 17 41 18 91 19 42 20 96 21 90 22 92 23
REMARK SMILES IDX 43 24 95 25 89 26 88 27 44 29 76 30 56 31 75 32 57 33 60 34
REMARK SMILES IDX 74 35 93 36 58 37 59 38 73 40 94 41 61 42 45 43 46 44 54 45
REMARK SMILES IDX 47 46 48 47 52 48 55 49 49 50 50 51 53 52 51 53 77 54 78 55
REMARK SMILES IDX 86 56 79 57 80 58 84 59 87 60 81 61 82 62 85 63 83 64 62 65
REMARK SMILES IDX 63 66 71 67 64 68 65 69 69 70 72 71 66 72 67 73 70 74 68 75
REMARK SMILES IDX 11 76 12 77 13 78 14 79 15 80 16 81 17 82 18 83 19 84 35 85
REMARK SMILES IDX 20 86 34 87 21 88 22 89 33 90 23 91 24 93 25 94 26 95 31 96
REMARK SMILES IDX 27 97 30 98 32 99 28 100 29 101
REMARK H PARENT 92 28 60 39 23 92
REMARK Flexibility Score: inf
ROOT
ATOM      1  C   UNL A   1      30.872  24.130  26.455  1.00  0.00     0.188 C 
ENDROOT
BRANCH   1   2
ATOM      2  O   UNL A   1      31.040  25.525  26.578  1.00  0.00    -0.377 OA
BRANCH   2   3
ATOM      3  C   UNL A   1      32.365  25.982  26.365  1.00  0.00     0.188 C 
BRANCH   3   4
ATOM      4  C   UNL A   1      32.502  27.406  25.800  1.00  0.00     0.188 C 
BRANCH   4   5
ATOM      5  O   UNL A   1      31.800  28.548  26.279  1.00  0.00    -0.376 OA
BRANCH   5   6
ATOM      6  C   UNL A   1      32.200  29.895  26.149  1.00  0.00     0.202 C 
BRANCH   6   7
ATOM      7  C   UNL A   1      32.951  30.627  27.263  1.00  0.00     0.261 C 
BRANCH   7   8
ATOM      8  O   UNL A   1      34.356  30.775  27.066  1.00  0.00    -0.460 OA
BRANCH   8   9
ATOM      9  C   UNL A   1      35.267  31.451  27.792  1.00  0.00     0.338 C 
ATOM     10  O   UNL A   1      35.071  32.653  27.974  1.00  0.00    -0.246 OA
BRANCH   9  11
ATOM     11  C   UNL A   1      36.519  30.860  28.349  1.00  0.00     0.060 A 
ATOM     12  C   UNL A   1      37.609  31.557  28.876  1.00  0.00     0.016 A 
ATOM     13  C   UNL A   1      36.581  29.453  28.322  1.00  0.00     0.016 A 
ATOM     14  C   UNL A   1      38.781  30.896  29.196  1.00  0.00     0.010 A 
ATOM     15  C   UNL A   1      37.736  28.779  28.680  1.00  0.00     0.010 A 
ATOM     16  C   UNL A   1      38.858  29.517  29.035  1.00  0.00    -0.014 A 
BRANCH  16  17
ATOM     17  C   UNL A   1      40.162  28.905  29.220  1.00  0.00     0.031 A 
ATOM     18  C   UNL A   1      40.666  28.811  30.614  1.00  0.00     0.074 A 
ATOM     19  C   UNL A   1      40.851  28.424  28.169  1.00  0.00     0.049 A 
ATOM     20  N   UNL A   1      41.780  29.259  31.099  1.00  0.00    -0.248 NA
ATOM     21  C   UNL A   1      39.786  28.187  31.612  1.00  0.00     0.031 C 
ATOM     22  C   UNL A   1      40.382  28.229  26.794  1.00  0.00     0.029 A 
ATOM     23  N   UNL A   1      42.110  27.910  28.146  1.00  0.00    -0.354 N 
ATOM     24  C   UNL A   1      41.817  28.845  32.429  1.00  0.00     0.074 A 
ATOM     25  C   UNL A   1      40.527  28.275  32.717  1.00  0.00     0.031 C 
ATOM     26  C   UNL A   1      41.259  27.442  26.136  1.00  0.00     0.029 A 
ATOM     27  C   UNL A   1      42.403  27.195  26.996  1.00  0.00     0.049 A 
ATOM     28  H   UNL A   1      42.756  28.035  28.879  1.00  0.00     0.167 HD
ATOM     29  C   UNL A   1      42.974  28.838  33.147  1.00  0.00     0.037 A 
ATOM     30  C   UNL A   1      43.473  26.392  26.804  1.00  0.00     0.037 A 
ATOM     31  C   UNL A   1      43.939  29.756  32.606  1.00  0.00     0.049 A 
ATOM     32  C   UNL A   1      44.514  26.791  27.783  1.00  0.00     0.074 A 
ATOM     33  C   UNL A   1      43.978  31.125  32.424  1.00  0.00     0.029 A 
ATOM     34  N   UNL A   1      44.985  29.259  31.872  1.00  0.00    -0.354 N 
ATOM     35  N   UNL A   1      45.167  27.920  27.744  1.00  0.00    -0.248 NA
ATOM     36  C   UNL A   1      44.564  26.086  29.054  1.00  0.00     0.031 C 
ATOM     37  C   UNL A   1      44.726  31.322  31.227  1.00  0.00     0.029 A 
ATOM     38  C   UNL A   1      45.118  30.062  30.769  1.00  0.00     0.049 A 
ATOM     39  H   UNL A   1      45.535  28.474  32.093  1.00  0.00     0.167 HD
ATOM     40  C   UNL A   1      45.354  28.265  29.073  1.00  0.00     0.074 A 
ATOM     41  C   UNL A   1      45.067  27.050  29.827  1.00  0.00     0.031 C 
ATOM     42  C   UNL A   1      45.453  29.571  29.454  1.00  0.00     0.037 A 
BRANCH  29  43
ATOM     43  C   UNL A   1      43.342  27.769  34.149  1.00  0.00     0.064 A 
ATOM     44  C   UNL A   1      43.226  27.934  35.546  1.00  0.00     0.173 A 
ATOM     45  C   UNL A   1      43.523  26.440  33.710  1.00  0.00     0.173 A 
ATOM     46  F   UNL A   1      42.968  29.122  36.104  1.00  0.00    -0.203 F 
ATOM     47  C   UNL A   1      43.257  26.856  36.430  1.00  0.00     0.198 A 
ATOM     48  C   UNL A   1      43.501  25.358  34.595  1.00  0.00     0.198 A 
ATOM     49  F   UNL A   1      43.629  26.159  32.403  1.00  0.00    -0.203 F 
ATOM     50  F   UNL A   1      43.103  27.077  37.744  1.00  0.00    -0.200 F 
ATOM     51  C   UNL A   1      43.361  25.566  35.954  1.00  0.00     0.200 A 
ATOM     52  F   UNL A   1      43.544  24.107  34.118  1.00  0.00    -0.200 F 
ATOM     53  F   UNL A   1      43.272  24.530  36.797  1.00  0.00    -0.200 F 
ENDBRANCH  29  43
BRANCH  30  54
ATOM     54  C   UNL A   1      43.519  25.115  26.056  1.00  0.00     0.064 A 
ATOM     55  C   UNL A   1      42.741  24.004  26.440  1.00  0.00     0.173 A 
ATOM     56  C   UNL A   1      44.530  24.872  25.114  1.00  0.00     0.173 A 
ATOM     57  F   UNL A   1      41.806  24.109  27.396  1.00  0.00    -0.203 F 
ATOM     58  C   UNL A   1      42.969  22.729  25.925  1.00  0.00     0.198 A 
ATOM     59  C   UNL A   1      44.768  23.590  24.608  1.00  0.00     0.198 A 
ATOM     60  F   UNL A   1      45.344  25.865  24.728  1.00  0.00    -0.203 F 
ATOM     61  F   UNL A   1      42.234  21.695  26.359  1.00  0.00    -0.200 F 
ATOM     62  C   UNL A   1      43.993  22.518  25.021  1.00  0.00     0.200 A 
ATOM     63  F   UNL A   1      45.787  23.385  23.764  1.00  0.00    -0.200 F 
ATOM     64  F   UNL A   1      44.259  21.280  24.584  1.00  0.00    -0.200 F 
ENDBRANCH  30  54
BRANCH  42  65
ATOM     65  C   UNL A   1      45.647  30.605  28.382  1.00  0.00     0.064 A 
ATOM     66  C   UNL A   1      46.921  31.162  28.212  1.00  0.00     0.173 A 
ATOM     67  C   UNL A   1      44.589  31.167  27.647  1.00  0.00     0.173 A 
ATOM     68  F   UNL A   1      47.956  30.705  28.934  1.00  0.00    -0.203 F 
ATOM     69  C   UNL A   1      47.131  32.230  27.345  1.00  0.00     0.198 A 
ATOM     70  C   UNL A   1      44.809  32.212  26.752  1.00  0.00     0.198 A 
ATOM     71  F   UNL A   1      43.327  30.760  27.832  1.00  0.00    -0.203 F 
ATOM     72  F   UNL A   1      48.348  32.782  27.250  1.00  0.00    -0.200 F 
ATOM     73  C   UNL A   1      46.078  32.749  26.609  1.00  0.00     0.200 A 
ATOM     74  F   UNL A   1      43.784  32.730  26.058  1.00  0.00    -0.200 F 
ATOM     75  F   UNL A   1      46.279  33.788  25.786  1.00  0.00    -0.200 F 
ENDBRANCH  42  65
ENDBRANCH  16  17
ENDBRANCH   9  11
ENDBRANCH   8   9
ENDBRANCH   7   8
ENDBRANCH   6   7
ENDBRANCH   5   6
ENDBRANCH   4   5
ENDBRANCH   3   4
ENDBRANCH   2   3
ENDBRANCH   1   2
BRANCH   1  76
ATOM     76  C   UNL A   1      32.089  23.386  25.874  1.00  0.00     0.188 C 
BRANCH  76  77
ATOM     77  O   UNL A   1      33.110  22.811  26.682  1.00  0.00    -0.376 OA
BRANCH  77  78
ATOM     78  C   UNL A   1      34.482  23.119  26.516  1.00  0.00     0.202 C 
BRANCH  78  79
ATOM     79  C   UNL A   1      35.095  23.108  25.109  1.00  0.00     0.261 C 
BRANCH  79  80
ATOM     80  O   UNL A   1      34.905  24.303  24.350  1.00  0.00    -0.458 OA
BRANCH  80  81
ATOM     81  C   UNL A   1      34.422  24.095  23.083  1.00  0.00     0.360 C 
ATOM     82  O   UNL A   1      34.618  23.113  22.413  1.00  0.00    -0.244 OA
BRANCH  81  83
ATOM     83  C   UNL A   1      33.517  25.168  22.697  1.00  0.00     0.190 A 
ATOM     84  C   UNL A   1      32.139  25.196  22.680  1.00  0.00     0.147 A 
ATOM     85  N   UNL A   1      33.998  26.351  22.189  1.00  0.00    -0.123 NA
ATOM     86  N   UNL A   1      31.852  26.457  22.237  1.00  0.00    -0.237 N 
ATOM     87  N   UNL A   1      32.965  27.098  21.840  1.00  0.00    -0.066 NA
BRANCH  86  88
ATOM     88  C   UNL A   1      30.628  27.182  22.322  1.00  0.00     0.218 C 
ATOM     89  C   UNL A   1      29.870  27.218  23.663  1.00  0.00     0.296 C 
ATOM     90  C   UNL A   1      30.912  28.682  22.605  1.00  0.00     0.296 C 
ATOM     91  N   UNL A   1      29.806  28.691  23.578  1.00  0.00    -0.327 N 
ATOM     92  H   UNL A   1      29.860  29.249  24.430  1.00  0.00     0.348 HD
BRANCH  91  93
ATOM     93  C   UNL A   1      28.539  29.241  23.043  1.00  0.00     0.302 C 
BRANCH  93  94
ATOM     94  C   UNL A   1      28.509  30.646  22.481  1.00  0.00     0.045 A 
ATOM     95  C   UNL A   1      28.914  31.750  23.248  1.00  0.00     0.051 A 
ATOM     96  C   UNL A   1      28.023  30.886  21.188  1.00  0.00     0.132 A 
ATOM     97  C   UNL A   1      28.743  33.043  22.756  1.00  0.00     0.123 A 
ATOM     98  C   UNL A   1      27.875  32.180  20.689  1.00  0.00     0.043 A 
ATOM     99  F   UNL A   1      27.654  29.858  20.411  1.00  0.00    -0.206 F 
ATOM    100  F   UNL A   1      29.060  34.086  23.533  1.00  0.00    -0.207 F 
ATOM    101  C   UNL A   1      28.219  33.268  21.488  1.00  0.00     0.042 A 
ENDBRANCH  93  94
ENDBRANCH  91  93
ENDBRANCH  86  88
ENDBRANCH  81  83
ENDBRANCH  80  81
ENDBRANCH  79  80
ENDBRANCH  78  79
ENDBRANCH  77  78
ENDBRANCH  76  77
ENDBRANCH   1  76
TORSDOF 23
ENDMDL
MODEL 3
REMARK VINA RESULT:     -10.5      1.181      2.176
REMARK SMILES O=C(OCCOCCOCCOCCOC(=O)c1cn(C2C[NH+](Cc3cc(F)ccc3F)C2)nn1)c1ccc(-c2c3nc(c(-c4c(F)c(F)c(F)c(F)c4F)c4ccc([nH]4)c(-c4c(F)c(F)c(F)c(F)c4F)c4nc(c(-c5c(F)c(F)c(F)c(F)c5F)c5ccc2[nH]5)C=C4)C=C3)cc1
REMARK SMILES IDX 10 1 9 2 8 3 7 4 6 5 5 6 4 7 3 8 2 9 1 10 36 11 37 12 98 13
REMARK SMILES IDX 38 14 97 15 39 16 40 17 41 18 91 19 42 20 96 21 90 22 92 23
REMARK SMILES IDX 43 24 95 25 89 26 88 27 44 29 76 30 56 31 75 32 57 33 60 34
REMARK SMILES IDX 74 35 93 36 58 37 59 38 73 40 94 41 61 42 45 43 46 44 54 45
REMARK SMILES IDX 47 46 48 47 52 48 55 49 49 50 50 51 53 52 51 53 77 54 78 55
REMARK SMILES IDX 86 56 79 57 80 58 84 59 87 60 81 61 82 62 85 63 83 64 62 65
REMARK SMILES IDX 63 66 71 67 64 68 65 69 69 70 72 71 66 72 67 73 70 74 68 75
REMARK SMILES IDX 11 76 12 77 13 78 14 79 15 80 16 81 17 82 18 83 19 84 35 85
REMARK SMILES IDX 20 86 34 87 21 88 22 89 33 90 23 91 24 93 25 94 26 95 31 96
REMARK SMILES IDX 27 97 30 98 32 99 28 100 29 101
REMARK H PARENT 92 28 60 39 23 92
REMARK Flexibility Score: inf
ROOT
ATOM      1  C   UNL A   1      34.024  26.153  24.281  1.00  0.00     0.188 C 
ENDROOT
BRANCH   1   2
ATOM      2  O   UNL A   1      33.881  27.387  23.613  1.00  0.00    -0.377 OA
BRANCH   2   3
ATOM      3  C   UNL A   1      33.706  28.505  24.467  1.00  0.00     0.188 C 
BRANCH   3   4
ATOM      4  C   UNL A   1      33.765  28.215  25.976  1.00  0.00     0.188 C 
BRANCH   4   5
ATOM      5  O   UNL A   1      33.094  28.967  26.981  1.00  0.00    -0.376 OA
BRANCH   5   6
ATOM      6  C   UNL A   1      32.460  30.216  26.813  1.00  0.00     0.202 C 
BRANCH   6   7
ATOM      7  C   UNL A   1      33.101  31.521  27.293  1.00  0.00     0.261 C 
BRANCH   7   8
ATOM      8  O   UNL A   1      34.151  31.378  28.247  1.00  0.00    -0.460 OA
BRANCH   8   9
ATOM      9  C   UNL A   1      35.417  31.836  28.218  1.00  0.00     0.338 C 
ATOM     10  O   UNL A   1      35.626  32.895  27.625  1.00  0.00    -0.246 OA
BRANCH   9  11
ATOM     11  C   UNL A   1      36.592  31.131  28.812  1.00  0.00     0.060 A 
ATOM     12  C   UNL A   1      37.830  31.693  29.128  1.00  0.00     0.016 A 
ATOM     13  C   UNL A   1      36.401  29.758  29.060  1.00  0.00     0.016 A 
ATOM     14  C   UNL A   1      38.892  30.891  29.507  1.00  0.00     0.010 A 
ATOM     15  C   UNL A   1      37.447  28.953  29.480  1.00  0.00     0.010 A 
ATOM     16  C   UNL A   1      38.709  29.517  29.619  1.00  0.00    -0.014 A 
BRANCH  16  17
ATOM     17  C   UNL A   1      39.896  28.712  29.848  1.00  0.00     0.031 A 
ATOM     18  C   UNL A   1      40.353  28.580  31.256  1.00  0.00     0.074 A 
ATOM     19  C   UNL A   1      40.520  28.099  28.826  1.00  0.00     0.049 A 
ATOM     20  N   UNL A   1      41.516  28.860  31.754  1.00  0.00    -0.248 NA
ATOM     21  C   UNL A   1      39.367  28.131  32.249  1.00  0.00     0.031 C 
ATOM     22  C   UNL A   1      40.052  27.940  27.446  1.00  0.00     0.029 A 
ATOM     23  N   UNL A   1      41.682  27.391  28.844  1.00  0.00    -0.354 N 
ATOM     24  C   UNL A   1      41.462  28.483  33.095  1.00  0.00     0.074 A 
ATOM     25  C   UNL A   1      40.093  28.133  33.368  1.00  0.00     0.031 C 
ATOM     26  C   UNL A   1      40.804  27.007  26.828  1.00  0.00     0.029 A 
ATOM     27  C   UNL A   1      41.878  26.607  27.720  1.00  0.00     0.049 A 
ATOM     28  H   UNL A   1      42.326  27.434  29.589  1.00  0.00     0.167 HD
ATOM     29  C   UNL A   1      42.590  28.314  33.839  1.00  0.00     0.037 A 
ATOM     30  C   UNL A   1      42.811  25.640  27.573  1.00  0.00     0.037 A 
ATOM     31  C   UNL A   1      43.697  29.052  33.297  1.00  0.00     0.049 A 
ATOM     32  C   UNL A   1      43.885  25.897  28.564  1.00  0.00     0.074 A 
ATOM     33  C   UNL A   1      43.957  30.393  33.081  1.00  0.00     0.029 A 
ATOM     34  N   UNL A   1      44.665  28.376  32.599  1.00  0.00    -0.354 N 
ATOM     35  N   UNL A   1      44.708  26.907  28.512  1.00  0.00    -0.248 NA
ATOM     36  C   UNL A   1      43.799  25.230  29.854  1.00  0.00     0.031 C 
ATOM     37  C   UNL A   1      44.748  30.434  31.897  1.00  0.00     0.029 A 
ATOM     38  C   UNL A   1      44.943  29.116  31.480  1.00  0.00     0.049 A 
ATOM     39  H   UNL A   1      45.080  27.521  32.853  1.00  0.00     0.167 HD
ATOM     40  C   UNL A   1      44.924  27.257  29.836  1.00  0.00     0.074 A 
ATOM     41  C   UNL A   1      44.434  26.124  30.613  1.00  0.00     0.031 C 
ATOM     42  C   UNL A   1      45.221  28.541  30.186  1.00  0.00     0.037 A 
BRANCH  29  43
ATOM     43  C   UNL A   1      42.766  27.230  34.876  1.00  0.00     0.064 A 
ATOM     44  C   UNL A   1      43.017  25.878  34.557  1.00  0.00     0.173 A 
ATOM     45  C   UNL A   1      42.999  27.587  36.221  1.00  0.00     0.173 A 
ATOM     46  F   UNL A   1      42.922  25.411  33.307  1.00  0.00    -0.203 F 
ATOM     47  C   UNL A   1      43.491  24.964  35.498  1.00  0.00     0.198 A 
ATOM     48  C   UNL A   1      43.524  26.681  37.148  1.00  0.00     0.198 A 
ATOM     49  F   UNL A   1      42.811  28.848  36.637  1.00  0.00    -0.203 F 
ATOM     50  F   UNL A   1      43.745  23.703  35.121  1.00  0.00    -0.200 F 
ATOM     51  C   UNL A   1      43.776  25.372  36.783  1.00  0.00     0.200 A 
ATOM     52  F   UNL A   1      43.851  27.102  38.377  1.00  0.00    -0.200 F 
ATOM     53  F   UNL A   1      44.341  24.520  37.649  1.00  0.00    -0.200 F 
ENDBRANCH  29  43
BRANCH  30  54
ATOM     54  C   UNL A   1      42.669  24.350  26.859  1.00  0.00     0.064 A 
ATOM     55  C   UNL A   1      42.099  23.220  27.479  1.00  0.00     0.173 A 
ATOM     56  C   UNL A   1      43.336  24.126  25.645  1.00  0.00     0.173 A 
ATOM     57  F   UNL A   1      41.512  23.311  28.682  1.00  0.00    -0.203 F 
ATOM     58  C   UNL A   1      42.201  21.944  26.927  1.00  0.00     0.198 A 
ATOM     59  C   UNL A   1      43.451  22.843  25.100  1.00  0.00     0.198 A 
ATOM     60  F   UNL A   1      43.944  25.139  25.012  1.00  0.00    -0.203 F 
ATOM     61  F   UNL A   1      41.684  20.894  27.581  1.00  0.00    -0.200 F 
ATOM     62  C   UNL A   1      42.892  21.753  25.747  1.00  0.00     0.200 A 
ATOM     63  F   UNL A   1      44.157  22.657  23.976  1.00  0.00    -0.200 F 
ATOM     64  F   UNL A   1      43.055  20.516  25.256  1.00  0.00    -0.200 F 
ENDBRANCH  30  54
BRANCH  42  65
ATOM     65  C   UNL A   1      45.596  29.500  29.093  1.00  0.00     0.064 A 
ATOM     66  C   UNL A   1      44.572  30.172  28.412  1.00  0.00     0.173 A 
ATOM     67  C   UNL A   1      46.904  29.641  28.599  1.00  0.00     0.173 A 
ATOM     68  F   UNL A   1      43.295  30.024  28.803  1.00  0.00    -0.203 F 
ATOM     69  C   UNL A   1      44.841  30.952  27.292  1.00  0.00     0.198 A 
ATOM     70  C   UNL A   1      47.175  30.452  27.499  1.00  0.00     0.198 A 
ATOM     71  F   UNL A   1      47.920  28.949  29.129  1.00  0.00    -0.203 F 
ATOM     72  F   UNL A   1      43.833  31.532  26.626  1.00  0.00    -0.200 F 
ATOM     73  C   UNL A   1      46.142  31.099  26.840  1.00  0.00     0.200 A 
ATOM     74  F   UNL A   1      48.433  30.575  27.048  1.00  0.00    -0.200 F 
ATOM     75  F   UNL A   1      46.398  31.838  25.752  1.00  0.00    -0.200 F 
ENDBRANCH  42  65
ENDBRANCH  16  17
ENDBRANCH   9  11
ENDBRANCH   8   9
ENDBRANCH   7   8
ENDBRANCH   6   7
ENDBRANCH   5   6
ENDBRANCH   4   5
ENDBRANCH   3   4
ENDBRANCH   2   3
ENDBRANCH   1   2
BRANCH   1  76
ATOM     76  C   UNL A   1      33.979  24.917  23.363  1.00  0.00     0.188 C 
BRANCH  76  77
ATOM     77  O   UNL A   1      34.663  23.704  23.656  1.00  0.00    -0.376 OA
BRANCH  77  78
ATOM     78  C   UNL A   1      35.533  23.564  24.764  1.00  0.00     0.202 C 
BRANCH  78  79
ATOM     79  C   UNL A   1      35.073  22.768  25.993  1.00  0.00     0.261 C 
BRANCH  79  80
ATOM     80  O   UNL A   1      34.274  23.495  26.927  1.00  0.00    -0.458 OA
BRANCH  80  81
ATOM     81  C   UNL A   1      33.035  22.950  27.153  1.00  0.00     0.360 C 
ATOM     82  O   UNL A   1      32.756  22.198  28.052  1.00  0.00    -0.244 OA
BRANCH  81  83
ATOM     83  C   UNL A   1      32.055  23.511  26.235  1.00  0.00     0.190 A 
ATOM     84  C   UNL A   1      31.374  24.709  26.297  1.00  0.00     0.147 A 
ATOM     85  N   UNL A   1      31.612  22.797  25.149  1.00  0.00    -0.123 NA
ATOM     86  N   UNL A   1      30.603  24.695  25.169  1.00  0.00    -0.237 N 
ATOM     87  N   UNL A   1      30.667  23.502  24.551  1.00  0.00    -0.066 NA
BRANCH  86  88
ATOM     88  C   UNL A   1      29.942  25.777  24.519  1.00  0.00     0.218 C 
ATOM     89  C   UNL A   1      30.375  27.221  24.838  1.00  0.00     0.296 C 
ATOM     90  C   UNL A   1      30.585  26.042  23.130  1.00  0.00     0.296 C 
ATOM     91  N   UNL A   1      30.515  27.490  23.392  1.00  0.00    -0.327 N 
ATOM     92  H   UNL A   1      31.248  28.119  23.064  1.00  0.00     0.348 HD
BRANCH  91  93
ATOM     93  C   UNL A   1      29.358  28.160  22.758  1.00  0.00     0.302 C 
BRANCH  93  94
ATOM     94  C   UNL A   1      29.196  29.660  22.887  1.00  0.00     0.045 A 
ATOM     95  C   UNL A   1      29.875  30.387  23.876  1.00  0.00     0.051 A 
ATOM     96  C   UNL A   1      28.316  30.356  22.046  1.00  0.00     0.132 A 
ATOM     97  C   UNL A   1      29.599  31.741  24.062  1.00  0.00     0.123 A 
ATOM     98  C   UNL A   1      28.059  31.716  22.218  1.00  0.00     0.043 A 
ATOM     99  F   UNL A   1      27.670  29.705  21.068  1.00  0.00    -0.206 F 
ATOM    100  F   UNL A   1      30.197  32.399  25.062  1.00  0.00    -0.207 F 
ATOM    101  C   UNL A   1      28.691  32.410  23.248  1.00  0.00     0.042 A 
ENDBRANCH  93  94
ENDBRANCH  91  93
ENDBRANCH  86  88
ENDBRANCH  81  83
ENDBRANCH  80  81
ENDBRANCH  79  80
ENDBRANCH  78  79
ENDBRANCH  77  78
ENDBRANCH  76  77
ENDBRANCH   1  76
TORSDOF 23
ENDMDL
