MODEL 1
REMARK VINA RESULT:      -9.3      0.000      0.000
REMARK SMILES C[C@H](C(=O)OCCOCCOCCOCCOC(=O)c1ccc(-c2c3nc(c(-c4c(F)c(F)c(F)c(F)c4F)c4ccc([nH]4)c(-c4c(F)c(F)c(F)c(F)c4F)c4nc(c(-c5c(F)c(F)c(F)c(F)c5F)c5ccc2[nH]5)C=C4)C=C3)cc1)S(=O)(=O)Cc1ccc(O)cc1
REMARK SMILES IDX 10 1 9 2 8 3 7 4 6 5 5 6 3 7 4 8 2 9 1 10 83 11 84 12 85 13
REMARK SMILES IDX 86 14 87 15 88 16 93 17 89 18 92 19 90 20 91 21 11 23 12 24
REMARK SMILES IDX 13 25 14 26 15 27 16 28 17 29 18 30 19 31 20 32 21 33 82 34
REMARK SMILES IDX 22 35 81 36 23 37 24 38 25 39 75 40 26 41 80 42 74 43 76 44
REMARK SMILES IDX 27 45 79 46 73 47 72 48 28 50 60 51 40 52 59 53 41 54 44 55
REMARK SMILES IDX 58 56 77 57 42 58 43 59 57 61 78 62 45 63 29 64 30 65 38 66
REMARK SMILES IDX 31 67 32 68 36 69 39 70 33 71 34 72 37 73 35 74 61 75 62 76
REMARK SMILES IDX 70 77 63 78 64 79 68 80 71 81 65 82 66 83 69 84 67 85 46 86
REMARK SMILES IDX 47 87 55 88 48 89 49 90 53 91 56 92 50 93 51 94 54 95 52 96
REMARK H PARENT 91 22 76 49 44 60
REMARK Flexibility Score: inf
ROOT
ATOM      1  C   UNL A   1      38.570  21.473  25.378  1.00  0.00     0.188 C 
ENDROOT
BRANCH   1   2
ATOM      2  C   UNL A   1      37.235  20.684  25.349  1.00  0.00     0.188 C 
BRANCH   2   3
ATOM      3  O   UNL A   1      36.150  21.401  24.803  1.00  0.00    -0.376 OA
BRANCH   3   4
ATOM      4  C   UNL A   1      34.843  20.913  25.038  1.00  0.00     0.202 C 
BRANCH   4   5
ATOM      5  C   UNL A   1      33.791  21.855  25.655  1.00  0.00     0.261 C 
BRANCH   5   6
ATOM      6  O   UNL A   1      32.383  21.650  25.365  1.00  0.00    -0.462 OA
BRANCH   6   7
ATOM      7  C   UNL A   1      31.764  22.473  24.490  1.00  0.00     0.324 C 
ATOM      8  O   UNL A   1      32.113  22.562  23.315  1.00  0.00    -0.251 OA
BRANCH   7   9
ATOM      9  C   UNL A   1      30.734  23.382  25.105  1.00  0.00     0.215 C 
ATOM     10  C   UNL A   1      30.346  22.812  26.460  1.00  0.00     0.037 C 
BRANCH   9  11
ATOM     11  S   UNL A   1      31.055  25.144  25.160  1.00  0.00     0.167 S 
ATOM     12  O   UNL A   1      31.405  25.538  23.804  1.00  0.00    -0.228 OA
ATOM     13  O   UNL A   1      29.880  25.777  25.742  1.00  0.00    -0.228 OA
BRANCH  11  14
ATOM     14  C   UNL A   1      32.462  25.591  26.167  1.00  0.00     0.173 C 
BRANCH  14  15
ATOM     15  C   UNL A   1      32.746  27.020  26.544  1.00  0.00    -0.033 A 
ATOM     16  C   UNL A   1      31.674  27.732  27.133  1.00  0.00     0.008 A 
ATOM     17  C   UNL A   1      33.932  27.716  26.319  1.00  0.00     0.008 A 
ATOM     18  C   UNL A   1      31.745  29.108  27.353  1.00  0.00     0.046 A 
ATOM     19  C   UNL A   1      33.992  29.103  26.491  1.00  0.00     0.046 A 
ATOM     20  C   UNL A   1      32.889  29.791  26.978  1.00  0.00     0.115 A 
BRANCH  20  21
ATOM     21  O   UNL A   1      32.892  31.148  27.096  1.00  0.00    -0.508 OA
ATOM     22  H   UNL A   1      33.569  31.574  27.586  1.00  0.00     0.293 HD
ENDBRANCH  20  21
ENDBRANCH  14  15
ENDBRANCH  11  14
ENDBRANCH   9  11
ENDBRANCH   7   9
ENDBRANCH   6   7
ENDBRANCH   5   6
ENDBRANCH   4   5
ENDBRANCH   3   4
ENDBRANCH   2   3
ENDBRANCH   1   2
BRANCH   1  23
ATOM     23  O   UNL A   1      39.038  22.193  26.507  1.00  0.00    -0.377 OA
BRANCH  23  24
ATOM     24  C   UNL A   1      40.356  21.961  26.949  1.00  0.00     0.188 C 
BRANCH  24  25
ATOM     25  C   UNL A   1      41.141  20.900  26.159  1.00  0.00     0.188 C 
BRANCH  25  26
ATOM     26  O   UNL A   1      41.279  19.671  26.849  1.00  0.00    -0.376 OA
BRANCH  26  27
ATOM     27  C   UNL A   1      42.465  18.906  26.744  1.00  0.00     0.202 C 
BRANCH  27  28
ATOM     28  C   UNL A   1      43.107  18.556  25.388  1.00  0.00     0.261 C 
BRANCH  28  29
ATOM     29  O   UNL A   1      44.486  18.871  25.204  1.00  0.00    -0.460 OA
BRANCH  29  30
ATOM     30  C   UNL A   1      44.793  19.748  24.224  1.00  0.00     0.338 C 
ATOM     31  O   UNL A   1      44.973  19.511  23.051  1.00  0.00    -0.246 OA
BRANCH  30  32
ATOM     32  C   UNL A   1      44.670  21.098  24.812  1.00  0.00     0.060 A 
ATOM     33  C   UNL A   1      44.253  22.151  23.989  1.00  0.00     0.016 A 
ATOM     34  C   UNL A   1      44.926  21.309  26.170  1.00  0.00     0.016 A 
ATOM     35  C   UNL A   1      44.078  23.423  24.523  1.00  0.00     0.010 A 
ATOM     36  C   UNL A   1      44.805  22.598  26.693  1.00  0.00     0.010 A 
ATOM     37  C   UNL A   1      44.404  23.659  25.864  1.00  0.00    -0.014 A 
BRANCH  37  38
ATOM     38  C   UNL A   1      44.568  25.057  26.315  1.00  0.00     0.031 A 
ATOM     39  C   UNL A   1      45.939  25.660  26.206  1.00  0.00     0.074 A 
ATOM     40  C   UNL A   1      43.527  25.779  26.761  1.00  0.00     0.049 A 
ATOM     41  N   UNL A   1      46.355  26.852  26.545  1.00  0.00    -0.248 NA
ATOM     42  C   UNL A   1      46.984  24.796  25.632  1.00  0.00     0.031 C 
ATOM     43  C   UNL A   1      42.147  25.308  26.851  1.00  0.00     0.029 A 
ATOM     44  N   UNL A   1      43.478  27.069  27.224  1.00  0.00    -0.354 N 
ATOM     45  C   UNL A   1      47.707  26.876  26.231  1.00  0.00     0.074 A 
ATOM     46  C   UNL A   1      48.050  25.577  25.701  1.00  0.00     0.031 C 
ATOM     47  C   UNL A   1      41.385  26.296  27.354  1.00  0.00     0.029 A 
ATOM     48  C   UNL A   1      42.230  27.452  27.650  1.00  0.00     0.049 A 
ATOM     49  H   UNL A   1      44.262  27.663  27.249  1.00  0.00     0.167 HD
ATOM     50  C   UNL A   1      48.582  27.898  26.372  1.00  0.00     0.037 A 
ATOM     51  C   UNL A   1      41.835  28.599  28.234  1.00  0.00     0.037 A 
ATOM     52  C   UNL A   1      48.231  29.183  26.913  1.00  0.00     0.049 A 
ATOM     53  C   UNL A   1      42.852  29.690  28.464  1.00  0.00     0.074 A 
ATOM     54  C   UNL A   1      49.034  30.292  27.091  1.00  0.00     0.029 A 
ATOM     55  N   UNL A   1      46.967  29.520  27.379  1.00  0.00    -0.354 N 
ATOM     56  N   UNL A   1      44.123  29.723  28.142  1.00  0.00    -0.248 NA
ATOM     57  C   UNL A   1      42.376  30.907  29.137  1.00  0.00     0.031 C 
ATOM     58  C   UNL A   1      48.275  31.280  27.726  1.00  0.00     0.029 A 
ATOM     59  C   UNL A   1      46.978  30.812  27.877  1.00  0.00     0.049 A 
ATOM     60  H   UNL A   1      46.180  28.928  27.358  1.00  0.00     0.167 HD
ATOM     61  C   UNL A   1      44.590  30.971  28.539  1.00  0.00     0.074 A 
ATOM     62  C   UNL A   1      43.459  31.670  29.115  1.00  0.00     0.031 C 
ATOM     63  C   UNL A   1      45.838  31.493  28.436  1.00  0.00     0.037 A 
BRANCH  50  64
ATOM     64  C   UNL A   1      50.008  27.646  25.979  1.00  0.00     0.064 A 
ATOM     65  C   UNL A   1      50.433  27.704  24.642  1.00  0.00     0.173 A 
ATOM     66  C   UNL A   1      50.968  27.356  26.959  1.00  0.00     0.173 A 
ATOM     67  F   UNL A   1      49.551  27.956  23.663  1.00  0.00    -0.203 F 
ATOM     68  C   UNL A   1      51.759  27.453  24.301  1.00  0.00     0.198 A 
ATOM     69  C   UNL A   1      52.301  27.140  26.618  1.00  0.00     0.198 A 
ATOM     70  F   UNL A   1      50.616  27.285  28.251  1.00  0.00    -0.203 F 
ATOM     71  F   UNL A   1      52.131  27.460  23.012  1.00  0.00    -0.200 F 
ATOM     72  C   UNL A   1      52.694  27.180  25.289  1.00  0.00     0.200 A 
ATOM     73  F   UNL A   1      53.203  26.887  27.576  1.00  0.00    -0.200 F 
ATOM     74  F   UNL A   1      53.971  26.947  24.960  1.00  0.00    -0.200 F 
ENDBRANCH  50  64
BRANCH  51  75
ATOM     75  C   UNL A   1      40.419  28.776  28.657  1.00  0.00     0.064 A 
ATOM     76  C   UNL A   1      40.010  28.475  29.963  1.00  0.00     0.173 A 
ATOM     77  C   UNL A   1      39.441  29.222  27.756  1.00  0.00     0.173 A 
ATOM     78  F   UNL A   1      40.902  28.021  30.856  1.00  0.00    -0.203 F 
ATOM     79  C   UNL A   1      38.675  28.592  30.346  1.00  0.00     0.198 A 
ATOM     80  C   UNL A   1      38.111  29.369  28.149  1.00  0.00     0.198 A 
ATOM     81  F   UNL A   1      39.775  29.520  26.492  1.00  0.00    -0.203 F 
ATOM     82  F   UNL A   1      38.303  28.244  31.586  1.00  0.00    -0.200 F 
ATOM     83  C   UNL A   1      37.728  29.044  29.440  1.00  0.00     0.200 A 
ATOM     84  F   UNL A   1      37.202  29.820  27.273  1.00  0.00    -0.200 F 
ATOM     85  F   UNL A   1      36.445  29.157  29.809  1.00  0.00    -0.200 F 
ENDBRANCH  51  75
BRANCH  63  86
ATOM     86  C   UNL A   1      46.038  32.905  28.909  1.00  0.00     0.064 A 
ATOM     87  C   UNL A   1      46.473  33.197  30.210  1.00  0.00     0.173 A 
ATOM     88  C   UNL A   1      45.838  33.979  28.028  1.00  0.00     0.173 A 
ATOM     89  F   UNL A   1      46.669  32.209  31.096  1.00  0.00    -0.203 F 
ATOM     90  C   UNL A   1      46.671  34.514  30.619  1.00  0.00     0.198 A 
ATOM     91  C   UNL A   1      46.073  35.291  28.429  1.00  0.00     0.198 A 
ATOM     92  F   UNL A   1      45.432  33.756  26.768  1.00  0.00    -0.203 F 
ATOM     93  F   UNL A   1      47.034  34.772  31.884  1.00  0.00    -0.200 F 
ATOM     94  C   UNL A   1      46.479  35.558  29.727  1.00  0.00     0.200 A 
ATOM     95  F   UNL A   1      45.907  36.296  27.558  1.00  0.00    -0.200 F 
ATOM     96  F   UNL A   1      46.681  36.823  30.119  1.00  0.00    -0.200 F 
ENDBRANCH  63  86
ENDBRANCH  37  38
ENDBRANCH  30  32
ENDBRANCH  29  30
ENDBRANCH  28  29
ENDBRANCH  27  28
ENDBRANCH  26  27
ENDBRANCH  25  26
ENDBRANCH  24  25
ENDBRANCH  23  24
ENDBRANCH   1  23
TORSDOF 24
ENDMDL
MODEL 2
REMARK VINA RESULT:      -9.2      2.716      8.950
REMARK SMILES C[C@H](C(=O)OCCOCCOCCOCCOC(=O)c1ccc(-c2c3nc(c(-c4c(F)c(F)c(F)c(F)c4F)c4ccc([nH]4)c(-c4c(F)c(F)c(F)c(F)c4F)c4nc(c(-c5c(F)c(F)c(F)c(F)c5F)c5ccc2[nH]5)C=C4)C=C3)cc1)S(=O)(=O)Cc1ccc(O)cc1
REMARK SMILES IDX 10 1 9 2 8 3 7 4 6 5 5 6 3 7 4 8 2 9 1 10 83 11 84 12 85 13
REMARK SMILES IDX 86 14 87 15 88 16 93 17 89 18 92 19 90 20 91 21 11 23 12 24
REMARK SMILES IDX 13 25 14 26 15 27 16 28 17 29 18 30 19 31 20 32 21 33 82 34
REMARK SMILES IDX 22 35 81 36 23 37 24 38 25 39 75 40 26 41 80 42 74 43 76 44
REMARK SMILES IDX 27 45 79 46 73 47 72 48 28 50 60 51 40 52 59 53 41 54 44 55
REMARK SMILES IDX 58 56 77 57 42 58 43 59 57 61 78 62 45 63 29 64 30 65 38 66
REMARK SMILES IDX 31 67 32 68 36 69 39 70 33 71 34 72 37 73 35 74 61 75 62 76
REMARK SMILES IDX 70 77 63 78 64 79 68 80 71 81 65 82 66 83 69 84 67 85 46 86
REMARK SMILES IDX 47 87 55 88 48 89 49 90 53 91 56 92 50 93 51 94 54 95 52 96
REMARK H PARENT 91 22 76 49 44 60
REMARK Flexibility Score: inf
ROOT
ATOM      1  C   UNL A   1      33.662  31.105  27.150  1.00  0.00     0.188 C 
ENDROOT
BRANCH   1   2
ATOM      2  C   UNL A   1      34.371  29.805  27.612  1.00  0.00     0.188 C 
BRANCH   2   3
ATOM      3  O   UNL A   1      33.866  28.628  27.022  1.00  0.00    -0.376 OA
BRANCH   3   4
ATOM      4  C   UNL A   1      32.872  28.757  26.024  1.00  0.00     0.202 C 
BRANCH   4   5
ATOM      5  C   UNL A   1      31.745  27.707  25.949  1.00  0.00     0.261 C 
BRANCH   5   6
ATOM      6  O   UNL A   1      32.026  26.324  26.287  1.00  0.00    -0.462 OA
BRANCH   6   7
ATOM      7  C   UNL A   1      31.094  25.380  26.026  1.00  0.00     0.324 C 
ATOM      8  O   UNL A   1      29.967  25.419  26.511  1.00  0.00    -0.251 OA
BRANCH   7   9
ATOM      9  C   UNL A   1      31.600  24.202  25.237  1.00  0.00     0.215 C 
ATOM     10  C   UNL A   1      30.997  22.938  25.829  1.00  0.00     0.037 C 
BRANCH   9  11
ATOM     11  S   UNL A   1      31.495  24.246  23.448  1.00  0.00     0.167 S 
ATOM     12  O   UNL A   1      30.285  23.520  23.093  1.00  0.00    -0.228 OA
ATOM     13  O   UNL A   1      31.559  25.644  23.048  1.00  0.00    -0.228 OA
BRANCH  11  14
ATOM     14  C   UNL A   1      32.828  23.388  22.624  1.00  0.00     0.173 C 
BRANCH  14  15
ATOM     15  C   UNL A   1      34.020  22.861  23.378  1.00  0.00    -0.033 A 
ATOM     16  C   UNL A   1      33.819  21.654  24.090  1.00  0.00     0.008 A 
ATOM     17  C   UNL A   1      35.267  23.471  23.487  1.00  0.00     0.008 A 
ATOM     18  C   UNL A   1      34.777  21.163  24.977  1.00  0.00     0.046 A 
ATOM     19  C   UNL A   1      36.211  23.010  24.411  1.00  0.00     0.046 A 
ATOM     20  C   UNL A   1      35.946  21.877  25.169  1.00  0.00     0.115 A 
BRANCH  20  21
ATOM     21  O   UNL A   1      36.815  21.440  26.122  1.00  0.00    -0.508 OA
ATOM     22  H   UNL A   1      36.902  21.911  26.928  1.00  0.00     0.293 HD
ENDBRANCH  20  21
ENDBRANCH  14  15
ENDBRANCH  11  14
ENDBRANCH   9  11
ENDBRANCH   7   9
ENDBRANCH   6   7
ENDBRANCH   5   6
ENDBRANCH   4   5
ENDBRANCH   3   4
ENDBRANCH   2   3
ENDBRANCH   1   2
BRANCH   1  23
ATOM     23  O   UNL A   1      33.216  32.118  28.037  1.00  0.00    -0.377 OA
BRANCH  23  24
ATOM     24  C   UNL A   1      33.888  33.357  28.030  1.00  0.00     0.188 C 
BRANCH  24  25
ATOM     25  C   UNL A   1      35.334  33.327  28.555  1.00  0.00     0.188 C 
BRANCH  25  26
ATOM     26  O   UNL A   1      35.501  34.012  29.784  1.00  0.00    -0.376 OA
BRANCH  26  27
ATOM     27  C   UNL A   1      34.479  34.008  30.764  1.00  0.00     0.202 C 
BRANCH  27  28
ATOM     28  C   UNL A   1      34.409  32.952  31.883  1.00  0.00     0.261 C 
BRANCH  28  29
ATOM     29  O   UNL A   1      35.431  31.958  31.925  1.00  0.00    -0.460 OA
BRANCH  29  30
ATOM     30  C   UNL A   1      36.407  32.114  32.845  1.00  0.00     0.338 C 
ATOM     31  O   UNL A   1      36.279  32.311  34.032  1.00  0.00    -0.246 OA
BRANCH  30  32
ATOM     32  C   UNL A   1      37.681  31.797  32.166  1.00  0.00     0.060 A 
ATOM     33  C   UNL A   1      37.815  32.120  30.810  1.00  0.00     0.016 A 
ATOM     34  C   UNL A   1      38.741  31.224  32.873  1.00  0.00     0.016 A 
ATOM     35  C   UNL A   1      39.018  31.881  30.154  1.00  0.00     0.010 A 
ATOM     36  C   UNL A   1      39.931  30.933  32.201  1.00  0.00     0.010 A 
ATOM     37  C   UNL A   1      40.060  31.240  30.836  1.00  0.00    -0.014 A 
BRANCH  37  38
ATOM     38  C   UNL A   1      41.171  30.667  30.048  1.00  0.00     0.031 A 
ATOM     39  C   UNL A   1      42.331  31.568  29.735  1.00  0.00     0.074 A 
ATOM     40  C   UNL A   1      41.171  29.380  29.663  1.00  0.00     0.049 A 
ATOM     41  N   UNL A   1      43.417  31.323  29.051  1.00  0.00    -0.248 NA
ATOM     42  C   UNL A   1      42.252  32.937  30.273  1.00  0.00     0.031 C 
ATOM     43  C   UNL A   1      40.124  28.407  29.964  1.00  0.00     0.029 A 
ATOM     44  N   UNL A   1      42.091  28.675  28.931  1.00  0.00    -0.354 N 
ATOM     45  C   UNL A   1      44.144  32.505  29.073  1.00  0.00     0.074 A 
ATOM     46  C   UNL A   1      43.369  33.475  29.812  1.00  0.00     0.031 C 
ATOM     47  C   UNL A   1      40.455  27.228  29.408  1.00  0.00     0.029 A 
ATOM     48  C   UNL A   1      41.719  27.377  28.687  1.00  0.00     0.049 A 
ATOM     49  H   UNL A   1      42.937  29.063  28.611  1.00  0.00     0.167 HD
ATOM     50  C   UNL A   1      45.356  32.754  28.524  1.00  0.00     0.037 A 
ATOM     51  C   UNL A   1      42.325  26.432  27.942  1.00  0.00     0.037 A 
ATOM     52  C   UNL A   1      46.111  31.784  27.780  1.00  0.00     0.049 A 
ATOM     53  C   UNL A   1      43.632  26.765  27.264  1.00  0.00     0.074 A 
ATOM     54  C   UNL A   1      47.352  31.925  27.190  1.00  0.00     0.029 A 
ATOM     55  N   UNL A   1      45.681  30.492  27.511  1.00  0.00    -0.354 N 
ATOM     56  N   UNL A   1      44.333  27.873  27.309  1.00  0.00    -0.248 NA
ATOM     57  C   UNL A   1      44.234  25.712  26.435  1.00  0.00     0.031 C 
ATOM     58  C   UNL A   1      47.645  30.741  26.507  1.00  0.00     0.029 A 
ATOM     59  C   UNL A   1      46.619  29.835  26.733  1.00  0.00     0.049 A 
ATOM     60  H   UNL A   1      44.835  30.100  27.827  1.00  0.00     0.167 HD
ATOM     61  C   UNL A   1      45.471  27.641  26.545  1.00  0.00     0.074 A 
ATOM     62  C   UNL A   1      45.372  26.279  26.061  1.00  0.00     0.031 C 
ATOM     63  C   UNL A   1      46.506  28.475  26.271  1.00  0.00     0.037 A 
BRANCH  50  64
ATOM     64  C   UNL A   1      45.909  34.141  28.671  1.00  0.00     0.064 A 
ATOM     65  C   UNL A   1      45.637  35.153  27.737  1.00  0.00     0.173 A 
ATOM     66  C   UNL A   1      46.714  34.466  29.772  1.00  0.00     0.173 A 
ATOM     67  F   UNL A   1      44.890  34.891  26.654  1.00  0.00    -0.203 F 
ATOM     68  C   UNL A   1      46.173  36.430  27.888  1.00  0.00     0.198 A 
ATOM     69  C   UNL A   1      47.220  35.752  29.938  1.00  0.00     0.198 A 
ATOM     70  F   UNL A   1      47.009  33.536  30.693  1.00  0.00    -0.203 F 
ATOM     71  F   UNL A   1      45.944  37.366  26.955  1.00  0.00    -0.200 F 
ATOM     72  C   UNL A   1      46.957  36.731  28.992  1.00  0.00     0.200 A 
ATOM     73  F   UNL A   1      47.968  36.043  31.012  1.00  0.00    -0.200 F 
ATOM     74  F   UNL A   1      47.465  37.961  29.140  1.00  0.00    -0.200 F 
ENDBRANCH  50  64
BRANCH  51  75
ATOM     75  C   UNL A   1      41.706  25.089  27.782  1.00  0.00     0.064 A 
ATOM     76  C   UNL A   1      42.261  23.957  28.395  1.00  0.00     0.173 A 
ATOM     77  C   UNL A   1      40.563  24.904  26.990  1.00  0.00     0.173 A 
ATOM     78  F   UNL A   1      43.369  24.076  29.142  1.00  0.00    -0.203 F 
ATOM     79  C   UNL A   1      41.711  22.691  28.203  1.00  0.00     0.198 A 
ATOM     80  C   UNL A   1      39.995  23.642  26.826  1.00  0.00     0.198 A 
ATOM     81  F   UNL A   1      39.992  25.952  26.377  1.00  0.00    -0.203 F 
ATOM     82  F   UNL A   1      42.296  21.619  28.757  1.00  0.00    -0.200 F 
ATOM     83  C   UNL A   1      40.575  22.535  27.424  1.00  0.00     0.200 A 
ATOM     84  F   UNL A   1      38.889  23.499  26.082  1.00  0.00    -0.200 F 
ATOM     85  F   UNL A   1      40.047  21.318  27.241  1.00  0.00    -0.200 F 
ENDBRANCH  51  75
BRANCH  63  86
ATOM     86  C   UNL A   1      47.638  27.925  25.450  1.00  0.00     0.064 A 
ATOM     87  C   UNL A   1      48.832  27.480  26.036  1.00  0.00     0.173 A 
ATOM     88  C   UNL A   1      47.503  27.797  24.059  1.00  0.00     0.173 A 
ATOM     89  F   UNL A   1      49.017  27.590  27.360  1.00  0.00    -0.203 F 
ATOM     90  C   UNL A   1      49.860  26.956  25.255  1.00  0.00     0.198 A 
ATOM     91  C   UNL A   1      48.518  27.239  23.287  1.00  0.00     0.198 A 
ATOM     92  F   UNL A   1      46.378  28.198  23.447  1.00  0.00    -0.203 F 
ATOM     93  F   UNL A   1      51.014  26.588  25.831  1.00  0.00    -0.200 F 
ATOM     94  C   UNL A   1      49.699  26.828  23.884  1.00  0.00     0.200 A 
ATOM     95  F   UNL A   1      48.350  27.097  21.965  1.00  0.00    -0.200 F 
ATOM     96  F   UNL A   1      50.685  26.312  23.137  1.00  0.00    -0.200 F 
ENDBRANCH  63  86
ENDBRANCH  37  38
ENDBRANCH  30  32
ENDBRANCH  29  30
ENDBRANCH  28  29
ENDBRANCH  27  28
ENDBRANCH  26  27
ENDBRANCH  25  26
ENDBRANCH  24  25
ENDBRANCH  23  24
ENDBRANCH   1  23
TORSDOF 24
ENDMDL
MODEL 3
REMARK VINA RESULT:      -9.2      1.887      7.648
REMARK SMILES C[C@H](C(=O)OCCOCCOCCOCCOC(=O)c1ccc(-c2c3nc(c(-c4c(F)c(F)c(F)c(F)c4F)c4ccc([nH]4)c(-c4c(F)c(F)c(F)c(F)c4F)c4nc(c(-c5c(F)c(F)c(F)c(F)c5F)c5ccc2[nH]5)C=C4)C=C3)cc1)S(=O)(=O)Cc1ccc(O)cc1
REMARK SMILES IDX 10 1 9 2 8 3 7 4 6 5 5 6 3 7 4 8 2 9 1 10 83 11 84 12 85 13
REMARK SMILES IDX 86 14 87 15 88 16 93 17 89 18 92 19 90 20 91 21 11 23 12 24
REMARK SMILES IDX 13 25 14 26 15 27 16 28 17 29 18 30 19 31 20 32 21 33 82 34
REMARK SMILES IDX 22 35 81 36 23 37 24 38 25 39 75 40 26 41 80 42 74 43 76 44
REMARK SMILES IDX 27 45 79 46 73 47 72 48 28 50 60 51 40 52 59 53 41 54 44 55
REMARK SMILES IDX 58 56 77 57 42 58 43 59 57 61 78 62 45 63 29 64 30 65 38 66
REMARK SMILES IDX 31 67 32 68 36 69 39 70 33 71 34 72 37 73 35 74 61 75 62 76
REMARK SMILES IDX 70 77 63 78 64 79 68 80 71 81 65 82 66 83 69 84 67 85 46 86
REMARK SMILES IDX 47 87 55 88 48 89 49 90 53 91 56 92 50 93 51 94 54 95 52 96
REMARK H PARENT 91 22 76 49 44 60
REMARK Flexibility Score: inf
ROOT
ATOM      1  C   UNL A   1      38.474  22.507  25.557  1.00  0.00     0.188 C 
ENDROOT
BRANCH   1   2
ATOM      2  C   UNL A   1      36.964  22.203  25.379  1.00  0.00     0.188 C 
BRANCH   2   3
ATOM      3  O   UNL A   1      36.113  23.022  26.149  1.00  0.00    -0.376 OA
BRANCH   3   4
ATOM      4  C   UNL A   1      35.474  24.109  25.509  1.00  0.00     0.202 C 
BRANCH   4   5
ATOM      5  C   UNL A   1      33.979  23.996  25.151  1.00  0.00     0.261 C 
BRANCH   5   6
ATOM      6  O   UNL A   1      32.994  24.718  25.936  1.00  0.00    -0.462 OA
BRANCH   6   7
ATOM      7  C   UNL A   1      32.955  26.067  25.864  1.00  0.00     0.324 C 
ATOM      8  O   UNL A   1      33.951  26.763  26.046  1.00  0.00    -0.251 OA
BRANCH   7   9
ATOM      9  C   UNL A   1      31.574  26.647  25.709  1.00  0.00     0.215 C 
ATOM     10  C   UNL A   1      31.437  27.813  26.675  1.00  0.00     0.037 C 
BRANCH   9  11
ATOM     11  S   UNL A   1      30.975  27.035  24.066  1.00  0.00     0.167 S 
ATOM     12  O   UNL A   1      31.708  26.174  23.150  1.00  0.00    -0.228 OA
ATOM     13  O   UNL A   1      29.528  26.883  24.088  1.00  0.00    -0.228 OA
BRANCH  11  14
ATOM     14  C   UNL A   1      31.332  28.705  23.542  1.00  0.00     0.173 C 
BRANCH  14  15
ATOM     15  C   UNL A   1      30.238  29.696  23.245  1.00  0.00    -0.033 A 
ATOM     16  C   UNL A   1      29.734  29.686  21.923  1.00  0.00     0.008 A 
ATOM     17  C   UNL A   1      29.723  30.648  24.122  1.00  0.00     0.008 A 
ATOM     18  C   UNL A   1      28.860  30.674  21.469  1.00  0.00     0.046 A 
ATOM     19  C   UNL A   1      28.886  31.669  23.659  1.00  0.00     0.046 A 
ATOM     20  C   UNL A   1      28.485  31.690  22.330  1.00  0.00     0.115 A 
BRANCH  20  21
ATOM     21  O   UNL A   1      27.724  32.704  21.832  1.00  0.00    -0.508 OA
ATOM     22  H   UNL A   1      27.504  32.720  20.921  1.00  0.00     0.293 HD
ENDBRANCH  20  21
ENDBRANCH  14  15
ENDBRANCH  11  14
ENDBRANCH   9  11
ENDBRANCH   7   9
ENDBRANCH   6   7
ENDBRANCH   5   6
ENDBRANCH   4   5
ENDBRANCH   3   4
ENDBRANCH   2   3
ENDBRANCH   1   2
BRANCH   1  23
ATOM     23  O   UNL A   1      39.075  22.822  26.802  1.00  0.00    -0.377 OA
BRANCH  23  24
ATOM     24  C   UNL A   1      40.362  22.317  27.071  1.00  0.00     0.188 C 
BRANCH  24  25
ATOM     25  C   UNL A   1      40.766  21.072  26.262  1.00  0.00     0.188 C 
BRANCH  25  26
ATOM     26  O   UNL A   1      40.998  19.929  27.065  1.00  0.00    -0.376 OA
BRANCH  26  27
ATOM     27  C   UNL A   1      42.229  19.233  27.002  1.00  0.00     0.202 C 
BRANCH  27  28
ATOM     28  C   UNL A   1      42.852  18.772  25.671  1.00  0.00     0.261 C 
BRANCH  28  29
ATOM     29  O   UNL A   1      44.228  19.070  25.442  1.00  0.00    -0.460 OA
BRANCH  29  30
ATOM     30  C   UNL A   1      44.519  19.892  24.412  1.00  0.00     0.338 C 
ATOM     31  O   UNL A   1      44.555  19.616  23.234  1.00  0.00    -0.246 OA
BRANCH  30  32
ATOM     32  C   UNL A   1      44.590  21.258  24.970  1.00  0.00     0.060 A 
ATOM     33  C   UNL A   1      44.352  22.342  24.117  1.00  0.00     0.016 A 
ATOM     34  C   UNL A   1      44.849  21.461  26.328  1.00  0.00     0.016 A 
ATOM     35  C   UNL A   1      44.361  23.639  24.620  1.00  0.00     0.010 A 
ATOM     36  C   UNL A   1      44.914  22.765  26.823  1.00  0.00     0.010 A 
ATOM     37  C   UNL A   1      44.693  23.855  25.964  1.00  0.00    -0.014 A 
BRANCH  37  38
ATOM     38  C   UNL A   1      45.058  25.222  26.389  1.00  0.00     0.031 A 
ATOM     39  C   UNL A   1      43.974  26.069  26.991  1.00  0.00     0.074 A 
ATOM     40  C   UNL A   1      46.317  25.678  26.287  1.00  0.00     0.049 A 
ATOM     41  N   UNL A   1      44.022  27.300  27.427  1.00  0.00    -0.248 NA
ATOM     42  C   UNL A   1      42.651  25.434  27.120  1.00  0.00     0.031 C 
ATOM     43  C   UNL A   1      47.453  24.918  25.772  1.00  0.00     0.029 A 
ATOM     44  N   UNL A   1      46.844  26.901  26.614  1.00  0.00    -0.354 N 
ATOM     45  C   UNL A   1      42.739  27.586  27.875  1.00  0.00     0.074 A 
ATOM     46  C   UNL A   1      41.928  26.415  27.635  1.00  0.00     0.031 C 
ATOM     47  C   UNL A   1      48.548  25.699  25.807  1.00  0.00     0.029 A 
ATOM     48  C   UNL A   1      48.178  27.020  26.314  1.00  0.00     0.049 A 
ATOM     49  H   UNL A   1      46.317  27.623  27.025  1.00  0.00     0.167 HD
ATOM     50  C   UNL A   1      42.284  28.728  28.439  1.00  0.00     0.037 A 
ATOM     51  C   UNL A   1      48.992  28.089  26.418  1.00  0.00     0.037 A 
ATOM     52  C   UNL A   1      43.099  29.891  28.661  1.00  0.00     0.049 A 
ATOM     53  C   UNL A   1      48.435  29.381  26.966  1.00  0.00     0.074 A 
ATOM     54  C   UNL A   1      42.744  31.096  29.233  1.00  0.00     0.029 A 
ATOM     55  N   UNL A   1      44.436  29.994  28.299  1.00  0.00    -0.354 N 
ATOM     56  N   UNL A   1      47.230  29.642  27.415  1.00  0.00    -0.248 NA
ATOM     57  C   UNL A   1      49.354  30.525  27.025  1.00  0.00     0.031 C 
ATOM     58  C   UNL A   1      43.846  31.954  29.159  1.00  0.00     0.029 A 
ATOM     59  C   UNL A   1      44.911  31.257  28.607  1.00  0.00     0.049 A 
ATOM     60  H   UNL A   1      44.967  29.275  27.886  1.00  0.00     0.167 HD
ATOM     61  C   UNL A   1      47.255  30.965  27.840  1.00  0.00     0.074 A 
ATOM     62  C   UNL A   1      48.601  31.448  27.607  1.00  0.00     0.031 C 
ATOM     63  C   UNL A   1      46.258  31.713  28.377  1.00  0.00     0.037 A 
BRANCH  50  64
ATOM     64  C   UNL A   1      40.831  28.784  28.808  1.00  0.00     0.064 A 
ATOM     65  C   UNL A   1      40.382  28.508  30.109  1.00  0.00     0.173 A 
ATOM     66  C   UNL A   1      39.872  29.135  27.846  1.00  0.00     0.173 A 
ATOM     67  F   UNL A   1      41.254  28.147  31.062  1.00  0.00    -0.203 F 
ATOM     68  C   UNL A   1      39.026  28.554  30.424  1.00  0.00     0.198 A 
ATOM     69  C   UNL A   1      38.521  29.214  28.173  1.00  0.00     0.198 A 
ATOM     70  F   UNL A   1      40.246  29.405  26.587  1.00  0.00    -0.203 F 
ATOM     71  F   UNL A   1      38.616  28.233  31.660  1.00  0.00    -0.200 F 
ATOM     72  C   UNL A   1      38.098  28.915  29.459  1.00  0.00     0.200 A 
ATOM     73  F   UNL A   1      37.629  29.574  27.241  1.00  0.00    -0.200 F 
ATOM     74  F   UNL A   1      36.795  28.967  29.765  1.00  0.00    -0.200 F 
ENDBRANCH  50  64
BRANCH  51  75
ATOM     75  C   UNL A   1      50.412  27.996  25.985  1.00  0.00     0.064 A 
ATOM     76  C   UNL A   1      50.758  28.019  24.626  1.00  0.00     0.173 A 
ATOM     77  C   UNL A   1      51.450  27.854  26.917  1.00  0.00     0.173 A 
ATOM     78  F   UNL A   1      49.800  28.128  23.693  1.00  0.00    -0.203 F 
ATOM     79  C   UNL A   1      52.083  27.880  24.217  1.00  0.00     0.198 A 
ATOM     80  C   UNL A   1      52.778  27.747  26.508  1.00  0.00     0.198 A 
ATOM     81  F   UNL A   1      51.176  27.821  28.230  1.00  0.00    -0.203 F 
ATOM     82  F   UNL A   1      52.379  27.851  22.910  1.00  0.00    -0.200 F 
ATOM     83  C   UNL A   1      53.093  27.751  25.159  1.00  0.00     0.200 A 
ATOM     84  F   UNL A   1      53.752  27.635  27.423  1.00  0.00    -0.200 F 
ATOM     85  F   UNL A   1      54.366  27.619  24.764  1.00  0.00    -0.200 F 
ENDBRANCH  51  75
BRANCH  63  86
ATOM     86  C   UNL A   1      46.596  33.116  28.796  1.00  0.00     0.064 A 
ATOM     87  C   UNL A   1      46.399  34.213  27.945  1.00  0.00     0.173 A 
ATOM     88  C   UNL A   1      47.077  33.369  30.090  1.00  0.00     0.173 A 
ATOM     89  F   UNL A   1      45.952  34.026  26.694  1.00  0.00    -0.203 F 
ATOM     90  C   UNL A   1      46.701  35.507  28.364  1.00  0.00     0.198 A 
ATOM     91  C   UNL A   1      47.342  34.667  30.518  1.00  0.00     0.198 A 
ATOM     92  F   UNL A   1      47.273  32.357  30.950  1.00  0.00    -0.203 F 
ATOM     93  F   UNL A   1      46.556  36.534  27.514  1.00  0.00    -0.200 F 
ATOM     94  C   UNL A   1      47.163  35.733  29.651  1.00  0.00     0.200 A 
ATOM     95  F   UNL A   1      47.768  34.884  31.769  1.00  0.00    -0.200 F 
ATOM     96  F   UNL A   1      47.441  36.980  30.056  1.00  0.00    -0.200 F 
ENDBRANCH  63  86
ENDBRANCH  37  38
ENDBRANCH  30  32
ENDBRANCH  29  30
ENDBRANCH  28  29
ENDBRANCH  27  28
ENDBRANCH  26  27
ENDBRANCH  25  26
ENDBRANCH  24  25
ENDBRANCH  23  24
ENDBRANCH   1  23
TORSDOF 24
ENDMDL
