MODEL 1
REMARK VINA RESULT:     -11.5      0.000      0.000
REMARK SMILES CC(=O)n1cc2c3c(cccc31)C(=O)C[C@@H]2C(=O)OCCOCCOCCOCCOC(=O)c1ccc(-c2c3nc(c(-c4c(F)c(F)c(F)c(F)c4F)c4ccc([nH]4)c(-c4c(F)c(F)c(F)c(F)c4F)c4nc(c(-c5c(F)c(F)c(F)c(F)c5F)c5ccc2[nH]5)C=C4)C=C3)cc1
REMARK SMILES IDX 26 1 25 2 24 3 23 4 22 5 21 6 20 7 19 8 17 9 18 10 16 11
REMARK SMILES IDX 4 12 5 13 12 14 6 15 7 16 11 17 8 18 10 19 15 20 9 21 13 22
REMARK SMILES IDX 14 23 2 24 1 25 3 26 27 27 28 28 29 29 30 30 31 31 32 32
REMARK SMILES IDX 33 33 34 34 35 35 96 36 36 37 95 38 37 39 38 40 39 41 89 42
REMARK SMILES IDX 40 43 94 44 88 45 90 46 41 47 93 48 87 49 86 50 42 52 74 53
REMARK SMILES IDX 54 54 73 55 55 56 58 57 72 58 91 59 56 60 57 61 71 63 92 64
REMARK SMILES IDX 59 65 43 66 44 67 52 68 45 69 46 70 50 71 53 72 47 73 48 74
REMARK SMILES IDX 51 75 49 76 75 77 76 78 84 79 77 80 78 81 82 82 85 83 79 84
REMARK SMILES IDX 80 85 83 86 81 87 60 88 61 89 69 90 62 91 63 92 67 93 70 94
REMARK SMILES IDX 64 95 65 96 68 97 66 98
REMARK H PARENT 90 51 58 62
REMARK Flexibility Score: inf
ROOT
ATOM      1  C   UNL A   1      37.488  21.380  25.379  1.00  0.00     0.188 C 
ENDROOT
BRANCH   1   2
ATOM      2  O   UNL A   1      36.996  21.906  24.156  1.00  0.00    -0.377 OA
BRANCH   2   3
ATOM      3  C   UNL A   1      36.102  22.993  24.285  1.00  0.00     0.188 C 
BRANCH   3   4
ATOM      4  C   UNL A   1      34.784  22.901  23.491  1.00  0.00     0.188 C 
BRANCH   4   5
ATOM      5  O   UNL A   1      33.579  22.434  24.087  1.00  0.00    -0.376 OA
BRANCH   5   6
ATOM      6  C   UNL A   1      32.331  22.617  23.445  1.00  0.00     0.202 C 
BRANCH   6   7
ATOM      7  C   UNL A   1      31.786  24.042  23.248  1.00  0.00     0.261 C 
BRANCH   7   8
ATOM      8  O   UNL A   1      32.231  24.757  22.080  1.00  0.00    -0.463 OA
BRANCH   8   9
ATOM      9  C   UNL A   1      32.926  25.896  22.331  1.00  0.00     0.314 C 
ATOM     10  O   UNL A   1      33.774  26.363  21.573  1.00  0.00    -0.252 OA
BRANCH   9  11
ATOM     11  C   UNL A   1      32.664  26.497  23.715  1.00  0.00     0.139 C 
ATOM     12  N   UNL A   1      29.981  28.947  22.949  1.00  0.00    -0.287 N 
ATOM     13  C   UNL A   1      30.611  27.736  22.694  1.00  0.00     0.100 A 
ATOM     14  C   UNL A   1      30.647  29.555  24.021  1.00  0.00     0.057 A 
ATOM     15  C   UNL A   1      31.666  27.585  23.553  1.00  0.00    -0.006 A 
ATOM     16  C   UNL A   1      31.678  28.704  24.387  1.00  0.00     0.015 A 
ATOM     17  C   UNL A   1      30.442  30.740  24.746  1.00  0.00     0.027 A 
ATOM     18  C   UNL A   1      32.533  28.991  25.448  1.00  0.00     0.027 A 
ATOM     19  C   UNL A   1      31.289  31.004  25.843  1.00  0.00     0.003 A 
ATOM     20  C   UNL A   1      33.877  26.993  24.543  1.00  0.00     0.101 C 
ATOM     21  C   UNL A   1      32.328  30.140  26.202  1.00  0.00     0.012 A 
ATOM     22  C   UNL A   1      33.605  28.000  25.670  1.00  0.00     0.164 C 
ATOM     23  O   UNL A   1      34.303  28.055  26.679  1.00  0.00    -0.294 OA
BRANCH  12  24
ATOM     24  C   UNL A   1      28.858  29.441  22.259  1.00  0.00     0.227 C 
ATOM     25  C   UNL A   1      27.539  29.109  22.896  1.00  0.00     0.115 C 
ATOM     26  O   UNL A   1      29.001  30.117  21.249  1.00  0.00    -0.274 OA
ENDBRANCH  12  24
ENDBRANCH   9  11
ENDBRANCH   8   9
ENDBRANCH   7   8
ENDBRANCH   6   7
ENDBRANCH   5   6
ENDBRANCH   4   5
ENDBRANCH   3   4
ENDBRANCH   2   3
ENDBRANCH   1   2
BRANCH   1  27
ATOM     27  C   UNL A   1      38.668  22.132  26.039  1.00  0.00     0.188 C 
BRANCH  27  28
ATOM     28  O   UNL A   1      39.936  21.494  25.913  1.00  0.00    -0.376 OA
BRANCH  28  29
ATOM     29  C   UNL A   1      40.768  21.227  27.034  1.00  0.00     0.202 C 
BRANCH  29  30
ATOM     30  C   UNL A   1      42.121  20.553  26.774  1.00  0.00     0.261 C 
BRANCH  30  31
ATOM     31  O   UNL A   1      42.599  20.727  25.453  1.00  0.00    -0.460 OA
BRANCH  31  32
ATOM     32  C   UNL A   1      43.926  20.607  25.334  1.00  0.00     0.338 C 
ATOM     33  O   UNL A   1      44.595  19.574  25.431  1.00  0.00    -0.246 OA
BRANCH  32  34
ATOM     34  C   UNL A   1      44.520  21.923  25.138  1.00  0.00     0.060 A 
ATOM     35  C   UNL A   1      45.380  22.318  26.158  1.00  0.00     0.016 A 
ATOM     36  C   UNL A   1      43.802  22.825  24.340  1.00  0.00     0.016 A 
ATOM     37  C   UNL A   1      45.195  23.578  26.650  1.00  0.00     0.010 A 
ATOM     38  C   UNL A   1      43.612  24.083  24.839  1.00  0.00     0.010 A 
ATOM     39  C   UNL A   1      44.212  24.381  26.054  1.00  0.00    -0.014 A 
BRANCH  39  40
ATOM     40  C   UNL A   1      43.845  25.570  26.770  1.00  0.00     0.031 A 
ATOM     41  C   UNL A   1      44.806  26.661  26.564  1.00  0.00     0.074 A 
ATOM     42  C   UNL A   1      42.767  25.637  27.567  1.00  0.00     0.049 A 
ATOM     43  N   UNL A   1      45.682  27.092  27.406  1.00  0.00    -0.248 NA
ATOM     44  C   UNL A   1      44.947  27.187  25.201  1.00  0.00     0.031 C 
ATOM     45  C   UNL A   1      41.620  24.735  27.675  1.00  0.00     0.029 A 
ATOM     46  N   UNL A   1      42.464  26.629  28.438  1.00  0.00    -0.354 N 
ATOM     47  C   UNL A   1      46.392  28.071  26.729  1.00  0.00     0.074 A 
ATOM     48  C   UNL A   1      46.014  27.971  25.343  1.00  0.00     0.031 C 
ATOM     49  C   UNL A   1      40.647  25.347  28.395  1.00  0.00     0.029 A 
ATOM     50  C   UNL A   1      41.163  26.606  28.907  1.00  0.00     0.049 A 
ATOM     51  H   UNL A   1      43.117  27.311  28.714  1.00  0.00     0.167 HD
ATOM     52  C   UNL A   1      47.068  29.030  27.412  1.00  0.00     0.037 A 
ATOM     53  C   UNL A   1      40.570  27.626  29.577  1.00  0.00     0.037 A 
ATOM     54  C   UNL A   1      47.309  28.630  28.775  1.00  0.00     0.049 A 
ATOM     55  C   UNL A   1      41.662  28.459  30.161  1.00  0.00     0.074 A 
ATOM     56  C   UNL A   1      48.022  27.603  29.366  1.00  0.00     0.029 A 
ATOM     57  N   UNL A   1      46.469  29.107  29.752  1.00  0.00    -0.354 N 
ATOM     58  N   UNL A   1      42.448  28.051  31.122  1.00  0.00    -0.248 NA
ATOM     59  C   UNL A   1      42.184  29.555  29.354  1.00  0.00     0.031 C 
ATOM     60  C   UNL A   1      47.246  27.211  30.495  1.00  0.00     0.029 A 
ATOM     61  C   UNL A   1      46.131  28.047  30.555  1.00  0.00     0.049 A 
ATOM     62  H   UNL A   1      46.166  30.039  29.857  1.00  0.00     0.167 HD
ATOM     63  C   UNL A   1      43.705  28.539  30.788  1.00  0.00     0.074 A 
ATOM     64  C   UNL A   1      43.467  29.516  29.729  1.00  0.00     0.031 C 
ATOM     65  C   UNL A   1      44.843  27.903  31.192  1.00  0.00     0.037 A 
BRANCH  52  66
ATOM     66  C   UNL A   1      47.180  30.456  26.949  1.00  0.00     0.064 A 
ATOM     67  C   UNL A   1      48.432  31.095  27.020  1.00  0.00     0.173 A 
ATOM     68  C   UNL A   1      46.072  31.305  26.729  1.00  0.00     0.173 A 
ATOM     69  F   UNL A   1      49.550  30.386  27.235  1.00  0.00    -0.203 F 
ATOM     70  C   UNL A   1      48.552  32.484  26.969  1.00  0.00     0.198 A 
ATOM     71  C   UNL A   1      46.203  32.686  26.622  1.00  0.00     0.198 A 
ATOM     72  F   UNL A   1      44.812  30.858  26.722  1.00  0.00    -0.203 F 
ATOM     73  F   UNL A   1      49.746  33.054  27.178  1.00  0.00    -0.200 F 
ATOM     74  C   UNL A   1      47.436  33.279  26.779  1.00  0.00     0.200 A 
ATOM     75  F   UNL A   1      45.106  33.439  26.452  1.00  0.00    -0.200 F 
ATOM     76  F   UNL A   1      47.540  34.613  26.798  1.00  0.00    -0.200 F 
ENDBRANCH  52  66
BRANCH  53  77
ATOM     77  C   UNL A   1      39.192  28.139  29.382  1.00  0.00     0.064 A 
ATOM     78  C   UNL A   1      38.332  28.313  30.479  1.00  0.00     0.173 A 
ATOM     79  C   UNL A   1      38.790  28.737  28.172  1.00  0.00     0.173 A 
ATOM     80  F   UNL A   1      38.663  27.815  31.679  1.00  0.00    -0.203 F 
ATOM     81  C   UNL A   1      37.157  29.066  30.377  1.00  0.00     0.198 A 
ATOM     82  C   UNL A   1      37.614  29.482  28.070  1.00  0.00     0.198 A 
ATOM     83  F   UNL A   1      39.575  28.698  27.085  1.00  0.00    -0.203 F 
ATOM     84  F   UNL A   1      36.397  29.267  31.463  1.00  0.00    -0.200 F 
ATOM     85  C   UNL A   1      36.806  29.659  29.177  1.00  0.00     0.200 A 
ATOM     86  F   UNL A   1      37.305  30.080  26.911  1.00  0.00    -0.200 F 
ATOM     87  F   UNL A   1      35.715  30.434  29.095  1.00  0.00    -0.200 F 
ENDBRANCH  53  77
BRANCH  65  88
ATOM     88  C   UNL A   1      44.714  26.791  32.196  1.00  0.00     0.064 A 
ATOM     89  C   UNL A   1      44.631  27.001  33.584  1.00  0.00     0.173 A 
ATOM     90  C   UNL A   1      44.484  25.491  31.725  1.00  0.00     0.173 A 
ATOM     91  F   UNL A   1      44.737  28.231  34.101  1.00  0.00    -0.203 F 
ATOM     92  C   UNL A   1      44.359  25.950  34.458  1.00  0.00     0.198 A 
ATOM     93  C   UNL A   1      44.178  24.451  32.598  1.00  0.00     0.198 A 
ATOM     94  F   UNL A   1      44.496  25.243  30.406  1.00  0.00    -0.203 F 
ATOM     95  F   UNL A   1      44.282  26.177  35.779  1.00  0.00    -0.200 F 
ATOM     96  C   UNL A   1      44.122  24.679  33.963  1.00  0.00     0.200 A 
ATOM     97  F   UNL A   1      43.898  23.234  32.111  1.00  0.00    -0.200 F 
ATOM     98  F   UNL A   1      43.807  23.678  34.799  1.00  0.00    -0.200 F 
ENDBRANCH  65  88
ENDBRANCH  39  40
ENDBRANCH  32  34
ENDBRANCH  31  32
ENDBRANCH  30  31
ENDBRANCH  29  30
ENDBRANCH  28  29
ENDBRANCH  27  28
ENDBRANCH   1  27
TORSDOF 21
ENDMDL
MODEL 2
REMARK VINA RESULT:     -11.2      1.495      2.580
REMARK SMILES CC(=O)n1cc2c3c(cccc31)C(=O)C[C@@H]2C(=O)OCCOCCOCCOCCOC(=O)c1ccc(-c2c3nc(c(-c4c(F)c(F)c(F)c(F)c4F)c4ccc([nH]4)c(-c4c(F)c(F)c(F)c(F)c4F)c4nc(c(-c5c(F)c(F)c(F)c(F)c5F)c5ccc2[nH]5)C=C4)C=C3)cc1
REMARK SMILES IDX 26 1 25 2 24 3 23 4 22 5 21 6 20 7 19 8 17 9 18 10 16 11
REMARK SMILES IDX 4 12 5 13 12 14 6 15 7 16 11 17 8 18 10 19 15 20 9 21 13 22
REMARK SMILES IDX 14 23 2 24 1 25 3 26 27 27 28 28 29 29 30 30 31 31 32 32
REMARK SMILES IDX 33 33 34 34 35 35 96 36 36 37 95 38 37 39 38 40 39 41 89 42
REMARK SMILES IDX 40 43 94 44 88 45 90 46 41 47 93 48 87 49 86 50 42 52 74 53
REMARK SMILES IDX 54 54 73 55 55 56 58 57 72 58 91 59 56 60 57 61 71 63 92 64
REMARK SMILES IDX 59 65 43 66 44 67 52 68 45 69 46 70 50 71 53 72 47 73 48 74
REMARK SMILES IDX 51 75 49 76 75 77 76 78 84 79 77 80 78 81 82 82 85 83 79 84
REMARK SMILES IDX 80 85 83 86 81 87 60 88 61 89 69 90 62 91 63 92 67 93 70 94
REMARK SMILES IDX 64 95 65 96 68 97 66 98
REMARK H PARENT 90 51 58 62
REMARK Flexibility Score: inf
ROOT
ATOM      1  C   UNL A   1      37.938  21.829  25.834  1.00  0.00     0.188 C 
ENDROOT
BRANCH   1   2
ATOM      2  O   UNL A   1      37.384  22.813  24.972  1.00  0.00    -0.377 OA
BRANCH   2   3
ATOM      3  C   UNL A   1      35.973  22.886  24.972  1.00  0.00     0.188 C 
BRANCH   3   4
ATOM      4  C   UNL A   1      35.301  23.266  26.307  1.00  0.00     0.188 C 
BRANCH   4   5
ATOM      5  O   UNL A   1      34.706  22.290  27.153  1.00  0.00    -0.376 OA
BRANCH   5   6
ATOM      6  C   UNL A   1      33.477  22.544  27.807  1.00  0.00     0.202 C 
BRANCH   6   7
ATOM      7  C   UNL A   1      32.179  22.583  26.983  1.00  0.00     0.261 C 
BRANCH   7   8
ATOM      8  O   UNL A   1      31.182  23.545  27.376  1.00  0.00    -0.463 OA
BRANCH   8   9
ATOM      9  C   UNL A   1      30.955  24.539  26.479  1.00  0.00     0.314 C 
ATOM     10  O   UNL A   1      29.923  25.206  26.441  1.00  0.00    -0.252 OA
BRANCH   9  11
ATOM     11  C   UNL A   1      32.046  24.683  25.414  1.00  0.00     0.139 C 
ATOM     12  N   UNL A   1      33.002  28.248  25.828  1.00  0.00    -0.287 N 
ATOM     13  C   UNL A   1      32.551  27.053  26.375  1.00  0.00     0.100 A 
ATOM     14  C   UNL A   1      33.234  28.029  24.464  1.00  0.00     0.057 A 
ATOM     15  C   UNL A   1      32.466  26.107  25.388  1.00  0.00    -0.006 A 
ATOM     16  C   UNL A   1      32.906  26.708  24.207  1.00  0.00     0.015 A 
ATOM     17  C   UNL A   1      33.735  28.829  23.424  1.00  0.00     0.027 A 
ATOM     18  C   UNL A   1      33.045  26.143  22.943  1.00  0.00     0.027 A 
ATOM     19  C   UNL A   1      33.908  28.238  22.155  1.00  0.00     0.003 A 
ATOM     20  C   UNL A   1      31.746  24.180  23.979  1.00  0.00     0.101 C 
ATOM     21  C   UNL A   1      33.572  26.904  21.906  1.00  0.00     0.012 A 
ATOM     22  C   UNL A   1      32.605  24.738  22.836  1.00  0.00     0.164 C 
ATOM     23  O   UNL A   1      32.845  24.087  21.822  1.00  0.00    -0.294 OA
BRANCH  12  24
ATOM     24  C   UNL A   1      33.207  29.443  26.543  1.00  0.00     0.227 C 
ATOM     25  C   UNL A   1      31.949  30.195  26.875  1.00  0.00     0.115 C 
ATOM     26  O   UNL A   1      34.335  29.776  26.880  1.00  0.00    -0.274 OA
ENDBRANCH  12  24
ENDBRANCH   9  11
ENDBRANCH   8   9
ENDBRANCH   7   8
ENDBRANCH   6   7
ENDBRANCH   5   6
ENDBRANCH   4   5
ENDBRANCH   3   4
ENDBRANCH   2   3
ENDBRANCH   1   2
BRANCH   1  27
ATOM     27  C   UNL A   1      39.481  21.783  25.940  1.00  0.00     0.188 C 
BRANCH  27  28
ATOM     28  O   UNL A   1      39.988  21.517  27.246  1.00  0.00    -0.376 OA
BRANCH  28  29
ATOM     29  C   UNL A   1      41.168  20.756  27.463  1.00  0.00     0.202 C 
BRANCH  29  30
ATOM     30  C   UNL A   1      41.966  20.309  26.232  1.00  0.00     0.261 C 
BRANCH  30  31
ATOM     31  O   UNL A   1      43.362  20.509  26.357  1.00  0.00    -0.460 OA
BRANCH  31  32
ATOM     32  C   UNL A   1      44.012  20.552  25.188  1.00  0.00     0.338 C 
ATOM     33  O   UNL A   1      44.157  19.630  24.380  1.00  0.00    -0.246 OA
BRANCH  32  34
ATOM     34  C   UNL A   1      44.616  21.865  25.012  1.00  0.00     0.060 A 
ATOM     35  C   UNL A   1      45.487  22.234  26.034  1.00  0.00     0.016 A 
ATOM     36  C   UNL A   1      43.900  22.788  24.237  1.00  0.00     0.016 A 
ATOM     37  C   UNL A   1      45.316  23.485  26.551  1.00  0.00     0.010 A 
ATOM     38  C   UNL A   1      43.724  24.038  24.761  1.00  0.00     0.010 A 
ATOM     39  C   UNL A   1      44.336  24.308  25.977  1.00  0.00    -0.014 A 
BRANCH  39  40
ATOM     40  C   UNL A   1      43.985  25.487  26.719  1.00  0.00     0.031 A 
ATOM     41  C   UNL A   1      44.954  26.573  26.526  1.00  0.00     0.074 A 
ATOM     42  C   UNL A   1      42.912  25.548  27.523  1.00  0.00     0.049 A 
ATOM     43  N   UNL A   1      45.839  26.980  27.370  1.00  0.00    -0.248 NA
ATOM     44  C   UNL A   1      45.090  27.124  25.173  1.00  0.00     0.031 C 
ATOM     45  C   UNL A   1      41.758  24.654  27.623  1.00  0.00     0.029 A 
ATOM     46  N   UNL A   1      42.624  26.526  28.415  1.00  0.00    -0.354 N 
ATOM     47  C   UNL A   1      46.554  27.966  26.708  1.00  0.00     0.074 A 
ATOM     48  C   UNL A   1      46.166  27.895  25.323  1.00  0.00     0.031 C 
ATOM     49  C   UNL A   1      40.796  25.261  28.361  1.00  0.00     0.029 A 
ATOM     50  C   UNL A   1      41.326  26.506  28.893  1.00  0.00     0.049 A 
ATOM     51  H   UNL A   1      43.285  27.197  28.700  1.00  0.00     0.167 HD
ATOM     52  C   UNL A   1      47.243  28.905  27.404  1.00  0.00     0.037 A 
ATOM     53  C   UNL A   1      40.747  27.517  29.586  1.00  0.00     0.037 A 
ATOM     54  C   UNL A   1      47.489  28.477  28.758  1.00  0.00     0.049 A 
ATOM     55  C   UNL A   1      41.850  28.329  30.179  1.00  0.00     0.074 A 
ATOM     56  C   UNL A   1      48.197  27.433  29.324  1.00  0.00     0.029 A 
ATOM     57  N   UNL A   1      46.660  28.943  29.749  1.00  0.00    -0.354 N 
ATOM     58  N   UNL A   1      42.639  27.896  31.126  1.00  0.00    -0.248 NA
ATOM     59  C   UNL A   1      42.377  29.436  29.389  1.00  0.00     0.031 C 
ATOM     60  C   UNL A   1      47.425  27.026  30.450  1.00  0.00     0.029 A 
ATOM     61  C   UNL A   1      46.318  27.870  30.534  1.00  0.00     0.049 A 
ATOM     62  H   UNL A   1      46.366  29.875  29.874  1.00  0.00     0.167 HD
ATOM     63  C   UNL A   1      43.898  28.379  30.793  1.00  0.00     0.074 A 
ATOM     64  C   UNL A   1      43.662  29.379  29.754  1.00  0.00     0.031 C 
ATOM     65  C   UNL A   1      45.033  27.726  31.177  1.00  0.00     0.037 A 
BRANCH  52  66
ATOM     66  C   UNL A   1      47.364  30.339  26.967  1.00  0.00     0.064 A 
ATOM     67  C   UNL A   1      48.621  30.967  27.049  1.00  0.00     0.173 A 
ATOM     68  C   UNL A   1      46.262  31.199  26.764  1.00  0.00     0.173 A 
ATOM     69  F   UNL A   1      49.734  30.246  27.250  1.00  0.00    -0.203 F 
ATOM     70  C   UNL A   1      48.750  32.356  27.024  1.00  0.00     0.198 A 
ATOM     71  C   UNL A   1      46.403  32.581  26.682  1.00  0.00     0.198 A 
ATOM     72  F   UNL A   1      44.999  30.761  26.750  1.00  0.00    -0.203 F 
ATOM     73  F   UNL A   1      49.949  32.913  27.242  1.00  0.00    -0.200 F 
ATOM     74  C   UNL A   1      47.640  33.162  26.850  1.00  0.00     0.200 A 
ATOM     75  F   UNL A   1      45.311  33.344  26.528  1.00  0.00    -0.200 F 
ATOM     76  F   UNL A   1      47.754  34.495  26.893  1.00  0.00    -0.200 F 
ENDBRANCH  52  66
BRANCH  53  77
ATOM     77  C   UNL A   1      39.373  28.046  29.410  1.00  0.00     0.064 A 
ATOM     78  C   UNL A   1      38.523  28.209  30.516  1.00  0.00     0.173 A 
ATOM     79  C   UNL A   1      38.967  28.668  28.213  1.00  0.00     0.173 A 
ATOM     80  F   UNL A   1      38.858  27.688  31.706  1.00  0.00    -0.203 F 
ATOM     81  C   UNL A   1      37.354  28.975  30.437  1.00  0.00     0.198 A 
ATOM     82  C   UNL A   1      37.797  29.425  28.133  1.00  0.00     0.198 A 
ATOM     83  F   UNL A   1      39.743  28.640  27.120  1.00  0.00    -0.203 F 
ATOM     84  F   UNL A   1      36.603  29.165  31.531  1.00  0.00    -0.200 F 
ATOM     85  C   UNL A   1      36.999  29.591  29.249  1.00  0.00     0.200 A 
ATOM     86  F   UNL A   1      37.484  30.046  26.986  1.00  0.00    -0.200 F 
ATOM     87  F   UNL A   1      35.915  30.378  29.188  1.00  0.00    -0.200 F 
ENDBRANCH  53  77
BRANCH  65  88
ATOM     88  C   UNL A   1      44.901  26.596  32.161  1.00  0.00     0.064 A 
ATOM     89  C   UNL A   1      44.608  25.272  31.791  1.00  0.00     0.173 A 
ATOM     90  C   UNL A   1      45.264  26.829  33.494  1.00  0.00     0.173 A 
ATOM     91  F   UNL A   1      44.353  24.953  30.516  1.00  0.00    -0.203 F 
ATOM     92  C   UNL A   1      44.649  24.236  32.723  1.00  0.00     0.198 A 
ATOM     93  C   UNL A   1      45.338  25.787  34.415  1.00  0.00     0.198 A 
ATOM     94  F   UNL A   1      45.608  28.064  33.891  1.00  0.00    -0.203 F 
ATOM     95  F   UNL A   1      44.366  22.980  32.346  1.00  0.00    -0.200 F 
ATOM     96  C   UNL A   1      45.024  24.493  34.031  1.00  0.00     0.200 A 
ATOM     97  F   UNL A   1      45.752  26.032  35.666  1.00  0.00    -0.200 F 
ATOM     98  F   UNL A   1      45.115  23.490  34.916  1.00  0.00    -0.200 F 
ENDBRANCH  65  88
ENDBRANCH  39  40
ENDBRANCH  32  34
ENDBRANCH  31  32
ENDBRANCH  30  31
ENDBRANCH  29  30
ENDBRANCH  28  29
ENDBRANCH  27  28
ENDBRANCH   1  27
TORSDOF 21
ENDMDL
MODEL 3
REMARK VINA RESULT:     -11.1      4.167      9.807
REMARK SMILES CC(=O)n1cc2c3c(cccc31)C(=O)C[C@@H]2C(=O)OCCOCCOCCOCCOC(=O)c1ccc(-c2c3nc(c(-c4c(F)c(F)c(F)c(F)c4F)c4ccc([nH]4)c(-c4c(F)c(F)c(F)c(F)c4F)c4nc(c(-c5c(F)c(F)c(F)c(F)c5F)c5ccc2[nH]5)C=C4)C=C3)cc1
REMARK SMILES IDX 26 1 25 2 24 3 23 4 22 5 21 6 20 7 19 8 17 9 18 10 16 11
REMARK SMILES IDX 4 12 5 13 12 14 6 15 7 16 11 17 8 18 10 19 15 20 9 21 13 22
REMARK SMILES IDX 14 23 2 24 1 25 3 26 27 27 28 28 29 29 30 30 31 31 32 32
REMARK SMILES IDX 33 33 34 34 35 35 96 36 36 37 95 38 37 39 38 40 39 41 89 42
REMARK SMILES IDX 40 43 94 44 88 45 90 46 41 47 93 48 87 49 86 50 42 52 74 53
REMARK SMILES IDX 54 54 73 55 55 56 58 57 72 58 91 59 56 60 57 61 71 63 92 64
REMARK SMILES IDX 59 65 43 66 44 67 52 68 45 69 46 70 50 71 53 72 47 73 48 74
REMARK SMILES IDX 51 75 49 76 75 77 76 78 84 79 77 80 78 81 82 82 85 83 79 84
REMARK SMILES IDX 80 85 83 86 81 87 60 88 61 89 69 90 62 91 63 92 67 93 70 94
REMARK SMILES IDX 64 95 65 96 68 97 66 98
REMARK H PARENT 90 51 58 62
REMARK Flexibility Score: inf
ROOT
ATOM      1  C   UNL A   1      33.758  31.020  27.627  1.00  0.00     0.188 C 
ENDROOT
BRANCH   1   2
ATOM      2  O   UNL A   1      34.396  29.752  27.655  1.00  0.00    -0.377 OA
BRANCH   2   3
ATOM      3  C   UNL A   1      33.772  28.748  26.881  1.00  0.00     0.188 C 
BRANCH   3   4
ATOM      4  C   UNL A   1      33.897  28.879  25.349  1.00  0.00     0.188 C 
BRANCH   4   5
ATOM      5  O   UNL A   1      32.881  29.489  24.563  1.00  0.00    -0.376 OA
BRANCH   5   6
ATOM      6  C   UNL A   1      31.552  29.002  24.585  1.00  0.00     0.202 C 
BRANCH   6   7
ATOM      7  C   UNL A   1      31.068  28.081  23.451  1.00  0.00     0.261 C 
BRANCH   7   8
ATOM      8  O   UNL A   1      32.036  27.182  22.881  1.00  0.00    -0.463 OA
BRANCH   8   9
ATOM      9  C   UNL A   1      31.817  25.865  23.129  1.00  0.00     0.314 C 
ATOM     10  O   UNL A   1      31.504  25.047  22.267  1.00  0.00    -0.252 OA
BRANCH   9  11
ATOM     11  C   UNL A   1      31.863  25.492  24.614  1.00  0.00     0.139 C 
ATOM     12  N   UNL A   1      35.171  23.820  24.845  1.00  0.00    -0.287 N 
ATOM     13  C   UNL A   1      34.347  24.781  24.272  1.00  0.00     0.100 A 
ATOM     14  C   UNL A   1      34.427  23.156  25.829  1.00  0.00     0.057 A 
ATOM     15  C   UNL A   1      33.106  24.713  24.847  1.00  0.00    -0.006 A 
ATOM     16  C   UNL A   1      33.161  23.718  25.824  1.00  0.00     0.015 A 
ATOM     17  C   UNL A   1      34.729  22.147  26.758  1.00  0.00     0.027 A 
ATOM     18  C   UNL A   1      32.165  23.307  26.705  1.00  0.00     0.027 A 
ATOM     19  C   UNL A   1      33.726  21.763  27.673  1.00  0.00     0.003 A 
ATOM     20  C   UNL A   1      30.642  24.760  25.227  1.00  0.00     0.101 C 
ATOM     21  C   UNL A   1      32.450  22.335  27.657  1.00  0.00     0.012 A 
ATOM     22  C   UNL A   1      30.862  23.978  26.530  1.00  0.00     0.164 C 
ATOM     23  O   UNL A   1      29.968  23.827  27.360  1.00  0.00    -0.294 OA
BRANCH  12  24
ATOM     24  C   UNL A   1      36.517  23.594  24.502  1.00  0.00     0.227 C 
ATOM     25  C   UNL A   1      36.717  22.917  23.176  1.00  0.00     0.115 C 
ATOM     26  O   UNL A   1      37.416  23.976  25.239  1.00  0.00    -0.274 OA
ENDBRANCH  12  24
ENDBRANCH   9  11
ENDBRANCH   8   9
ENDBRANCH   7   8
ENDBRANCH   6   7
ENDBRANCH   5   6
ENDBRANCH   4   5
ENDBRANCH   3   4
ENDBRANCH   2   3
ENDBRANCH   1   2
BRANCH   1  27
ATOM     27  C   UNL A   1      34.645  32.255  27.915  1.00  0.00     0.188 C 
BRANCH  27  28
ATOM     28  O   UNL A   1      34.205  33.074  28.996  1.00  0.00    -0.376 OA
BRANCH  28  29
ATOM     29  C   UNL A   1      33.622  34.353  28.792  1.00  0.00     0.202 C 
BRANCH  29  30
ATOM     30  C   UNL A   1      33.449  35.262  30.015  1.00  0.00     0.261 C 
BRANCH  30  31
ATOM     31  O   UNL A   1      33.504  34.571  31.249  1.00  0.00    -0.460 OA
BRANCH  31  32
ATOM     32  C   UNL A   1      34.103  35.256  32.230  1.00  0.00     0.338 C 
ATOM     33  O   UNL A   1      34.112  36.480  32.388  1.00  0.00    -0.246 OA
BRANCH  32  34
ATOM     34  C   UNL A   1      34.839  34.338  33.089  1.00  0.00     0.060 A 
ATOM     35  C   UNL A   1      36.065  34.829  33.531  1.00  0.00     0.016 A 
ATOM     36  C   UNL A   1      34.567  32.972  32.929  1.00  0.00     0.016 A 
ATOM     37  C   UNL A   1      37.133  33.989  33.406  1.00  0.00     0.010 A 
ATOM     38  C   UNL A   1      35.639  32.134  32.797  1.00  0.00     0.010 A 
ATOM     39  C   UNL A   1      36.902  32.697  32.910  1.00  0.00    -0.014 A 
BRANCH  39  40
ATOM     40  C   UNL A   1      38.065  31.951  32.519  1.00  0.00     0.031 A 
ATOM     41  C   UNL A   1      38.960  31.685  33.652  1.00  0.00     0.074 A 
ATOM     42  C   UNL A   1      38.305  31.589  31.249  1.00  0.00     0.049 A 
ATOM     43  N   UNL A   1      40.090  32.255  33.897  1.00  0.00    -0.248 NA
ATOM     44  C   UNL A   1      38.442  30.847  34.740  1.00  0.00     0.031 C 
ATOM     45  C   UNL A   1      37.412  31.574  30.090  1.00  0.00     0.029 A 
ATOM     46  N   UNL A   1      39.460  31.080  30.757  1.00  0.00    -0.354 N 
ATOM     47  C   UNL A   1      40.516  31.724  35.105  1.00  0.00     0.074 A 
ATOM     48  C   UNL A   1      39.399  31.000  35.653  1.00  0.00     0.031 C 
ATOM     49  C   UNL A   1      38.000  30.866  29.094  1.00  0.00     0.029 A 
ATOM     50  C   UNL A   1      39.350  30.514  29.500  1.00  0.00     0.049 A 
ATOM     51  H   UNL A   1      40.308  31.111  31.254  1.00  0.00     0.167 HD
ATOM     52  C   UNL A   1      41.830  31.744  35.443  1.00  0.00     0.037 A 
ATOM     53  C   UNL A   1      40.297  29.731  28.925  1.00  0.00     0.037 A 
ATOM     54  C   UNL A   1      42.554  32.723  34.671  1.00  0.00     0.049 A 
ATOM     55  C   UNL A   1      41.592  30.046  29.598  1.00  0.00     0.074 A 
ATOM     56  C   UNL A   1      42.488  34.099  34.556  1.00  0.00     0.029 A 
ATOM     57  N   UNL A   1      43.265  32.293  33.577  1.00  0.00    -0.354 N 
ATOM     58  N   UNL A   1      42.211  31.189  29.475  1.00  0.00    -0.248 NA
ATOM     59  C   UNL A   1      41.949  29.269  30.778  1.00  0.00     0.031 C 
ATOM     60  C   UNL A   1      42.738  34.370  33.179  1.00  0.00     0.029 A 
ATOM     61  C   UNL A   1      42.988  33.153  32.545  1.00  0.00     0.049 A 
ATOM     62  H   UNL A   1      43.865  31.512  33.541  1.00  0.00     0.167 HD
ATOM     63  C   UNL A   1      42.710  31.464  30.742  1.00  0.00     0.074 A 
ATOM     64  C   UNL A   1      42.579  30.213  31.485  1.00  0.00     0.031 C 
ATOM     65  C   UNL A   1      42.914  32.747  31.161  1.00  0.00     0.037 A 
BRANCH  52  66
ATOM     66  C   UNL A   1      42.511  30.636  36.198  1.00  0.00     0.064 A 
ATOM     67  C   UNL A   1      43.390  30.970  37.244  1.00  0.00     0.173 A 
ATOM     68  C   UNL A   1      42.572  29.297  35.751  1.00  0.00     0.173 A 
ATOM     69  F   UNL A   1      43.422  32.216  37.740  1.00  0.00    -0.203 F 
ATOM     70  C   UNL A   1      44.324  30.058  37.738  1.00  0.00     0.198 A 
ATOM     71  C   UNL A   1      43.467  28.375  36.286  1.00  0.00     0.198 A 
ATOM     72  F   UNL A   1      41.861  28.851  34.710  1.00  0.00    -0.203 F 
ATOM     73  F   UNL A   1      45.231  30.461  38.638  1.00  0.00    -0.200 F 
ATOM     74  C   UNL A   1      44.368  28.765  37.252  1.00  0.00     0.200 A 
ATOM     75  F   UNL A   1      43.502  27.130  35.789  1.00  0.00    -0.200 F 
ATOM     76  F   UNL A   1      45.306  27.909  37.676  1.00  0.00    -0.200 F 
ENDBRANCH  52  66
BRANCH  53  77
ATOM     77  C   UNL A   1      40.076  28.476  28.167  1.00  0.00     0.064 A 
ATOM     78  C   UNL A   1      40.736  28.252  26.948  1.00  0.00     0.173 A 
ATOM     79  C   UNL A   1      39.448  27.358  28.752  1.00  0.00     0.173 A 
ATOM     80  F   UNL A   1      41.398  29.251  26.347  1.00  0.00    -0.203 F 
ATOM     81  C   UNL A   1      40.790  26.980  26.366  1.00  0.00     0.198 A 
ATOM     82  C   UNL A   1      39.497  26.092  28.167  1.00  0.00     0.198 A 
ATOM     83  F   UNL A   1      38.857  27.445  29.952  1.00  0.00    -0.203 F 
ATOM     84  F   UNL A   1      41.488  26.792  25.236  1.00  0.00    -0.200 F 
ATOM     85  C   UNL A   1      40.181  25.900  26.982  1.00  0.00     0.200 A 
ATOM     86  F   UNL A   1      38.933  25.049  28.793  1.00  0.00    -0.200 F 
ATOM     87  F   UNL A   1      40.288  24.670  26.459  1.00  0.00    -0.200 F 
ENDBRANCH  53  77
BRANCH  65  88
ATOM     88  C   UNL A   1      42.803  33.850  30.145  1.00  0.00     0.064 A 
ATOM     89  C   UNL A   1      43.871  34.272  29.335  1.00  0.00     0.173 A 
ATOM     90  C   UNL A   1      41.531  34.365  29.857  1.00  0.00     0.173 A 
ATOM     91  F   UNL A   1      45.095  33.749  29.482  1.00  0.00    -0.203 F 
ATOM     92  C   UNL A   1      43.677  35.191  28.305  1.00  0.00     0.198 A 
ATOM     93  C   UNL A   1      41.334  35.255  28.805  1.00  0.00     0.198 A 
ATOM     94  F   UNL A   1      40.465  33.954  30.562  1.00  0.00    -0.203 F 
ATOM     95  F   UNL A   1      44.713  35.578  27.545  1.00  0.00    -0.200 F 
ATOM     96  C   UNL A   1      42.407  35.673  28.035  1.00  0.00     0.200 A 
ATOM     97  F   UNL A   1      40.096  35.677  28.514  1.00  0.00    -0.200 F 
ATOM     98  F   UNL A   1      42.210  36.515  27.010  1.00  0.00    -0.200 F 
ENDBRANCH  65  88
ENDBRANCH  39  40
ENDBRANCH  32  34
ENDBRANCH  31  32
ENDBRANCH  30  31
ENDBRANCH  29  30
ENDBRANCH  28  29
ENDBRANCH  27  28
ENDBRANCH   1  27
TORSDOF 21
ENDMDL
