MODEL 1
REMARK VINA RESULT:     -10.3      0.000      0.000
REMARK SMILES CC(C)c1cc(C2CC[NH+](Cc3c[nH]nc3C(=O)OCCOCCOCCOCCOC(=O)c3ccc(-c4c5nc(c(-c6c(F)c(F)c(F)c(F)c6F)c6ccc([nH]6)c(-c6c(F)c(F)c(F)c(F)c6F)c6nc(c(-c7c(F)c(F)c(F)c(F)c7F)c7ccc4[nH]7)C=C6)C=C5)cc3)CC2)n[nH]1
REMARK SMILES IDX 24 1 23 2 22 3 21 4 20 5 19 6 17 7 18 8 16 9 12 10 13 11
REMARK SMILES IDX 14 12 15 13 11 15 10 16 7 17 8 18 98 19 9 20 97 21 6 23 4 24
REMARK SMILES IDX 5 25 100 26 99 27 2 29 1 30 3 31 25 32 26 33 27 34 28 35
REMARK SMILES IDX 29 36 30 37 31 38 32 39 33 40 34 41 35 42 96 43 36 44 95 45
REMARK SMILES IDX 37 46 38 47 39 48 89 49 40 50 94 51 88 52 90 53 41 54 93 55
REMARK SMILES IDX 87 56 86 57 42 59 74 60 54 61 73 62 55 63 58 64 72 65 91 66
REMARK SMILES IDX 56 67 57 68 71 70 92 71 59 72 43 73 44 74 52 75 45 76 46 77
REMARK SMILES IDX 50 78 53 79 47 80 48 81 51 82 49 83 75 84 76 85 84 86 77 87
REMARK SMILES IDX 78 88 82 89 85 90 79 91 80 92 83 93 81 94 60 95 61 96 69 97
REMARK SMILES IDX 62 98 63 99 67 100 70 101 64 102 65 103 68 104 66 105
REMARK H PARENT 14 14 10 22 100 28 90 58 58 69
REMARK Flexibility Score: inf
ROOT
ATOM      1  C   UNL A   1      38.223  21.562  25.739  1.00  0.00     0.188 C 
ENDROOT
BRANCH   1   2
ATOM      2  C   UNL A   1      37.397  22.474  24.823  1.00  0.00     0.188 C 
BRANCH   2   3
ATOM      3  O   UNL A   1      36.762  23.552  25.512  1.00  0.00    -0.376 OA
BRANCH   3   4
ATOM      4  C   UNL A   1      35.368  23.699  25.263  1.00  0.00     0.202 C 
BRANCH   4   5
ATOM      5  C   UNL A   1      34.462  23.365  26.461  1.00  0.00     0.261 C 
BRANCH   5   6
ATOM      6  O   UNL A   1      33.156  23.962  26.423  1.00  0.00    -0.458 OA
BRANCH   6   7
ATOM      7  C   UNL A   1      32.112  23.096  26.364  1.00  0.00     0.359 C 
ATOM      8  O   UNL A   1      31.270  22.997  27.252  1.00  0.00    -0.244 OA
BRANCH   7   9
ATOM      9  C   UNL A   1      32.035  22.370  25.084  1.00  0.00     0.178 A 
ATOM     10  C   UNL A   1      31.642  22.816  23.763  1.00  0.00     0.059 A 
ATOM     11  C   UNL A   1      31.974  21.729  22.968  1.00  0.00     0.115 A 
ATOM     12  N   UNL A   1      32.328  20.709  23.791  1.00  0.00    -0.284 N 
ATOM     13  N   UNL A   1      32.387  21.065  25.071  1.00  0.00    -0.168 NA
ATOM     14  H   UNL A   1      32.522  19.798  23.472  1.00  0.00     0.189 HD
BRANCH  10  15
ATOM     15  C   UNL A   1      31.195  24.194  23.317  1.00  0.00     0.303 C 
BRANCH  15  16
ATOM     16  N   UNL A   1      31.766  25.356  24.039  1.00  0.00    -0.331 N 
ATOM     17  C   UNL A   1      32.089  28.249  24.601  1.00  0.00     0.051 C 
ATOM     18  C   UNL A   1      33.224  27.423  23.992  1.00  0.00     0.071 C 
ATOM     19  C   UNL A   1      31.324  27.331  25.563  1.00  0.00     0.071 C 
ATOM     20  C   UNL A   1      32.705  26.175  23.277  1.00  0.00     0.263 C 
ATOM     21  C   UNL A   1      30.805  26.050  24.895  1.00  0.00     0.263 C 
ATOM     22  H   UNL A   1      32.411  24.953  24.719  1.00  0.00     0.348 HD
BRANCH  17  23
ATOM     23  C   UNL A   1      31.195  28.927  23.585  1.00  0.00     0.066 A 
ATOM     24  C   UNL A   1      29.496  29.954  22.559  1.00  0.00     0.038 A 
ATOM     25  C   UNL A   1      29.828  29.262  23.696  1.00  0.00     0.049 A 
ATOM     26  N   UNL A   1      30.630  29.939  21.798  1.00  0.00    -0.282 N 
ATOM     27  N   UNL A   1      31.677  29.335  22.401  1.00  0.00    -0.180 NA
ATOM     28  H   UNL A   1      30.681  30.332  20.897  1.00  0.00     0.190 HD
BRANCH  24  29
ATOM     29  C   UNL A   1      28.193  30.598  22.209  1.00  0.00     0.031 C 
ATOM     30  C   UNL A   1      27.640  31.456  23.341  1.00  0.00     0.014 C 
ATOM     31  C   UNL A   1      28.296  31.377  20.901  1.00  0.00     0.014 C 
ENDBRANCH  24  29
ENDBRANCH  17  23
ENDBRANCH  15  16
ENDBRANCH  10  15
ENDBRANCH   7   9
ENDBRANCH   6   7
ENDBRANCH   5   6
ENDBRANCH   4   5
ENDBRANCH   3   4
ENDBRANCH   2   3
ENDBRANCH   1   2
BRANCH   1  32
ATOM     32  O   UNL A   1      39.481  22.090  26.122  1.00  0.00    -0.377 OA
BRANCH  32  33
ATOM     33  C   UNL A   1      40.362  21.297  26.910  1.00  0.00     0.188 C 
BRANCH  33  34
ATOM     34  C   UNL A   1      41.850  21.118  26.553  1.00  0.00     0.188 C 
BRANCH  34  35
ATOM     35  O   UNL A   1      42.267  21.830  25.393  1.00  0.00    -0.376 OA
BRANCH  35  36
ATOM     36  C   UNL A   1      42.918  23.075  25.620  1.00  0.00     0.202 C 
BRANCH  36  37
ATOM     37  C   UNL A   1      44.440  22.949  25.757  1.00  0.00     0.261 C 
BRANCH  37  38
ATOM     38  O   UNL A   1      44.920  22.894  27.110  1.00  0.00    -0.460 OA
BRANCH  38  39
ATOM     39  C   UNL A   1      45.723  23.897  27.522  1.00  0.00     0.338 C 
ATOM     40  O   UNL A   1      46.878  24.108  27.198  1.00  0.00    -0.246 OA
BRANCH  39  41
ATOM     41  C   UNL A   1      44.913  24.823  28.333  1.00  0.00     0.060 A 
ATOM     42  C   UNL A   1      45.096  26.201  28.172  1.00  0.00     0.016 A 
ATOM     43  C   UNL A   1      43.998  24.327  29.266  1.00  0.00     0.016 A 
ATOM     44  C   UNL A   1      44.392  27.093  28.983  1.00  0.00     0.010 A 
ATOM     45  C   UNL A   1      43.307  25.220  30.086  1.00  0.00     0.010 A 
ATOM     46  C   UNL A   1      43.528  26.603  29.972  1.00  0.00    -0.014 A 
BRANCH  46  47
ATOM     47  C   UNL A   1      43.005  27.514  31.017  1.00  0.00     0.031 A 
ATOM     48  C   UNL A   1      41.761  28.302  30.717  1.00  0.00     0.074 A 
ATOM     49  C   UNL A   1      43.623  27.646  32.204  1.00  0.00     0.049 A 
ATOM     50  N   UNL A   1      41.147  29.198  31.446  1.00  0.00    -0.248 NA
ATOM     51  C   UNL A   1      41.126  28.047  29.413  1.00  0.00     0.031 C 
ATOM     52  C   UNL A   1      44.818  26.919  32.621  1.00  0.00     0.029 A 
ATOM     53  N   UNL A   1      43.328  28.458  33.271  1.00  0.00    -0.354 N 
ATOM     54  C   UNL A   1      40.055  29.610  30.692  1.00  0.00     0.074 A 
ATOM     55  C   UNL A   1      40.106  28.891  29.438  1.00  0.00     0.031 C 
ATOM     56  C   UNL A   1      45.166  27.329  33.854  1.00  0.00     0.029 A 
ATOM     57  C   UNL A   1      44.233  28.364  34.298  1.00  0.00     0.049 A 
ATOM     58  H   UNL A   1      42.542  29.049  33.297  1.00  0.00     0.167 HD
ATOM     59  C   UNL A   1      39.092  30.502  31.020  1.00  0.00     0.037 A 
ATOM     60  C   UNL A   1      44.306  29.054  35.453  1.00  0.00     0.037 A 
ATOM     61  C   UNL A   1      39.046  31.227  32.261  1.00  0.00     0.049 A 
ATOM     62  C   UNL A   1      43.260  30.094  35.764  1.00  0.00     0.074 A 
ATOM     63  C   UNL A   1      38.104  32.145  32.690  1.00  0.00     0.029 A 
ATOM     64  N   UNL A   1      39.991  31.118  33.269  1.00  0.00    -0.354 N 
ATOM     65  N   UNL A   1      42.212  30.454  35.062  1.00  0.00    -0.248 NA
ATOM     66  C   UNL A   1      43.408  30.825  37.032  1.00  0.00     0.031 C 
ATOM     67  C   UNL A   1      38.502  32.625  33.942  1.00  0.00     0.029 A 
ATOM     68  C   UNL A   1      39.666  31.971  34.312  1.00  0.00     0.049 A 
ATOM     69  H   UNL A   1      40.775  30.525  33.248  1.00  0.00     0.167 HD
ATOM     70  C   UNL A   1      41.563  31.425  35.813  1.00  0.00     0.074 A 
ATOM     71  C   UNL A   1      42.328  31.594  37.030  1.00  0.00     0.031 C 
ATOM     72  C   UNL A   1      40.432  32.115  35.522  1.00  0.00     0.037 A 
BRANCH  59  73
ATOM     73  C   UNL A   1      38.018  30.758  30.007  1.00  0.00     0.064 A 
ATOM     74  C   UNL A   1      37.024  29.805  29.738  1.00  0.00     0.173 A 
ATOM     75  C   UNL A   1      37.964  31.978  29.319  1.00  0.00     0.173 A 
ATOM     76  F   UNL A   1      37.043  28.615  30.357  1.00  0.00    -0.203 F 
ATOM     77  C   UNL A   1      36.027  30.059  28.800  1.00  0.00     0.198 A 
ATOM     78  C   UNL A   1      36.951  32.238  28.401  1.00  0.00     0.198 A 
ATOM     79  F   UNL A   1      38.892  32.921  29.542  1.00  0.00    -0.203 F 
ATOM     80  F   UNL A   1      35.110  29.118  28.528  1.00  0.00    -0.200 F 
ATOM     81  C   UNL A   1      35.987  31.276  28.138  1.00  0.00     0.200 A 
ATOM     82  F   UNL A   1      36.909  33.419  27.768  1.00  0.00    -0.200 F 
ATOM     83  F   UNL A   1      35.022  31.521  27.240  1.00  0.00    -0.200 F 
ENDBRANCH  59  73
BRANCH  60  84
ATOM     84  C   UNL A   1      45.416  28.796  36.406  1.00  0.00     0.064 A 
ATOM     85  C   UNL A   1      45.295  27.826  37.412  1.00  0.00     0.173 A 
ATOM     86  C   UNL A   1      46.605  29.538  36.355  1.00  0.00     0.173 A 
ATOM     87  F   UNL A   1      44.165  27.114  37.519  1.00  0.00    -0.203 F 
ATOM     88  C   UNL A   1      46.312  27.624  38.343  1.00  0.00     0.198 A 
ATOM     89  C   UNL A   1      47.633  29.316  37.270  1.00  0.00     0.198 A 
ATOM     90  F   UNL A   1      46.769  30.481  35.416  1.00  0.00    -0.203 F 
ATOM     91  F   UNL A   1      46.149  26.726  39.324  1.00  0.00    -0.200 F 
ATOM     92  C   UNL A   1      47.481  28.365  38.268  1.00  0.00     0.200 A 
ATOM     93  F   UNL A   1      48.764  30.029  37.190  1.00  0.00    -0.200 F 
ATOM     94  F   UNL A   1      48.457  28.172  39.165  1.00  0.00    -0.200 F 
ENDBRANCH  60  84
BRANCH  72  95
ATOM     95  C   UNL A   1      39.929  33.085  36.550  1.00  0.00     0.064 A 
ATOM     96  C   UNL A   1      38.924  32.734  37.464  1.00  0.00     0.173 A 
ATOM     97  C   UNL A   1      40.498  34.363  36.656  1.00  0.00     0.173 A 
ATOM     98  F   UNL A   1      38.340  31.529  37.394  1.00  0.00    -0.203 F 
ATOM     99  C   UNL A   1      38.492  33.637  38.432  1.00  0.00     0.198 A 
ATOM    100  C   UNL A   1      40.082  35.253  37.643  1.00  0.00     0.198 A 
ATOM    101  F   UNL A   1      41.468  34.744  35.812  1.00  0.00    -0.203 F 
ATOM    102  F   UNL A   1      37.502  33.297  39.269  1.00  0.00    -0.200 F 
ATOM    103  C   UNL A   1      39.076  34.891  38.525  1.00  0.00     0.200 A 
ATOM    104  F   UNL A   1      40.657  36.460  37.740  1.00  0.00    -0.200 F 
ATOM    105  F   UNL A   1      38.665  35.756  39.464  1.00  0.00    -0.200 F 
ENDBRANCH  72  95
ENDBRANCH  46  47
ENDBRANCH  39  41
ENDBRANCH  38  39
ENDBRANCH  37  38
ENDBRANCH  36  37
ENDBRANCH  35  36
ENDBRANCH  34  35
ENDBRANCH  33  34
ENDBRANCH  32  33
ENDBRANCH   1  32
TORSDOF 24
ENDMDL
MODEL 2
REMARK VINA RESULT:     -10.1      1.265      7.061
REMARK SMILES CC(C)c1cc(C2CC[NH+](Cc3c[nH]nc3C(=O)OCCOCCOCCOCCOC(=O)c3ccc(-c4c5nc(c(-c6c(F)c(F)c(F)c(F)c6F)c6ccc([nH]6)c(-c6c(F)c(F)c(F)c(F)c6F)c6nc(c(-c7c(F)c(F)c(F)c(F)c7F)c7ccc4[nH]7)C=C6)C=C5)cc3)CC2)n[nH]1
REMARK SMILES IDX 24 1 23 2 22 3 21 4 20 5 19 6 17 7 18 8 16 9 12 10 13 11
REMARK SMILES IDX 14 12 15 13 11 15 10 16 7 17 8 18 98 19 9 20 97 21 6 23 4 24
REMARK SMILES IDX 5 25 100 26 99 27 2 29 1 30 3 31 25 32 26 33 27 34 28 35
REMARK SMILES IDX 29 36 30 37 31 38 32 39 33 40 34 41 35 42 96 43 36 44 95 45
REMARK SMILES IDX 37 46 38 47 39 48 89 49 40 50 94 51 88 52 90 53 41 54 93 55
REMARK SMILES IDX 87 56 86 57 42 59 74 60 54 61 73 62 55 63 58 64 72 65 91 66
REMARK SMILES IDX 56 67 57 68 71 70 92 71 59 72 43 73 44 74 52 75 45 76 46 77
REMARK SMILES IDX 50 78 53 79 47 80 48 81 51 82 49 83 75 84 76 85 84 86 77 87
REMARK SMILES IDX 78 88 82 89 85 90 79 91 80 92 83 93 81 94 60 95 61 96 69 97
REMARK SMILES IDX 62 98 63 99 67 100 70 101 64 102 65 103 68 104 66 105
REMARK H PARENT 14 14 10 22 100 28 90 58 58 69
REMARK Flexibility Score: inf
ROOT
ATOM      1  C   UNL A   1      38.563  20.519  25.299  1.00  0.00     0.188 C 
ENDROOT
BRANCH   1   2
ATOM      2  C   UNL A   1      38.071  21.885  25.794  1.00  0.00     0.188 C 
BRANCH   2   3
ATOM      3  O   UNL A   1      37.847  22.827  24.743  1.00  0.00    -0.376 OA
BRANCH   3   4
ATOM      4  C   UNL A   1      36.813  22.484  23.826  1.00  0.00     0.202 C 
BRANCH   4   5
ATOM      5  C   UNL A   1      35.386  22.645  24.378  1.00  0.00     0.261 C 
BRANCH   5   6
ATOM      6  O   UNL A   1      34.490  21.562  24.076  1.00  0.00    -0.458 OA
BRANCH   6   7
ATOM      7  C   UNL A   1      33.168  21.825  24.243  1.00  0.00     0.359 C 
ATOM      8  O   UNL A   1      32.335  21.674  23.353  1.00  0.00    -0.244 OA
BRANCH   7   9
ATOM      9  C   UNL A   1      32.824  22.204  25.624  1.00  0.00     0.178 A 
ATOM     10  C   UNL A   1      32.164  23.383  26.148  1.00  0.00     0.059 A 
ATOM     11  C   UNL A   1      31.964  23.048  27.479  1.00  0.00     0.115 A 
ATOM     12  N   UNL A   1      32.626  21.887  27.716  1.00  0.00    -0.284 N 
ATOM     13  N   UNL A   1      33.145  21.346  26.618  1.00  0.00    -0.168 NA
ATOM     14  H   UNL A   1      32.713  21.486  28.611  1.00  0.00     0.189 HD
BRANCH  10  15
ATOM     15  C   UNL A   1      31.620  24.582  25.397  1.00  0.00     0.303 C 
BRANCH  15  16
ATOM     16  N   UNL A   1      32.492  25.778  25.311  1.00  0.00    -0.331 N 
ATOM     17  C   UNL A   1      33.129  28.561  24.513  1.00  0.00     0.051 C 
ATOM     18  C   UNL A   1      33.843  27.365  23.879  1.00  0.00     0.071 C 
ATOM     19  C   UNL A   1      32.844  28.197  25.976  1.00  0.00     0.071 C 
ATOM     20  C   UNL A   1      33.018  26.083  23.983  1.00  0.00     0.263 C 
ATOM     21  C   UNL A   1      32.039  26.899  26.132  1.00  0.00     0.263 C 
ATOM     22  H   UNL A   1      33.359  25.505  25.775  1.00  0.00     0.348 HD
BRANCH  17  23
ATOM     23  C   UNL A   1      31.897  29.024  23.762  1.00  0.00     0.066 A 
ATOM     24  C   UNL A   1      29.919  29.900  23.207  1.00  0.00     0.038 A 
ATOM     25  C   UNL A   1      30.681  29.517  24.281  1.00  0.00     0.049 A 
ATOM     26  N   UNL A   1      30.662  29.559  22.113  1.00  0.00    -0.282 N 
ATOM     27  N   UNL A   1      31.870  29.038  22.421  1.00  0.00    -0.180 NA
ATOM     28  H   UNL A   1      30.348  29.681  21.188  1.00  0.00     0.190 HD
BRANCH  24  29
ATOM     29  C   UNL A   1      28.576  30.556  23.206  1.00  0.00     0.031 C 
ATOM     30  C   UNL A   1      28.493  31.722  22.226  1.00  0.00     0.014 C 
ATOM     31  C   UNL A   1      27.463  29.538  22.975  1.00  0.00     0.014 C 
ENDBRANCH  24  29
ENDBRANCH  17  23
ENDBRANCH  15  16
ENDBRANCH  10  15
ENDBRANCH   7   9
ENDBRANCH   6   7
ENDBRANCH   5   6
ENDBRANCH   4   5
ENDBRANCH   3   4
ENDBRANCH   2   3
ENDBRANCH   1   2
BRANCH   1  32
ATOM     32  O   UNL A   1      39.767  20.072  25.896  1.00  0.00    -0.377 OA
BRANCH  32  33
ATOM     33  C   UNL A   1      40.660  21.022  26.468  1.00  0.00     0.188 C 
BRANCH  33  34
ATOM     34  C   UNL A   1      42.146  20.706  26.721  1.00  0.00     0.188 C 
BRANCH  34  35
ATOM     35  O   UNL A   1      42.834  20.170  25.595  1.00  0.00    -0.376 OA
BRANCH  35  36
ATOM     36  C   UNL A   1      44.060  20.803  25.247  1.00  0.00     0.202 C 
BRANCH  36  37
ATOM     37  C   UNL A   1      43.918  22.309  25.002  1.00  0.00     0.261 C 
BRANCH  37  38
ATOM     38  O   UNL A   1      44.555  23.142  25.985  1.00  0.00    -0.460 OA
BRANCH  38  39
ATOM     39  C   UNL A   1      44.720  24.445  25.677  1.00  0.00     0.338 C 
ATOM     40  O   UNL A   1      44.960  24.928  24.585  1.00  0.00    -0.246 OA
BRANCH  39  41
ATOM     41  C   UNL A   1      44.400  25.240  26.876  1.00  0.00     0.060 A 
ATOM     42  C   UNL A   1      43.598  24.670  27.872  1.00  0.00     0.016 A 
ATOM     43  C   UNL A   1      44.870  26.550  27.000  1.00  0.00     0.016 A 
ATOM     44  C   UNL A   1      43.223  25.431  28.980  1.00  0.00     0.010 A 
ATOM     45  C   UNL A   1      44.482  27.314  28.101  1.00  0.00     0.010 A 
ATOM     46  C   UNL A   1      43.628  26.769  29.075  1.00  0.00    -0.014 A 
BRANCH  46  47
ATOM     47  C   UNL A   1      43.008  27.662  30.082  1.00  0.00     0.031 A 
ATOM     48  C   UNL A   1      43.671  27.791  31.425  1.00  0.00     0.074 A 
ATOM     49  C   UNL A   1      41.877  28.337  29.817  1.00  0.00     0.049 A 
ATOM     50  N   UNL A   1      43.291  28.464  32.480  1.00  0.00    -0.248 NA
ATOM     51  C   UNL A   1      44.936  27.056  31.601  1.00  0.00     0.031 C 
ATOM     52  C   UNL A   1      41.155  28.314  28.548  1.00  0.00     0.029 A 
ATOM     53  N   UNL A   1      41.131  29.167  30.617  1.00  0.00    -0.354 N 
ATOM     54  C   UNL A   1      44.267  28.236  33.443  1.00  0.00     0.074 A 
ATOM     55  C   UNL A   1      45.242  27.340  32.858  1.00  0.00     0.031 C 
ATOM     56  C   UNL A   1      40.058  29.084  28.658  1.00  0.00     0.029 A 
ATOM     57  C   UNL A   1      39.989  29.630  30.013  1.00  0.00     0.049 A 
ATOM     58  H   UNL A   1      41.390  29.406  31.536  1.00  0.00     0.167 HD
ATOM     59  C   UNL A   1      44.349  28.735  34.697  1.00  0.00     0.037 A 
ATOM     60  C   UNL A   1      38.995  30.392  30.510  1.00  0.00     0.037 A 
ATOM     61  C   UNL A   1      43.376  29.616  35.284  1.00  0.00     0.049 A 
ATOM     62  C   UNL A   1      39.073  30.878  31.936  1.00  0.00     0.074 A 
ATOM     63  C   UNL A   1      43.376  30.185  36.545  1.00  0.00     0.029 A 
ATOM     64  N   UNL A   1      42.224  30.050  34.647  1.00  0.00    -0.354 N 
ATOM     65  N   UNL A   1      40.016  30.687  32.827  1.00  0.00    -0.248 NA
ATOM     66  C   UNL A   1      37.947  31.689  32.423  1.00  0.00     0.031 C 
ATOM     67  C   UNL A   1      42.201  30.929  36.688  1.00  0.00     0.029 A 
ATOM     68  C   UNL A   1      41.492  30.862  35.498  1.00  0.00     0.049 A 
ATOM     69  H   UNL A   1      41.963  29.816  33.728  1.00  0.00     0.167 HD
ATOM     70  C   UNL A   1      39.613  31.376  33.964  1.00  0.00     0.074 A 
ATOM     71  C   UNL A   1      38.345  31.998  33.650  1.00  0.00     0.031 C 
ATOM     72  C   UNL A   1      40.239  31.485  35.162  1.00  0.00     0.037 A 
BRANCH  59  73
ATOM     73  C   UNL A   1      45.525  28.321  35.527  1.00  0.00     0.064 A 
ATOM     74  C   UNL A   1      46.658  29.139  35.652  1.00  0.00     0.173 A 
ATOM     75  C   UNL A   1      45.510  27.106  36.228  1.00  0.00     0.173 A 
ATOM     76  F   UNL A   1      46.728  30.302  34.986  1.00  0.00    -0.203 F 
ATOM     77  C   UNL A   1      47.741  28.746  36.434  1.00  0.00     0.198 A 
ATOM     78  C   UNL A   1      46.583  26.729  37.028  1.00  0.00     0.198 A 
ATOM     79  F   UNL A   1      44.449  26.289  36.141  1.00  0.00    -0.203 F 
ATOM     80  F   UNL A   1      48.830  29.525  36.507  1.00  0.00    -0.200 F 
ATOM     81  C   UNL A   1      47.700  27.546  37.127  1.00  0.00     0.200 A 
ATOM     82  F   UNL A   1      46.539  25.572  37.704  1.00  0.00    -0.200 F 
ATOM     83  F   UNL A   1      48.741  27.172  37.884  1.00  0.00    -0.200 F 
ENDBRANCH  59  73
BRANCH  60  84
ATOM     84  C   UNL A   1      37.826  30.740  29.661  1.00  0.00     0.064 A 
ATOM     85  C   UNL A   1      36.839  29.789  29.366  1.00  0.00     0.173 A 
ATOM     86  C   UNL A   1      37.691  32.017  29.098  1.00  0.00     0.173 A 
ATOM     87  F   UNL A   1      36.942  28.546  29.857  1.00  0.00    -0.203 F 
ATOM     88  C   UNL A   1      35.774  30.096  28.523  1.00  0.00     0.198 A 
ATOM     89  C   UNL A   1      36.610  32.332  28.277  1.00  0.00     0.198 A 
ATOM     90  F   UNL A   1      38.611  32.961  29.344  1.00  0.00    -0.203 F 
ATOM     91  F   UNL A   1      34.872  29.154  28.217  1.00  0.00    -0.200 F 
ATOM     92  C   UNL A   1      35.657  31.368  27.983  1.00  0.00     0.200 A 
ATOM     93  F   UNL A   1      36.498  33.564  27.762  1.00  0.00    -0.200 F 
ATOM     94  F   UNL A   1      34.634  31.662  27.169  1.00  0.00    -0.200 F 
ENDBRANCH  60  84
BRANCH  72  95
ATOM     95  C   UNL A   1      39.585  32.338  36.209  1.00  0.00     0.064 A 
ATOM     96  C   UNL A   1      38.551  31.846  37.020  1.00  0.00     0.173 A 
ATOM     97  C   UNL A   1      40.036  33.647  36.440  1.00  0.00     0.173 A 
ATOM     98  F   UNL A   1      38.077  30.606  36.829  1.00  0.00    -0.203 F 
ATOM     99  C   UNL A   1      37.978  32.642  38.008  1.00  0.00     0.198 A 
ATOM    100  C   UNL A   1      39.479  34.430  37.447  1.00  0.00     0.198 A 
ATOM    101  F   UNL A   1      41.027  34.161  35.697  1.00  0.00    -0.203 F 
ATOM    102  F   UNL A   1      36.964  32.166  38.744  1.00  0.00    -0.200 F 
ATOM    103  C   UNL A   1      38.447  33.929  38.225  1.00  0.00     0.200 A 
ATOM    104  F   UNL A   1      39.942  35.668  37.664  1.00  0.00    -0.200 F 
ATOM    105  F   UNL A   1      37.900  34.690  39.184  1.00  0.00    -0.200 F 
ENDBRANCH  72  95
ENDBRANCH  46  47
ENDBRANCH  39  41
ENDBRANCH  38  39
ENDBRANCH  37  38
ENDBRANCH  36  37
ENDBRANCH  35  36
ENDBRANCH  34  35
ENDBRANCH  33  34
ENDBRANCH  32  33
ENDBRANCH   1  32
TORSDOF 24
ENDMDL
MODEL 3
REMARK VINA RESULT:      -9.6      2.263      4.393
REMARK SMILES CC(C)c1cc(C2CC[NH+](Cc3c[nH]nc3C(=O)OCCOCCOCCOCCOC(=O)c3ccc(-c4c5nc(c(-c6c(F)c(F)c(F)c(F)c6F)c6ccc([nH]6)c(-c6c(F)c(F)c(F)c(F)c6F)c6nc(c(-c7c(F)c(F)c(F)c(F)c7F)c7ccc4[nH]7)C=C6)C=C5)cc3)CC2)n[nH]1
REMARK SMILES IDX 24 1 23 2 22 3 21 4 20 5 19 6 17 7 18 8 16 9 12 10 13 11
REMARK SMILES IDX 14 12 15 13 11 15 10 16 7 17 8 18 98 19 9 20 97 21 6 23 4 24
REMARK SMILES IDX 5 25 100 26 99 27 2 29 1 30 3 31 25 32 26 33 27 34 28 35
REMARK SMILES IDX 29 36 30 37 31 38 32 39 33 40 34 41 35 42 96 43 36 44 95 45
REMARK SMILES IDX 37 46 38 47 39 48 89 49 40 50 94 51 88 52 90 53 41 54 93 55
REMARK SMILES IDX 87 56 86 57 42 59 74 60 54 61 73 62 55 63 58 64 72 65 91 66
REMARK SMILES IDX 56 67 57 68 71 70 92 71 59 72 43 73 44 74 52 75 45 76 46 77
REMARK SMILES IDX 50 78 53 79 47 80 48 81 51 82 49 83 75 84 76 85 84 86 77 87
REMARK SMILES IDX 78 88 82 89 85 90 79 91 80 92 83 93 81 94 60 95 61 96 69 97
REMARK SMILES IDX 62 98 63 99 67 100 70 101 64 102 65 103 68 104 66 105
REMARK H PARENT 14 14 10 22 100 28 90 58 58 69
REMARK Flexibility Score: inf
ROOT
ATOM      1  C   UNL A   1      45.836  19.274  24.905  1.00  0.00     0.188 C 
ENDROOT
BRANCH   1   2
ATOM      2  C   UNL A   1      44.846  18.491  25.774  1.00  0.00     0.188 C 
BRANCH   2   3
ATOM      3  O   UNL A   1      43.504  18.523  25.283  1.00  0.00    -0.376 OA
BRANCH   3   4
ATOM      4  C   UNL A   1      42.543  19.088  26.169  1.00  0.00     0.202 C 
BRANCH   4   5
ATOM      5  C   UNL A   1      42.423  20.620  26.094  1.00  0.00     0.261 C 
BRANCH   5   6
ATOM      6  O   UNL A   1      41.509  21.206  27.035  1.00  0.00    -0.458 OA
BRANCH   6   7
ATOM      7  C   UNL A   1      40.375  21.735  26.506  1.00  0.00     0.359 C 
ATOM      8  O   UNL A   1      39.438  21.050  26.104  1.00  0.00    -0.244 OA
BRANCH   7   9
ATOM      9  C   UNL A   1      40.342  23.207  26.566  1.00  0.00     0.178 A 
ATOM     10  C   UNL A   1      39.237  24.123  26.760  1.00  0.00     0.059 A 
ATOM     11  C   UNL A   1      39.881  25.342  26.916  1.00  0.00     0.115 A 
ATOM     12  N   UNL A   1      41.195  25.151  26.635  1.00  0.00    -0.284 N 
ATOM     13  N   UNL A   1      41.509  23.875  26.432  1.00  0.00    -0.168 NA
ATOM     14  H   UNL A   1      41.851  25.884  26.587  1.00  0.00     0.189 HD
BRANCH  10  15
ATOM     15  C   UNL A   1      37.768  23.813  26.970  1.00  0.00     0.303 C 
BRANCH  15  16
ATOM     16  N   UNL A   1      37.077  23.055  25.899  1.00  0.00    -0.331 N 
ATOM     17  C   UNL A   1      35.154  22.751  23.664  1.00  0.00     0.051 C 
ATOM     18  C   UNL A   1      34.936  22.046  25.005  1.00  0.00     0.071 C 
ATOM     19  C   UNL A   1      36.666  22.796  23.412  1.00  0.00     0.071 C 
ATOM     20  C   UNL A   1      35.671  22.749  26.148  1.00  0.00     0.263 C 
ATOM     21  C   UNL A   1      37.450  23.470  24.548  1.00  0.00     0.263 C 
ATOM     22  H   UNL A   1      37.465  22.113  25.952  1.00  0.00     0.348 HD
BRANCH  17  23
ATOM     23  C   UNL A   1      34.490  24.109  23.557  1.00  0.00     0.066 A 
ATOM     24  C   UNL A   1      33.710  26.160  23.972  1.00  0.00     0.038 A 
ATOM     25  C   UNL A   1      34.227  25.045  24.580  1.00  0.00     0.049 A 
ATOM     26  N   UNL A   1      33.616  25.826  22.651  1.00  0.00    -0.282 N 
ATOM     27  N   UNL A   1      34.093  24.594  22.371  1.00  0.00    -0.180 NA
ATOM     28  H   UNL A   1      33.237  26.425  21.968  1.00  0.00     0.190 HD
BRANCH  24  29
ATOM     29  C   UNL A   1      33.333  27.468  24.591  1.00  0.00     0.031 C 
ATOM     30  C   UNL A   1      33.827  27.602  26.027  1.00  0.00     0.014 C 
ATOM     31  C   UNL A   1      33.778  28.640  23.722  1.00  0.00     0.014 C 
ENDBRANCH  24  29
ENDBRANCH  17  23
ENDBRANCH  15  16
ENDBRANCH  10  15
ENDBRANCH   7   9
ENDBRANCH   6   7
ENDBRANCH   5   6
ENDBRANCH   4   5
ENDBRANCH   3   4
ENDBRANCH   2   3
ENDBRANCH   1   2
BRANCH   1  32
ATOM     32  O   UNL A   1      46.027  20.623  25.293  1.00  0.00    -0.377 OA
BRANCH  32  33
ATOM     33  C   UNL A   1      46.431  21.580  24.321  1.00  0.00     0.188 C 
BRANCH  33  34
ATOM     34  C   UNL A   1      45.938  23.040  24.347  1.00  0.00     0.188 C 
BRANCH  34  35
ATOM     35  O   UNL A   1      46.824  23.972  23.736  1.00  0.00    -0.376 OA
BRANCH  35  36
ATOM     36  C   UNL A   1      47.465  24.894  24.608  1.00  0.00     0.202 C 
BRANCH  36  37
ATOM     37  C   UNL A   1      47.442  24.459  26.078  1.00  0.00     0.261 C 
BRANCH  37  38
ATOM     38  O   UNL A   1      46.511  25.176  26.905  1.00  0.00    -0.460 OA
BRANCH  38  39
ATOM     39  C   UNL A   1      45.667  24.446  27.662  1.00  0.00     0.338 C 
ATOM     40  O   UNL A   1      45.634  23.235  27.784  1.00  0.00    -0.246 OA
BRANCH  39  41
ATOM     41  C   UNL A   1      44.859  25.377  28.469  1.00  0.00     0.060 A 
ATOM     42  C   UNL A   1      45.162  26.743  28.432  1.00  0.00     0.016 A 
ATOM     43  C   UNL A   1      43.825  24.896  29.277  1.00  0.00     0.016 A 
ATOM     44  C   UNL A   1      44.458  27.631  29.246  1.00  0.00     0.010 A 
ATOM     45  C   UNL A   1      43.132  25.784  30.101  1.00  0.00     0.010 A 
ATOM     46  C   UNL A   1      43.470  27.147  30.115  1.00  0.00    -0.014 A 
BRANCH  46  47
ATOM     47  C   UNL A   1      42.924  28.023  31.178  1.00  0.00     0.031 A 
ATOM     48  C   UNL A   1      41.664  28.791  30.892  1.00  0.00     0.074 A 
ATOM     49  C   UNL A   1      43.535  28.142  32.370  1.00  0.00     0.049 A 
ATOM     50  N   UNL A   1      41.028  29.656  31.638  1.00  0.00    -0.248 NA
ATOM     51  C   UNL A   1      41.038  28.551  29.580  1.00  0.00     0.031 C 
ATOM     52  C   UNL A   1      44.744  27.432  32.774  1.00  0.00     0.029 A 
ATOM     53  N   UNL A   1      43.219  28.923  33.454  1.00  0.00    -0.354 N 
ATOM     54  C   UNL A   1      39.930  30.062  30.890  1.00  0.00     0.074 A 
ATOM     55  C   UNL A   1      40.000  29.372  29.620  1.00  0.00     0.031 C 
ATOM     56  C   UNL A   1      45.080  27.822  34.018  1.00  0.00     0.029 A 
ATOM     57  C   UNL A   1      44.123  28.826  34.481  1.00  0.00     0.049 A 
ATOM     58  H   UNL A   1      42.421  29.497  33.490  1.00  0.00     0.167 HD
ATOM     59  C   UNL A   1      38.946  30.925  31.235  1.00  0.00     0.037 A 
ATOM     60  C   UNL A   1      44.178  29.491  35.652  1.00  0.00     0.037 A 
ATOM     61  C   UNL A   1      38.881  31.620  32.491  1.00  0.00     0.049 A 
ATOM     62  C   UNL A   1      43.109  30.502  35.983  1.00  0.00     0.074 A 
ATOM     63  C   UNL A   1      37.918  32.508  32.938  1.00  0.00     0.029 A 
ATOM     64  N   UNL A   1      39.825  31.510  33.500  1.00  0.00    -0.354 N 
ATOM     65  N   UNL A   1      42.055  30.854  35.285  1.00  0.00    -0.248 NA
ATOM     66  C   UNL A   1      43.237  31.207  37.267  1.00  0.00     0.031 C 
ATOM     67  C   UNL A   1      38.302  32.968  34.201  1.00  0.00     0.029 A 
ATOM     68  C   UNL A   1      39.479  32.331  34.561  1.00  0.00     0.049 A 
ATOM     69  H   UNL A   1      40.622  30.934  33.468  1.00  0.00     0.167 HD
ATOM     70  C   UNL A   1      41.382  31.793  36.056  1.00  0.00     0.074 A 
ATOM     71  C   UNL A   1      42.140  31.952  37.279  1.00  0.00     0.031 C 
ATOM     72  C   UNL A   1      40.238  32.465  35.777  1.00  0.00     0.037 A 
BRANCH  59  73
ATOM     73  C   UNL A   1      37.870  31.180  30.224  1.00  0.00     0.064 A 
ATOM     74  C   UNL A   1      37.821  32.377  29.494  1.00  0.00     0.173 A 
ATOM     75  C   UNL A   1      36.894  30.207  29.962  1.00  0.00     0.173 A 
ATOM     76  F   UNL A   1      38.721  33.345  29.722  1.00  0.00    -0.203 F 
ATOM     77  C   UNL A   1      36.820  32.598  28.551  1.00  0.00     0.198 A 
ATOM     78  C   UNL A   1      35.911  30.422  29.001  1.00  0.00     0.198 A 
ATOM     79  F   UNL A   1      36.900  29.047  30.635  1.00  0.00    -0.203 F 
ATOM     80  F   UNL A   1      36.767  33.765  27.893  1.00  0.00    -0.200 F 
ATOM     81  C   UNL A   1      35.871  31.618  28.301  1.00  0.00     0.200 A 
ATOM     82  F   UNL A   1      34.999  29.471  28.755  1.00  0.00    -0.200 F 
ATOM     83  F   UNL A   1      34.912  31.830  27.388  1.00  0.00    -0.200 F 
ENDBRANCH  59  73
BRANCH  60  84
ATOM     84  C   UNL A   1      45.291  29.236  36.603  1.00  0.00     0.064 A 
ATOM     85  C   UNL A   1      45.200  28.221  37.566  1.00  0.00     0.173 A 
ATOM     86  C   UNL A   1      46.451  30.024  36.593  1.00  0.00     0.173 A 
ATOM     87  F   UNL A   1      44.097  27.462  37.634  1.00  0.00    -0.203 F 
ATOM     88  C   UNL A   1      46.217  28.019  38.496  1.00  0.00     0.198 A 
ATOM     89  C   UNL A   1      47.479  29.803  37.506  1.00  0.00     0.198 A 
ATOM     90  F   UNL A   1      46.584  31.012  35.696  1.00  0.00    -0.203 F 
ATOM     91  F   UNL A   1      46.083  27.075  39.438  1.00  0.00    -0.200 F 
ATOM     92  C   UNL A   1      47.358  28.806  38.463  1.00  0.00     0.200 A 
ATOM     93  F   UNL A   1      48.583  30.563  37.466  1.00  0.00    -0.200 F 
ATOM     94  F   UNL A   1      48.334  28.613  39.359  1.00  0.00    -0.200 F 
ENDBRANCH  60  84
BRANCH  72  95
ATOM     95  C   UNL A   1      39.711  33.400  36.824  1.00  0.00     0.064 A 
ATOM     96  C   UNL A   1      38.818  32.968  37.816  1.00  0.00     0.173 A 
ATOM     97  C   UNL A   1      40.147  34.734  36.868  1.00  0.00     0.173 A 
ATOM     98  F   UNL A   1      38.362  31.707  37.809  1.00  0.00    -0.203 F 
ATOM     99  C   UNL A   1      38.364  33.842  38.799  1.00  0.00     0.198 A 
ATOM    100  C   UNL A   1      39.712  35.597  37.869  1.00  0.00     0.198 A 
ATOM    101  F   UNL A   1      41.007  35.194  35.948  1.00  0.00    -0.203 F 
ATOM    102  F   UNL A   1      37.480  33.419  39.713  1.00  0.00    -0.200 F 
ATOM    103  C   UNL A   1      38.816  35.153  38.830  1.00  0.00     0.200 A 
ATOM    104  F   UNL A   1      40.161  36.860  37.905  1.00  0.00    -0.200 F 
ATOM    105  F   UNL A   1      38.386  35.991  39.783  1.00  0.00    -0.200 F 
ENDBRANCH  72  95
ENDBRANCH  46  47
ENDBRANCH  39  41
ENDBRANCH  38  39
ENDBRANCH  37  38
ENDBRANCH  36  37
ENDBRANCH  35  36
ENDBRANCH  34  35
ENDBRANCH  33  34
ENDBRANCH  32  33
ENDBRANCH   1  32
TORSDOF 24
ENDMDL
