MODEL 1
REMARK VINA RESULT:     -10.5      0.000      0.000
REMARK SMILES Cc1cc(NCc2ccco2)cc(C(=O)OCCOCCOCCOCCOC(=O)c2ccc(-c3c4nc(c(-c5c(F)c(F)c(F)c(F)c5F)c5ccc([nH]5)c(-c5c(F)c(F)c(F)c(F)c5F)c5nc(c(-c6c(F)c(F)c(F)c(F)c6F)c6ccc3[nH]6)C=C5)C=C4)cc2)c1N
REMARK SMILES IDX 21 1 20 2 19 3 18 4 17 5 16 6 14 7 15 8 13 9 1 10 2 11 3 12
REMARK SMILES IDX 94 13 4 14 12 15 95 16 5 19 6 21 7 22 8 23 11 24 9 25 10 26
REMARK SMILES IDX 22 27 23 28 24 29 25 30 26 31 27 32 28 33 29 34 30 35 31 36
REMARK SMILES IDX 32 37 93 38 33 39 92 40 34 41 35 42 36 43 86 44 37 45 91 46
REMARK SMILES IDX 85 47 87 48 38 49 90 50 84 51 83 52 39 54 71 55 51 56 70 57
REMARK SMILES IDX 52 58 55 59 69 60 88 61 53 62 54 63 68 65 89 66 56 67 40 68
REMARK SMILES IDX 41 69 49 70 42 71 43 72 47 73 50 74 44 75 45 76 48 77 46 78
REMARK SMILES IDX 72 79 73 80 81 81 74 82 75 83 79 84 82 85 76 86 77 87 80 88
REMARK SMILES IDX 78 89 57 90 58 91 66 92 59 93 60 94 64 95 67 96 61 97 62 98
REMARK SMILES IDX 65 99 63 100
REMARK H PARENT 95 17 95 18 5 20 87 53 55 64
REMARK Flexibility Score: inf
ROOT
ATOM      1  C   UNL A   1      39.418  22.319  26.467  1.00  0.00     0.188 C 
ENDROOT
BRANCH   1   2
ATOM      2  C   UNL A   1      38.614  23.639  26.481  1.00  0.00     0.188 C 
BRANCH   2   3
ATOM      3  O   UNL A   1      37.531  23.678  25.565  1.00  0.00    -0.376 OA
BRANCH   3   4
ATOM      4  C   UNL A   1      37.195  22.490  24.876  1.00  0.00     0.202 C 
BRANCH   4   5
ATOM      5  C   UNL A   1      36.543  22.644  23.496  1.00  0.00     0.261 C 
BRANCH   5   6
ATOM      6  O   UNL A   1      35.109  22.652  23.482  1.00  0.00    -0.460 OA
BRANCH   6   7
ATOM      7  C   UNL A   1      34.478  22.006  24.493  1.00  0.00     0.340 C 
ATOM      8  O   UNL A   1      34.754  20.893  24.912  1.00  0.00    -0.246 OA
BRANCH   7   9
ATOM      9  C   UNL A   1      33.524  22.950  25.137  1.00  0.00     0.085 A 
ATOM     10  C   UNL A   1      30.123  22.971  26.876  1.00  0.00     0.047 C 
ATOM     11  C   UNL A   1      31.445  23.388  26.286  1.00  0.00    -0.025 A 
ATOM     12  C   UNL A   1      31.847  24.731  26.426  1.00  0.00     0.031 A 
ATOM     13  C   UNL A   1      32.293  22.471  25.642  1.00  0.00     0.049 A 
ATOM     14  C   UNL A   1      33.074  25.208  25.948  1.00  0.00     0.036 A 
ATOM     15  C   UNL A   1      33.905  24.296  25.302  1.00  0.00     0.043 A 
BRANCH  13  16
ATOM     16  N   UNL A   1      32.007  21.105  25.687  1.00  0.00    -0.398 N 
ATOM     17  H   UNL A   1      31.880  20.656  26.554  1.00  0.00     0.156 HD
ATOM     18  H   UNL A   1      31.933  20.589  24.851  1.00  0.00     0.156 HD
ENDBRANCH  13  16
BRANCH  14  19
ATOM     19  N   UNL A   1      33.426  26.508  26.242  1.00  0.00    -0.378 N 
ATOM     20  H   UNL A   1      34.364  26.670  26.492  1.00  0.00     0.161 HD
BRANCH  19  21
ATOM     21  C   UNL A   1      32.546  27.664  26.218  1.00  0.00     0.188 C 
BRANCH  21  22
ATOM     22  C   UNL A   1      32.251  28.198  24.860  1.00  0.00     0.122 A 
ATOM     23  C   UNL A   1      33.027  28.444  23.746  1.00  0.00     0.047 A 
ATOM     24  O   UNL A   1      30.956  28.558  24.613  1.00  0.00    -0.467 OA
ATOM     25  C   UNL A   1      32.156  28.975  22.763  1.00  0.00     0.042 A 
ATOM     26  C   UNL A   1      30.908  29.019  23.338  1.00  0.00     0.195 A 
ENDBRANCH  21  22
ENDBRANCH  19  21
ENDBRANCH  14  19
ENDBRANCH   7   9
ENDBRANCH   6   7
ENDBRANCH   5   6
ENDBRANCH   4   5
ENDBRANCH   3   4
ENDBRANCH   2   3
ENDBRANCH   1   2
BRANCH   1  27
ATOM     27  O   UNL A   1      40.096  21.868  27.635  1.00  0.00    -0.377 OA
BRANCH  27  28
ATOM     28  C   UNL A   1      41.176  20.950  27.522  1.00  0.00     0.188 C 
BRANCH  28  29
ATOM     29  C   UNL A   1      41.156  19.849  26.436  1.00  0.00     0.188 C 
BRANCH  29  30
ATOM     30  O   UNL A   1      42.143  20.002  25.433  1.00  0.00    -0.376 OA
BRANCH  30  31
ATOM     31  C   UNL A   1      43.422  20.470  25.813  1.00  0.00     0.202 C 
BRANCH  31  32
ATOM     32  C   UNL A   1      43.979  21.720  25.117  1.00  0.00     0.261 C 
BRANCH  32  33
ATOM     33  O   UNL A   1      43.214  22.927  25.252  1.00  0.00    -0.460 OA
BRANCH  33  34
ATOM     34  C   UNL A   1      43.876  24.099  25.179  1.00  0.00     0.338 C 
ATOM     35  O   UNL A   1      44.759  24.406  24.395  1.00  0.00    -0.246 OA
BRANCH  34  36
ATOM     36  C   UNL A   1      43.211  25.037  26.107  1.00  0.00     0.060 A 
ATOM     37  C   UNL A   1      43.571  26.392  26.094  1.00  0.00     0.016 A 
ATOM     38  C   UNL A   1      42.213  24.578  26.971  1.00  0.00     0.016 A 
ATOM     39  C   UNL A   1      42.952  27.287  26.967  1.00  0.00     0.010 A 
ATOM     40  C   UNL A   1      41.613  25.470  27.862  1.00  0.00     0.010 A 
ATOM     41  C   UNL A   1      42.004  26.821  27.886  1.00  0.00    -0.014 A 
BRANCH  41  42
ATOM     42  C   UNL A   1      41.574  27.691  29.007  1.00  0.00     0.031 A 
ATOM     43  C   UNL A   1      42.336  27.607  30.300  1.00  0.00     0.074 A 
ATOM     44  C   UNL A   1      40.544  28.545  28.881  1.00  0.00     0.049 A 
ATOM     45  N   UNL A   1      42.114  28.207  31.440  1.00  0.00    -0.248 NA
ATOM     46  C   UNL A   1      43.510  26.717  30.305  1.00  0.00     0.031 C 
ATOM     47  C   UNL A   1      39.759  28.750  27.667  1.00  0.00     0.029 A 
ATOM     48  N   UNL A   1      39.976  29.394  29.800  1.00  0.00    -0.354 N 
ATOM     49  C   UNL A   1      43.114  27.764  32.297  1.00  0.00     0.074 A 
ATOM     50  C   UNL A   1      43.922  26.819  31.559  1.00  0.00     0.031 C 
ATOM     51  C   UNL A   1      38.796  29.655  27.920  1.00  0.00     0.029 A 
ATOM     52  C   UNL A   1      38.877  30.063  29.322  1.00  0.00     0.049 A 
ATOM     53  H   UNL A   1      40.325  29.512  30.712  1.00  0.00     0.167 HD
ATOM     54  C   UNL A   1      43.343  28.123  33.582  1.00  0.00     0.037 A 
ATOM     55  C   UNL A   1      38.018  30.885  29.958  1.00  0.00     0.037 A 
ATOM     56  C   UNL A   1      42.532  29.059  34.315  1.00  0.00     0.049 A 
ATOM     57  C   UNL A   1      38.244  31.203  31.417  1.00  0.00     0.074 A 
ATOM     58  C   UNL A   1      42.684  29.495  35.619  1.00  0.00     0.029 A 
ATOM     59  N   UNL A   1      41.408  29.694  33.807  1.00  0.00    -0.354 N 
ATOM     60  N   UNL A   1      39.202  30.800  32.216  1.00  0.00    -0.248 NA
ATOM     61  C   UNL A   1      37.269  32.096  32.060  1.00  0.00     0.031 C 
ATOM     62  C   UNL A   1      41.617  30.347  35.921  1.00  0.00     0.029 A 
ATOM     63  C   UNL A   1      40.840  30.498  34.783  1.00  0.00     0.049 A 
ATOM     64  H   UNL A   1      41.065  29.589  32.891  1.00  0.00     0.167 HD
ATOM     65  C   UNL A   1      38.966  31.414  33.441  1.00  0.00     0.074 A 
ATOM     66  C   UNL A   1      37.782  32.230  33.275  1.00  0.00     0.031 C 
ATOM     67  C   UNL A   1      39.666  31.314  34.598  1.00  0.00     0.037 A 
BRANCH  54  68
ATOM     68  C   UNL A   1      44.502  27.477  34.287  1.00  0.00     0.064 A 
ATOM     69  C   UNL A   1      45.788  28.038  34.263  1.00  0.00     0.173 A 
ATOM     70  C   UNL A   1      44.315  26.298  35.024  1.00  0.00     0.173 A 
ATOM     71  F   UNL A   1      46.025  29.156  33.559  1.00  0.00    -0.203 F 
ATOM     72  C   UNL A   1      46.849  27.428  34.927  1.00  0.00     0.198 A 
ATOM     73  C   UNL A   1      45.370  25.709  35.715  1.00  0.00     0.198 A 
ATOM     74  F   UNL A   1      43.105  25.721  35.081  1.00  0.00    -0.203 F 
ATOM     75  F   UNL A   1      48.079  27.953  34.847  1.00  0.00    -0.200 F 
ATOM     76  C   UNL A   1      46.637  26.269  35.660  1.00  0.00     0.200 A 
ATOM     77  F   UNL A   1      45.160  24.599  36.434  1.00  0.00    -0.200 F 
ATOM     78  F   UNL A   1      47.656  25.688  36.308  1.00  0.00    -0.200 F 
ENDBRANCH  54  68
BRANCH  55  79
ATOM     79  C   UNL A   1      36.850  31.452  29.233  1.00  0.00     0.064 A 
ATOM     80  C   UNL A   1      36.791  32.812  28.897  1.00  0.00     0.173 A 
ATOM     81  C   UNL A   1      35.749  30.652  28.890  1.00  0.00     0.173 A 
ATOM     82  F   UNL A   1      37.806  33.627  29.226  1.00  0.00    -0.203 F 
ATOM     83  C   UNL A   1      35.670  33.355  28.272  1.00  0.00     0.198 A 
ATOM     84  C   UNL A   1      34.643  31.187  28.234  1.00  0.00     0.198 A 
ATOM     85  F   UNL A   1      35.749  29.344  29.189  1.00  0.00    -0.203 F 
ATOM     86  F   UNL A   1      35.618  34.669  28.018  1.00  0.00    -0.200 F 
ATOM     87  C   UNL A   1      34.598  32.540  27.936  1.00  0.00     0.200 A 
ATOM     88  F   UNL A   1      33.616  30.394  27.897  1.00  0.00    -0.200 F 
ATOM     89  F   UNL A   1      33.521  33.062  27.334  1.00  0.00    -0.200 F 
ENDBRANCH  55  79
BRANCH  67  90
ATOM     90  C   UNL A   1      39.204  32.141  35.765  1.00  0.00     0.064 A 
ATOM     91  C   UNL A   1      38.348  31.625  36.749  1.00  0.00     0.173 A 
ATOM     92  C   UNL A   1      39.663  33.460  35.923  1.00  0.00     0.173 A 
ATOM     93  F   UNL A   1      37.870  30.376  36.641  1.00  0.00    -0.203 F 
ATOM     94  C   UNL A   1      37.944  32.406  37.829  1.00  0.00     0.198 A 
ATOM     95  C   UNL A   1      39.288  34.225  37.024  1.00  0.00     0.198 A 
ATOM     96  F   UNL A   1      40.492  34.001  35.018  1.00  0.00    -0.203 F 
ATOM     97  F   UNL A   1      37.083  31.909  38.728  1.00  0.00    -0.200 F 
ATOM     98  C   UNL A   1      38.421  33.701  37.971  1.00  0.00     0.200 A 
ATOM     99  F   UNL A   1      39.766  35.468  37.168  1.00  0.00    -0.200 F 
ATOM    100  F   UNL A   1      38.040  34.446  39.017  1.00  0.00    -0.200 F 
ENDBRANCH  67  90
ENDBRANCH  41  42
ENDBRANCH  34  36
ENDBRANCH  33  34
ENDBRANCH  32  33
ENDBRANCH  31  32
ENDBRANCH  30  31
ENDBRANCH  29  30
ENDBRANCH  28  29
ENDBRANCH  27  28
ENDBRANCH   1  27
TORSDOF 24
ENDMDL
MODEL 2
REMARK VINA RESULT:     -10.3      1.060      7.337
REMARK SMILES Cc1cc(NCc2ccco2)cc(C(=O)OCCOCCOCCOCCOC(=O)c2ccc(-c3c4nc(c(-c5c(F)c(F)c(F)c(F)c5F)c5ccc([nH]5)c(-c5c(F)c(F)c(F)c(F)c5F)c5nc(c(-c6c(F)c(F)c(F)c(F)c6F)c6ccc3[nH]6)C=C5)C=C4)cc2)c1N
REMARK SMILES IDX 21 1 20 2 19 3 18 4 17 5 16 6 14 7 15 8 13 9 1 10 2 11 3 12
REMARK SMILES IDX 94 13 4 14 12 15 95 16 5 19 6 21 7 22 8 23 11 24 9 25 10 26
REMARK SMILES IDX 22 27 23 28 24 29 25 30 26 31 27 32 28 33 29 34 30 35 31 36
REMARK SMILES IDX 32 37 93 38 33 39 92 40 34 41 35 42 36 43 86 44 37 45 91 46
REMARK SMILES IDX 85 47 87 48 38 49 90 50 84 51 83 52 39 54 71 55 51 56 70 57
REMARK SMILES IDX 52 58 55 59 69 60 88 61 53 62 54 63 68 65 89 66 56 67 40 68
REMARK SMILES IDX 41 69 49 70 42 71 43 72 47 73 50 74 44 75 45 76 48 77 46 78
REMARK SMILES IDX 72 79 73 80 81 81 74 82 75 83 79 84 82 85 76 86 77 87 80 88
REMARK SMILES IDX 78 89 57 90 58 91 66 92 59 93 60 94 64 95 67 96 61 97 62 98
REMARK SMILES IDX 65 99 63 100
REMARK H PARENT 95 17 95 18 5 20 87 53 55 64
REMARK Flexibility Score: inf
ROOT
ATOM      1  C   UNL A   1      42.684  19.791  26.300  1.00  0.00     0.188 C 
ENDROOT
BRANCH   1   2
ATOM      2  C   UNL A   1      41.272  20.331  26.622  1.00  0.00     0.188 C 
BRANCH   2   3
ATOM      3  O   UNL A   1      41.160  21.745  26.577  1.00  0.00    -0.376 OA
BRANCH   3   4
ATOM      4  C   UNL A   1      39.892  22.323  26.816  1.00  0.00     0.202 C 
BRANCH   4   5
ATOM      5  C   UNL A   1      38.755  21.929  25.865  1.00  0.00     0.261 C 
BRANCH   5   6
ATOM      6  O   UNL A   1      37.664  22.856  25.778  1.00  0.00    -0.460 OA
BRANCH   6   7
ATOM      7  C   UNL A   1      36.801  22.697  24.745  1.00  0.00     0.340 C 
ATOM      8  O   UNL A   1      37.007  22.042  23.736  1.00  0.00    -0.246 OA
BRANCH   7   9
ATOM      9  C   UNL A   1      35.490  23.290  25.127  1.00  0.00     0.085 A 
ATOM     10  C   UNL A   1      32.589  22.712  27.544  1.00  0.00     0.047 C 
ATOM     11  C   UNL A   1      33.491  23.286  26.484  1.00  0.00    -0.025 A 
ATOM     12  C   UNL A   1      33.120  24.503  25.878  1.00  0.00     0.031 A 
ATOM     13  C   UNL A   1      34.698  22.666  26.119  1.00  0.00     0.049 A 
ATOM     14  C   UNL A   1      33.910  25.139  24.910  1.00  0.00     0.036 A 
ATOM     15  C   UNL A   1      35.100  24.513  24.546  1.00  0.00     0.043 A 
BRANCH  13  16
ATOM     16  N   UNL A   1      35.179  21.584  26.860  1.00  0.00    -0.398 N 
ATOM     17  H   UNL A   1      36.123  21.314  26.783  1.00  0.00     0.156 HD
ATOM     18  H   UNL A   1      34.573  21.090  27.459  1.00  0.00     0.156 HD
ENDBRANCH  13  16
BRANCH  14  19
ATOM     19  N   UNL A   1      33.519  26.385  24.467  1.00  0.00    -0.378 N 
ATOM     20  H   UNL A   1      33.785  26.636  23.554  1.00  0.00     0.161 HD
BRANCH  19  21
ATOM     21  C   UNL A   1      32.753  27.363  25.220  1.00  0.00     0.188 C 
BRANCH  21  22
ATOM     22  C   UNL A   1      31.725  28.095  24.430  1.00  0.00     0.122 A 
ATOM     23  C   UNL A   1      31.038  29.275  24.625  1.00  0.00     0.047 A 
ATOM     24  O   UNL A   1      31.321  27.510  23.263  1.00  0.00    -0.467 OA
ATOM     25  C   UNL A   1      30.175  29.423  23.512  1.00  0.00     0.042 A 
ATOM     26  C   UNL A   1      30.389  28.327  22.711  1.00  0.00     0.195 A 
ENDBRANCH  21  22
ENDBRANCH  19  21
ENDBRANCH  14  19
ENDBRANCH   7   9
ENDBRANCH   6   7
ENDBRANCH   5   6
ENDBRANCH   4   5
ENDBRANCH   3   4
ENDBRANCH   2   3
ENDBRANCH   1   2
BRANCH   1  27
ATOM     27  O   UNL A   1      42.995  19.300  24.999  1.00  0.00    -0.377 OA
BRANCH  27  28
ATOM     28  C   UNL A   1      44.323  18.897  24.689  1.00  0.00     0.188 C 
BRANCH  28  29
ATOM     29  C   UNL A   1      45.379  19.945  24.265  1.00  0.00     0.188 C 
BRANCH  29  30
ATOM     30  O   UNL A   1      45.899  20.713  25.335  1.00  0.00    -0.376 OA
BRANCH  30  31
ATOM     31  C   UNL A   1      45.501  22.066  25.447  1.00  0.00     0.202 C 
BRANCH  31  32
ATOM     32  C   UNL A   1      44.401  22.582  24.510  1.00  0.00     0.261 C 
BRANCH  32  33
ATOM     33  O   UNL A   1      43.692  23.757  24.932  1.00  0.00    -0.460 OA
BRANCH  33  34
ATOM     34  C   UNL A   1      44.417  24.858  25.213  1.00  0.00     0.338 C 
ATOM     35  O   UNL A   1      45.407  25.265  24.628  1.00  0.00    -0.246 OA
BRANCH  34  36
ATOM     36  C   UNL A   1      43.687  25.609  26.256  1.00  0.00     0.060 A 
ATOM     37  C   UNL A   1      43.949  26.975  26.432  1.00  0.00     0.016 A 
ATOM     38  C   UNL A   1      42.727  24.966  27.040  1.00  0.00     0.016 A 
ATOM     39  C   UNL A   1      43.269  27.695  27.414  1.00  0.00     0.010 A 
ATOM     40  C   UNL A   1      42.066  25.681  28.040  1.00  0.00     0.010 A 
ATOM     41  C   UNL A   1      42.358  27.040  28.253  1.00  0.00    -0.014 A 
BRANCH  41  42
ATOM     42  C   UNL A   1      41.869  27.715  29.479  1.00  0.00     0.031 A 
ATOM     43  C   UNL A   1      40.610  28.530  29.384  1.00  0.00     0.074 A 
ATOM     44  C   UNL A   1      42.515  27.599  30.652  1.00  0.00     0.049 A 
ATOM     45  N   UNL A   1      40.022  29.268  30.289  1.00  0.00    -0.248 NA
ATOM     46  C   UNL A   1      39.922  28.512  28.082  1.00  0.00     0.031 C 
ATOM     47  C   UNL A   1      43.717  26.802  30.880  1.00  0.00     0.029 A 
ATOM     48  N   UNL A   1      42.248  28.169  31.873  1.00  0.00    -0.354 N 
ATOM     49  C   UNL A   1      38.902  29.804  29.666  1.00  0.00     0.074 A 
ATOM     50  C   UNL A   1      38.910  29.337  28.298  1.00  0.00     0.031 C 
ATOM     51  C   UNL A   1      44.098  26.948  32.163  1.00  0.00     0.029 A 
ATOM     52  C   UNL A   1      43.186  27.875  32.832  1.00  0.00     0.049 A 
ATOM     53  H   UNL A   1      41.460  28.732  32.045  1.00  0.00     0.167 HD
ATOM     54  C   UNL A   1      37.947  30.605  30.194  1.00  0.00     0.037 A 
ATOM     55  C   UNL A   1      43.308  28.333  34.094  1.00  0.00     0.037 A 
ATOM     56  C   UNL A   1      37.947  31.072  31.555  1.00  0.00     0.049 A 
ATOM     57  C   UNL A   1      42.277  29.295  34.634  1.00  0.00     0.074 A 
ATOM     58  C   UNL A   1      37.021  31.881  32.189  1.00  0.00     0.029 A 
ATOM     59  N   UNL A   1      38.929  30.778  32.489  1.00  0.00    -0.354 N 
ATOM     60  N   UNL A   1      41.208  29.781  34.049  1.00  0.00    -0.248 NA
ATOM     61  C   UNL A   1      42.468  29.768  36.013  1.00  0.00     0.031 C 
ATOM     62  C   UNL A   1      37.475  32.128  33.488  1.00  0.00     0.029 A 
ATOM     63  C   UNL A   1      38.647  31.415  33.687  1.00  0.00     0.049 A 
ATOM     64  H   UNL A   1      39.712  30.204  32.325  1.00  0.00     0.167 HD
ATOM     65  C   UNL A   1      40.584  30.586  34.995  1.00  0.00     0.074 A 
ATOM     66  C   UNL A   1      41.386  30.511  36.198  1.00  0.00     0.031 C 
ATOM     67  C   UNL A   1      39.450  31.321  34.880  1.00  0.00     0.037 A 
BRANCH  54  68
ATOM     68  C   UNL A   1      36.837  31.051  29.285  1.00  0.00     0.064 A 
ATOM     69  C   UNL A   1      35.804  30.183  28.897  1.00  0.00     0.173 A 
ATOM     70  C   UNL A   1      36.788  32.375  28.825  1.00  0.00     0.173 A 
ATOM     71  F   UNL A   1      35.813  28.902  29.297  1.00  0.00    -0.203 F 
ATOM     72  C   UNL A   1      34.781  30.616  28.059  1.00  0.00     0.198 A 
ATOM     73  C   UNL A   1      35.744  32.814  28.014  1.00  0.00     0.198 A 
ATOM     74  F   UNL A   1      37.748  33.247  29.166  1.00  0.00    -0.203 F 
ATOM     75  F   UNL A   1      33.834  29.756  27.660  1.00  0.00    -0.200 F 
ATOM     76  C   UNL A   1      34.746  31.934  27.626  1.00  0.00     0.200 A 
ATOM     77  F   UNL A   1      35.705  34.091  27.610  1.00  0.00    -0.200 F 
ATOM     78  F   UNL A   1      33.754  32.354  26.829  1.00  0.00    -0.200 F 
ENDBRANCH  54  68
BRANCH  55  79
ATOM     79  C   UNL A   1      44.459  27.909  34.935  1.00  0.00     0.064 A 
ATOM     80  C   UNL A   1      44.374  26.788  35.774  1.00  0.00     0.173 A 
ATOM     81  C   UNL A   1      45.659  28.637  34.946  1.00  0.00     0.173 A 
ATOM     82  F   UNL A   1      43.240  26.072  35.822  1.00  0.00    -0.203 F 
ATOM     83  C   UNL A   1      45.432  26.427  36.607  1.00  0.00     0.198 A 
ATOM     84  C   UNL A   1      46.729  28.256  35.752  1.00  0.00     0.198 A 
ATOM     85  F   UNL A   1      45.795  29.720  34.166  1.00  0.00    -0.203 F 
ATOM     86  F   UNL A   1      45.300  25.387  37.440  1.00  0.00    -0.200 F 
ATOM     87  C   UNL A   1      46.611  27.158  36.591  1.00  0.00     0.200 A 
ATOM     88  F   UNL A   1      47.871  28.956  35.723  1.00  0.00    -0.200 F 
ATOM     89  F   UNL A   1      47.628  26.810  37.391  1.00  0.00    -0.200 F 
ENDBRANCH  55  79
BRANCH  67  90
ATOM     90  C   UNL A   1      38.976  32.064  36.098  1.00  0.00     0.064 A 
ATOM     91  C   UNL A   1      38.156  31.462  37.063  1.00  0.00     0.173 A 
ATOM     92  C   UNL A   1      39.387  33.388  36.323  1.00  0.00     0.173 A 
ATOM     93  F   UNL A   1      37.724  30.203  36.892  1.00  0.00    -0.203 F 
ATOM     94  C   UNL A   1      37.741  32.165  38.191  1.00  0.00     0.198 A 
ATOM     95  C   UNL A   1      39.001  34.076  37.470  1.00  0.00     0.198 A 
ATOM     96  F   UNL A   1      40.181  34.011  35.438  1.00  0.00    -0.203 F 
ATOM     97  F   UNL A   1      36.914  31.587  39.073  1.00  0.00    -0.200 F 
ATOM     98  C   UNL A   1      38.171  33.468  38.399  1.00  0.00     0.200 A 
ATOM     99  F   UNL A   1      39.435  35.327  37.677  1.00  0.00    -0.200 F 
ATOM    100  F   UNL A   1      37.779  34.139  39.490  1.00  0.00    -0.200 F 
ENDBRANCH  67  90
ENDBRANCH  41  42
ENDBRANCH  34  36
ENDBRANCH  33  34
ENDBRANCH  32  33
ENDBRANCH  31  32
ENDBRANCH  30  31
ENDBRANCH  29  30
ENDBRANCH  28  29
ENDBRANCH  27  28
ENDBRANCH   1  27
TORSDOF 24
ENDMDL
MODEL 3
REMARK VINA RESULT:     -10.2      4.397      9.248
REMARK SMILES Cc1cc(NCc2ccco2)cc(C(=O)OCCOCCOCCOCCOC(=O)c2ccc(-c3c4nc(c(-c5c(F)c(F)c(F)c(F)c5F)c5ccc([nH]5)c(-c5c(F)c(F)c(F)c(F)c5F)c5nc(c(-c6c(F)c(F)c(F)c(F)c6F)c6ccc3[nH]6)C=C5)C=C4)cc2)c1N
REMARK SMILES IDX 21 1 20 2 19 3 18 4 17 5 16 6 14 7 15 8 13 9 1 10 2 11 3 12
REMARK SMILES IDX 94 13 4 14 12 15 95 16 5 19 6 21 7 22 8 23 11 24 9 25 10 26
REMARK SMILES IDX 22 27 23 28 24 29 25 30 26 31 27 32 28 33 29 34 30 35 31 36
REMARK SMILES IDX 32 37 93 38 33 39 92 40 34 41 35 42 36 43 86 44 37 45 91 46
REMARK SMILES IDX 85 47 87 48 38 49 90 50 84 51 83 52 39 54 71 55 51 56 70 57
REMARK SMILES IDX 52 58 55 59 69 60 88 61 53 62 54 63 68 65 89 66 56 67 40 68
REMARK SMILES IDX 41 69 49 70 42 71 43 72 47 73 50 74 44 75 45 76 48 77 46 78
REMARK SMILES IDX 72 79 73 80 81 81 74 82 75 83 79 84 82 85 76 86 77 87 80 88
REMARK SMILES IDX 78 89 57 90 58 91 66 92 59 93 60 94 64 95 67 96 61 97 62 98
REMARK SMILES IDX 65 99 63 100
REMARK H PARENT 95 17 95 18 5 20 87 53 55 64
REMARK Flexibility Score: inf
ROOT
ATOM      1  C   UNL A   1      35.062  23.398  23.288  1.00  0.00     0.188 C 
ENDROOT
BRANCH   1   2
ATOM      2  C   UNL A   1      33.623  22.875  23.080  1.00  0.00     0.188 C 
BRANCH   2   3
ATOM      3  O   UNL A   1      32.633  23.566  23.825  1.00  0.00    -0.376 OA
BRANCH   3   4
ATOM      4  C   UNL A   1      31.832  22.824  24.723  1.00  0.00     0.202 C 
BRANCH   4   5
ATOM      5  C   UNL A   1      31.755  23.327  26.170  1.00  0.00     0.261 C 
BRANCH   5   6
ATOM      6  O   UNL A   1      32.320  24.622  26.411  1.00  0.00    -0.460 OA
BRANCH   6   7
ATOM      7  C   UNL A   1      31.481  25.684  26.344  1.00  0.00     0.340 C 
ATOM      8  O   UNL A   1      30.294  25.677  26.632  1.00  0.00    -0.246 OA
BRANCH   7   9
ATOM      9  C   UNL A   1      32.282  26.904  26.050  1.00  0.00     0.085 A 
ATOM     10  C   UNL A   1      33.947  28.698  23.117  1.00  0.00     0.047 C 
ATOM     11  C   UNL A   1      33.444  28.337  24.490  1.00  0.00    -0.025 A 
ATOM     12  C   UNL A   1      33.664  29.246  25.544  1.00  0.00     0.031 A 
ATOM     13  C   UNL A   1      32.733  27.149  24.732  1.00  0.00     0.049 A 
ATOM     14  C   UNL A   1      33.202  29.020  26.847  1.00  0.00     0.036 A 
ATOM     15  C   UNL A   1      32.507  27.836  27.082  1.00  0.00     0.043 A 
BRANCH  13  16
ATOM     16  N   UNL A   1      32.323  26.350  23.662  1.00  0.00    -0.398 N 
ATOM     17  H   UNL A   1      31.523  26.595  23.143  1.00  0.00     0.156 HD
ATOM     18  H   UNL A   1      32.833  25.542  23.427  1.00  0.00     0.156 HD
ENDBRANCH  13  16
BRANCH  14  19
ATOM     19  N   UNL A   1      33.363  30.025  27.778  1.00  0.00    -0.378 N 
ATOM     20  H   UNL A   1      33.453  29.750  28.719  1.00  0.00     0.161 HD
BRANCH  19  21
ATOM     21  C   UNL A   1      33.413  31.451  27.503  1.00  0.00     0.188 C 
BRANCH  21  22
ATOM     22  C   UNL A   1      34.456  32.197  28.259  1.00  0.00     0.122 A 
ATOM     23  C   UNL A   1      34.545  32.653  29.559  1.00  0.00     0.047 A 
ATOM     24  O   UNL A   1      35.577  32.554  27.564  1.00  0.00    -0.467 OA
ATOM     25  C   UNL A   1      35.793  33.315  29.664  1.00  0.00     0.042 A 
ATOM     26  C   UNL A   1      36.384  33.222  28.426  1.00  0.00     0.195 A 
ENDBRANCH  21  22
ENDBRANCH  19  21
ENDBRANCH  14  19
ENDBRANCH   7   9
ENDBRANCH   6   7
ENDBRANCH   5   6
ENDBRANCH   4   5
ENDBRANCH   3   4
ENDBRANCH   2   3
ENDBRANCH   1   2
BRANCH   1  27
ATOM     27  O   UNL A   1      35.453  23.978  24.530  1.00  0.00    -0.377 OA
BRANCH  27  28
ATOM     28  C   UNL A   1      36.760  23.749  25.043  1.00  0.00     0.188 C 
BRANCH  28  29
ATOM     29  C   UNL A   1      37.147  22.362  25.608  1.00  0.00     0.188 C 
BRANCH  29  30
ATOM     30  O   UNL A   1      37.416  21.385  24.619  1.00  0.00    -0.376 OA
BRANCH  30  31
ATOM     31  C   UNL A   1      37.598  20.044  25.030  1.00  0.00     0.202 C 
BRANCH  31  32
ATOM     32  C   UNL A   1      39.030  19.498  25.123  1.00  0.00     0.261 C 
BRANCH  32  33
ATOM     33  O   UNL A   1      39.859  20.035  26.164  1.00  0.00    -0.460 OA
BRANCH  33  34
ATOM     34  C   UNL A   1      41.168  19.715  26.150  1.00  0.00     0.338 C 
ATOM     35  O   UNL A   1      41.676  18.681  25.748  1.00  0.00    -0.246 OA
BRANCH  34  36
ATOM     36  C   UNL A   1      41.920  20.927  26.537  1.00  0.00     0.060 A 
ATOM     37  C   UNL A   1      42.128  21.203  27.896  1.00  0.00     0.016 A 
ATOM     38  C   UNL A   1      42.438  21.774  25.555  1.00  0.00     0.016 A 
ATOM     39  C   UNL A   1      42.833  22.346  28.276  1.00  0.00     0.010 A 
ATOM     40  C   UNL A   1      43.121  22.930  25.937  1.00  0.00     0.010 A 
ATOM     41  C   UNL A   1      43.293  23.238  27.298  1.00  0.00    -0.014 A 
BRANCH  41  42
ATOM     42  C   UNL A   1      43.764  24.586  27.695  1.00  0.00     0.031 A 
ATOM     43  C   UNL A   1      42.733  25.612  28.075  1.00  0.00     0.074 A 
ATOM     44  C   UNL A   1      45.072  24.893  27.731  1.00  0.00     0.049 A 
ATOM     45  N   UNL A   1      42.885  26.872  28.388  1.00  0.00    -0.248 NA
ATOM     46  C   UNL A   1      41.335  25.149  28.103  1.00  0.00     0.031 C 
ATOM     47  C   UNL A   1      46.165  23.973  27.429  1.00  0.00     0.029 A 
ATOM     48  N   UNL A   1      45.699  26.079  28.029  1.00  0.00    -0.354 N 
ATOM     49  C   UNL A   1      41.606  27.352  28.642  1.00  0.00     0.074 A 
ATOM     50  C   UNL A   1      40.688  26.260  28.414  1.00  0.00     0.031 C 
ATOM     51  C   UNL A   1      47.332  24.635  27.539  1.00  0.00     0.029 A 
ATOM     52  C   UNL A   1      47.063  26.030  27.883  1.00  0.00     0.049 A 
ATOM     53  H   UNL A   1      45.216  26.885  28.320  1.00  0.00     0.167 HD
ATOM     54  C   UNL A   1      41.235  28.591  29.041  1.00  0.00     0.037 A 
ATOM     55  C   UNL A   1      47.981  27.012  27.985  1.00  0.00     0.037 A 
ATOM     56  C   UNL A   1      42.153  29.677  29.261  1.00  0.00     0.049 A 
ATOM     57  C   UNL A   1      47.533  28.407  28.347  1.00  0.00     0.074 A 
ATOM     58  C   UNL A   1      41.879  30.969  29.673  1.00  0.00     0.029 A 
ATOM     59  N   UNL A   1      43.525  29.599  29.074  1.00  0.00    -0.354 N 
ATOM     60  N   UNL A   1      46.326  28.851  28.608  1.00  0.00    -0.248 NA
ATOM     61  C   UNL A   1      48.578  29.439  28.433  1.00  0.00     0.031 C 
ATOM     62  C   UNL A   1      43.077  31.689  29.676  1.00  0.00     0.029 A 
ATOM     63  C   UNL A   1      44.108  30.828  29.335  1.00  0.00     0.049 A 
ATOM     64  H   UNL A   1      44.013  28.790  28.797  1.00  0.00     0.167 HD
ATOM     65  C   UNL A   1      46.471  30.198  28.921  1.00  0.00     0.074 A 
ATOM     66  C   UNL A   1      47.885  30.495  28.832  1.00  0.00     0.031 C 
ATOM     67  C   UNL A   1      45.520  31.106  29.253  1.00  0.00     0.037 A 
BRANCH  54  68
ATOM     68  C   UNL A   1      39.768  28.845  29.238  1.00  0.00     0.064 A 
ATOM     69  C   UNL A   1      39.158  28.724  30.496  1.00  0.00     0.173 A 
ATOM     70  C   UNL A   1      38.968  29.249  28.158  1.00  0.00     0.173 A 
ATOM     71  F   UNL A   1      39.874  28.325  31.558  1.00  0.00    -0.203 F 
ATOM     72  C   UNL A   1      37.797  28.970  30.659  1.00  0.00     0.198 A 
ATOM     73  C   UNL A   1      37.615  29.526  28.332  1.00  0.00     0.198 A 
ATOM     74  F   UNL A   1      39.501  29.382  26.934  1.00  0.00    -0.203 F 
ATOM     75  F   UNL A   1      37.226  28.798  31.859  1.00  0.00    -0.200 F 
ATOM     76  C   UNL A   1      37.029  29.380  29.580  1.00  0.00     0.200 A 
ATOM     77  F   UNL A   1      36.879  29.937  27.290  1.00  0.00    -0.200 F 
ATOM     78  F   UNL A   1      35.721  29.627  29.740  1.00  0.00    -0.200 F 
ENDBRANCH  54  68
BRANCH  55  79
ATOM     79  C   UNL A   1      49.416  26.723  27.721  1.00  0.00     0.064 A 
ATOM     80  C   UNL A   1      50.312  26.467  28.770  1.00  0.00     0.173 A 
ATOM     81  C   UNL A   1      49.932  26.732  26.416  1.00  0.00     0.173 A 
ATOM     82  F   UNL A   1      49.876  26.473  30.039  1.00  0.00    -0.203 F 
ATOM     83  C   UNL A   1      51.668  26.257  28.526  1.00  0.00     0.198 A 
ATOM     84  C   UNL A   1      51.281  26.488  26.170  1.00  0.00     0.198 A 
ATOM     85  F   UNL A   1      49.121  26.975  25.375  1.00  0.00    -0.203 F 
ATOM     86  F   UNL A   1      52.510  26.074  29.552  1.00  0.00    -0.200 F 
ATOM     87  C   UNL A   1      52.151  26.262  27.225  1.00  0.00     0.200 A 
ATOM     88  F   UNL A   1      51.740  26.478  24.911  1.00  0.00    -0.200 F 
ATOM     89  F   UNL A   1      53.454  26.059  26.992  1.00  0.00    -0.200 F 
ENDBRANCH  55  79
BRANCH  67  90
ATOM     90  C   UNL A   1      45.976  32.498  29.595  1.00  0.00     0.064 A 
ATOM     91  C   UNL A   1      46.303  32.870  30.907  1.00  0.00     0.173 A 
ATOM     92  C   UNL A   1      46.131  33.460  28.583  1.00  0.00     0.173 A 
ATOM     93  F   UNL A   1      46.163  31.995  31.913  1.00  0.00    -0.203 F 
ATOM     94  C   UNL A   1      46.739  34.161  31.198  1.00  0.00     0.198 A 
ATOM     95  C   UNL A   1      46.602  34.738  28.872  1.00  0.00     0.198 A 
ATOM     96  F   UNL A   1      45.843  33.155  27.309  1.00  0.00    -0.203 F 
ATOM     97  F   UNL A   1      46.993  34.511  32.466  1.00  0.00    -0.200 F 
ATOM     98  C   UNL A   1      46.896  35.090  30.180  1.00  0.00     0.200 A 
ATOM     99  F   UNL A   1      46.771  35.626  27.884  1.00  0.00    -0.200 F 
ATOM    100  F   UNL A   1      47.324  36.329  30.461  1.00  0.00    -0.200 F 
ENDBRANCH  67  90
ENDBRANCH  41  42
ENDBRANCH  34  36
ENDBRANCH  33  34
ENDBRANCH  32  33
ENDBRANCH  31  32
ENDBRANCH  30  31
ENDBRANCH  29  30
ENDBRANCH  28  29
ENDBRANCH  27  28
ENDBRANCH   1  27
TORSDOF 24
ENDMDL
