MODEL 1
REMARK VINA RESULT:     -10.3      0.000      0.000
REMARK SMILES COc1ccc2c(c1)c(CC(=O)OCCOCCOCCOCCOC(=O)c1ccc(-c3c4nc(c(-c5c(F)c(F)c(F)c(F)c5F)c5ccc([nH]5)c(-c5c(F)c(F)c(F)c(F)c5F)c5nc(c(-c6c(F)c(F)c(F)c(F)c6F)c6ccc3[nH]6)C=C5)C=C4)cc1)c(C)n2Cc1ccn(C(F)F)c(=O)c1
REMARK SMILES IDX 18 1 17 2 16 3 15 4 14 5 13 6 11 7 12 8 10 9 9 10 3 11 4 12
REMARK SMILES IDX 8 13 5 14 7 15 6 16 93 17 91 18 92 19 2 20 1 21 94 22 95 23
REMARK SMILES IDX 96 24 104 25 97 26 102 27 98 28 103 29 99 30 100 31 101 32
REMARK SMILES IDX 19 33 20 34 21 35 22 36 23 37 24 38 25 39 26 40 27 41 28 42
REMARK SMILES IDX 29 43 90 44 30 45 89 46 31 47 32 48 33 49 83 50 34 51 88 52
REMARK SMILES IDX 82 53 84 54 35 55 87 56 81 57 80 58 36 60 68 61 48 62 67 63
REMARK SMILES IDX 49 64 52 65 66 66 85 67 50 68 51 69 65 71 86 72 53 73 37 74
REMARK SMILES IDX 38 75 46 76 39 77 40 78 44 79 47 80 41 81 42 82 45 83 43 84
REMARK SMILES IDX 69 85 70 86 78 87 71 88 72 89 76 90 79 91 73 92 74 93 77 94
REMARK SMILES IDX 75 95 54 96 55 97 63 98 56 99 57 100 61 101 64 102 58 103
REMARK SMILES IDX 59 104 62 105 60 106
REMARK H PARENT 84 59 52 70
REMARK Flexibility Score: inf
ROOT
ATOM      1  C   UNL A   1      34.419  22.969  22.729  1.00  0.00     0.188 C 
ENDROOT
BRANCH   1   2
ATOM      2  C   UNL A   1      33.469  24.114  23.076  1.00  0.00     0.188 C 
BRANCH   2   3
ATOM      3  O   UNL A   1      32.352  24.350  22.217  1.00  0.00    -0.376 OA
BRANCH   3   4
ATOM      4  C   UNL A   1      32.314  25.574  21.507  1.00  0.00     0.202 C 
BRANCH   4   5
ATOM      5  C   UNL A   1      33.587  26.425  21.689  1.00  0.00     0.261 C 
BRANCH   5   6
ATOM      6  O   UNL A   1      33.335  27.841  21.863  1.00  0.00    -0.463 OA
BRANCH   6   7
ATOM      7  C   UNL A   1      34.065  28.471  22.820  1.00  0.00     0.310 C 
ATOM      8  O   UNL A   1      35.148  29.006  22.588  1.00  0.00    -0.252 OA
BRANCH   7   9
ATOM      9  C   UNL A   1      33.432  28.556  24.211  1.00  0.00     0.160 C 
BRANCH   9  10
ATOM     10  C   UNL A   1      32.326  27.604  24.623  1.00  0.00    -0.008 A 
ATOM     11  C   UNL A   1      28.858  28.324  23.129  1.00  0.00     0.119 A 
ATOM     12  C   UNL A   1      28.274  27.135  23.536  1.00  0.00     0.048 A 
ATOM     13  C   UNL A   1      30.154  28.646  23.563  1.00  0.00     0.057 A 
ATOM     14  C   UNL A   1      28.975  26.232  24.353  1.00  0.00     0.031 A 
ATOM     15  C   UNL A   1      30.931  27.698  24.280  1.00  0.00     0.007 A 
ATOM     16  C   UNL A   1      30.305  26.529  24.720  1.00  0.00     0.049 A 
ATOM     17  N   UNL A   1      31.212  25.868  25.544  1.00  0.00    -0.340 N 
ATOM     18  C   UNL A   1      32.402  26.590  25.571  1.00  0.00     0.020 A 
ATOM     19  C   UNL A   1      33.526  26.338  26.510  1.00  0.00     0.065 C 
BRANCH  11  20
ATOM     20  O   UNL A   1      28.293  29.245  22.289  1.00  0.00    -0.497 OA
ATOM     21  C   UNL A   1      27.660  30.385  22.867  1.00  0.00     0.278 C 
ENDBRANCH  11  20
BRANCH  17  22
ATOM     22  C   UNL A   1      30.829  24.763  26.445  1.00  0.00     0.158 C 
BRANCH  22  23
ATOM     23  C   UNL A   1      31.524  23.434  26.230  1.00  0.00    -0.021 A 
ATOM     24  C   UNL A   1      31.135  22.619  25.097  1.00  0.00     0.024 A 
ATOM     25  C   UNL A   1      32.586  23.033  26.954  1.00  0.00     0.077 A 
ATOM     26  C   UNL A   1      31.697  21.428  24.869  1.00  0.00     0.095 A 
ATOM     27  C   UNL A   1      33.283  21.738  26.667  1.00  0.00     0.255 A 
ATOM     28  N   UNL A   1      32.727  20.966  25.660  1.00  0.00    -0.258 N 
ATOM     29  O   UNL A   1      34.276  21.447  27.327  1.00  0.00    -0.269 OA
BRANCH  28  30
ATOM     30  C   UNL A   1      33.336  19.692  25.372  1.00  0.00     0.451 C 
ATOM     31  F   UNL A   1      32.723  18.697  26.058  1.00  0.00    -0.185 F 
ATOM     32  F   UNL A   1      33.273  19.395  24.051  1.00  0.00    -0.185 F 
ENDBRANCH  28  30
ENDBRANCH  22  23
ENDBRANCH  17  22
ENDBRANCH   9  10
ENDBRANCH   7   9
ENDBRANCH   6   7
ENDBRANCH   5   6
ENDBRANCH   4   5
ENDBRANCH   3   4
ENDBRANCH   2   3
ENDBRANCH   1   2
BRANCH   1  33
ATOM     33  O   UNL A   1      35.234  22.383  23.703  1.00  0.00    -0.377 OA
BRANCH  33  34
ATOM     34  C   UNL A   1      36.418  23.028  24.038  1.00  0.00     0.188 C 
BRANCH  34  35
ATOM     35  C   UNL A   1      36.901  22.678  25.445  1.00  0.00     0.188 C 
BRANCH  35  36
ATOM     36  O   UNL A   1      37.909  21.698  25.684  1.00  0.00    -0.376 OA
BRANCH  36  37
ATOM     37  C   UNL A   1      39.185  22.057  26.197  1.00  0.00     0.202 C 
BRANCH  37  38
ATOM     38  C   UNL A   1      40.341  21.038  26.101  1.00  0.00     0.261 C 
BRANCH  38  39
ATOM     39  O   UNL A   1      41.539  21.450  26.762  1.00  0.00    -0.460 OA
BRANCH  39  40
ATOM     40  C   UNL A   1      42.598  21.817  25.988  1.00  0.00     0.338 C 
ATOM     41  O   UNL A   1      43.014  21.288  24.990  1.00  0.00    -0.246 OA
BRANCH  40  42
ATOM     42  C   UNL A   1      42.895  23.204  26.415  1.00  0.00     0.060 A 
ATOM     43  C   UNL A   1      43.621  23.459  27.584  1.00  0.00     0.016 A 
ATOM     44  C   UNL A   1      42.086  24.188  25.834  1.00  0.00     0.016 A 
ATOM     45  C   UNL A   1      43.389  24.654  28.264  1.00  0.00     0.010 A 
ATOM     46  C   UNL A   1      41.833  25.364  26.533  1.00  0.00     0.010 A 
ATOM     47  C   UNL A   1      42.432  25.566  27.780  1.00  0.00    -0.014 A 
BRANCH  47  48
ATOM     48  C   UNL A   1      42.276  26.845  28.479  1.00  0.00     0.031 A 
ATOM     49  C   UNL A   1      43.380  27.780  28.149  1.00  0.00     0.074 A 
ATOM     50  C   UNL A   1      41.211  27.267  29.194  1.00  0.00     0.049 A 
ATOM     51  N   UNL A   1      44.192  28.384  28.952  1.00  0.00    -0.248 NA
ATOM     52  C   UNL A   1      43.680  27.960  26.717  1.00  0.00     0.031 C 
ATOM     53  C   UNL A   1      39.925  26.593  29.360  1.00  0.00     0.029 A 
ATOM     54  N   UNL A   1      41.017  28.461  29.844  1.00  0.00    -0.354 N 
ATOM     55  C   UNL A   1      45.011  29.142  28.125  1.00  0.00     0.074 A 
ATOM     56  C   UNL A   1      44.768  28.722  26.770  1.00  0.00     0.031 C 
ATOM     57  C   UNL A   1      39.030  27.454  29.895  1.00  0.00     0.029 A 
ATOM     58  C   UNL A   1      39.689  28.721  30.167  1.00  0.00     0.049 A 
ATOM     59  H   UNL A   1      41.752  29.078  30.061  1.00  0.00     0.167 HD
ATOM     60  C   UNL A   1      45.651  30.253  28.564  1.00  0.00     0.037 A 
ATOM     61  C   UNL A   1      39.142  29.910  30.538  1.00  0.00     0.037 A 
ATOM     62  C   UNL A   1      45.821  30.273  29.986  1.00  0.00     0.049 A 
ATOM     63  C   UNL A   1      40.240  30.794  30.998  1.00  0.00     0.074 A 
ATOM     64  C   UNL A   1      46.443  29.431  30.887  1.00  0.00     0.029 A 
ATOM     65  N   UNL A   1      45.013  31.092  30.732  1.00  0.00    -0.354 N 
ATOM     66  N   UNL A   1      40.916  30.626  32.100  1.00  0.00    -0.248 NA
ATOM     67  C   UNL A   1      40.851  31.686  30.023  1.00  0.00     0.031 C 
ATOM     68  C   UNL A   1      45.643  29.482  32.062  1.00  0.00     0.029 A 
ATOM     69  C   UNL A   1      44.595  30.370  31.821  1.00  0.00     0.049 A 
ATOM     70  H   UNL A   1      44.777  32.025  30.524  1.00  0.00     0.167 HD
ATOM     71  C   UNL A   1      42.204  31.030  31.785  1.00  0.00     0.074 A 
ATOM     72  C   UNL A   1      42.077  31.775  30.538  1.00  0.00     0.031 C 
ATOM     73  C   UNL A   1      43.283  30.487  32.415  1.00  0.00     0.037 A 
BRANCH  60  74
ATOM     74  C   UNL A   1      45.801  31.448  27.676  1.00  0.00     0.064 A 
ATOM     75  C   UNL A   1      47.069  31.903  27.298  1.00  0.00     0.173 A 
ATOM     76  C   UNL A   1      44.712  32.292  27.357  1.00  0.00     0.173 A 
ATOM     77  F   UNL A   1      48.167  31.210  27.632  1.00  0.00    -0.203 F 
ATOM     78  C   UNL A   1      47.232  33.117  26.624  1.00  0.00     0.198 A 
ATOM     79  C   UNL A   1      44.869  33.464  26.628  1.00  0.00     0.198 A 
ATOM     80  F   UNL A   1      43.477  32.053  27.823  1.00  0.00    -0.203 F 
ATOM     81  F   UNL A   1      48.465  33.565  26.355  1.00  0.00    -0.200 F 
ATOM     82  C   UNL A   1      46.132  33.886  26.275  1.00  0.00     0.200 A 
ATOM     83  F   UNL A   1      43.794  34.206  26.330  1.00  0.00    -0.200 F 
ATOM     84  F   UNL A   1      46.293  35.058  25.648  1.00  0.00    -0.200 F 
ENDBRANCH  60  74
BRANCH  61  85
ATOM     85  C   UNL A   1      37.770  30.427  30.271  1.00  0.00     0.064 A 
ATOM     86  C   UNL A   1      36.928  30.857  31.314  1.00  0.00     0.173 A 
ATOM     87  C   UNL A   1      37.344  30.750  28.967  1.00  0.00     0.173 A 
ATOM     88  F   UNL A   1      37.274  30.648  32.592  1.00  0.00    -0.203 F 
ATOM     89  C   UNL A   1      35.747  31.570  31.065  1.00  0.00     0.198 A 
ATOM     90  C   UNL A   1      36.158  31.444  28.719  1.00  0.00     0.198 A 
ATOM     91  F   UNL A   1      38.112  30.483  27.902  1.00  0.00    -0.203 F 
ATOM     92  F   UNL A   1      35.005  32.016  32.089  1.00  0.00    -0.200 F 
ATOM     93  C   UNL A   1      35.366  31.866  29.767  1.00  0.00     0.200 A 
ATOM     94  F   UNL A   1      35.823  31.753  27.457  1.00  0.00    -0.200 F 
ATOM     95  F   UNL A   1      34.264  32.593  29.529  1.00  0.00    -0.200 F 
ENDBRANCH  61  85
BRANCH  73  96
ATOM     96  C   UNL A   1      43.048  29.717  33.684  1.00  0.00     0.064 A 
ATOM     97  C   UNL A   1      43.025  30.296  34.963  1.00  0.00     0.173 A 
ATOM     98  C   UNL A   1      42.664  28.371  33.575  1.00  0.00     0.173 A 
ATOM     99  F   UNL A   1      43.282  31.599  35.142  1.00  0.00    -0.203 F 
ATOM    100  C   UNL A   1      42.660  29.549  36.082  1.00  0.00     0.198 A 
ATOM    101  C   UNL A   1      42.262  27.641  34.689  1.00  0.00     0.198 A 
ATOM    102  F   UNL A   1      42.616  27.781  32.369  1.00  0.00    -0.203 F 
ATOM    103  F   UNL A   1      42.641  30.121  37.293  1.00  0.00    -0.200 F 
ATOM    104  C   UNL A   1      42.266  28.228  35.943  1.00  0.00     0.200 A 
ATOM    105  F   UNL A   1      41.830  26.381  34.541  1.00  0.00    -0.200 F 
ATOM    106  F   UNL A   1      41.853  27.532  37.012  1.00  0.00    -0.200 F 
ENDBRANCH  73  96
ENDBRANCH  47  48
ENDBRANCH  40  42
ENDBRANCH  39  40
ENDBRANCH  38  39
ENDBRANCH  37  38
ENDBRANCH  36  37
ENDBRANCH  35  36
ENDBRANCH  34  35
ENDBRANCH  33  34
ENDBRANCH   1  33
TORSDOF 25
ENDMDL
MODEL 2
REMARK VINA RESULT:     -10.2      2.675      5.836
REMARK SMILES COc1ccc2c(c1)c(CC(=O)OCCOCCOCCOCCOC(=O)c1ccc(-c3c4nc(c(-c5c(F)c(F)c(F)c(F)c5F)c5ccc([nH]5)c(-c5c(F)c(F)c(F)c(F)c5F)c5nc(c(-c6c(F)c(F)c(F)c(F)c6F)c6ccc3[nH]6)C=C5)C=C4)cc1)c(C)n2Cc1ccn(C(F)F)c(=O)c1
REMARK SMILES IDX 18 1 17 2 16 3 15 4 14 5 13 6 11 7 12 8 10 9 9 10 3 11 4 12
REMARK SMILES IDX 8 13 5 14 7 15 6 16 93 17 91 18 92 19 2 20 1 21 94 22 95 23
REMARK SMILES IDX 96 24 104 25 97 26 102 27 98 28 103 29 99 30 100 31 101 32
REMARK SMILES IDX 19 33 20 34 21 35 22 36 23 37 24 38 25 39 26 40 27 41 28 42
REMARK SMILES IDX 29 43 90 44 30 45 89 46 31 47 32 48 33 49 83 50 34 51 88 52
REMARK SMILES IDX 82 53 84 54 35 55 87 56 81 57 80 58 36 60 68 61 48 62 67 63
REMARK SMILES IDX 49 64 52 65 66 66 85 67 50 68 51 69 65 71 86 72 53 73 37 74
REMARK SMILES IDX 38 75 46 76 39 77 40 78 44 79 47 80 41 81 42 82 45 83 43 84
REMARK SMILES IDX 69 85 70 86 78 87 71 88 72 89 76 90 79 91 73 92 74 93 77 94
REMARK SMILES IDX 75 95 54 96 55 97 63 98 56 99 57 100 61 101 64 102 58 103
REMARK SMILES IDX 59 104 62 105 60 106
REMARK H PARENT 84 59 52 70
REMARK Flexibility Score: inf
ROOT
ATOM      1  C   UNL A   1      43.744  18.686  25.322  1.00  0.00     0.188 C 
ENDROOT
BRANCH   1   2
ATOM      2  C   UNL A   1      42.678  18.432  26.386  1.00  0.00     0.188 C 
BRANCH   2   3
ATOM      3  O   UNL A   1      41.517  19.264  26.393  1.00  0.00    -0.376 OA
BRANCH   3   4
ATOM      4  C   UNL A   1      41.496  20.357  27.293  1.00  0.00     0.202 C 
BRANCH   4   5
ATOM      5  C   UNL A   1      40.356  21.357  27.012  1.00  0.00     0.261 C 
BRANCH   5   6
ATOM      6  O   UNL A   1      39.586  21.060  25.821  1.00  0.00    -0.463 OA
BRANCH   6   7
ATOM      7  C   UNL A   1      38.372  21.663  25.720  1.00  0.00     0.310 C 
ATOM      8  O   UNL A   1      38.137  22.771  26.199  1.00  0.00    -0.252 OA
BRANCH   7   9
ATOM      9  C   UNL A   1      37.312  20.923  24.902  1.00  0.00     0.160 C 
BRANCH   9  10
ATOM     10  C   UNL A   1      36.005  21.596  24.530  1.00  0.00    -0.008 A 
ATOM     11  C   UNL A   1      32.812  19.625  25.363  1.00  0.00     0.119 A 
ATOM     12  C   UNL A   1      31.929  20.665  25.113  1.00  0.00     0.048 A 
ATOM     13  C   UNL A   1      34.173  19.782  25.059  1.00  0.00     0.057 A 
ATOM     14  C   UNL A   1      32.386  21.886  24.589  1.00  0.00     0.031 A 
ATOM     15  C   UNL A   1      34.682  21.044  24.652  1.00  0.00     0.007 A 
ATOM     16  C   UNL A   1      33.768  22.060  24.360  1.00  0.00     0.049 A 
ATOM     17  N   UNL A   1      34.494  23.114  23.811  1.00  0.00    -0.340 N 
ATOM     18  C   UNL A   1      35.844  22.776  23.812  1.00  0.00     0.020 A 
ATOM     19  C   UNL A   1      36.908  23.534  23.104  1.00  0.00     0.065 C 
BRANCH  11  20
ATOM     20  O   UNL A   1      32.488  18.420  25.925  1.00  0.00    -0.497 OA
ATOM     21  C   UNL A   1      32.441  17.273  25.079  1.00  0.00     0.278 C 
ENDBRANCH  11  20
BRANCH  17  22
ATOM     22  C   UNL A   1      33.866  24.240  23.093  1.00  0.00     0.158 C 
BRANCH  22  23
ATOM     23  C   UNL A   1      33.286  25.353  23.942  1.00  0.00    -0.021 A 
ATOM     24  C   UNL A   1      34.063  25.856  25.058  1.00  0.00     0.024 A 
ATOM     25  C   UNL A   1      32.147  26.001  23.631  1.00  0.00     0.077 A 
ATOM     26  C   UNL A   1      33.594  26.820  25.856  1.00  0.00     0.095 A 
ATOM     27  C   UNL A   1      31.642  27.138  24.466  1.00  0.00     0.255 A 
ATOM     28  N   UNL A   1      32.385  27.430  25.598  1.00  0.00    -0.258 N 
ATOM     29  O   UNL A   1      30.625  27.723  24.105  1.00  0.00    -0.269 OA
BRANCH  28  30
ATOM     30  C   UNL A   1      31.918  28.489  26.457  1.00  0.00     0.451 C 
ATOM     31  F   UNL A   1      31.129  29.353  25.774  1.00  0.00    -0.185 F 
ATOM     32  F   UNL A   1      31.208  28.006  27.505  1.00  0.00    -0.185 F 
ENDBRANCH  28  30
ENDBRANCH  22  23
ENDBRANCH  17  22
ENDBRANCH   9  10
ENDBRANCH   7   9
ENDBRANCH   6   7
ENDBRANCH   5   6
ENDBRANCH   4   5
ENDBRANCH   3   4
ENDBRANCH   2   3
ENDBRANCH   1   2
BRANCH   1  33
ATOM     33  O   UNL A   1      43.754  19.868  24.573  1.00  0.00    -0.377 OA
BRANCH  33  34
ATOM     34  C   UNL A   1      44.917  20.627  24.569  1.00  0.00     0.188 C 
BRANCH  34  35
ATOM     35  C   UNL A   1      44.688  22.051  24.065  1.00  0.00     0.188 C 
BRANCH  35  36
ATOM     36  O   UNL A   1      43.454  22.739  24.255  1.00  0.00    -0.376 OA
BRANCH  36  37
ATOM     37  C   UNL A   1      43.035  23.168  25.544  1.00  0.00     0.202 C 
BRANCH  37  38
ATOM     38  C   UNL A   1      42.529  24.616  25.721  1.00  0.00     0.261 C 
BRANCH  38  39
ATOM     39  O   UNL A   1      43.199  25.572  24.898  1.00  0.00    -0.460 OA
BRANCH  39  40
ATOM     40  C   UNL A   1      44.485  25.892  25.212  1.00  0.00     0.338 C 
ATOM     41  O   UNL A   1      45.500  25.364  24.838  1.00  0.00    -0.246 OA
BRANCH  40  42
ATOM     42  C   UNL A   1      44.387  27.246  25.805  1.00  0.00     0.060 A 
ATOM     43  C   UNL A   1      45.144  27.598  26.928  1.00  0.00     0.016 A 
ATOM     44  C   UNL A   1      43.242  27.967  25.447  1.00  0.00     0.016 A 
ATOM     45  C   UNL A   1      44.642  28.571  27.791  1.00  0.00     0.010 A 
ATOM     46  C   UNL A   1      42.728  28.914  26.328  1.00  0.00     0.010 A 
ATOM     47  C   UNL A   1      43.392  29.167  27.531  1.00  0.00    -0.014 A 
BRANCH  47  48
ATOM     48  C   UNL A   1      42.938  30.242  28.418  1.00  0.00     0.031 A 
ATOM     49  C   UNL A   1      43.806  31.440  28.305  1.00  0.00     0.074 A 
ATOM     50  C   UNL A   1      41.792  30.290  29.131  1.00  0.00     0.049 A 
ATOM     51  N   UNL A   1      44.446  32.063  29.238  1.00  0.00    -0.248 NA
ATOM     52  C   UNL A   1      44.083  31.922  26.939  1.00  0.00     0.031 C 
ATOM     53  C   UNL A   1      40.691  29.331  29.115  1.00  0.00     0.029 A 
ATOM     54  N   UNL A   1      41.322  31.284  29.953  1.00  0.00    -0.354 N 
ATOM     55  C   UNL A   1      45.086  33.112  28.590  1.00  0.00     0.074 A 
ATOM     56  C   UNL A   1      44.968  32.885  27.174  1.00  0.00     0.031 C 
ATOM     57  C   UNL A   1      39.615  29.870  29.732  1.00  0.00     0.029 A 
ATOM     58  C   UNL A   1      39.963  31.186  30.241  1.00  0.00     0.049 A 
ATOM     59  H   UNL A   1      41.893  32.002  30.308  1.00  0.00     0.167 HD
ATOM     60  C   UNL A   1      45.448  34.247  29.238  1.00  0.00     0.037 A 
ATOM     61  C   UNL A   1      39.155  32.144  30.767  1.00  0.00     0.037 A 
ATOM     62  C   UNL A   1      45.585  34.062  30.651  1.00  0.00     0.049 A 
ATOM     63  C   UNL A   1      40.015  33.158  31.424  1.00  0.00     0.074 A 
ATOM     64  C   UNL A   1      46.366  33.238  31.437  1.00  0.00     0.029 A 
ATOM     65  N   UNL A   1      44.600  34.544  31.474  1.00  0.00    -0.354 N 
ATOM     66  N   UNL A   1      40.692  32.959  32.520  1.00  0.00    -0.248 NA
ATOM     67  C   UNL A   1      40.424  34.315  30.641  1.00  0.00     0.031 C 
ATOM     68  C   UNL A   1      45.555  32.911  32.560  1.00  0.00     0.029 A 
ATOM     69  C   UNL A   1      44.337  33.574  32.407  1.00  0.00     0.049 A 
ATOM     70  H   UNL A   1      44.162  35.423  31.406  1.00  0.00     0.167 HD
ATOM     71  C   UNL A   1      41.860  33.685  32.346  1.00  0.00     0.074 A 
ATOM     72  C   UNL A   1      41.589  34.584  31.231  1.00  0.00     0.031 C 
ATOM     73  C   UNL A   1      43.023  33.295  32.939  1.00  0.00     0.037 A 
BRANCH  60  74
ATOM     74  C   UNL A   1      45.339  35.578  28.563  1.00  0.00     0.064 A 
ATOM     75  C   UNL A   1      44.098  36.068  28.145  1.00  0.00     0.173 A 
ATOM     76  C   UNL A   1      46.476  36.296  28.124  1.00  0.00     0.173 A 
ATOM     77  F   UNL A   1      42.971  35.407  28.443  1.00  0.00    -0.203 F 
ATOM     78  C   UNL A   1      44.001  37.217  27.355  1.00  0.00     0.198 A 
ATOM     79  C   UNL A   1      46.375  37.474  27.397  1.00  0.00     0.198 A 
ATOM     80  F   UNL A   1      47.719  35.825  28.307  1.00  0.00    -0.203 F 
ATOM     81  F   UNL A   1      42.804  37.610  26.900  1.00  0.00    -0.200 F 
ATOM     82  C   UNL A   1      45.137  37.928  26.997  1.00  0.00     0.200 A 
ATOM     83  F   UNL A   1      47.489  38.126  27.036  1.00  0.00    -0.200 F 
ATOM     84  F   UNL A   1      45.043  39.016  26.223  1.00  0.00    -0.200 F 
ENDBRANCH  60  74
BRANCH  61  85
ATOM     85  C   UNL A   1      37.706  32.383  30.512  1.00  0.00     0.064 A 
ATOM     86  C   UNL A   1      36.731  32.119  31.492  1.00  0.00     0.173 A 
ATOM     87  C   UNL A   1      37.265  33.115  29.391  1.00  0.00     0.173 A 
ATOM     88  F   UNL A   1      37.064  31.479  32.623  1.00  0.00    -0.203 F 
ATOM     89  C   UNL A   1      35.409  32.567  31.361  1.00  0.00     0.198 A 
ATOM     90  C   UNL A   1      35.944  33.545  29.252  1.00  0.00     0.198 A 
ATOM     91  F   UNL A   1      38.124  33.512  28.443  1.00  0.00    -0.203 F 
ATOM     92  F   UNL A   1      34.526  32.349  32.346  1.00  0.00    -0.200 F 
ATOM     93  C   UNL A   1      35.018  33.283  30.242  1.00  0.00     0.200 A 
ATOM     94  F   UNL A   1      35.592  34.267  28.178  1.00  0.00    -0.200 F 
ATOM     95  F   UNL A   1      33.769  33.757  30.137  1.00  0.00    -0.200 F 
ENDBRANCH  61  85
BRANCH  73  96
ATOM     96  C   UNL A   1      42.948  32.289  34.052  1.00  0.00     0.064 A 
ATOM     97  C   UNL A   1      42.924  30.898  33.855  1.00  0.00     0.173 A 
ATOM     98  C   UNL A   1      43.077  32.754  35.370  1.00  0.00     0.173 A 
ATOM     99  F   UNL A   1      42.903  30.370  32.623  1.00  0.00    -0.203 F 
ATOM    100  C   UNL A   1      42.999  30.020  34.935  1.00  0.00     0.198 A 
ATOM    101  C   UNL A   1      43.191  31.873  36.441  1.00  0.00     0.198 A 
ATOM    102  F   UNL A   1      43.158  34.073  35.612  1.00  0.00    -0.203 F 
ATOM    103  F   UNL A   1      42.979  28.696  34.726  1.00  0.00    -0.200 F 
ATOM    104  C   UNL A   1      43.146  30.506  36.224  1.00  0.00     0.200 A 
ATOM    105  F   UNL A   1      43.387  32.348  37.678  1.00  0.00    -0.200 F 
ATOM    106  F   UNL A   1      43.282  29.658  37.253  1.00  0.00    -0.200 F 
ENDBRANCH  73  96
ENDBRANCH  47  48
ENDBRANCH  40  42
ENDBRANCH  39  40
ENDBRANCH  38  39
ENDBRANCH  37  38
ENDBRANCH  36  37
ENDBRANCH  35  36
ENDBRANCH  34  35
ENDBRANCH  33  34
ENDBRANCH   1  33
TORSDOF 25
ENDMDL
MODEL 3
REMARK VINA RESULT:      -9.6      3.317      8.210
REMARK SMILES COc1ccc2c(c1)c(CC(=O)OCCOCCOCCOCCOC(=O)c1ccc(-c3c4nc(c(-c5c(F)c(F)c(F)c(F)c5F)c5ccc([nH]5)c(-c5c(F)c(F)c(F)c(F)c5F)c5nc(c(-c6c(F)c(F)c(F)c(F)c6F)c6ccc3[nH]6)C=C5)C=C4)cc1)c(C)n2Cc1ccn(C(F)F)c(=O)c1
REMARK SMILES IDX 18 1 17 2 16 3 15 4 14 5 13 6 11 7 12 8 10 9 9 10 3 11 4 12
REMARK SMILES IDX 8 13 5 14 7 15 6 16 93 17 91 18 92 19 2 20 1 21 94 22 95 23
REMARK SMILES IDX 96 24 104 25 97 26 102 27 98 28 103 29 99 30 100 31 101 32
REMARK SMILES IDX 19 33 20 34 21 35 22 36 23 37 24 38 25 39 26 40 27 41 28 42
REMARK SMILES IDX 29 43 90 44 30 45 89 46 31 47 32 48 33 49 83 50 34 51 88 52
REMARK SMILES IDX 82 53 84 54 35 55 87 56 81 57 80 58 36 60 68 61 48 62 67 63
REMARK SMILES IDX 49 64 52 65 66 66 85 67 50 68 51 69 65 71 86 72 53 73 37 74
REMARK SMILES IDX 38 75 46 76 39 77 40 78 44 79 47 80 41 81 42 82 45 83 43 84
REMARK SMILES IDX 69 85 70 86 78 87 71 88 72 89 76 90 79 91 73 92 74 93 77 94
REMARK SMILES IDX 75 95 54 96 55 97 63 98 56 99 57 100 61 101 64 102 58 103
REMARK SMILES IDX 59 104 62 105 60 106
REMARK H PARENT 84 59 52 70
REMARK Flexibility Score: inf
ROOT
ATOM      1  C   UNL A   1      31.703  22.966  27.056  1.00  0.00     0.188 C 
ENDROOT
BRANCH   1   2
ATOM      2  C   UNL A   1      31.577  24.080  26.020  1.00  0.00     0.188 C 
BRANCH   2   3
ATOM      3  O   UNL A   1      32.133  23.863  24.722  1.00  0.00    -0.376 OA
BRANCH   3   4
ATOM      4  C   UNL A   1      31.235  23.671  23.644  1.00  0.00     0.202 C 
BRANCH   4   5
ATOM      5  C   UNL A   1      30.703  24.992  23.050  1.00  0.00     0.261 C 
BRANCH   5   6
ATOM      6  O   UNL A   1      31.336  25.381  21.807  1.00  0.00    -0.463 OA
BRANCH   6   7
ATOM      7  C   UNL A   1      32.690  25.482  21.825  1.00  0.00     0.310 C 
ATOM      8  O   UNL A   1      33.431  24.588  21.418  1.00  0.00    -0.252 OA
BRANCH   7   9
ATOM      9  C   UNL A   1      33.266  26.815  22.309  1.00  0.00     0.160 C 
BRANCH   9  10
ATOM     10  C   UNL A   1      32.553  27.632  23.370  1.00  0.00    -0.008 A 
ATOM     11  C   UNL A   1      29.822  30.015  22.091  1.00  0.00     0.119 A 
ATOM     12  C   UNL A   1      29.303  30.325  23.339  1.00  0.00     0.048 A 
ATOM     13  C   UNL A   1      30.994  29.247  21.998  1.00  0.00     0.057 A 
ATOM     14  C   UNL A   1      29.918  29.853  24.511  1.00  0.00     0.031 A 
ATOM     15  C   UNL A   1      31.561  28.652  23.155  1.00  0.00     0.007 A 
ATOM     16  C   UNL A   1      31.050  29.018  24.403  1.00  0.00     0.049 A 
ATOM     17  N   UNL A   1      31.885  28.454  25.364  1.00  0.00    -0.340 N 
ATOM     18  C   UNL A   1      32.867  27.705  24.722  1.00  0.00     0.020 A 
ATOM     19  C   UNL A   1      34.072  27.141  25.384  1.00  0.00     0.065 C 
BRANCH  11  20
ATOM     20  O   UNL A   1      29.274  30.369  20.888  1.00  0.00    -0.497 OA
ATOM     21  C   UNL A   1      28.298  31.409  20.873  1.00  0.00     0.278 C 
ENDBRANCH  11  20
BRANCH  17  22
ATOM     22  C   UNL A   1      31.869  28.856  26.785  1.00  0.00     0.158 C 
BRANCH  22  23
ATOM     23  C   UNL A   1      32.529  30.177  27.127  1.00  0.00    -0.021 A 
ATOM     24  C   UNL A   1      33.961  30.203  27.350  1.00  0.00     0.024 A 
ATOM     25  C   UNL A   1      31.879  31.355  27.096  1.00  0.00     0.077 A 
ATOM     26  C   UNL A   1      34.595  31.333  27.677  1.00  0.00     0.095 A 
ATOM     27  C   UNL A   1      32.586  32.645  27.382  1.00  0.00     0.255 A 
ATOM     28  N   UNL A   1      33.921  32.534  27.736  1.00  0.00    -0.258 N 
ATOM     29  O   UNL A   1      31.954  33.693  27.289  1.00  0.00    -0.269 OA
BRANCH  28  30
ATOM     30  C   UNL A   1      34.636  33.743  28.060  1.00  0.00     0.451 C 
ATOM     31  F   UNL A   1      34.405  34.111  29.343  1.00  0.00    -0.185 F 
ATOM     32  F   UNL A   1      35.972  33.591  27.898  1.00  0.00    -0.185 F 
ENDBRANCH  28  30
ENDBRANCH  22  23
ENDBRANCH  17  22
ENDBRANCH   9  10
ENDBRANCH   7   9
ENDBRANCH   6   7
ENDBRANCH   5   6
ENDBRANCH   4   5
ENDBRANCH   3   4
ENDBRANCH   2   3
ENDBRANCH   1   2
BRANCH   1  33
ATOM     33  O   UNL A   1      32.878  22.791  27.794  1.00  0.00    -0.377 OA
BRANCH  33  34
ATOM     34  C   UNL A   1      33.649  21.665  27.537  1.00  0.00     0.188 C 
BRANCH  34  35
ATOM     35  C   UNL A   1      34.548  21.835  26.313  1.00  0.00     0.188 C 
BRANCH  35  36
ATOM     36  O   UNL A   1      35.440  22.937  26.168  1.00  0.00    -0.376 OA
BRANCH  36  37
ATOM     37  C   UNL A   1      36.822  22.743  25.893  1.00  0.00     0.202 C 
BRANCH  37  38
ATOM     38  C   UNL A   1      37.748  23.976  25.824  1.00  0.00     0.261 C 
BRANCH  38  39
ATOM     39  O   UNL A   1      38.319  24.347  27.081  1.00  0.00    -0.460 OA
BRANCH  39  40
ATOM     40  C   UNL A   1      39.625  24.736  27.096  1.00  0.00     0.338 C 
ATOM     41  O   UNL A   1      40.554  24.260  26.496  1.00  0.00    -0.246 OA
BRANCH  40  42
ATOM     42  C   UNL A   1      39.594  26.085  27.705  1.00  0.00     0.060 A 
ATOM     43  C   UNL A   1      40.120  27.193  27.030  1.00  0.00     0.016 A 
ATOM     44  C   UNL A   1      39.403  26.105  29.092  1.00  0.00     0.016 A 
ATOM     45  C   UNL A   1      40.617  28.256  27.782  1.00  0.00     0.010 A 
ATOM     46  C   UNL A   1      39.931  27.152  29.839  1.00  0.00     0.010 A 
ATOM     47  C   UNL A   1      40.597  28.195  29.189  1.00  0.00    -0.014 A 
BRANCH  47  48
ATOM     48  C   UNL A   1      41.056  29.367  29.941  1.00  0.00     0.031 A 
ATOM     49  C   UNL A   1      39.913  30.161  30.456  1.00  0.00     0.074 A 
ATOM     50  C   UNL A   1      42.319  29.657  30.322  1.00  0.00     0.049 A 
ATOM     51  N   UNL A   1      39.652  31.412  30.271  1.00  0.00    -0.248 NA
ATOM     52  C   UNL A   1      38.865  29.412  31.173  1.00  0.00     0.031 C 
ATOM     53  C   UNL A   1      43.511  28.828  30.160  1.00  0.00     0.029 A 
ATOM     54  N   UNL A   1      42.785  30.728  31.043  1.00  0.00    -0.354 N 
ATOM     55  C   UNL A   1      38.480  31.639  30.980  1.00  0.00     0.074 A 
ATOM     56  C   UNL A   1      37.954  30.358  31.372  1.00  0.00     0.031 C 
ATOM     57  C   UNL A   1      44.513  29.328  30.918  1.00  0.00     0.029 A 
ATOM     58  C   UNL A   1      44.059  30.543  31.574  1.00  0.00     0.049 A 
ATOM     59  H   UNL A   1      42.265  31.553  31.174  1.00  0.00     0.167 HD
ATOM     60  C   UNL A   1      38.140  32.870  31.437  1.00  0.00     0.037 A 
ATOM     61  C   UNL A   1      44.665  31.271  32.549  1.00  0.00     0.037 A 
ATOM     62  C   UNL A   1      38.781  33.928  30.718  1.00  0.00     0.049 A 
ATOM     63  C   UNL A   1      43.965  32.574  32.650  1.00  0.00     0.074 A 
ATOM     64  C   UNL A   1      38.797  34.310  29.390  1.00  0.00     0.029 A 
ATOM     65  N   UNL A   1      39.829  34.584  31.311  1.00  0.00    -0.354 N 
ATOM     66  N   UNL A   1      44.017  33.516  31.750  1.00  0.00    -0.248 NA
ATOM     67  C   UNL A   1      42.879  32.691  33.612  1.00  0.00     0.031 C 
ATOM     68  C   UNL A   1      40.109  34.809  29.159  1.00  0.00     0.029 A 
ATOM     69  C   UNL A   1      40.810  34.727  30.363  1.00  0.00     0.049 A 
ATOM     70  H   UNL A   1      39.869  34.894  32.244  1.00  0.00     0.167 HD
ATOM     71  C   UNL A   1      42.752  34.083  31.765  1.00  0.00     0.074 A 
ATOM     72  C   UNL A   1      42.137  33.615  33.001  1.00  0.00     0.031 C 
ATOM     73  C   UNL A   1      42.225  34.650  30.643  1.00  0.00     0.037 A 
BRANCH  60  74
ATOM     74  C   UNL A   1      37.471  33.031  32.766  1.00  0.00     0.064 A 
ATOM     75  C   UNL A   1      36.317  33.811  32.896  1.00  0.00     0.173 A 
ATOM     76  C   UNL A   1      38.074  32.599  33.971  1.00  0.00     0.173 A 
ATOM     77  F   UNL A   1      35.725  34.333  31.813  1.00  0.00    -0.203 F 
ATOM     78  C   UNL A   1      35.789  34.120  34.153  1.00  0.00     0.198 A 
ATOM     79  C   UNL A   1      37.510  32.850  35.215  1.00  0.00     0.198 A 
ATOM     80  F   UNL A   1      39.276  32.003  33.981  1.00  0.00    -0.203 F 
ATOM     81  F   UNL A   1      34.734  34.940  34.245  1.00  0.00    -0.200 F 
ATOM     82  C   UNL A   1      36.375  33.625  35.308  1.00  0.00     0.200 A 
ATOM     83  F   UNL A   1      38.113  32.388  36.319  1.00  0.00    -0.200 F 
ATOM     84  F   UNL A   1      35.879  33.940  36.511  1.00  0.00    -0.200 F 
ENDBRANCH  60  74
BRANCH  61  85
ATOM     85  C   UNL A   1      45.638  30.814  33.582  1.00  0.00     0.064 A 
ATOM     86  C   UNL A   1      46.952  31.317  33.631  1.00  0.00     0.173 A 
ATOM     87  C   UNL A   1      45.228  30.062  34.701  1.00  0.00     0.173 A 
ATOM     88  F   UNL A   1      47.417  32.092  32.641  1.00  0.00    -0.203 F 
ATOM     89  C   UNL A   1      47.790  31.090  34.731  1.00  0.00     0.198 A 
ATOM     90  C   UNL A   1      46.069  29.821  35.789  1.00  0.00     0.198 A 
ATOM     91  F   UNL A   1      43.968  29.619  34.813  1.00  0.00    -0.203 F 
ATOM     92  F   UNL A   1      49.013  31.639  34.768  1.00  0.00    -0.200 F 
ATOM     93  C   UNL A   1      47.346  30.345  35.811  1.00  0.00     0.200 A 
ATOM     94  F   UNL A   1      45.610  29.127  36.841  1.00  0.00    -0.200 F 
ATOM     95  F   UNL A   1      48.127  30.170  36.886  1.00  0.00    -0.200 F 
ENDBRANCH  61  85
BRANCH  73  96
ATOM     96  C   UNL A   1      43.154  34.965  29.505  1.00  0.00     0.064 A 
ATOM     97  C   UNL A   1      43.804  36.199  29.338  1.00  0.00     0.173 A 
ATOM     98  C   UNL A   1      43.529  33.915  28.652  1.00  0.00     0.173 A 
ATOM     99  F   UNL A   1      43.577  37.223  30.173  1.00  0.00    -0.203 F 
ATOM    100  C   UNL A   1      44.763  36.375  28.342  1.00  0.00     0.198 A 
ATOM    101  C   UNL A   1      44.515  34.085  27.685  1.00  0.00     0.198 A 
ATOM    102  F   UNL A   1      42.979  32.698  28.802  1.00  0.00    -0.203 F 
ATOM    103  F   UNL A   1      45.373  37.560  28.201  1.00  0.00    -0.200 F 
ATOM    104  C   UNL A   1      45.127  35.317  27.526  1.00  0.00     0.200 A 
ATOM    105  F   UNL A   1      44.902  33.044  26.936  1.00  0.00    -0.200 F 
ATOM    106  F   UNL A   1      46.095  35.473  26.612  1.00  0.00    -0.200 F 
ENDBRANCH  73  96
ENDBRANCH  47  48
ENDBRANCH  40  42
ENDBRANCH  39  40
ENDBRANCH  38  39
ENDBRANCH  37  38
ENDBRANCH  36  37
ENDBRANCH  35  36
ENDBRANCH  34  35
ENDBRANCH  33  34
ENDBRANCH   1  33
TORSDOF 25
ENDMDL
