MODEL 1
REMARK VINA RESULT:     -10.5      0.000      0.000
REMARK SMILES O=C(OCCOCCOCCOCCOC(=O)c1ccc(-c2c3nc(c(-c4c(F)c(F)c(F)c(F)c4F)c4ccc([nH]4)c(-c4c(F)c(F)c(F)c(F)c4F)c4nc(c(-c5c(F)c(F)c(F)c(F)c5F)c5ccc2[nH]5)C=C4)C=C3)cc1)C1=C[C@H]2C(=N1)C=CC(Cl)=C2Cl
REMARK SMILES IDX 10 1 9 2 8 3 7 4 6 5 5 6 4 7 3 8 2 9 1 10 81 11 82 12 85 13
REMARK SMILES IDX 83 14 84 15 90 16 86 17 88 18 91 19 87 20 89 21 11 22 12 23
REMARK SMILES IDX 13 24 14 25 15 26 16 27 17 28 18 29 19 30 80 31 20 32 79 33
REMARK SMILES IDX 21 34 22 35 23 36 73 37 24 38 78 39 72 40 74 41 25 42 77 43
REMARK SMILES IDX 71 44 70 45 26 47 58 48 38 49 57 50 39 51 42 52 56 53 75 54
REMARK SMILES IDX 40 55 41 56 55 58 76 59 43 60 27 61 28 62 36 63 29 64 30 65
REMARK SMILES IDX 34 66 37 67 31 68 32 69 35 70 33 71 59 72 60 73 68 74 61 75
REMARK SMILES IDX 62 76 66 77 69 78 63 79 64 80 67 81 65 82 44 83 45 84 53 85
REMARK SMILES IDX 46 86 47 87 51 88 54 89 48 90 49 91 52 92 50 93
REMARK H PARENT 74 46 42 57
REMARK Flexibility Score: inf
ROOT
ATOM      1  C   UNL A   1      33.323  28.816  25.764  1.00  0.00     0.188 C 
ENDROOT
BRANCH   1   2
ATOM      2  O   UNL A   1      33.577  28.822  24.367  1.00  0.00    -0.377 OA
BRANCH   2   3
ATOM      3  C   UNL A   1      32.542  28.311  23.522  1.00  0.00     0.188 C 
BRANCH   3   4
ATOM      4  C   UNL A   1      32.137  26.857  23.780  1.00  0.00     0.188 C 
BRANCH   4   5
ATOM      5  O   UNL A   1      30.771  26.607  23.448  1.00  0.00    -0.376 OA
BRANCH   5   6
ATOM      6  C   UNL A   1      29.843  26.351  24.507  1.00  0.00     0.202 C 
BRANCH   6   7
ATOM      7  C   UNL A   1      30.345  25.594  25.741  1.00  0.00     0.261 C 
BRANCH   7   8
ATOM      8  O   UNL A   1      30.661  24.246  25.400  1.00  0.00    -0.459 OA
BRANCH   8   9
ATOM      9  C   UNL A   1      30.826  23.443  26.478  1.00  0.00     0.356 C 
ATOM     10  O   UNL A   1      30.054  23.335  27.417  1.00  0.00    -0.244 OA
BRANCH   9  11
ATOM     11  C   UNL A   1      32.138  22.763  26.345  1.00  0.00     0.145 C 
ATOM     12  C   UNL A   1      33.289  23.299  26.764  1.00  0.00     0.024 C 
ATOM     13  N   UNL A   1      32.273  21.539  25.713  1.00  0.00    -0.245 NA
ATOM     14  C   UNL A   1      34.354  22.288  26.562  1.00  0.00     0.107 C 
ATOM     15  C   UNL A   1      33.547  21.324  25.720  1.00  0.00     0.054 C 
ATOM     16  C   UNL A   1      35.625  22.579  25.846  1.00  0.00     0.050 C 
ATOM     17  C   UNL A   1      34.237  20.244  24.990  1.00  0.00     0.026 C 
ATOM     18  C   UNL A   1      36.298  21.519  25.366  1.00  0.00     0.056 C 
ATOM     19  Cl  UNL A   1      36.186  24.196  25.725  1.00  0.00    -0.086 Cl
ATOM     20  C   UNL A   1      35.574  20.347  24.896  1.00  0.00     0.023 C 
ATOM     21  Cl  UNL A   1      38.017  21.411  25.473  1.00  0.00    -0.083 Cl
ENDBRANCH   9  11
ENDBRANCH   8   9
ENDBRANCH   7   8
ENDBRANCH   6   7
ENDBRANCH   5   6
ENDBRANCH   4   5
ENDBRANCH   3   4
ENDBRANCH   2   3
ENDBRANCH   1   2
BRANCH   1  22
ATOM     22  C   UNL A   1      32.939  30.147  26.441  1.00  0.00     0.188 C 
BRANCH  22  23
ATOM     23  O   UNL A   1      31.848  30.833  25.846  1.00  0.00    -0.376 OA
BRANCH  23  24
ATOM     24  C   UNL A   1      31.228  31.823  26.664  1.00  0.00     0.202 C 
BRANCH  24  25
ATOM     25  C   UNL A   1      32.054  33.104  26.850  1.00  0.00     0.261 C 
BRANCH  25  26
ATOM     26  O   UNL A   1      32.801  33.157  28.079  1.00  0.00    -0.460 OA
BRANCH  26  27
ATOM     27  C   UNL A   1      33.853  33.991  28.124  1.00  0.00     0.338 C 
ATOM     28  O   UNL A   1      33.833  35.220  28.030  1.00  0.00    -0.246 OA
BRANCH  27  29
ATOM     29  C   UNL A   1      35.039  33.218  28.524  1.00  0.00     0.060 A 
ATOM     30  C   UNL A   1      34.853  31.924  29.028  1.00  0.00     0.016 A 
ATOM     31  C   UNL A   1      36.329  33.740  28.374  1.00  0.00     0.016 A 
ATOM     32  C   UNL A   1      35.954  31.161  29.413  1.00  0.00     0.010 A 
ATOM     33  C   UNL A   1      37.431  32.984  28.781  1.00  0.00     0.010 A 
ATOM     34  C   UNL A   1      37.245  31.704  29.329  1.00  0.00    -0.014 A 
BRANCH  34  35
ATOM     35  C   UNL A   1      38.363  31.008  30.008  1.00  0.00     0.031 A 
ATOM     36  C   UNL A   1      38.631  31.340  31.450  1.00  0.00     0.074 A 
ATOM     37  C   UNL A   1      39.096  30.074  29.379  1.00  0.00     0.049 A 
ATOM     38  N   UNL A   1      39.515  30.833  32.270  1.00  0.00    -0.248 NA
ATOM     39  C   UNL A   1      37.781  32.383  32.048  1.00  0.00     0.031 C 
ATOM     40  C   UNL A   1      38.924  29.654  27.991  1.00  0.00     0.029 A 
ATOM     41  N   UNL A   1      40.140  29.308  29.836  1.00  0.00    -0.354 N 
ATOM     42  C   UNL A   1      39.310  31.476  33.484  1.00  0.00     0.074 A 
ATOM     43  C   UNL A   1      38.250  32.439  33.285  1.00  0.00     0.031 C 
ATOM     44  C   UNL A   1      39.840  28.711  27.704  1.00  0.00     0.029 A 
ATOM     45  C   UNL A   1      40.669  28.471  28.885  1.00  0.00     0.049 A 
ATOM     46  H   UNL A   1      40.477  29.354  30.760  1.00  0.00     0.167 HD
ATOM     47  C   UNL A   1      39.939  31.270  34.665  1.00  0.00     0.037 A 
ATOM     48  C   UNL A   1      41.709  27.618  28.964  1.00  0.00     0.037 A 
ATOM     49  C   UNL A   1      41.014  30.338  34.860  1.00  0.00     0.049 A 
ATOM     50  C   UNL A   1      42.439  27.460  30.275  1.00  0.00     0.074 A 
ATOM     51  C   UNL A   1      41.727  30.069  36.015  1.00  0.00     0.029 A 
ATOM     52  N   UNL A   1      41.539  29.526  33.866  1.00  0.00    -0.354 N 
ATOM     53  N   UNL A   1      42.211  28.042  31.428  1.00  0.00    -0.248 NA
ATOM     54  C   UNL A   1      43.567  26.516  30.295  1.00  0.00     0.031 C 
ATOM     55  C   UNL A   1      42.709  29.121  35.710  1.00  0.00     0.029 A 
ATOM     56  C   UNL A   1      42.579  28.769  34.377  1.00  0.00     0.049 A 
ATOM     57  H   UNL A   1      41.221  29.494  32.935  1.00  0.00     0.167 HD
ATOM     58  C   UNL A   1      43.149  27.520  32.312  1.00  0.00     0.074 A 
ATOM     59  C   UNL A   1      43.933  26.557  31.568  1.00  0.00     0.031 C 
ATOM     60  C   UNL A   1      43.346  27.813  33.621  1.00  0.00     0.037 A 
BRANCH  47  61
ATOM     61  C   UNL A   1      39.479  32.083  35.836  1.00  0.00     0.064 A 
ATOM     62  C   UNL A   1      38.483  31.609  36.703  1.00  0.00     0.173 A 
ATOM     63  C   UNL A   1      40.056  33.330  36.112  1.00  0.00     0.173 A 
ATOM     64  F   UNL A   1      37.888  30.430  36.469  1.00  0.00    -0.203 F 
ATOM     65  C   UNL A   1      38.072  32.363  37.800  1.00  0.00     0.198 A 
ATOM     66  C   UNL A   1      39.658  34.072  37.221  1.00  0.00     0.198 A 
ATOM     67  F   UNL A   1      41.009  33.827  35.310  1.00  0.00    -0.203 F 
ATOM     68  F   UNL A   1      37.094  31.908  38.595  1.00  0.00    -0.200 F 
ATOM     69  C   UNL A   1      38.664  33.590  38.061  1.00  0.00     0.200 A 
ATOM     70  F   UNL A   1      40.235  35.253  37.477  1.00  0.00    -0.200 F 
ATOM     71  F   UNL A   1      38.272  34.311  39.121  1.00  0.00    -0.200 F 
ENDBRANCH  47  61
BRANCH  48  72
ATOM     72  C   UNL A   1      42.139  26.846  27.769  1.00  0.00     0.064 A 
ATOM     73  C   UNL A   1      41.642  25.561  27.515  1.00  0.00     0.173 A 
ATOM     74  C   UNL A   1      43.099  27.361  26.884  1.00  0.00     0.173 A 
ATOM     75  F   UNL A   1      40.745  25.014  28.349  1.00  0.00    -0.203 F 
ATOM     76  C   UNL A   1      42.107  24.807  26.439  1.00  0.00     0.198 A 
ATOM     77  C   UNL A   1      43.543  26.618  25.792  1.00  0.00     0.198 A 
ATOM     78  F   UNL A   1      43.610  28.584  27.084  1.00  0.00    -0.203 F 
ATOM     79  F   UNL A   1      41.658  23.559  26.254  1.00  0.00    -0.200 F 
ATOM     80  C   UNL A   1      43.055  25.337  25.576  1.00  0.00     0.200 A 
ATOM     81  F   UNL A   1      44.454  27.136  24.957  1.00  0.00    -0.200 F 
ATOM     82  F   UNL A   1      43.509  24.610  24.546  1.00  0.00    -0.200 F 
ENDBRANCH  48  72
BRANCH  60  83
ATOM     83  C   UNL A   1      44.434  27.067  34.335  1.00  0.00     0.064 A 
ATOM     84  C   UNL A   1      45.760  27.527  34.338  1.00  0.00     0.173 A 
ATOM     85  C   UNL A   1      44.144  25.895  35.049  1.00  0.00     0.173 A 
ATOM     86  F   UNL A   1      46.090  28.636  33.659  1.00  0.00    -0.203 F 
ATOM     87  C   UNL A   1      46.759  26.824  35.005  1.00  0.00     0.198 A 
ATOM     88  C   UNL A   1      45.140  25.210  35.739  1.00  0.00     0.198 A 
ATOM     89  F   UNL A   1      42.891  25.418  35.085  1.00  0.00    -0.203 F 
ATOM     90  F   UNL A   1      48.027  27.255  34.952  1.00  0.00    -0.200 F 
ATOM     91  C   UNL A   1      46.449  25.670  35.709  1.00  0.00     0.200 A 
ATOM     92  F   UNL A   1      44.837  24.102  36.428  1.00  0.00    -0.200 F 
ATOM     93  F   UNL A   1      47.412  24.996  36.351  1.00  0.00    -0.200 F 
ENDBRANCH  60  83
ENDBRANCH  34  35
ENDBRANCH  27  29
ENDBRANCH  26  27
ENDBRANCH  25  26
ENDBRANCH  24  25
ENDBRANCH  23  24
ENDBRANCH  22  23
ENDBRANCH   1  22
TORSDOF 20
ENDMDL
MODEL 2
REMARK VINA RESULT:     -10.5      4.547     10.192
REMARK SMILES O=C(OCCOCCOCCOCCOC(=O)c1ccc(-c2c3nc(c(-c4c(F)c(F)c(F)c(F)c4F)c4ccc([nH]4)c(-c4c(F)c(F)c(F)c(F)c4F)c4nc(c(-c5c(F)c(F)c(F)c(F)c5F)c5ccc2[nH]5)C=C4)C=C3)cc1)C1=C[C@H]2C(=N1)C=CC(Cl)=C2Cl
REMARK SMILES IDX 10 1 9 2 8 3 7 4 6 5 5 6 4 7 3 8 2 9 1 10 81 11 82 12 85 13
REMARK SMILES IDX 83 14 84 15 90 16 86 17 88 18 91 19 87 20 89 21 11 22 12 23
REMARK SMILES IDX 13 24 14 25 15 26 16 27 17 28 18 29 19 30 80 31 20 32 79 33
REMARK SMILES IDX 21 34 22 35 23 36 73 37 24 38 78 39 72 40 74 41 25 42 77 43
REMARK SMILES IDX 71 44 70 45 26 47 58 48 38 49 57 50 39 51 42 52 56 53 75 54
REMARK SMILES IDX 40 55 41 56 55 58 76 59 43 60 27 61 28 62 36 63 29 64 30 65
REMARK SMILES IDX 34 66 37 67 31 68 32 69 35 70 33 71 59 72 60 73 68 74 61 75
REMARK SMILES IDX 62 76 66 77 69 78 63 79 64 80 67 81 65 82 44 83 45 84 53 85
REMARK SMILES IDX 46 86 47 87 51 88 54 89 48 90 49 91 52 92 50 93
REMARK H PARENT 74 46 42 57
REMARK Flexibility Score: inf
ROOT
ATOM      1  C   UNL A   1      36.283  23.643  24.733  1.00  0.00     0.188 C 
ENDROOT
BRANCH   1   2
ATOM      2  O   UNL A   1      34.924  24.024  24.574  1.00  0.00    -0.377 OA
BRANCH   2   3
ATOM      3  C   UNL A   1      34.366  23.884  23.265  1.00  0.00     0.188 C 
BRANCH   3   4
ATOM      4  C   UNL A   1      33.147  22.963  23.161  1.00  0.00     0.188 C 
BRANCH   4   5
ATOM      5  O   UNL A   1      33.342  21.725  23.843  1.00  0.00    -0.376 OA
BRANCH   5   6
ATOM      6  C   UNL A   1      32.215  21.095  24.461  1.00  0.00     0.202 C 
BRANCH   6   7
ATOM      7  C   UNL A   1      31.759  21.613  25.830  1.00  0.00     0.261 C 
BRANCH   7   8
ATOM      8  O   UNL A   1      30.484  22.241  25.721  1.00  0.00    -0.459 OA
BRANCH   8   9
ATOM      9  C   UNL A   1      30.274  23.195  26.659  1.00  0.00     0.356 C 
ATOM     10  O   UNL A   1      29.661  23.051  27.705  1.00  0.00    -0.244 OA
BRANCH   9  11
ATOM     11  C   UNL A   1      30.870  24.460  26.164  1.00  0.00     0.145 C 
ATOM     12  C   UNL A   1      30.481  25.063  25.037  1.00  0.00     0.024 C 
ATOM     13  N   UNL A   1      31.926  25.079  26.810  1.00  0.00    -0.245 NA
ATOM     14  C   UNL A   1      31.223  26.344  24.934  1.00  0.00     0.107 C 
ATOM     15  C   UNL A   1      32.214  26.080  26.046  1.00  0.00     0.054 C 
ATOM     16  C   UNL A   1      31.980  26.748  23.721  1.00  0.00     0.050 C 
ATOM     17  C   UNL A   1      33.400  26.948  26.182  1.00  0.00     0.026 C 
ATOM     18  C   UNL A   1      32.928  27.687  23.891  1.00  0.00     0.056 C 
ATOM     19  Cl  UNL A   1      31.582  26.066  22.197  1.00  0.00    -0.086 Cl
ATOM     20  C   UNL A   1      33.673  27.753  25.141  1.00  0.00     0.023 C 
ATOM     21  Cl  UNL A   1      33.160  28.960  22.750  1.00  0.00    -0.083 Cl
ENDBRANCH   9  11
ENDBRANCH   8   9
ENDBRANCH   7   8
ENDBRANCH   6   7
ENDBRANCH   5   6
ENDBRANCH   4   5
ENDBRANCH   3   4
ENDBRANCH   2   3
ENDBRANCH   1   2
BRANCH   1  22
ATOM     22  C   UNL A   1      36.712  22.247  24.239  1.00  0.00     0.188 C 
BRANCH  22  23
ATOM     23  O   UNL A   1      37.258  21.396  25.236  1.00  0.00    -0.376 OA
BRANCH  23  24
ATOM     24  C   UNL A   1      37.670  20.109  24.781  1.00  0.00     0.202 C 
BRANCH  24  25
ATOM     25  C   UNL A   1      39.019  19.637  25.344  1.00  0.00     0.261 C 
BRANCH  25  26
ATOM     26  O   UNL A   1      39.444  20.328  26.532  1.00  0.00    -0.460 OA
BRANCH  26  27
ATOM     27  C   UNL A   1      40.765  20.470  26.722  1.00  0.00     0.338 C 
ATOM     28  O   UNL A   1      41.651  19.668  26.419  1.00  0.00    -0.246 OA
BRANCH  27  29
ATOM     29  C   UNL A   1      41.024  21.849  27.166  1.00  0.00     0.060 A 
ATOM     30  C   UNL A   1      40.378  22.897  26.497  1.00  0.00     0.016 A 
ATOM     31  C   UNL A   1      41.864  22.115  28.254  1.00  0.00     0.016 A 
ATOM     32  C   UNL A   1      40.596  24.215  26.893  1.00  0.00     0.010 A 
ATOM     33  C   UNL A   1      42.099  23.438  28.636  1.00  0.00     0.010 A 
ATOM     34  C   UNL A   1      41.489  24.493  27.938  1.00  0.00    -0.014 A 
BRANCH  34  35
ATOM     35  C   UNL A   1      41.934  25.891  28.151  1.00  0.00     0.031 A 
ATOM     36  C   UNL A   1      43.282  26.292  27.620  1.00  0.00     0.074 A 
ATOM     37  C   UNL A   1      41.147  26.794  28.759  1.00  0.00     0.049 A 
ATOM     38  N   UNL A   1      43.870  27.461  27.638  1.00  0.00    -0.248 NA
ATOM     39  C   UNL A   1      44.073  25.229  26.978  1.00  0.00     0.031 C 
ATOM     40  C   UNL A   1      39.817  26.532  29.302  1.00  0.00     0.029 A 
ATOM     41  N   UNL A   1      41.363  28.125  29.023  1.00  0.00    -0.354 N 
ATOM     42  C   UNL A   1      45.084  27.279  26.989  1.00  0.00     0.074 A 
ATOM     43  C   UNL A   1      45.171  25.882  26.628  1.00  0.00     0.031 C 
ATOM     44  C   UNL A   1      39.337  27.665  29.845  1.00  0.00     0.029 A 
ATOM     45  C   UNL A   1      40.331  28.727  29.698  1.00  0.00     0.049 A 
ATOM     46  H   UNL A   1      42.181  28.601  28.753  1.00  0.00     0.167 HD
ATOM     47  C   UNL A   1      46.035  28.199  26.705  1.00  0.00     0.037 A 
ATOM     48  C   UNL A   1      40.214  29.992  30.151  1.00  0.00     0.037 A 
ATOM     49  C   UNL A   1      45.968  29.581  27.091  1.00  0.00     0.049 A 
ATOM     50  C   UNL A   1      41.321  30.980  29.882  1.00  0.00     0.074 A 
ATOM     51  C   UNL A   1      46.889  30.588  26.863  1.00  0.00     0.029 A 
ATOM     52  N   UNL A   1      44.918  30.150  27.796  1.00  0.00    -0.354 N 
ATOM     53  N   UNL A   1      42.448  30.809  29.232  1.00  0.00    -0.248 NA
ATOM     54  C   UNL A   1      41.135  32.342  30.404  1.00  0.00     0.031 C 
ATOM     55  C   UNL A   1      46.414  31.758  27.465  1.00  0.00     0.029 A 
ATOM     56  C   UNL A   1      45.177  31.489  28.028  1.00  0.00     0.049 A 
ATOM     57  H   UNL A   1      44.109  29.671  28.089  1.00  0.00     0.167 HD
ATOM     58  C   UNL A   1      43.089  32.042  29.247  1.00  0.00     0.074 A 
ATOM     59  C   UNL A   1      42.218  32.958  29.951  1.00  0.00     0.031 C 
ATOM     60  C   UNL A   1      44.294  32.386  28.728  1.00  0.00     0.037 A 
BRANCH  47  61
ATOM     61  C   UNL A   1      47.237  27.728  25.945  1.00  0.00     0.064 A 
ATOM     62  C   UNL A   1      47.246  27.702  24.542  1.00  0.00     0.173 A 
ATOM     63  C   UNL A   1      48.399  27.329  26.621  1.00  0.00     0.173 A 
ATOM     64  F   UNL A   1      46.152  28.057  23.853  1.00  0.00    -0.203 F 
ATOM     65  C   UNL A   1      48.374  27.279  23.843  1.00  0.00     0.198 A 
ATOM     66  C   UNL A   1      49.531  26.927  25.918  1.00  0.00     0.198 A 
ATOM     67  F   UNL A   1      48.437  27.333  27.961  1.00  0.00    -0.203 F 
ATOM     68  F   UNL A   1      48.348  27.228  22.504  1.00  0.00    -0.200 F 
ATOM     69  C   UNL A   1      49.516  26.898  24.531  1.00  0.00     0.200 A 
ATOM     70  F   UNL A   1      50.637  26.565  26.582  1.00  0.00    -0.200 F 
ATOM     71  F   UNL A   1      50.603  26.498  23.856  1.00  0.00    -0.200 F 
ENDBRANCH  47  61
BRANCH  48  72
ATOM     72  C   UNL A   1      39.009  30.406  30.916  1.00  0.00     0.064 A 
ATOM     73  C   UNL A   1      37.893  30.959  30.271  1.00  0.00     0.173 A 
ATOM     74  C   UNL A   1      38.971  30.306  32.314  1.00  0.00     0.173 A 
ATOM     75  F   UNL A   1      37.894  31.103  28.938  1.00  0.00    -0.203 F 
ATOM     76  C   UNL A   1      36.797  31.422  30.998  1.00  0.00     0.198 A 
ATOM     77  C   UNL A   1      37.863  30.743  33.038  1.00  0.00     0.198 A 
ATOM     78  F   UNL A   1      40.015  29.789  32.979  1.00  0.00    -0.203 F 
ATOM     79  F   UNL A   1      35.770  32.000  30.362  1.00  0.00    -0.200 F 
ATOM     80  C   UNL A   1      36.782  31.311  32.381  1.00  0.00     0.200 A 
ATOM     81  F   UNL A   1      37.850  30.628  34.373  1.00  0.00    -0.200 F 
ATOM     82  F   UNL A   1      35.732  31.763  33.080  1.00  0.00    -0.200 F 
ENDBRANCH  48  72
BRANCH  60  83
ATOM     83  C   UNL A   1      44.726  33.814  28.883  1.00  0.00     0.064 A 
ATOM     84  C   UNL A   1      45.479  34.239  29.988  1.00  0.00     0.173 A 
ATOM     85  C   UNL A   1      44.409  34.764  27.900  1.00  0.00     0.173 A 
ATOM     86  F   UNL A   1      45.796  33.371  30.961  1.00  0.00    -0.203 F 
ATOM     87  C   UNL A   1      45.872  35.568  30.118  1.00  0.00     0.198 A 
ATOM     88  C   UNL A   1      44.828  36.086  28.019  1.00  0.00     0.198 A 
ATOM     89  F   UNL A   1      43.698  34.408  26.819  1.00  0.00    -0.203 F 
ATOM     90  F   UNL A   1      46.547  35.961  31.207  1.00  0.00    -0.200 F 
ATOM     91  C   UNL A   1      45.551  36.489  29.132  1.00  0.00     0.200 A 
ATOM     92  F   UNL A   1      44.528  36.972  27.060  1.00  0.00    -0.200 F 
ATOM     93  F   UNL A   1      45.932  37.767  29.258  1.00  0.00    -0.200 F 
ENDBRANCH  60  83
ENDBRANCH  34  35
ENDBRANCH  27  29
ENDBRANCH  26  27
ENDBRANCH  25  26
ENDBRANCH  24  25
ENDBRANCH  23  24
ENDBRANCH  22  23
ENDBRANCH   1  22
TORSDOF 20
ENDMDL
MODEL 3
REMARK VINA RESULT:     -10.4      1.186      2.348
REMARK SMILES O=C(OCCOCCOCCOCCOC(=O)c1ccc(-c2c3nc(c(-c4c(F)c(F)c(F)c(F)c4F)c4ccc([nH]4)c(-c4c(F)c(F)c(F)c(F)c4F)c4nc(c(-c5c(F)c(F)c(F)c(F)c5F)c5ccc2[nH]5)C=C4)C=C3)cc1)C1=C[C@H]2C(=N1)C=CC(Cl)=C2Cl
REMARK SMILES IDX 10 1 9 2 8 3 7 4 6 5 5 6 4 7 3 8 2 9 1 10 81 11 82 12 85 13
REMARK SMILES IDX 83 14 84 15 90 16 86 17 88 18 91 19 87 20 89 21 11 22 12 23
REMARK SMILES IDX 13 24 14 25 15 26 16 27 17 28 18 29 19 30 80 31 20 32 79 33
REMARK SMILES IDX 21 34 22 35 23 36 73 37 24 38 78 39 72 40 74 41 25 42 77 43
REMARK SMILES IDX 71 44 70 45 26 47 58 48 38 49 57 50 39 51 42 52 56 53 75 54
REMARK SMILES IDX 40 55 41 56 55 58 76 59 43 60 27 61 28 62 36 63 29 64 30 65
REMARK SMILES IDX 34 66 37 67 31 68 32 69 35 70 33 71 59 72 60 73 68 74 61 75
REMARK SMILES IDX 62 76 66 77 69 78 63 79 64 80 67 81 65 82 44 83 45 84 53 85
REMARK SMILES IDX 46 86 47 87 51 88 54 89 48 90 49 91 52 92 50 93
REMARK H PARENT 74 46 42 57
REMARK Flexibility Score: inf
ROOT
ATOM      1  C   UNL A   1      32.966  28.295  26.233  1.00  0.00     0.188 C 
ENDROOT
BRANCH   1   2
ATOM      2  O   UNL A   1      31.633  27.816  26.128  1.00  0.00    -0.377 OA
BRANCH   2   3
ATOM      3  C   UNL A   1      31.447  26.403  26.243  1.00  0.00     0.188 C 
BRANCH   3   4
ATOM      4  C   UNL A   1      30.475  25.780  25.237  1.00  0.00     0.188 C 
BRANCH   4   5
ATOM      5  O   UNL A   1      29.558  26.735  24.706  1.00  0.00    -0.376 OA
BRANCH   5   6
ATOM      6  C   UNL A   1      29.629  27.057  23.313  1.00  0.00     0.202 C 
BRANCH   6   7
ATOM      7  C   UNL A   1      30.940  27.642  22.773  1.00  0.00     0.261 C 
BRANCH   7   8
ATOM      8  O   UNL A   1      31.536  26.744  21.842  1.00  0.00    -0.459 OA
BRANCH   8   9
ATOM      9  C   UNL A   1      32.868  26.583  22.029  1.00  0.00     0.356 C 
ATOM     10  O   UNL A   1      33.745  27.334  21.633  1.00  0.00    -0.244 OA
BRANCH   9  11
ATOM     11  C   UNL A   1      33.076  25.302  22.750  1.00  0.00     0.145 C 
ATOM     12  C   UNL A   1      34.160  25.043  23.488  1.00  0.00     0.024 C 
ATOM     13  N   UNL A   1      32.182  24.251  22.657  1.00  0.00    -0.245 NA
ATOM     14  C   UNL A   1      33.958  23.723  24.133  1.00  0.00     0.107 C 
ATOM     15  C   UNL A   1      32.741  23.305  23.336  1.00  0.00     0.054 C 
ATOM     16  C   UNL A   1      34.958  22.625  24.064  1.00  0.00     0.050 C 
ATOM     17  C   UNL A   1      32.288  21.902  23.386  1.00  0.00     0.026 C 
ATOM     18  C   UNL A   1      34.502  21.383  24.305  1.00  0.00     0.056 C 
ATOM     19  Cl  UNL A   1      36.606  22.988  23.753  1.00  0.00    -0.086 Cl
ATOM     20  C   UNL A   1      33.147  21.016  23.918  1.00  0.00     0.023 C 
ATOM     21  Cl  UNL A   1      35.402  20.254  25.250  1.00  0.00    -0.083 Cl
ENDBRANCH   9  11
ENDBRANCH   8   9
ENDBRANCH   7   8
ENDBRANCH   6   7
ENDBRANCH   5   6
ENDBRANCH   4   5
ENDBRANCH   3   4
ENDBRANCH   2   3
ENDBRANCH   1   2
BRANCH   1  22
ATOM     22  C   UNL A   1      33.182  29.806  26.452  1.00  0.00     0.188 C 
BRANCH  22  23
ATOM     23  O   UNL A   1      32.146  30.467  27.164  1.00  0.00    -0.376 OA
BRANCH  23  24
ATOM     24  C   UNL A   1      31.507  31.531  26.463  1.00  0.00     0.202 C 
BRANCH  24  25
ATOM     25  C   UNL A   1      31.826  32.932  27.004  1.00  0.00     0.261 C 
BRANCH  25  26
ATOM     26  O   UNL A   1      33.228  33.256  27.028  1.00  0.00    -0.460 OA
BRANCH  26  27
ATOM     27  C   UNL A   1      33.715  33.804  28.153  1.00  0.00     0.338 C 
ATOM     28  O   UNL A   1      33.173  34.655  28.861  1.00  0.00    -0.246 OA
BRANCH  27  29
ATOM     29  C   UNL A   1      34.927  33.065  28.540  1.00  0.00     0.060 A 
ATOM     30  C   UNL A   1      34.790  31.742  28.979  1.00  0.00     0.016 A 
ATOM     31  C   UNL A   1      36.195  33.650  28.440  1.00  0.00     0.016 A 
ATOM     32  C   UNL A   1      35.917  31.011  29.349  1.00  0.00     0.010 A 
ATOM     33  C   UNL A   1      37.323  32.924  28.833  1.00  0.00     0.010 A 
ATOM     34  C   UNL A   1      37.184  31.613  29.317  1.00  0.00    -0.014 A 
BRANCH  34  35
ATOM     35  C   UNL A   1      38.320  30.934  29.985  1.00  0.00     0.031 A 
ATOM     36  C   UNL A   1      38.599  31.274  31.423  1.00  0.00     0.074 A 
ATOM     37  C   UNL A   1      39.059  30.010  29.349  1.00  0.00     0.049 A 
ATOM     38  N   UNL A   1      39.500  30.782  32.234  1.00  0.00    -0.248 NA
ATOM     39  C   UNL A   1      37.741  32.306  32.028  1.00  0.00     0.031 C 
ATOM     40  C   UNL A   1      38.877  29.584  27.964  1.00  0.00     0.029 A 
ATOM     41  N   UNL A   1      40.119  29.260  29.796  1.00  0.00    -0.354 N 
ATOM     42  C   UNL A   1      39.299  31.425  33.448  1.00  0.00     0.074 A 
ATOM     43  C   UNL A   1      38.224  32.373  33.259  1.00  0.00     0.031 C 
ATOM     44  C   UNL A   1      39.804  28.654  27.669  1.00  0.00     0.029 A 
ATOM     45  C   UNL A   1      40.649  28.429  28.841  1.00  0.00     0.049 A 
ATOM     46  H   UNL A   1      40.466  29.314  30.716  1.00  0.00     0.167 HD
ATOM     47  C   UNL A   1      39.945  31.232  34.622  1.00  0.00     0.037 A 
ATOM     48  C   UNL A   1      41.702  27.591  28.910  1.00  0.00     0.037 A 
ATOM     49  C   UNL A   1      41.036  30.316  34.807  1.00  0.00     0.049 A 
ATOM     50  C   UNL A   1      42.450  27.447  30.212  1.00  0.00     0.074 A 
ATOM     51  C   UNL A   1      41.766  30.060  35.954  1.00  0.00     0.029 A 
ATOM     52  N   UNL A   1      41.562  29.509  33.809  1.00  0.00    -0.354 N 
ATOM     53  N   UNL A   1      42.227  28.029  31.367  1.00  0.00    -0.248 NA
ATOM     54  C   UNL A   1      43.591  26.520  30.223  1.00  0.00     0.031 C 
ATOM     55  C   UNL A   1      42.758  29.126  35.641  1.00  0.00     0.029 A 
ATOM     56  C   UNL A   1      42.618  28.768  34.310  1.00  0.00     0.049 A 
ATOM     57  H   UNL A   1      41.233  29.470  32.882  1.00  0.00     0.167 HD
ATOM     58  C   UNL A   1      43.182  27.522  32.241  1.00  0.00     0.074 A 
ATOM     59  C   UNL A   1      43.971  26.570  31.491  1.00  0.00     0.031 C 
ATOM     60  C   UNL A   1      43.390  27.821  33.547  1.00  0.00     0.037 A 
BRANCH  47  61
ATOM     61  C   UNL A   1      39.486  32.041  35.796  1.00  0.00     0.064 A 
ATOM     62  C   UNL A   1      40.035  33.303  36.069  1.00  0.00     0.173 A 
ATOM     63  C   UNL A   1      38.471  31.567  36.639  1.00  0.00     0.173 A 
ATOM     64  F   UNL A   1      41.022  33.790  35.302  1.00  0.00    -0.203 F 
ATOM     65  C   UNL A   1      39.592  34.057  37.153  1.00  0.00     0.198 A 
ATOM     66  C   UNL A   1      38.016  32.332  37.710  1.00  0.00     0.198 A 
ATOM     67  F   UNL A   1      37.918  30.365  36.422  1.00  0.00    -0.203 F 
ATOM     68  F   UNL A   1      40.155  35.244  37.416  1.00  0.00    -0.200 F 
ATOM     69  C   UNL A   1      38.579  33.573  37.967  1.00  0.00     0.200 A 
ATOM     70  F   UNL A   1      37.033  31.868  38.492  1.00  0.00    -0.200 F 
ATOM     71  F   UNL A   1      38.149  34.303  39.006  1.00  0.00    -0.200 F 
ENDBRANCH  47  61
BRANCH  48  72
ATOM     72  C   UNL A   1      42.130  26.823  27.712  1.00  0.00     0.064 A 
ATOM     73  C   UNL A   1      41.607  25.551  27.439  1.00  0.00     0.173 A 
ATOM     74  C   UNL A   1      43.112  27.325  26.844  1.00  0.00     0.173 A 
ATOM     75  F   UNL A   1      40.688  25.016  28.255  1.00  0.00    -0.203 F 
ATOM     76  C   UNL A   1      42.069  24.799  26.359  1.00  0.00     0.198 A 
ATOM     77  C   UNL A   1      43.553  26.584  25.750  1.00  0.00     0.198 A 
ATOM     78  F   UNL A   1      43.648  28.534  27.064  1.00  0.00    -0.203 F 
ATOM     79  F   UNL A   1      41.595  23.563  26.155  1.00  0.00    -0.200 F 
ATOM     80  C   UNL A   1      43.039  25.317  25.514  1.00  0.00     0.200 A 
ATOM     81  F   UNL A   1      44.486  27.091  24.932  1.00  0.00    -0.200 F 
ATOM     82  F   UNL A   1      43.489  24.591  24.482  1.00  0.00    -0.200 F 
ENDBRANCH  48  72
BRANCH  60  83
ATOM     83  C   UNL A   1      44.497  27.093  34.250  1.00  0.00     0.064 A 
ATOM     84  C   UNL A   1      44.289  25.843  34.852  1.00  0.00     0.173 A 
ATOM     85  C   UNL A   1      45.789  27.638  34.297  1.00  0.00     0.173 A 
ATOM     86  F   UNL A   1      43.068  25.287  34.845  1.00  0.00    -0.203 F 
ATOM     87  C   UNL A   1      45.326  25.180  35.501  1.00  0.00     0.198 A 
ATOM     88  C   UNL A   1      46.831  26.959  34.923  1.00  0.00     0.198 A 
ATOM     89  F   UNL A   1      46.044  28.827  33.730  1.00  0.00    -0.203 F 
ATOM     90  F   UNL A   1      45.092  24.010  36.112  1.00  0.00    -0.200 F 
ATOM     91  C   UNL A   1      46.597  25.735  35.532  1.00  0.00     0.200 A 
ATOM     92  F   UNL A   1      48.061  27.490  34.940  1.00  0.00    -0.200 F 
ATOM     93  F   UNL A   1      47.595  25.094  36.156  1.00  0.00    -0.200 F 
ENDBRANCH  60  83
ENDBRANCH  34  35
ENDBRANCH  27  29
ENDBRANCH  26  27
ENDBRANCH  25  26
ENDBRANCH  24  25
ENDBRANCH  23  24
ENDBRANCH  22  23
ENDBRANCH   1  22
TORSDOF 20
ENDMDL
