MODEL 1
REMARK VINA RESULT:      -9.1      0.000      0.000
REMARK SMILES Cc1nc2scc(C)n2c1CNc1ccc(C(=O)OCCOCCOCCOCCOC(=O)c2ccc(-c3c4nc(c(-c5c(F)c(F)c(F)c(F)c5F)c5ccc([nH]5)c(-c5c(F)c(F)c(F)c(F)c5F)c5nc(c(-c6c(F)c(F)c(F)c(F)c6F)c6ccc3[nH]6)C=C5)C=C4)cc2)cc1
REMARK SMILES IDX 24 1 23 2 22 3 21 4 20 5 19 6 17 7 18 8 16 9 13 10 14 11
REMARK SMILES IDX 98 12 15 13 97 14 12 15 11 17 10 18 1 19 2 20 3 21 4 22 9 23
REMARK SMILES IDX 5 24 7 25 6 26 8 27 25 28 26 29 27 30 28 31 29 32 30 33
REMARK SMILES IDX 31 34 32 35 33 36 34 37 35 38 96 39 36 40 95 41 37 42 38 43
REMARK SMILES IDX 39 44 89 45 40 46 94 47 88 48 90 49 41 50 93 51 87 52 86 53
REMARK SMILES IDX 42 55 74 56 54 57 73 58 55 59 58 60 72 61 91 62 56 63 57 64
REMARK SMILES IDX 71 66 92 67 59 68 43 69 44 70 52 71 45 72 46 73 50 74 53 75
REMARK SMILES IDX 47 76 48 77 51 78 49 79 75 80 76 81 84 82 77 83 78 84 82 85
REMARK SMILES IDX 85 86 79 87 80 88 83 89 81 90 60 91 61 92 69 93 62 94 63 95
REMARK SMILES IDX 67 96 70 97 64 98 65 99 68 100 66 101
REMARK H PARENT 12 16 90 54 58 65
REMARK Flexibility Score: inf
ROOT
ATOM      1  C   UNL A   1      33.384  37.064  32.388  1.00  0.00     0.188 C 
ENDROOT
BRANCH   1   2
ATOM      2  C   UNL A   1      34.461  36.002  32.715  1.00  0.00     0.188 C 
BRANCH   2   3
ATOM      3  O   UNL A   1      34.133  34.696  32.274  1.00  0.00    -0.376 OA
BRANCH   3   4
ATOM      4  C   UNL A   1      34.460  33.596  33.092  1.00  0.00     0.202 C 
BRANCH   4   5
ATOM      5  C   UNL A   1      35.929  33.446  33.499  1.00  0.00     0.261 C 
BRANCH   5   6
ATOM      6  O   UNL A   1      36.154  32.904  34.806  1.00  0.00    -0.460 OA
BRANCH   6   7
ATOM      7  C   UNL A   1      37.221  33.375  35.478  1.00  0.00     0.338 C 
ATOM      8  O   UNL A   1      37.285  33.619  36.680  1.00  0.00    -0.246 OA
BRANCH   7   9
ATOM      9  C   UNL A   1      38.387  33.362  34.574  1.00  0.00     0.060 A 
ATOM     10  C   UNL A   1      40.452  33.473  32.692  1.00  0.00     0.034 A 
ATOM     11  C   UNL A   1      40.200  34.570  33.522  1.00  0.00     0.026 A 
ATOM     12  C   UNL A   1      39.772  32.271  32.937  1.00  0.00     0.026 A 
ATOM     13  C   UNL A   1      39.145  34.529  34.434  1.00  0.00     0.018 A 
ATOM     14  C   UNL A   1      38.748  32.206  33.880  1.00  0.00     0.018 A 
BRANCH  10  15
ATOM     15  N   UNL A   1      41.177  33.668  31.523  1.00  0.00    -0.379 N 
ATOM     16  H   UNL A   1      41.248  32.959  30.843  1.00  0.00     0.160 HD
BRANCH  15  17
ATOM     17  C   UNL A   1      41.829  34.957  31.335  1.00  0.00     0.169 C 
BRANCH  17  18
ATOM     18  C   UNL A   1      43.110  34.902  30.588  1.00  0.00     0.066 A 
ATOM     19  C   UNL A   1      42.344  35.349  28.149  1.00  0.00     0.069 C 
ATOM     20  C   UNL A   1      43.331  35.068  29.219  1.00  0.00     0.062 A 
ATOM     21  N   UNL A   1      44.669  34.992  28.906  1.00  0.00    -0.224 NA
ATOM     22  C   UNL A   1      45.238  34.807  30.062  1.00  0.00     0.194 A 
ATOM     23  N   UNL A   1      44.376  34.768  31.125  1.00  0.00    -0.290 N 
ATOM     24  S   UNL A   1      46.896  34.662  30.549  1.00  0.00    -0.105 S 
ATOM     25  C   UNL A   1      45.013  34.639  32.359  1.00  0.00     0.032 A 
ATOM     26  C   UNL A   1      46.354  34.573  32.217  1.00  0.00     0.090 A 
ATOM     27  C   UNL A   1      44.352  34.610  33.685  1.00  0.00     0.066 C 
ENDBRANCH  17  18
ENDBRANCH  15  17
ENDBRANCH  10  15
ENDBRANCH   7   9
ENDBRANCH   6   7
ENDBRANCH   5   6
ENDBRANCH   4   5
ENDBRANCH   3   4
ENDBRANCH   2   3
ENDBRANCH   1   2
BRANCH   1  28
ATOM     28  O   UNL A   1      32.611  36.995  31.194  1.00  0.00    -0.377 OA
BRANCH  28  29
ATOM     29  C   UNL A   1      33.247  37.018  29.922  1.00  0.00     0.188 C 
BRANCH  29  30
ATOM     30  C   UNL A   1      32.952  35.936  28.849  1.00  0.00     0.188 C 
BRANCH  30  31
ATOM     31  O   UNL A   1      33.131  34.593  29.272  1.00  0.00    -0.376 OA
BRANCH  31  32
ATOM     32  C   UNL A   1      34.374  33.928  29.192  1.00  0.00     0.202 C 
BRANCH  32  33
ATOM     33  C   UNL A   1      35.061  33.822  27.836  1.00  0.00     0.261 C 
BRANCH  33  34
ATOM     34  O   UNL A   1      36.094  32.861  27.799  1.00  0.00    -0.460 OA
BRANCH  34  35
ATOM     35  C   UNL A   1      35.702  31.609  28.051  1.00  0.00     0.338 C 
ATOM     36  O   UNL A   1      34.698  31.035  27.620  1.00  0.00    -0.246 OA
BRANCH  35  37
ATOM     37  C   UNL A   1      36.599  31.047  29.050  1.00  0.00     0.060 A 
ATOM     38  C   UNL A   1      37.731  31.804  29.342  1.00  0.00     0.016 A 
ATOM     39  C   UNL A   1      36.515  29.667  29.299  1.00  0.00     0.016 A 
ATOM     40  C   UNL A   1      38.891  31.120  29.586  1.00  0.00     0.010 A 
ATOM     41  C   UNL A   1      37.679  28.985  29.512  1.00  0.00     0.010 A 
ATOM     42  C   UNL A   1      38.857  29.721  29.546  1.00  0.00    -0.014 A 
BRANCH  42  43
ATOM     43  C   UNL A   1      40.118  29.031  29.626  1.00  0.00     0.031 A 
ATOM     44  C   UNL A   1      40.571  28.915  31.017  1.00  0.00     0.074 A 
ATOM     45  C   UNL A   1      40.735  28.532  28.541  1.00  0.00     0.049 A 
ATOM     46  N   UNL A   1      41.535  29.566  31.573  1.00  0.00    -0.248 NA
ATOM     47  C   UNL A   1      39.726  28.158  31.955  1.00  0.00     0.031 C 
ATOM     48  C   UNL A   1      40.174  28.368  27.197  1.00  0.00     0.029 A 
ATOM     49  N   UNL A   1      41.971  27.969  28.438  1.00  0.00    -0.354 N 
ATOM     50  C   UNL A   1      41.574  29.092  32.877  1.00  0.00     0.074 A 
ATOM     51  C   UNL A   1      40.319  28.436  33.117  1.00  0.00     0.031 C 
ATOM     52  C   UNL A   1      40.975  27.547  26.481  1.00  0.00     0.029 A 
ATOM     53  C   UNL A   1      42.163  27.252  27.265  1.00  0.00     0.049 A 
ATOM     54  H   UNL A   1      42.665  28.062  29.129  1.00  0.00     0.167 HD
ATOM     55  C   UNL A   1      42.776  28.957  33.494  1.00  0.00     0.037 A 
ATOM     56  C   UNL A   1      43.200  26.424  27.000  1.00  0.00     0.037 A 
ATOM     57  C   UNL A   1      43.792  29.715  32.808  1.00  0.00     0.049 A 
ATOM     58  C   UNL A   1      44.320  26.789  27.899  1.00  0.00     0.074 A 
ATOM     59  C   UNL A   1      44.183  31.033  32.737  1.00  0.00     0.029 A 
ATOM     60  N   UNL A   1      44.330  29.070  31.725  1.00  0.00    -0.354 N 
ATOM     61  N   UNL A   1      44.974  27.914  27.809  1.00  0.00    -0.248 NA
ATOM     62  C   UNL A   1      44.504  26.061  29.153  1.00  0.00     0.031 C 
ATOM     63  C   UNL A   1      44.906  31.176  31.515  1.00  0.00     0.029 A 
ATOM     64  C   UNL A   1      44.960  29.939  30.877  1.00  0.00     0.049 A 
ATOM     65  H   UNL A   1      44.271  28.099  31.576  1.00  0.00     0.167 HD
ATOM     66  C   UNL A   1      45.288  28.231  29.115  1.00  0.00     0.074 A 
ATOM     67  C   UNL A   1      45.146  26.993  29.866  1.00  0.00     0.031 C 
ATOM     68  C   UNL A   1      45.297  29.528  29.533  1.00  0.00     0.037 A 
BRANCH  55  69
ATOM     69  C   UNL A   1      43.150  27.765  34.347  1.00  0.00     0.064 A 
ATOM     70  C   UNL A   1      43.306  26.515  33.716  1.00  0.00     0.173 A 
ATOM     71  C   UNL A   1      43.046  27.723  35.756  1.00  0.00     0.173 A 
ATOM     72  F   UNL A   1      43.397  26.432  32.380  1.00  0.00    -0.203 F 
ATOM     73  C   UNL A   1      43.281  25.318  34.435  1.00  0.00     0.198 A 
ATOM     74  C   UNL A   1      43.075  26.529  36.474  1.00  0.00     0.198 A 
ATOM     75  F   UNL A   1      42.796  28.809  36.496  1.00  0.00    -0.203 F 
ATOM     76  F   UNL A   1      43.308  24.149  33.780  1.00  0.00    -0.200 F 
ATOM     77  C   UNL A   1      43.159  25.325  35.812  1.00  0.00     0.200 A 
ATOM     78  F   UNL A   1      42.932  26.560  37.807  1.00  0.00    -0.200 F 
ATOM     79  F   UNL A   1      43.076  24.178  36.497  1.00  0.00    -0.200 F 
ENDBRANCH  55  69
BRANCH  56  80
ATOM     80  C   UNL A   1      43.193  25.180  26.200  1.00  0.00     0.064 A 
ATOM     81  C   UNL A   1      44.205  24.908  25.267  1.00  0.00     0.173 A 
ATOM     82  C   UNL A   1      42.341  24.110  26.535  1.00  0.00     0.173 A 
ATOM     83  F   UNL A   1      45.083  25.863  24.929  1.00  0.00    -0.203 F 
ATOM     84  C   UNL A   1      44.371  23.633  24.719  1.00  0.00     0.198 A 
ATOM     85  C   UNL A   1      42.503  22.838  25.984  1.00  0.00     0.198 A 
ATOM     86  F   UNL A   1      41.395  24.253  27.476  1.00  0.00    -0.203 F 
ATOM     87  F   UNL A   1      45.386  23.394  23.878  1.00  0.00    -0.200 F 
ATOM     88  C   UNL A   1      43.526  22.597  25.087  1.00  0.00     0.200 A 
ATOM     89  F   UNL A   1      41.703  21.837  26.376  1.00  0.00    -0.200 F 
ATOM     90  F   UNL A   1      43.725  21.360  24.612  1.00  0.00    -0.200 F 
ENDBRANCH  56  80
BRANCH  68  91
ATOM     91  C   UNL A   1      45.512  30.581  28.494  1.00  0.00     0.064 A 
ATOM     92  C   UNL A   1      44.492  31.134  27.703  1.00  0.00     0.173 A 
ATOM     93  C   UNL A   1      46.808  31.089  28.334  1.00  0.00     0.173 A 
ATOM     94  F   UNL A   1      43.218  30.750  27.854  1.00  0.00    -0.203 F 
ATOM     95  C   UNL A   1      44.773  32.124  26.762  1.00  0.00     0.198 A 
ATOM     96  C   UNL A   1      47.078  32.102  27.423  1.00  0.00     0.198 A 
ATOM     97  F   UNL A   1      47.810  30.619  29.093  1.00  0.00    -0.203 F 
ATOM     98  F   UNL A   1      43.792  32.624  25.997  1.00  0.00    -0.200 F 
ATOM     99  C   UNL A   1      46.065  32.611  26.628  1.00  0.00     0.200 A 
ATOM    100  F   UNL A   1      48.320  32.596  27.327  1.00  0.00    -0.200 F 
ATOM    101  F   UNL A   1      46.330  33.584  25.745  1.00  0.00    -0.200 F 
ENDBRANCH  68  91
ENDBRANCH  42  43
ENDBRANCH  35  37
ENDBRANCH  34  35
ENDBRANCH  33  34
ENDBRANCH  32  33
ENDBRANCH  31  32
ENDBRANCH  30  31
ENDBRANCH  29  30
ENDBRANCH  28  29
ENDBRANCH   1  28
TORSDOF 23
ENDMDL
MODEL 2
REMARK VINA RESULT:      -9.0      4.598      8.061
REMARK SMILES Cc1nc2scc(C)n2c1CNc1ccc(C(=O)OCCOCCOCCOCCOC(=O)c2ccc(-c3c4nc(c(-c5c(F)c(F)c(F)c(F)c5F)c5ccc([nH]5)c(-c5c(F)c(F)c(F)c(F)c5F)c5nc(c(-c6c(F)c(F)c(F)c(F)c6F)c6ccc3[nH]6)C=C5)C=C4)cc2)cc1
REMARK SMILES IDX 24 1 23 2 22 3 21 4 20 5 19 6 17 7 18 8 16 9 13 10 14 11
REMARK SMILES IDX 98 12 15 13 97 14 12 15 11 17 10 18 1 19 2 20 3 21 4 22 9 23
REMARK SMILES IDX 5 24 7 25 6 26 8 27 25 28 26 29 27 30 28 31 29 32 30 33
REMARK SMILES IDX 31 34 32 35 33 36 34 37 35 38 96 39 36 40 95 41 37 42 38 43
REMARK SMILES IDX 39 44 89 45 40 46 94 47 88 48 90 49 41 50 93 51 87 52 86 53
REMARK SMILES IDX 42 55 74 56 54 57 73 58 55 59 58 60 72 61 91 62 56 63 57 64
REMARK SMILES IDX 71 66 92 67 59 68 43 69 44 70 52 71 45 72 46 73 50 74 53 75
REMARK SMILES IDX 47 76 48 77 51 78 49 79 75 80 76 81 84 82 77 83 78 84 82 85
REMARK SMILES IDX 85 86 79 87 80 88 83 89 81 90 60 91 61 92 69 93 62 94 63 95
REMARK SMILES IDX 67 96 70 97 64 98 65 99 68 100 66 101
REMARK H PARENT 12 16 90 54 58 65
REMARK Flexibility Score: inf
ROOT
ATOM      1  C   UNL A   1      35.516  31.657  28.138  1.00  0.00     0.188 C 
ENDROOT
BRANCH   1   2
ATOM      2  C   UNL A   1      34.576  30.544  27.618  1.00  0.00     0.188 C 
BRANCH   2   3
ATOM      3  O   UNL A   1      33.394  31.029  27.007  1.00  0.00    -0.376 OA
BRANCH   3   4
ATOM      4  C   UNL A   1      32.468  30.107  26.479  1.00  0.00     0.202 C 
BRANCH   4   5
ATOM      5  C   UNL A   1      32.771  29.537  25.089  1.00  0.00     0.261 C 
BRANCH   5   6
ATOM      6  O   UNL A   1      32.464  28.149  24.912  1.00  0.00    -0.460 OA
BRANCH   6   7
ATOM      7  C   UNL A   1      31.533  27.851  23.986  1.00  0.00     0.338 C 
ATOM      8  O   UNL A   1      30.917  28.644  23.280  1.00  0.00    -0.246 OA
BRANCH   7   9
ATOM      9  C   UNL A   1      31.509  26.387  23.801  1.00  0.00     0.060 A 
ATOM     10  C   UNL A   1      31.624  23.597  23.656  1.00  0.00     0.034 A 
ATOM     11  C   UNL A   1      30.781  24.217  24.582  1.00  0.00     0.026 A 
ATOM     12  C   UNL A   1      32.271  24.391  22.697  1.00  0.00     0.026 A 
ATOM     13  C   UNL A   1      30.752  25.608  24.682  1.00  0.00     0.018 A 
ATOM     14  C   UNL A   1      32.212  25.782  22.758  1.00  0.00     0.018 A 
BRANCH  10  15
ATOM     15  N   UNL A   1      31.979  22.269  23.853  1.00  0.00    -0.379 N 
ATOM     16  H   UNL A   1      31.891  21.605  23.130  1.00  0.00     0.160 HD
BRANCH  15  17
ATOM     17  C   UNL A   1      32.486  21.889  25.164  1.00  0.00     0.169 C 
BRANCH  17  18
ATOM     18  C   UNL A   1      33.905  21.455  25.179  1.00  0.00     0.066 A 
ATOM     19  C   UNL A   1      33.722  18.950  24.527  1.00  0.00     0.069 C 
ATOM     20  C   UNL A   1      34.437  20.192  24.907  1.00  0.00     0.062 A 
ATOM     21  N   UNL A   1      35.811  20.192  24.979  1.00  0.00    -0.224 NA
ATOM     22  C   UNL A   1      36.098  21.428  25.265  1.00  0.00     0.194 A 
ATOM     23  N   UNL A   1      35.014  22.258  25.375  1.00  0.00    -0.290 N 
ATOM     24  S   UNL A   1      37.599  22.271  25.474  1.00  0.00    -0.105 S 
ATOM     25  C   UNL A   1      35.349  23.591  25.612  1.00  0.00     0.032 A 
ATOM     26  C   UNL A   1      36.686  23.756  25.688  1.00  0.00     0.090 A 
ATOM     27  C   UNL A   1      34.399  24.721  25.736  1.00  0.00     0.066 C 
ENDBRANCH  17  18
ENDBRANCH  15  17
ENDBRANCH  10  15
ENDBRANCH   7   9
ENDBRANCH   6   7
ENDBRANCH   5   6
ENDBRANCH   4   5
ENDBRANCH   3   4
ENDBRANCH   2   3
ENDBRANCH   1   2
BRANCH   1  28
ATOM     28  O   UNL A   1      35.386  33.005  27.698  1.00  0.00    -0.377 OA
BRANCH  28  29
ATOM     29  C   UNL A   1      35.241  34.060  28.641  1.00  0.00     0.188 C 
BRANCH  29  30
ATOM     30  C   UNL A   1      33.889  34.326  29.356  1.00  0.00     0.188 C 
BRANCH  30  31
ATOM     31  O   UNL A   1      33.829  33.924  30.716  1.00  0.00    -0.376 OA
BRANCH  31  32
ATOM     32  C   UNL A   1      34.966  33.898  31.553  1.00  0.00     0.202 C 
BRANCH  32  33
ATOM     33  C   UNL A   1      35.315  32.601  32.272  1.00  0.00     0.261 C 
BRANCH  33  34
ATOM     34  O   UNL A   1      36.601  32.110  31.962  1.00  0.00    -0.460 OA
BRANCH  34  35
ATOM     35  C   UNL A   1      36.654  30.797  31.720  1.00  0.00     0.338 C 
ATOM     36  O   UNL A   1      35.794  30.097  31.180  1.00  0.00    -0.246 OA
BRANCH  35  37
ATOM     37  C   UNL A   1      37.867  30.274  32.332  1.00  0.00     0.060 A 
ATOM     38  C   UNL A   1      39.024  31.019  32.116  1.00  0.00     0.016 A 
ATOM     39  C   UNL A   1      37.886  28.914  32.684  1.00  0.00     0.016 A 
ATOM     40  C   UNL A   1      40.189  30.322  31.939  1.00  0.00     0.010 A 
ATOM     41  C   UNL A   1      39.042  28.217  32.477  1.00  0.00     0.010 A 
ATOM     42  C   UNL A   1      40.143  28.924  32.007  1.00  0.00    -0.014 A 
BRANCH  42  43
ATOM     43  C   UNL A   1      41.337  28.209  31.641  1.00  0.00     0.031 A 
ATOM     44  C   UNL A   1      42.233  28.050  32.791  1.00  0.00     0.074 A 
ATOM     45  C   UNL A   1      41.535  27.726  30.402  1.00  0.00     0.049 A 
ATOM     46  N   UNL A   1      43.345  28.669  32.996  1.00  0.00    -0.248 NA
ATOM     47  C   UNL A   1      41.739  27.286  33.948  1.00  0.00     0.031 C 
ATOM     48  C   UNL A   1      40.546  27.605  29.327  1.00  0.00     0.029 A 
ATOM     49  N   UNL A   1      42.647  27.142  29.874  1.00  0.00    -0.354 N 
ATOM     50  C   UNL A   1      43.814  28.162  34.201  1.00  0.00     0.074 A 
ATOM     51  C   UNL A   1      42.699  27.524  34.843  1.00  0.00     0.031 C 
ATOM     52  C   UNL A   1      41.033  26.788  28.367  1.00  0.00     0.029 A 
ATOM     53  C   UNL A   1      42.408  26.451  28.694  1.00  0.00     0.049 A 
ATOM     54  H   UNL A   1      43.536  27.205  30.289  1.00  0.00     0.167 HD
ATOM     55  C   UNL A   1      45.150  27.989  34.369  1.00  0.00     0.037 A 
ATOM     56  C   UNL A   1      43.271  25.610  28.077  1.00  0.00     0.037 A 
ATOM     57  C   UNL A   1      45.892  28.745  33.390  1.00  0.00     0.049 A 
ATOM     58  C   UNL A   1      44.640  25.931  28.547  1.00  0.00     0.074 A 
ATOM     59  C   UNL A   1      46.269  30.057  33.212  1.00  0.00     0.029 A 
ATOM     60  N   UNL A   1      46.012  28.117  32.178  1.00  0.00    -0.354 N 
ATOM     61  N   UNL A   1      45.253  27.047  28.258  1.00  0.00    -0.248 NA
ATOM     62  C   UNL A   1      45.221  25.170  29.650  1.00  0.00     0.031 C 
ATOM     63  C   UNL A   1      46.536  30.216  31.819  1.00  0.00     0.029 A 
ATOM     64  C   UNL A   1      46.338  28.995  31.181  1.00  0.00     0.049 A 
ATOM     65  H   UNL A   1      45.880  27.151  32.041  1.00  0.00     0.167 HD
ATOM     66  C   UNL A   1      46.001  27.325  29.384  1.00  0.00     0.074 A 
ATOM     67  C   UNL A   1      46.091  26.071  30.117  1.00  0.00     0.031 C 
ATOM     68  C   UNL A   1      46.186  28.611  29.796  1.00  0.00     0.037 A 
BRANCH  55  69
ATOM     69  C   UNL A   1      45.761  26.769  35.023  1.00  0.00     0.064 A 
ATOM     70  C   UNL A   1      46.716  26.965  36.040  1.00  0.00     0.173 A 
ATOM     71  C   UNL A   1      45.701  25.461  34.492  1.00  0.00     0.173 A 
ATOM     72  F   UNL A   1      46.873  28.172  36.605  1.00  0.00    -0.203 F 
ATOM     73  C   UNL A   1      47.591  25.950  36.436  1.00  0.00     0.198 A 
ATOM     74  C   UNL A   1      46.541  24.438  34.927  1.00  0.00     0.198 A 
ATOM     75  F   UNL A   1      44.921  25.135  33.455  1.00  0.00    -0.203 F 
ATOM     76  F   UNL A   1      48.562  26.218  37.318  1.00  0.00    -0.200 F 
ATOM     77  C   UNL A   1      47.507  24.690  35.875  1.00  0.00     0.200 A 
ATOM     78  F   UNL A   1      46.456  23.229  34.352  1.00  0.00    -0.200 F 
ATOM     79  F   UNL A   1      48.380  23.732  36.210  1.00  0.00    -0.200 F 
ENDBRANCH  55  69
BRANCH  56  80
ATOM     80  C   UNL A   1      42.960  24.386  27.307  1.00  0.00     0.064 A 
ATOM     81  C   UNL A   1      43.286  24.279  25.947  1.00  0.00     0.173 A 
ATOM     82  C   UNL A   1      42.584  23.197  27.961  1.00  0.00     0.173 A 
ATOM     83  F   UNL A   1      43.695  25.359  25.266  1.00  0.00    -0.203 F 
ATOM     84  C   UNL A   1      43.263  23.048  25.284  1.00  0.00     0.198 A 
ATOM     85  C   UNL A   1      42.555  21.970  27.298  1.00  0.00     0.198 A 
ATOM     86  F   UNL A   1      42.332  23.187  29.278  1.00  0.00    -0.203 F 
ATOM     87  F   UNL A   1      43.639  22.973  24.001  1.00  0.00    -0.200 F 
ATOM     88  C   UNL A   1      42.908  21.893  25.964  1.00  0.00     0.200 A 
ATOM     89  F   UNL A   1      42.247  20.855  27.976  1.00  0.00    -0.200 F 
ATOM     90  F   UNL A   1      42.947  20.705  25.346  1.00  0.00    -0.200 F 
ENDBRANCH  56  80
BRANCH  68  91
ATOM     91  C   UNL A   1      46.061  29.685  28.763  1.00  0.00     0.064 A 
ATOM     92  C   UNL A   1      44.853  30.303  28.404  1.00  0.00     0.173 A 
ATOM     93  C   UNL A   1      47.235  30.143  28.150  1.00  0.00     0.173 A 
ATOM     94  F   UNL A   1      43.703  29.968  29.003  1.00  0.00    -0.203 F 
ATOM     95  C   UNL A   1      44.823  31.309  27.439  1.00  0.00     0.198 A 
ATOM     96  C   UNL A   1      47.206  31.171  27.217  1.00  0.00     0.198 A 
ATOM     97  F   UNL A   1      48.419  29.610  28.487  1.00  0.00    -0.203 F 
ATOM     98  F   UNL A   1      43.657  31.872  27.090  1.00  0.00    -0.200 F 
ATOM     99  C   UNL A   1      46.001  31.746  26.851  1.00  0.00     0.200 A 
ATOM    100  F   UNL A   1      48.352  31.616  26.682  1.00  0.00    -0.200 F 
ATOM    101  F   UNL A   1      45.976  32.733  25.945  1.00  0.00    -0.200 F 
ENDBRANCH  68  91
ENDBRANCH  42  43
ENDBRANCH  35  37
ENDBRANCH  34  35
ENDBRANCH  33  34
ENDBRANCH  32  33
ENDBRANCH  31  32
ENDBRANCH  30  31
ENDBRANCH  29  30
ENDBRANCH  28  29
ENDBRANCH   1  28
TORSDOF 23
ENDMDL
MODEL 3
REMARK VINA RESULT:      -8.9      6.027     12.737
REMARK SMILES Cc1nc2scc(C)n2c1CNc1ccc(C(=O)OCCOCCOCCOCCOC(=O)c2ccc(-c3c4nc(c(-c5c(F)c(F)c(F)c(F)c5F)c5ccc([nH]5)c(-c5c(F)c(F)c(F)c(F)c5F)c5nc(c(-c6c(F)c(F)c(F)c(F)c6F)c6ccc3[nH]6)C=C5)C=C4)cc2)cc1
REMARK SMILES IDX 24 1 23 2 22 3 21 4 20 5 19 6 17 7 18 8 16 9 13 10 14 11
REMARK SMILES IDX 98 12 15 13 97 14 12 15 11 17 10 18 1 19 2 20 3 21 4 22 9 23
REMARK SMILES IDX 5 24 7 25 6 26 8 27 25 28 26 29 27 30 28 31 29 32 30 33
REMARK SMILES IDX 31 34 32 35 33 36 34 37 35 38 96 39 36 40 95 41 37 42 38 43
REMARK SMILES IDX 39 44 89 45 40 46 94 47 88 48 90 49 41 50 93 51 87 52 86 53
REMARK SMILES IDX 42 55 74 56 54 57 73 58 55 59 58 60 72 61 91 62 56 63 57 64
REMARK SMILES IDX 71 66 92 67 59 68 43 69 44 70 52 71 45 72 46 73 50 74 53 75
REMARK SMILES IDX 47 76 48 77 51 78 49 79 75 80 76 81 84 82 77 83 78 84 82 85
REMARK SMILES IDX 85 86 79 87 80 88 83 89 81 90 60 91 61 92 69 93 62 94 63 95
REMARK SMILES IDX 67 96 70 97 64 98 65 99 68 100 66 101
REMARK H PARENT 12 16 90 54 58 65
REMARK Flexibility Score: inf
ROOT
ATOM      1  C   UNL A   1      43.632  18.374  25.383  1.00  0.00     0.188 C 
ENDROOT
BRANCH   1   2
ATOM      2  C   UNL A   1      43.024  19.417  26.351  1.00  0.00     0.188 C 
BRANCH   2   3
ATOM      3  O   UNL A   1      42.073  20.275  25.747  1.00  0.00    -0.376 OA
BRANCH   3   4
ATOM      4  C   UNL A   1      40.783  20.369  26.308  1.00  0.00     0.202 C 
BRANCH   4   5
ATOM      5  C   UNL A   1      40.157  21.767  26.377  1.00  0.00     0.261 C 
BRANCH   5   6
ATOM      6  O   UNL A   1      38.772  21.840  26.020  1.00  0.00    -0.460 OA
BRANCH   6   7
ATOM      7  C   UNL A   1      38.188  23.049  26.118  1.00  0.00     0.338 C 
ATOM      8  O   UNL A   1      38.694  24.078  26.554  1.00  0.00    -0.246 OA
BRANCH   7   9
ATOM      9  C   UNL A   1      36.888  22.998  25.421  1.00  0.00     0.060 A 
ATOM     10  C   UNL A   1      34.555  22.947  23.880  1.00  0.00     0.034 A 
ATOM     11  C   UNL A   1      35.387  21.824  23.930  1.00  0.00     0.026 A 
ATOM     12  C   UNL A   1      34.819  24.021  24.743  1.00  0.00     0.026 A 
ATOM     13  C   UNL A   1      36.571  21.863  24.668  1.00  0.00     0.018 A 
ATOM     14  C   UNL A   1      35.976  24.049  25.520  1.00  0.00     0.018 A 
BRANCH  10  15
ATOM     15  N   UNL A   1      33.650  23.066  22.833  1.00  0.00    -0.379 N 
ATOM     16  H   UNL A   1      33.952  23.282  21.920  1.00  0.00     0.160 HD
BRANCH  15  17
ATOM     17  C   UNL A   1      32.240  22.860  23.128  1.00  0.00     0.169 C 
BRANCH  17  18
ATOM     18  C   UNL A   1      31.576  23.996  23.815  1.00  0.00     0.066 A 
ATOM     19  C   UNL A   1      31.023  22.985  26.141  1.00  0.00     0.069 C 
ATOM     20  C   UNL A   1      31.052  24.049  25.109  1.00  0.00     0.062 A 
ATOM     21  N   UNL A   1      30.555  25.298  25.406  1.00  0.00    -0.224 NA
ATOM     22  C   UNL A   1      30.795  25.982  24.325  1.00  0.00     0.194 A 
ATOM     23  N   UNL A   1      31.430  25.283  23.333  1.00  0.00    -0.290 N 
ATOM     24  S   UNL A   1      30.532  27.643  23.899  1.00  0.00    -0.105 S 
ATOM     25  C   UNL A   1      31.740  26.054  22.214  1.00  0.00     0.032 A 
ATOM     26  C   UNL A   1      31.329  27.331  22.365  1.00  0.00     0.090 A 
ATOM     27  C   UNL A   1      32.459  25.589  21.004  1.00  0.00     0.066 C 
ENDBRANCH  17  18
ENDBRANCH  15  17
ENDBRANCH  10  15
ENDBRANCH   7   9
ENDBRANCH   6   7
ENDBRANCH   5   6
ENDBRANCH   4   5
ENDBRANCH   3   4
ENDBRANCH   2   3
ENDBRANCH   1   2
BRANCH   1  28
ATOM     28  O   UNL A   1      45.034  18.127  25.342  1.00  0.00    -0.377 OA
BRANCH  28  29
ATOM     29  C   UNL A   1      45.952  19.207  25.231  1.00  0.00     0.188 C 
BRANCH  29  30
ATOM     30  C   UNL A   1      45.484  20.630  24.826  1.00  0.00     0.188 C 
BRANCH  30  31
ATOM     31  O   UNL A   1      46.182  21.700  25.442  1.00  0.00    -0.376 OA
BRANCH  31  32
ATOM     32  C   UNL A   1      45.530  22.854  25.931  1.00  0.00     0.202 C 
BRANCH  32  33
ATOM     33  C   UNL A   1      44.114  23.151  25.456  1.00  0.00     0.261 C 
BRANCH  33  34
ATOM     34  O   UNL A   1      43.856  24.526  25.270  1.00  0.00    -0.460 OA
BRANCH  34  35
ATOM     35  C   UNL A   1      43.043  25.070  26.180  1.00  0.00     0.338 C 
ATOM     36  O   UNL A   1      42.105  24.528  26.768  1.00  0.00    -0.246 OA
BRANCH  35  37
ATOM     37  C   UNL A   1      43.360  26.488  26.277  1.00  0.00     0.060 A 
ATOM     38  C   UNL A   1      44.183  26.854  27.339  1.00  0.00     0.016 A 
ATOM     39  C   UNL A   1      42.508  27.392  25.621  1.00  0.00     0.016 A 
ATOM     40  C   UNL A   1      43.915  28.049  27.951  1.00  0.00     0.010 A 
ATOM     41  C   UNL A   1      42.220  28.570  26.250  1.00  0.00     0.010 A 
ATOM     42  C   UNL A   1      42.856  28.823  27.459  1.00  0.00    -0.014 A 
BRANCH  42  43
ATOM     43  C   UNL A   1      42.480  29.983  28.225  1.00  0.00     0.031 A 
ATOM     44  C   UNL A   1      43.478  31.050  28.097  1.00  0.00     0.074 A 
ATOM     45  C   UNL A   1      41.327  30.047  28.913  1.00  0.00     0.049 A 
ATOM     46  N   UNL A   1      44.323  31.431  28.993  1.00  0.00    -0.248 NA
ATOM     47  C   UNL A   1      43.718  31.610  26.757  1.00  0.00     0.031 C 
ATOM     48  C   UNL A   1      40.185  29.131  28.821  1.00  0.00     0.029 A 
ATOM     49  N   UNL A   1      40.889  31.010  29.771  1.00  0.00    -0.354 N 
ATOM     50  C   UNL A   1      45.026  32.468  28.396  1.00  0.00     0.074 A 
ATOM     51  C   UNL A   1      44.791  32.369  26.983  1.00  0.00     0.031 C 
ATOM     52  C   UNL A   1      39.111  29.703  29.410  1.00  0.00     0.029 A 
ATOM     53  C   UNL A   1      39.529  30.946  30.037  1.00  0.00     0.049 A 
ATOM     54  H   UNL A   1      41.482  31.688  30.166  1.00  0.00     0.167 HD
ATOM     55  C   UNL A   1      45.417  33.523  29.156  1.00  0.00     0.037 A 
ATOM     56  C   UNL A   1      38.798  31.891  30.673  1.00  0.00     0.037 A 
ATOM     57  C   UNL A   1      45.372  33.190  30.558  1.00  0.00     0.049 A 
ATOM     58  C   UNL A   1      39.725  32.728  31.471  1.00  0.00     0.074 A 
ATOM     59  C   UNL A   1      46.157  32.492  31.448  1.00  0.00     0.029 A 
ATOM     60  N   UNL A   1      44.127  33.309  31.119  1.00  0.00    -0.354 N 
ATOM     61  N   UNL A   1      40.373  32.285  32.513  1.00  0.00    -0.248 NA
ATOM     62  C   UNL A   1      40.228  33.981  30.912  1.00  0.00     0.031 C 
ATOM     63  C   UNL A   1      45.307  32.117  32.532  1.00  0.00     0.029 A 
ATOM     64  C   UNL A   1      44.028  32.611  32.291  1.00  0.00     0.049 A 
ATOM     65  H   UNL A   1      43.393  33.834  30.725  1.00  0.00     0.167 HD
ATOM     66  C   UNL A   1      41.582  32.950  32.470  1.00  0.00     0.074 A 
ATOM     67  C   UNL A   1      41.371  34.094  31.596  1.00  0.00     0.031 C 
ATOM     68  C   UNL A   1      42.731  32.330  32.862  1.00  0.00     0.037 A 
BRANCH  55  69
ATOM     69  C   UNL A   1      45.315  34.964  28.706  1.00  0.00     0.064 A 
ATOM     70  C   UNL A   1      44.048  35.463  28.345  1.00  0.00     0.173 A 
ATOM     71  C   UNL A   1      46.414  35.760  28.310  1.00  0.00     0.173 A 
ATOM     72  F   UNL A   1      42.934  34.782  28.653  1.00  0.00    -0.203 F 
ATOM     73  C   UNL A   1      43.902  36.624  27.582  1.00  0.00     0.198 A 
ATOM     74  C   UNL A   1      46.261  36.945  27.594  1.00  0.00     0.198 A 
ATOM     75  F   UNL A   1      47.684  35.380  28.487  1.00  0.00    -0.203 F 
ATOM     76  F   UNL A   1      42.685  36.991  27.158  1.00  0.00    -0.200 F 
ATOM     77  C   UNL A   1      45.008  37.360  27.202  1.00  0.00     0.200 A 
ATOM     78  F   UNL A   1      47.350  37.631  27.218  1.00  0.00    -0.200 F 
ATOM     79  F   UNL A   1      44.876  38.440  26.422  1.00  0.00    -0.200 F 
ENDBRANCH  55  69
BRANCH  56  80
ATOM     80  C   UNL A   1      37.389  32.271  30.432  1.00  0.00     0.064 A 
ATOM     81  C   UNL A   1      36.407  32.086  31.416  1.00  0.00     0.173 A 
ATOM     82  C   UNL A   1      37.035  33.074  29.331  1.00  0.00     0.173 A 
ATOM     83  F   UNL A   1      36.681  31.370  32.515  1.00  0.00    -0.203 F 
ATOM     84  C   UNL A   1      35.150  32.691  31.317  1.00  0.00     0.198 A 
ATOM     85  C   UNL A   1      35.779  33.673  29.229  1.00  0.00     0.198 A 
ATOM     86  F   UNL A   1      37.934  33.371  28.380  1.00  0.00    -0.203 F 
ATOM     87  F   UNL A   1      34.257  32.542  32.305  1.00  0.00    -0.200 F 
ATOM     88  C   UNL A   1      34.842  33.493  30.229  1.00  0.00     0.200 A 
ATOM     89  F   UNL A   1      35.507  34.476  28.191  1.00  0.00    -0.200 F 
ATOM     90  F   UNL A   1      33.662  34.124  30.166  1.00  0.00    -0.200 F 
ENDBRANCH  56  80
BRANCH  68  91
ATOM     91  C   UNL A   1      42.601  31.190  33.821  1.00  0.00     0.064 A 
ATOM     92  C   UNL A   1      42.545  31.330  35.216  1.00  0.00     0.173 A 
ATOM     93  C   UNL A   1      42.472  29.900  33.290  1.00  0.00     0.173 A 
ATOM     94  F   UNL A   1      42.587  32.540  35.790  1.00  0.00    -0.203 F 
ATOM     95  C   UNL A   1      42.410  30.215  36.043  1.00  0.00     0.198 A 
ATOM     96  C   UNL A   1      42.299  28.795  34.114  1.00  0.00     0.198 A 
ATOM     97  F   UNL A   1      42.481  29.718  31.960  1.00  0.00    -0.203 F 
ATOM     98  F   UNL A   1      42.383  30.364  37.375  1.00  0.00    -0.200 F 
ATOM     99  C   UNL A   1      42.280  28.950  35.490  1.00  0.00     0.200 A 
ATOM    100  F   UNL A   1      42.134  27.580  33.572  1.00  0.00    -0.200 F 
ATOM    101  F   UNL A   1      42.119  27.882  36.283  1.00  0.00    -0.200 F 
ENDBRANCH  68  91
ENDBRANCH  42  43
ENDBRANCH  35  37
ENDBRANCH  34  35
ENDBRANCH  33  34
ENDBRANCH  32  33
ENDBRANCH  31  32
ENDBRANCH  30  31
ENDBRANCH  29  30
ENDBRANCH  28  29
ENDBRANCH   1  28
TORSDOF 23
ENDMDL
