MODEL 1
REMARK VINA RESULT:     -11.6      0.000      0.000
REMARK SMILES Cc1ccc(-c2cc(C(=O)OCCOCCOCCOCCOC(=O)c3ccc(-c4c5nc(c(-c6c(F)c(F)c(F)c(F)c6F)c6ccc([nH]6)c(-c6c(F)c(F)c(F)c(F)c6F)c6nc(c(-c7c(F)c(F)c(F)c(F)c7F)c7ccc4[nH]7)C=C6)C=C5)cc3)c3cc(C)ccc3n2)c(C)c1
REMARK SMILES IDX 18 1 17 2 16 3 15 4 14 5 13 6 12 7 11 8 9 9 10 10 8 11 6 12
REMARK SMILES IDX 7 13 96 14 95 15 89 16 94 17 90 18 93 19 91 20 92 21 5 22
REMARK SMILES IDX 1 23 2 24 3 25 99 26 4 27 97 28 98 29 19 30 20 31 21 32
REMARK SMILES IDX 22 33 23 34 24 35 25 36 26 37 27 38 88 39 28 40 87 41 29 42
REMARK SMILES IDX 30 43 31 44 81 45 32 46 86 47 80 48 82 49 33 50 85 51 79 52
REMARK SMILES IDX 78 53 34 55 66 56 46 57 65 58 47 59 50 60 64 61 83 62 48 63
REMARK SMILES IDX 49 64 63 66 84 67 51 68 35 69 36 70 44 71 37 72 38 73 42 74
REMARK SMILES IDX 45 75 39 76 40 77 43 78 41 79 67 80 68 81 76 82 69 83 70 84
REMARK SMILES IDX 74 85 77 86 71 87 72 88 75 89 73 90 52 91 53 92 61 93 54 94
REMARK SMILES IDX 55 95 59 96 62 97 56 98 57 99 60 100 58 101
REMARK H PARENT 82 54 50 65
REMARK Flexibility Score: inf
ROOT
ATOM      1  C   UNL A   1      32.862  36.065  30.619  1.00  0.00     0.188 C 
ENDROOT
BRANCH   1   2
ATOM      2  O   UNL A   1      32.668  34.955  29.746  1.00  0.00    -0.377 OA
BRANCH   2   3
ATOM      3  C   UNL A   1      33.775  34.402  29.052  1.00  0.00     0.188 C 
BRANCH   3   4
ATOM      4  C   UNL A   1      33.468  33.328  27.984  1.00  0.00     0.188 C 
BRANCH   4   5
ATOM      5  O   UNL A   1      34.573  32.503  27.672  1.00  0.00    -0.376 OA
BRANCH   5   6
ATOM      6  C   UNL A   1      34.695  31.201  28.210  1.00  0.00     0.202 C 
BRANCH   6   7
ATOM      7  C   UNL A   1      34.635  29.926  27.353  1.00  0.00     0.261 C 
BRANCH   7   8
ATOM      8  O   UNL A   1      33.437  29.718  26.610  1.00  0.00    -0.460 OA
BRANCH   8   9
ATOM      9  C   UNL A   1      32.634  28.702  26.988  1.00  0.00     0.338 C 
ATOM     10  O   UNL A   1      31.968  28.644  28.006  1.00  0.00    -0.246 OA
BRANCH   9  11
ATOM     11  C   UNL A   1      32.498  27.757  25.853  1.00  0.00     0.071 A 
ATOM     12  C   UNL A   1      33.114  25.625  24.980  1.00  0.00     0.072 A 
ATOM     13  C   UNL A   1      33.212  26.563  25.987  1.00  0.00     0.045 A 
ATOM     14  N   UNL A   1      32.384  25.838  23.863  1.00  0.00    -0.248 NA
ATOM     15  C   UNL A   1      31.699  26.987  23.733  1.00  0.00     0.072 A 
ATOM     16  C   UNL A   1      31.683  27.993  24.718  1.00  0.00     0.015 A 
ATOM     17  C   UNL A   1      30.980  27.183  22.562  1.00  0.00     0.029 A 
ATOM     18  C   UNL A   1      30.866  29.135  24.506  1.00  0.00     0.014 A 
ATOM     19  C   UNL A   1      30.193  28.318  22.355  1.00  0.00     0.005 A 
ATOM     20  C   UNL A   1      30.110  29.296  23.339  1.00  0.00    -0.050 A 
ATOM     21  C   UNL A   1      29.181  30.464  23.199  1.00  0.00     0.044 C 
BRANCH  12  22
ATOM     22  C   UNL A   1      33.889  24.380  25.016  1.00  0.00     0.003 A 
ATOM     23  C   UNL A   1      36.111  20.660  25.000  1.00  0.00     0.044 C 
ATOM     24  C   UNL A   1      35.360  21.959  24.996  1.00  0.00    -0.051 A 
ATOM     25  C   UNL A   1      35.713  23.005  24.141  1.00  0.00     0.004 A 
ATOM     26  C   UNL A   1      34.278  22.133  25.867  1.00  0.00     0.007 A 
ATOM     27  C   UNL A   1      34.986  24.201  24.153  1.00  0.00     0.011 A 
ATOM     28  C   UNL A   1      33.537  23.327  25.886  1.00  0.00    -0.041 A 
ATOM     29  C   UNL A   1      32.394  23.429  26.862  1.00  0.00     0.045 C 
ENDBRANCH  12  22
ENDBRANCH   9  11
ENDBRANCH   8   9
ENDBRANCH   7   8
ENDBRANCH   6   7
ENDBRANCH   5   6
ENDBRANCH   4   5
ENDBRANCH   3   4
ENDBRANCH   2   3
ENDBRANCH   1   2
BRANCH   1  30
ATOM     30  C   UNL A   1      32.630  35.990  32.151  1.00  0.00     0.188 C 
BRANCH  30  31
ATOM     31  O   UNL A   1      33.740  35.539  32.906  1.00  0.00    -0.376 OA
BRANCH  31  32
ATOM     32  C   UNL A   1      34.035  34.154  32.914  1.00  0.00     0.202 C 
BRANCH  32  33
ATOM     33  C   UNL A   1      35.375  33.727  32.303  1.00  0.00     0.261 C 
BRANCH  33  34
ATOM     34  O   UNL A   1      35.669  32.323  32.354  1.00  0.00    -0.460 OA
BRANCH  34  35
ATOM     35  C   UNL A   1      36.695  31.937  33.139  1.00  0.00     0.338 C 
ATOM     36  O   UNL A   1      36.741  31.946  34.359  1.00  0.00    -0.246 OA
BRANCH  35  37
ATOM     37  C   UNL A   1      37.715  31.323  32.266  1.00  0.00     0.060 A 
ATOM     38  C   UNL A   1      38.851  30.740  32.845  1.00  0.00     0.016 A 
ATOM     39  C   UNL A   1      37.541  31.317  30.881  1.00  0.00     0.016 A 
ATOM     40  C   UNL A   1      39.835  30.178  32.032  1.00  0.00     0.010 A 
ATOM     41  C   UNL A   1      38.537  30.772  30.067  1.00  0.00     0.010 A 
ATOM     42  C   UNL A   1      39.703  30.231  30.638  1.00  0.00    -0.014 A 
BRANCH  42  43
ATOM     43  C   UNL A   1      40.865  29.916  29.772  1.00  0.00     0.031 A 
ATOM     44  C   UNL A   1      40.956  28.534  29.186  1.00  0.00     0.074 A 
ATOM     45  C   UNL A   1      41.808  30.833  29.496  1.00  0.00     0.049 A 
ATOM     46  N   UNL A   1      41.903  27.993  28.463  1.00  0.00    -0.248 NA
ATOM     47  C   UNL A   1      39.819  27.637  29.454  1.00  0.00     0.031 C 
ATOM     48  C   UNL A   1      41.803  32.218  29.960  1.00  0.00     0.029 A 
ATOM     49  N   UNL A   1      42.963  30.727  28.760  1.00  0.00    -0.354 N 
ATOM     50  C   UNL A   1      41.478  26.699  28.193  1.00  0.00     0.074 A 
ATOM     51  C   UNL A   1      40.208  26.519  28.862  1.00  0.00     0.031 C 
ATOM     52  C   UNL A   1      42.911  32.832  29.507  1.00  0.00     0.029 A 
ATOM     53  C   UNL A   1      43.720  31.872  28.755  1.00  0.00     0.049 A 
ATOM     54  H   UNL A   1      43.223  29.906  28.281  1.00  0.00     0.167 HD
ATOM     55  C   UNL A   1      42.084  25.750  27.442  1.00  0.00     0.037 A 
ATOM     56  C   UNL A   1      44.938  32.103  28.227  1.00  0.00     0.037 A 
ATOM     57  C   UNL A   1      43.354  25.928  26.788  1.00  0.00     0.049 A 
ATOM     58  C   UNL A   1      45.644  30.991  27.487  1.00  0.00     0.074 A 
ATOM     59  C   UNL A   1      44.059  25.025  26.014  1.00  0.00     0.029 A 
ATOM     60  N   UNL A   1      44.110  27.089  26.840  1.00  0.00    -0.354 N 
ATOM     61  N   UNL A   1      45.231  29.775  27.221  1.00  0.00    -0.248 NA
ATOM     62  C   UNL A   1      46.988  31.288  26.971  1.00  0.00     0.031 C 
ATOM     63  C   UNL A   1      45.269  25.620  25.644  1.00  0.00     0.029 A 
ATOM     64  C   UNL A   1      45.287  26.917  26.130  1.00  0.00     0.049 A 
ATOM     65  H   UNL A   1      43.850  27.913  27.312  1.00  0.00     0.167 HD
ATOM     66  C   UNL A   1      46.242  29.180  26.474  1.00  0.00     0.074 A 
ATOM     67  C   UNL A   1      47.282  30.173  26.318  1.00  0.00     0.031 C 
ATOM     68  C   UNL A   1      46.304  27.926  25.963  1.00  0.00     0.037 A 
BRANCH  55  69
ATOM     69  C   UNL A   1      41.390  24.425  27.307  1.00  0.00     0.064 A 
ATOM     70  C   UNL A   1      40.233  24.277  26.528  1.00  0.00     0.173 A 
ATOM     71  C   UNL A   1      41.906  23.283  27.938  1.00  0.00     0.173 A 
ATOM     72  F   UNL A   1      39.689  25.340  25.916  1.00  0.00    -0.203 F 
ATOM     73  C   UNL A   1      39.603  23.040  26.407  1.00  0.00     0.198 A 
ATOM     74  C   UNL A   1      41.293  22.042  27.787  1.00  0.00     0.198 A 
ATOM     75  F   UNL A   1      43.012  23.368  28.693  1.00  0.00    -0.203 F 
ATOM     76  F   UNL A   1      38.470  22.933  25.699  1.00  0.00    -0.200 F 
ATOM     77  C   UNL A   1      40.139  21.923  27.029  1.00  0.00     0.200 A 
ATOM     78  F   UNL A   1      41.822  20.960  28.378  1.00  0.00    -0.200 F 
ATOM     79  F   UNL A   1      39.538  20.732  26.903  1.00  0.00    -0.200 F 
ENDBRANCH  55  69
BRANCH  56  80
ATOM     80  C   UNL A   1      45.591  33.432  28.382  1.00  0.00     0.064 A 
ATOM     81  C   UNL A   1      46.445  33.696  29.463  1.00  0.00     0.173 A 
ATOM     82  C   UNL A   1      45.330  34.483  27.489  1.00  0.00     0.173 A 
ATOM     83  F   UNL A   1      46.706  32.734  30.360  1.00  0.00    -0.203 F 
ATOM     84  C   UNL A   1      46.983  34.966  29.664  1.00  0.00     0.198 A 
ATOM     85  C   UNL A   1      45.898  35.743  27.671  1.00  0.00     0.198 A 
ATOM     86  F   UNL A   1      44.519  34.288  26.439  1.00  0.00    -0.203 F 
ATOM     87  F   UNL A   1      47.739  35.207  30.743  1.00  0.00    -0.200 F 
ATOM     88  C   UNL A   1      46.712  35.987  28.766  1.00  0.00     0.200 A 
ATOM     89  F   UNL A   1      45.644  36.722  26.793  1.00  0.00    -0.200 F 
ATOM     90  F   UNL A   1      47.225  37.210  28.962  1.00  0.00    -0.200 F 
ENDBRANCH  56  80
BRANCH  68  91
ATOM     91  C   UNL A   1      47.505  27.571  25.132  1.00  0.00     0.064 A 
ATOM     92  C   UNL A   1      47.538  27.780  23.745  1.00  0.00     0.173 A 
ATOM     93  C   UNL A   1      48.658  27.052  25.742  1.00  0.00     0.173 A 
ATOM     94  F   UNL A   1      46.459  28.261  23.109  1.00  0.00    -0.203 F 
ATOM     95  C   UNL A   1      48.667  27.453  22.997  1.00  0.00     0.198 A 
ATOM     96  C   UNL A   1      49.798  26.762  24.999  1.00  0.00     0.198 A 
ATOM     97  F   UNL A   1      48.686  26.842  27.067  1.00  0.00    -0.203 F 
ATOM     98  F   UNL A   1      48.654  27.609  21.667  1.00  0.00    -0.200 F 
ATOM     99  C   UNL A   1      49.799  26.954  23.625  1.00  0.00     0.200 A 
ATOM    100  F   UNL A   1      50.896  26.297  25.610  1.00  0.00    -0.200 F 
ATOM    101  F   UNL A   1      50.887  26.650  22.905  1.00  0.00    -0.200 F 
ENDBRANCH  68  91
ENDBRANCH  42  43
ENDBRANCH  35  37
ENDBRANCH  34  35
ENDBRANCH  33  34
ENDBRANCH  32  33
ENDBRANCH  31  32
ENDBRANCH  30  31
ENDBRANCH   1  30
TORSDOF 21
ENDMDL
MODEL 2
REMARK VINA RESULT:     -10.6      5.563     11.042
REMARK SMILES Cc1ccc(-c2cc(C(=O)OCCOCCOCCOCCOC(=O)c3ccc(-c4c5nc(c(-c6c(F)c(F)c(F)c(F)c6F)c6ccc([nH]6)c(-c6c(F)c(F)c(F)c(F)c6F)c6nc(c(-c7c(F)c(F)c(F)c(F)c7F)c7ccc4[nH]7)C=C6)C=C5)cc3)c3cc(C)ccc3n2)c(C)c1
REMARK SMILES IDX 18 1 17 2 16 3 15 4 14 5 13 6 12 7 11 8 9 9 10 10 8 11 6 12
REMARK SMILES IDX 7 13 96 14 95 15 89 16 94 17 90 18 93 19 91 20 92 21 5 22
REMARK SMILES IDX 1 23 2 24 3 25 99 26 4 27 97 28 98 29 19 30 20 31 21 32
REMARK SMILES IDX 22 33 23 34 24 35 25 36 26 37 27 38 88 39 28 40 87 41 29 42
REMARK SMILES IDX 30 43 31 44 81 45 32 46 86 47 80 48 82 49 33 50 85 51 79 52
REMARK SMILES IDX 78 53 34 55 66 56 46 57 65 58 47 59 50 60 64 61 83 62 48 63
REMARK SMILES IDX 49 64 63 66 84 67 51 68 35 69 36 70 44 71 37 72 38 73 42 74
REMARK SMILES IDX 45 75 39 76 40 77 43 78 41 79 67 80 68 81 76 82 69 83 70 84
REMARK SMILES IDX 74 85 77 86 71 87 72 88 75 89 73 90 52 91 53 92 61 93 54 94
REMARK SMILES IDX 55 95 59 96 62 97 56 98 57 99 60 100 58 101
REMARK H PARENT 82 54 50 65
REMARK Flexibility Score: inf
ROOT
ATOM      1  C   UNL A   1      43.668  21.793  26.478  1.00  0.00     0.188 C 
ENDROOT
BRANCH   1   2
ATOM      2  O   UNL A   1      43.073  23.069  26.703  1.00  0.00    -0.377 OA
BRANCH   2   3
ATOM      3  C   UNL A   1      41.690  23.258  26.445  1.00  0.00     0.188 C 
BRANCH   3   4
ATOM      4  C   UNL A   1      40.794  22.000  26.475  1.00  0.00     0.188 C 
BRANCH   4   5
ATOM      5  O   UNL A   1      39.453  22.265  26.839  1.00  0.00    -0.376 OA
BRANCH   5   6
ATOM      6  C   UNL A   1      38.474  22.577  25.869  1.00  0.00     0.202 C 
BRANCH   6   7
ATOM      7  C   UNL A   1      37.137  21.828  25.749  1.00  0.00     0.261 C 
BRANCH   7   8
ATOM      8  O   UNL A   1      35.956  22.610  25.907  1.00  0.00    -0.460 OA
BRANCH   8   9
ATOM      9  C   UNL A   1      34.852  21.992  26.374  1.00  0.00     0.338 C 
ATOM     10  O   UNL A   1      34.645  21.649  27.525  1.00  0.00    -0.246 OA
BRANCH   9  11
ATOM     11  C   UNL A   1      33.817  22.003  25.313  1.00  0.00     0.071 A 
ATOM     12  C   UNL A   1      32.277  23.338  24.075  1.00  0.00     0.072 A 
ATOM     13  C   UNL A   1      33.232  23.248  25.066  1.00  0.00     0.045 A 
ATOM     14  N   UNL A   1      31.869  22.263  23.366  1.00  0.00    -0.248 NA
ATOM     15  C   UNL A   1      32.428  21.064  23.605  1.00  0.00     0.072 A 
ATOM     16  C   UNL A   1      33.448  20.864  24.555  1.00  0.00     0.015 A 
ATOM     17  C   UNL A   1      31.967  19.977  22.876  1.00  0.00     0.029 A 
ATOM     18  C   UNL A   1      34.017  19.568  24.673  1.00  0.00     0.014 A 
ATOM     19  C   UNL A   1      32.521  18.703  23.011  1.00  0.00     0.005 A 
ATOM     20  C   UNL A   1      33.571  18.492  23.897  1.00  0.00    -0.050 A 
ATOM     21  C   UNL A   1      34.268  17.167  23.977  1.00  0.00     0.044 C 
BRANCH  12  22
ATOM     22  C   UNL A   1      31.570  24.595  23.807  1.00  0.00     0.003 A 
ATOM     23  C   UNL A   1      29.376  28.230  22.943  1.00  0.00     0.044 C 
ATOM     24  C   UNL A   1      30.127  26.971  23.264  1.00  0.00    -0.051 A 
ATOM     25  C   UNL A   1      29.703  26.104  24.273  1.00  0.00     0.004 A 
ATOM     26  C   UNL A   1      31.278  26.650  22.536  1.00  0.00     0.007 A 
ATOM     27  C   UNL A   1      30.417  24.932  24.541  1.00  0.00     0.011 A 
ATOM     28  C   UNL A   1      32.003  25.474  22.792  1.00  0.00    -0.041 A 
ATOM     29  C   UNL A   1      33.235  25.214  21.966  1.00  0.00     0.045 C 
ENDBRANCH  12  22
ENDBRANCH   9  11
ENDBRANCH   8   9
ENDBRANCH   7   8
ENDBRANCH   6   7
ENDBRANCH   5   6
ENDBRANCH   4   5
ENDBRANCH   3   4
ENDBRANCH   2   3
ENDBRANCH   1   2
BRANCH   1  30
ATOM     30  C   UNL A   1      44.468  21.445  25.196  1.00  0.00     0.188 C 
BRANCH  30  31
ATOM     31  O   UNL A   1      45.836  21.809  25.224  1.00  0.00    -0.376 OA
BRANCH  31  32
ATOM     32  C   UNL A   1      46.241  22.971  24.523  1.00  0.00     0.202 C 
BRANCH  32  33
ATOM     33  C   UNL A   1      46.278  24.283  25.317  1.00  0.00     0.261 C 
BRANCH  33  34
ATOM     34  O   UNL A   1      45.289  25.261  24.961  1.00  0.00    -0.460 OA
BRANCH  34  35
ATOM     35  C   UNL A   1      45.645  26.558  25.055  1.00  0.00     0.338 C 
ATOM     36  O   UNL A   1      46.409  27.173  24.328  1.00  0.00    -0.246 OA
BRANCH  35  37
ATOM     37  C   UNL A   1      44.806  27.174  26.101  1.00  0.00     0.060 A 
ATOM     38  C   UNL A   1      45.025  28.512  26.456  1.00  0.00     0.016 A 
ATOM     39  C   UNL A   1      43.799  26.431  26.720  1.00  0.00     0.016 A 
ATOM     40  C   UNL A   1      44.257  29.101  27.460  1.00  0.00     0.010 A 
ATOM     41  C   UNL A   1      43.045  27.015  27.740  1.00  0.00     0.010 A 
ATOM     42  C   UNL A   1      43.293  28.342  28.137  1.00  0.00    -0.014 A 
BRANCH  42  43
ATOM     43  C   UNL A   1      42.691  28.857  29.391  1.00  0.00     0.031 A 
ATOM     44  C   UNL A   1      41.288  29.396  29.332  1.00  0.00     0.074 A 
ATOM     45  C   UNL A   1      43.361  28.834  30.555  1.00  0.00     0.049 A 
ATOM     46  N   UNL A   1      40.573  29.967  30.267  1.00  0.00    -0.248 NA
ATOM     47  C   UNL A   1      40.599  29.276  28.036  1.00  0.00     0.031 C 
ATOM     48  C   UNL A   1      44.703  28.289  30.750  1.00  0.00     0.029 A 
ATOM     49  N   UNL A   1      42.998  29.293  31.798  1.00  0.00    -0.354 N 
ATOM     50  C   UNL A   1      39.354  30.272  29.674  1.00  0.00     0.074 A 
ATOM     51  C   UNL A   1      39.439  29.862  28.290  1.00  0.00     0.031 C 
ATOM     52  C   UNL A   1      45.056  28.456  32.037  1.00  0.00     0.029 A 
ATOM     53  C   UNL A   1      43.983  29.153  32.745  1.00  0.00     0.049 A 
ATOM     54  H   UNL A   1      42.116  29.684  31.991  1.00  0.00     0.167 HD
ATOM     55  C   UNL A   1      38.257  30.829  30.237  1.00  0.00     0.037 A 
ATOM     56  C   UNL A   1      44.017  29.570  34.026  1.00  0.00     0.037 A 
ATOM     57  C   UNL A   1      38.180  31.247  31.612  1.00  0.00     0.049 A 
ATOM     58  C   UNL A   1      42.819  30.290  34.600  1.00  0.00     0.074 A 
ATOM     59  C   UNL A   1      37.118  31.833  32.278  1.00  0.00     0.029 A 
ATOM     60  N   UNL A   1      39.212  31.127  32.531  1.00  0.00    -0.354 N 
ATOM     61  N   UNL A   1      41.665  30.562  34.041  1.00  0.00    -0.248 NA
ATOM     62  C   UNL A   1      42.932  30.760  35.989  1.00  0.00     0.031 C 
ATOM     63  C   UNL A   1      37.527  32.120  33.584  1.00  0.00     0.029 A 
ATOM     64  C   UNL A   1      38.820  31.649  33.752  1.00  0.00     0.049 A 
ATOM     65  H   UNL A   1      40.093  30.730  32.342  1.00  0.00     0.167 HD
ATOM     66  C   UNL A   1      40.903  31.193  35.018  1.00  0.00     0.074 A 
ATOM     67  C   UNL A   1      41.721  31.251  36.210  1.00  0.00     0.031 C 
ATOM     68  C   UNL A   1      39.640  31.679  34.938  1.00  0.00     0.037 A 
BRANCH  55  69
ATOM     69  C   UNL A   1      37.058  31.041  29.358  1.00  0.00     0.064 A 
ATOM     70  C   UNL A   1      36.751  32.301  28.823  1.00  0.00     0.173 A 
ATOM     71  C   UNL A   1      36.224  29.965  29.020  1.00  0.00     0.173 A 
ATOM     72  F   UNL A   1      37.508  33.367  29.129  1.00  0.00    -0.203 F 
ATOM     73  C   UNL A   1      35.639  32.482  28.005  1.00  0.00     0.198 A 
ATOM     74  C   UNL A   1      35.133  30.143  28.173  1.00  0.00     0.198 A 
ATOM     75  F   UNL A   1      36.473  28.738  29.501  1.00  0.00    -0.203 F 
ATOM     76  F   UNL A   1      35.337  33.705  27.547  1.00  0.00    -0.200 F 
ATOM     77  C   UNL A   1      34.837  31.401  27.674  1.00  0.00     0.200 A 
ATOM     78  F   UNL A   1      34.367  29.093  27.843  1.00  0.00    -0.200 F 
ATOM     79  F   UNL A   1      33.773  31.574  26.877  1.00  0.00    -0.200 F 
ENDBRANCH  55  69
BRANCH  56  80
ATOM     80  C   UNL A   1      45.225  29.339  34.865  1.00  0.00     0.064 A 
ATOM     81  C   UNL A   1      46.272  30.273  34.897  1.00  0.00     0.173 A 
ATOM     82  C   UNL A   1      45.387  28.158  35.604  1.00  0.00     0.173 A 
ATOM     83  F   UNL A   1      46.180  31.406  34.187  1.00  0.00    -0.203 F 
ATOM     84  C   UNL A   1      47.445  30.017  35.606  1.00  0.00     0.198 A 
ATOM     85  C   UNL A   1      46.545  27.920  36.342  1.00  0.00     0.198 A 
ATOM     86  F   UNL A   1      44.419  27.229  35.608  1.00  0.00    -0.203 F 
ATOM     87  F   UNL A   1      48.455  30.896  35.563  1.00  0.00    -0.200 F 
ATOM     88  C   UNL A   1      47.579  28.844  36.331  1.00  0.00     0.200 A 
ATOM     89  F   UNL A   1      46.664  26.790  37.051  1.00  0.00    -0.200 F 
ATOM     90  F   UNL A   1      48.709  28.595  37.008  1.00  0.00    -0.200 F 
ENDBRANCH  56  80
BRANCH  68  91
ATOM     91  C   UNL A   1      39.036  32.260  36.186  1.00  0.00     0.064 A 
ATOM     92  C   UNL A   1      39.235  33.598  36.556  1.00  0.00     0.173 A 
ATOM     93  C   UNL A   1      38.210  31.471  37.004  1.00  0.00     0.173 A 
ATOM     94  F   UNL A   1      40.026  34.392  35.818  1.00  0.00    -0.203 F 
ATOM     95  C   UNL A   1      38.656  34.116  37.712  1.00  0.00     0.198 A 
ATOM     96  C   UNL A   1      37.602  32.002  38.138  1.00  0.00     0.198 A 
ATOM     97  F   UNL A   1      37.977  30.187  36.692  1.00  0.00    -0.203 F 
ATOM     98  F   UNL A   1      38.906  35.381  38.074  1.00  0.00    -0.200 F 
ATOM     99  C   UNL A   1      37.833  33.321  38.497  1.00  0.00     0.200 A 
ATOM    100  F   UNL A   1      36.794  31.237  38.884  1.00  0.00    -0.200 F 
ATOM    101  F   UNL A   1      37.270  33.824  39.603  1.00  0.00    -0.200 F 
ENDBRANCH  68  91
ENDBRANCH  42  43
ENDBRANCH  35  37
ENDBRANCH  34  35
ENDBRANCH  33  34
ENDBRANCH  32  33
ENDBRANCH  31  32
ENDBRANCH  30  31
ENDBRANCH   1  30
TORSDOF 21
ENDMDL
MODEL 3
REMARK VINA RESULT:     -10.1      4.002      7.930
REMARK SMILES Cc1ccc(-c2cc(C(=O)OCCOCCOCCOCCOC(=O)c3ccc(-c4c5nc(c(-c6c(F)c(F)c(F)c(F)c6F)c6ccc([nH]6)c(-c6c(F)c(F)c(F)c(F)c6F)c6nc(c(-c7c(F)c(F)c(F)c(F)c7F)c7ccc4[nH]7)C=C6)C=C5)cc3)c3cc(C)ccc3n2)c(C)c1
REMARK SMILES IDX 18 1 17 2 16 3 15 4 14 5 13 6 12 7 11 8 9 9 10 10 8 11 6 12
REMARK SMILES IDX 7 13 96 14 95 15 89 16 94 17 90 18 93 19 91 20 92 21 5 22
REMARK SMILES IDX 1 23 2 24 3 25 99 26 4 27 97 28 98 29 19 30 20 31 21 32
REMARK SMILES IDX 22 33 23 34 24 35 25 36 26 37 27 38 88 39 28 40 87 41 29 42
REMARK SMILES IDX 30 43 31 44 81 45 32 46 86 47 80 48 82 49 33 50 85 51 79 52
REMARK SMILES IDX 78 53 34 55 66 56 46 57 65 58 47 59 50 60 64 61 83 62 48 63
REMARK SMILES IDX 49 64 63 66 84 67 51 68 35 69 36 70 44 71 37 72 38 73 42 74
REMARK SMILES IDX 45 75 39 76 40 77 43 78 41 79 67 80 68 81 76 82 69 83 70 84
REMARK SMILES IDX 74 85 77 86 71 87 72 88 75 89 73 90 52 91 53 92 61 93 54 94
REMARK SMILES IDX 55 95 59 96 62 97 56 98 57 99 60 100 58 101
REMARK H PARENT 82 54 50 65
REMARK Flexibility Score: inf
ROOT
ATOM      1  C   UNL A   1      34.541  35.642  34.039  1.00  0.00     0.188 C 
ENDROOT
BRANCH   1   2
ATOM      2  O   UNL A   1      33.617  35.992  33.012  1.00  0.00    -0.377 OA
BRANCH   2   3
ATOM      3  C   UNL A   1      33.506  37.344  32.594  1.00  0.00     0.188 C 
BRANCH   3   4
ATOM      4  C   UNL A   1      33.372  37.599  31.076  1.00  0.00     0.188 C 
BRANCH   4   5
ATOM      5  O   UNL A   1      32.440  36.750  30.436  1.00  0.00    -0.376 OA
BRANCH   5   6
ATOM      6  C   UNL A   1      32.863  35.696  29.593  1.00  0.00     0.202 C 
BRANCH   6   7
ATOM      7  C   UNL A   1      34.036  34.763  29.933  1.00  0.00     0.261 C 
BRANCH   7   8
ATOM      8  O   UNL A   1      33.940  33.425  29.453  1.00  0.00    -0.460 OA
BRANCH   8   9
ATOM      9  C   UNL A   1      34.234  33.201  28.155  1.00  0.00     0.338 C 
ATOM     10  O   UNL A   1      34.379  34.046  27.289  1.00  0.00    -0.246 OA
BRANCH   9  11
ATOM     11  C   UNL A   1      34.589  31.772  27.988  1.00  0.00     0.071 A 
ATOM     12  C   UNL A   1      33.890  29.652  27.149  1.00  0.00     0.072 A 
ATOM     13  C   UNL A   1      33.617  30.988  27.361  1.00  0.00     0.045 A 
ATOM     14  N   UNL A   1      35.041  29.076  27.558  1.00  0.00    -0.248 NA
ATOM     15  C   UNL A   1      35.976  29.829  28.164  1.00  0.00     0.072 A 
ATOM     16  C   UNL A   1      35.829  31.212  28.386  1.00  0.00     0.015 A 
ATOM     17  C   UNL A   1      37.136  29.200  28.593  1.00  0.00     0.029 A 
ATOM     18  C   UNL A   1      36.911  31.921  28.970  1.00  0.00     0.014 A 
ATOM     19  C   UNL A   1      38.188  29.903  29.183  1.00  0.00     0.005 A 
ATOM     20  C   UNL A   1      38.093  31.279  29.356  1.00  0.00    -0.050 A 
ATOM     21  C   UNL A   1      39.251  32.080  29.873  1.00  0.00     0.044 C 
BRANCH  12  22
ATOM     22  C   UNL A   1      32.891  28.752  26.561  1.00  0.00     0.003 A 
ATOM     23  C   UNL A   1      30.025  25.979  24.867  1.00  0.00     0.044 C 
ATOM     24  C   UNL A   1      31.004  26.942  25.472  1.00  0.00    -0.051 A 
ATOM     25  C   UNL A   1      31.051  27.168  26.849  1.00  0.00     0.004 A 
ATOM     26  C   UNL A   1      31.896  27.632  24.643  1.00  0.00     0.007 A 
ATOM     27  C   UNL A   1      31.982  28.064  27.386  1.00  0.00     0.011 A 
ATOM     28  C   UNL A   1      32.840  28.530  25.168  1.00  0.00    -0.041 A 
ATOM     29  C   UNL A   1      33.754  29.235  24.201  1.00  0.00     0.045 C 
ENDBRANCH  12  22
ENDBRANCH   9  11
ENDBRANCH   8   9
ENDBRANCH   7   8
ENDBRANCH   6   7
ENDBRANCH   5   6
ENDBRANCH   4   5
ENDBRANCH   3   4
ENDBRANCH   2   3
ENDBRANCH   1   2
BRANCH   1  30
ATOM     30  C   UNL A   1      35.077  34.201  34.243  1.00  0.00     0.188 C 
BRANCH  30  31
ATOM     31  O   UNL A   1      34.296  33.180  33.649  1.00  0.00    -0.376 OA
BRANCH  31  32
ATOM     32  C   UNL A   1      34.819  32.496  32.526  1.00  0.00     0.202 C 
BRANCH  32  33
ATOM     33  C   UNL A   1      36.338  32.289  32.486  1.00  0.00     0.261 C 
BRANCH  33  34
ATOM     34  O   UNL A   1      36.837  31.151  33.205  1.00  0.00    -0.460 OA
BRANCH  34  35
ATOM     35  C   UNL A   1      37.680  31.391  34.229  1.00  0.00     0.338 C 
ATOM     36  O   UNL A   1      37.418  31.915  35.300  1.00  0.00    -0.246 OA
BRANCH  35  37
ATOM     37  C   UNL A   1      38.967  30.745  33.905  1.00  0.00     0.060 A 
ATOM     38  C   UNL A   1      40.112  31.094  34.635  1.00  0.00     0.016 A 
ATOM     39  C   UNL A   1      39.036  29.789  32.890  1.00  0.00     0.016 A 
ATOM     40  C   UNL A   1      41.340  30.510  34.325  1.00  0.00     0.010 A 
ATOM     41  C   UNL A   1      40.270  29.221  32.566  1.00  0.00     0.010 A 
ATOM     42  C   UNL A   1      41.432  29.604  33.260  1.00  0.00    -0.014 A 
BRANCH  42  43
ATOM     43  C   UNL A   1      42.763  29.214  32.732  1.00  0.00     0.031 A 
ATOM     44  C   UNL A   1      43.327  30.004  31.584  1.00  0.00     0.074 A 
ATOM     45  C   UNL A   1      43.462  28.198  33.266  1.00  0.00     0.049 A 
ATOM     46  N   UNL A   1      44.428  29.817  30.902  1.00  0.00    -0.248 NA
ATOM     47  C   UNL A   1      42.537  31.166  31.143  1.00  0.00     0.031 C 
ATOM     48  C   UNL A   1      43.047  27.394  34.413  1.00  0.00     0.029 A 
ATOM     49  N   UNL A   1      44.675  27.666  32.900  1.00  0.00    -0.354 N 
ATOM     50  C   UNL A   1      44.461  30.833  29.956  1.00  0.00     0.074 A 
ATOM     51  C   UNL A   1      43.253  31.610  30.122  1.00  0.00     0.031 C 
ATOM     52  C   UNL A   1      43.985  26.460  34.650  1.00  0.00     0.029 A 
ATOM     53  C   UNL A   1      45.046  26.576  33.650  1.00  0.00     0.049 A 
ATOM     54  H   UNL A   1      45.225  28.031  32.171  1.00  0.00     0.167 HD
ATOM     55  C   UNL A   1      45.420  31.104  29.041  1.00  0.00     0.037 A 
ATOM     56  C   UNL A   1      46.106  25.756  33.518  1.00  0.00     0.037 A 
ATOM     57  C   UNL A   1      46.616  30.321  28.869  1.00  0.00     0.049 A 
ATOM     58  C   UNL A   1      47.107  26.014  32.415  1.00  0.00     0.074 A 
ATOM     59  C   UNL A   1      47.645  30.504  27.963  1.00  0.00     0.029 A 
ATOM     60  N   UNL A   1      46.937  29.200  29.620  1.00  0.00    -0.354 N 
ATOM     61  N   UNL A   1      47.142  26.985  31.534  1.00  0.00    -0.248 NA
ATOM     62  C   UNL A   1      48.219  25.060  32.293  1.00  0.00     0.031 C 
ATOM     63  C   UNL A   1      48.562  29.461  28.128  1.00  0.00     0.029 A 
ATOM     64  C   UNL A   1      48.139  28.668  29.182  1.00  0.00     0.049 A 
ATOM     65  H   UNL A   1      46.392  28.837  30.355  1.00  0.00     0.167 HD
ATOM     66  C   UNL A   1      48.296  26.782  30.785  1.00  0.00     0.074 A 
ATOM     67  C   UNL A   1      48.939  25.604  31.324  1.00  0.00     0.031 C 
ATOM     68  C   UNL A   1      48.780  27.506  29.745  1.00  0.00     0.037 A 
BRANCH  55  69
ATOM     69  C   UNL A   1      45.204  32.284  28.137  1.00  0.00     0.064 A 
ATOM     70  C   UNL A   1      44.470  32.173  26.946  1.00  0.00     0.173 A 
ATOM     71  C   UNL A   1      45.707  33.547  28.481  1.00  0.00     0.173 A 
ATOM     72  F   UNL A   1      43.981  30.984  26.561  1.00  0.00    -0.203 F 
ATOM     73  C   UNL A   1      44.273  33.278  26.120  1.00  0.00     0.198 A 
ATOM     74  C   UNL A   1      45.478  34.656  27.671  1.00  0.00     0.198 A 
ATOM     75  F   UNL A   1      46.413  33.709  29.611  1.00  0.00    -0.203 F 
ATOM     76  F   UNL A   1      43.613  33.137  24.962  1.00  0.00    -0.200 F 
ATOM     77  C   UNL A   1      44.769  34.518  26.488  1.00  0.00     0.200 A 
ATOM     78  F   UNL A   1      45.947  35.858  28.036  1.00  0.00    -0.200 F 
ATOM     79  F   UNL A   1      44.569  35.582  25.698  1.00  0.00    -0.200 F 
ENDBRANCH  55  69
BRANCH  56  80
ATOM     80  C   UNL A   1      46.285  24.597  34.435  1.00  0.00     0.064 A 
ATOM     81  C   UNL A   1      45.650  23.372  34.185  1.00  0.00     0.173 A 
ATOM     82  C   UNL A   1      47.044  24.706  35.610  1.00  0.00     0.173 A 
ATOM     83  F   UNL A   1      44.890  23.223  33.090  1.00  0.00    -0.203 F 
ATOM     84  C   UNL A   1      45.738  22.315  35.090  1.00  0.00     0.198 A 
ATOM     85  C   UNL A   1      47.161  23.636  36.496  1.00  0.00     0.198 A 
ATOM     86  F   UNL A   1      47.672  25.855  35.902  1.00  0.00    -0.203 F 
ATOM     87  F   UNL A   1      45.064  21.181  34.858  1.00  0.00    -0.200 F 
ATOM     88  C   UNL A   1      46.497  22.446  36.242  1.00  0.00     0.200 A 
ATOM     89  F   UNL A   1      47.907  23.765  37.601  1.00  0.00    -0.200 F 
ATOM     90  F   UNL A   1      46.577  21.433  37.115  1.00  0.00    -0.200 F 
ENDBRANCH  56  80
BRANCH  68  91
ATOM     91  C   UNL A   1      50.100  27.087  29.160  1.00  0.00     0.064 A 
ATOM     92  C   UNL A   1      50.186  26.201  28.076  1.00  0.00     0.173 A 
ATOM     93  C   UNL A   1      51.297  27.617  29.668  1.00  0.00     0.173 A 
ATOM     94  F   UNL A   1      49.074  25.655  27.561  1.00  0.00    -0.203 F 
ATOM     95  C   UNL A   1      51.420  25.836  27.545  1.00  0.00     0.198 A 
ATOM     96  C   UNL A   1      52.527  27.281  29.110  1.00  0.00     0.198 A 
ATOM     97  F   UNL A   1      51.273  28.478  30.697  1.00  0.00    -0.203 F 
ATOM     98  F   UNL A   1      51.480  24.944  26.546  1.00  0.00    -0.200 F 
ATOM     99  C   UNL A   1      52.588  26.383  28.055  1.00  0.00     0.200 A 
ATOM    100  F   UNL A   1      53.652  27.824  29.593  1.00  0.00    -0.200 F 
ATOM    101  F   UNL A   1      53.774  26.038  27.536  1.00  0.00    -0.200 F 
ENDBRANCH  68  91
ENDBRANCH  42  43
ENDBRANCH  35  37
ENDBRANCH  34  35
ENDBRANCH  33  34
ENDBRANCH  32  33
ENDBRANCH  31  32
ENDBRANCH  30  31
ENDBRANCH   1  30
TORSDOF 21
ENDMDL
