MODEL 1
REMARK VINA RESULT:     -10.9      0.000      0.000
REMARK SMILES COc1ccc(C(F)(F)F)cc1-c1cccnc1C(=O)OCCOCCOCCOCCOC(=O)c1ccc(-c2c3nc(c(-c4c(F)c(F)c(F)c(F)c4F)c4ccc([nH]4)c(-c4c(F)c(F)c(F)c(F)c4F)c4nc(c(-c5c(F)c(F)c(F)c(F)c5F)c5ccc2[nH]5)C=C4)C=C3)cc1
REMARK SMILES IDX 27 1 26 2 25 3 24 4 23 5 22 6 21 7 19 8 20 9 18 10 13 11
REMARK SMILES IDX 14 12 15 13 17 14 16 15 12 16 3 17 4 18 5 19 11 20 6 21 2 22
REMARK SMILES IDX 1 23 7 24 8 25 9 26 10 27 28 28 29 29 30 30 31 31 32 32
REMARK SMILES IDX 33 33 34 34 35 35 36 36 37 37 98 38 38 39 97 40 39 41 40 42
REMARK SMILES IDX 41 43 91 44 42 45 96 46 90 47 92 48 43 49 95 50 89 51 88 52
REMARK SMILES IDX 44 54 76 55 56 56 75 57 57 58 60 59 74 60 93 61 58 62 59 63
REMARK SMILES IDX 73 65 94 66 61 67 45 68 46 69 54 70 47 71 48 72 52 73 55 74
REMARK SMILES IDX 49 75 50 76 53 77 51 78 77 79 78 80 86 81 79 82 80 83 84 84
REMARK SMILES IDX 87 85 81 86 82 87 85 88 83 89 62 90 63 91 71 92 64 93 65 94
REMARK SMILES IDX 69 95 72 96 66 97 67 98 70 99 68 100
REMARK H PARENT 92 53 60 64
REMARK Flexibility Score: inf
ROOT
ATOM      1  O   UNL A   1      32.433  27.533  24.803  1.00  0.00    -0.377 OA
ENDROOT
BRANCH   1   2
ATOM      2  C   UNL A   1      33.596  27.286  24.030  1.00  0.00     0.188 C 
BRANCH   2   3
ATOM      3  C   UNL A   1      33.598  27.845  22.593  1.00  0.00     0.188 C 
BRANCH   3   4
ATOM      4  O   UNL A   1      33.654  26.875  21.566  1.00  0.00    -0.376 OA
BRANCH   4   5
ATOM      5  C   UNL A   1      32.663  25.871  21.430  1.00  0.00     0.202 C 
BRANCH   5   6
ATOM      6  C   UNL A   1      32.929  24.363  21.303  1.00  0.00     0.261 C 
BRANCH   6   7
ATOM      7  O   UNL A   1      32.713  23.572  22.468  1.00  0.00    -0.458 OA
BRANCH   7   8
ATOM      8  C   UNL A   1      33.746  23.415  23.325  1.00  0.00     0.357 C 
ATOM      9  O   UNL A   1      34.927  23.531  23.037  1.00  0.00    -0.244 OA
BRANCH   8  10
ATOM     10  C   UNL A   1      33.229  23.182  24.718  1.00  0.00     0.156 A 
ATOM     11  C   UNL A   1      33.539  22.054  25.512  1.00  0.00     0.019 A 
ATOM     12  C   UNL A   1      33.027  22.089  26.823  1.00  0.00     0.013 A 
ATOM     13  C   UNL A   1      32.176  23.110  27.245  1.00  0.00     0.021 A 
ATOM     14  N   UNL A   1      32.398  24.193  25.121  1.00  0.00    -0.249 NA
ATOM     15  C   UNL A   1      31.873  24.119  26.356  1.00  0.00     0.112 A 
BRANCH  11  16
ATOM     16  C   UNL A   1      34.252  20.844  25.022  1.00  0.00     0.027 A 
ATOM     17  C   UNL A   1      35.643  20.650  25.195  1.00  0.00     0.126 A 
ATOM     18  C   UNL A   1      36.252  19.424  24.895  1.00  0.00     0.048 A 
ATOM     19  C   UNL A   1      35.485  18.351  24.448  1.00  0.00     0.017 A 
ATOM     20  C   UNL A   1      33.532  19.775  24.452  1.00  0.00     0.025 A 
ATOM     21  C   UNL A   1      34.114  18.515  24.225  1.00  0.00     0.056 A 
BRANCH  17  22
ATOM     22  O   UNL A   1      36.497  21.677  25.520  1.00  0.00    -0.496 OA
ATOM     23  C   UNL A   1      37.861  21.371  25.240  1.00  0.00     0.278 C 
ENDBRANCH  17  22
BRANCH  21  24
ATOM     24  C   UNL A   1      33.263  17.346  23.795  1.00  0.00     0.416 C 
ATOM     25  F   UNL A   1      32.474  17.632  22.725  1.00  0.00    -0.166 F 
ATOM     26  F   UNL A   1      34.012  16.266  23.430  1.00  0.00    -0.166 F 
ATOM     27  F   UNL A   1      32.428  16.895  24.772  1.00  0.00    -0.166 F 
ENDBRANCH  21  24
ENDBRANCH  11  16
ENDBRANCH   8  10
ENDBRANCH   7   8
ENDBRANCH   6   7
ENDBRANCH   5   6
ENDBRANCH   4   5
ENDBRANCH   3   4
ENDBRANCH   2   3
ENDBRANCH   1   2
BRANCH   1  28
ATOM     28  C   UNL A   1      31.358  28.283  24.242  1.00  0.00     0.188 C 
BRANCH  28  29
ATOM     29  C   UNL A   1      31.031  29.725  24.690  1.00  0.00     0.188 C 
BRANCH  29  30
ATOM     30  O   UNL A   1      32.057  30.358  25.435  1.00  0.00    -0.376 OA
BRANCH  30  31
ATOM     31  C   UNL A   1      31.753  30.846  26.730  1.00  0.00     0.202 C 
BRANCH  31  32
ATOM     32  C   UNL A   1      31.717  32.371  26.902  1.00  0.00     0.261 C 
BRANCH  32  33
ATOM     33  O   UNL A   1      32.987  33.040  26.824  1.00  0.00    -0.460 OA
BRANCH  33  34
ATOM     34  C   UNL A   1      33.449  33.605  27.958  1.00  0.00     0.338 C 
ATOM     35  O   UNL A   1      32.900  34.460  28.636  1.00  0.00    -0.246 OA
BRANCH  34  36
ATOM     36  C   UNL A   1      34.674  32.889  28.359  1.00  0.00     0.060 A 
ATOM     37  C   UNL A   1      34.579  31.548  28.748  1.00  0.00     0.016 A 
ATOM     38  C   UNL A   1      35.909  33.542  28.365  1.00  0.00     0.016 A 
ATOM     39  C   UNL A   1      35.714  30.867  29.185  1.00  0.00     0.010 A 
ATOM     40  C   UNL A   1      37.044  32.863  28.819  1.00  0.00     0.010 A 
ATOM     41  C   UNL A   1      36.944  31.533  29.266  1.00  0.00    -0.014 A 
BRANCH  41  42
ATOM     42  C   UNL A   1      38.076  30.889  29.977  1.00  0.00     0.031 A 
ATOM     43  C   UNL A   1      38.314  31.236  31.422  1.00  0.00     0.074 A 
ATOM     44  C   UNL A   1      38.855  29.980  29.365  1.00  0.00     0.049 A 
ATOM     45  N   UNL A   1      39.239  30.808  32.242  1.00  0.00    -0.248 NA
ATOM     46  C   UNL A   1      37.378  32.200  32.024  1.00  0.00     0.031 C 
ATOM     47  C   UNL A   1      38.704  29.533  27.982  1.00  0.00     0.029 A 
ATOM     48  N   UNL A   1      39.934  29.271  29.833  1.00  0.00    -0.354 N 
ATOM     49  C   UNL A   1      39.001  31.452  33.450  1.00  0.00     0.074 A 
ATOM     50  C   UNL A   1      37.867  32.325  33.249  1.00  0.00     0.031 C 
ATOM     51  C   UNL A   1      39.661  28.630  27.710  1.00  0.00     0.029 A 
ATOM     52  C   UNL A   1      40.511  28.459  28.889  1.00  0.00     0.049 A 
ATOM     53  H   UNL A   1      40.262  29.338  30.759  1.00  0.00     0.167 HD
ATOM     54  C   UNL A   1      39.665  31.318  34.623  1.00  0.00     0.037 A 
ATOM     55  C   UNL A   1      41.612  27.686  28.963  1.00  0.00     0.037 A 
ATOM     56  C   UNL A   1      40.793  30.445  34.821  1.00  0.00     0.049 A 
ATOM     57  C   UNL A   1      42.371  27.605  30.265  1.00  0.00     0.074 A 
ATOM     58  C   UNL A   1      41.515  30.217  35.980  1.00  0.00     0.029 A 
ATOM     59  N   UNL A   1      41.370  29.663  33.831  1.00  0.00    -0.354 N 
ATOM     60  N   UNL A   1      42.119  28.187  31.413  1.00  0.00    -0.248 NA
ATOM     61  C   UNL A   1      43.566  26.749  30.282  1.00  0.00     0.031 C 
ATOM     62  C   UNL A   1      42.570  29.352  35.675  1.00  0.00     0.029 A 
ATOM     63  C   UNL A   1      42.462  28.980  34.345  1.00  0.00     0.049 A 
ATOM     64  H   UNL A   1      41.052  29.602  32.902  1.00  0.00     0.167 HD
ATOM     65  C   UNL A   1      43.100  27.746  32.292  1.00  0.00     0.074 A 
ATOM     66  C   UNL A   1      43.941  26.830  31.551  1.00  0.00     0.031 C 
ATOM     67  C   UNL A   1      43.291  28.070  33.596  1.00  0.00     0.037 A 
BRANCH  54  68
ATOM     68  C   UNL A   1      39.212  32.161  35.782  1.00  0.00     0.064 A 
ATOM     69  C   UNL A   1      38.306  31.682  36.740  1.00  0.00     0.173 A 
ATOM     70  C   UNL A   1      39.728  33.454  35.958  1.00  0.00     0.173 A 
ATOM     71  F   UNL A   1      37.771  30.458  36.612  1.00  0.00    -0.203 F 
ATOM     72  C   UNL A   1      37.917  32.473  37.818  1.00  0.00     0.198 A 
ATOM     73  C   UNL A   1      39.363  34.230  37.053  1.00  0.00     0.198 A 
ATOM     74  F   UNL A   1      40.598  33.962  35.072  1.00  0.00    -0.203 F 
ATOM     75  F   UNL A   1      37.015  32.013  38.695  1.00  0.00    -0.200 F 
ATOM     76  C   UNL A   1      38.453  33.743  37.979  1.00  0.00     0.200 A 
ATOM     77  F   UNL A   1      39.893  35.452  37.215  1.00  0.00    -0.200 F 
ATOM     78  F   UNL A   1      38.087  34.500  39.024  1.00  0.00    -0.200 F 
ENDBRANCH  54  68
BRANCH  55  79
ATOM     79  C   UNL A   1      42.083  26.939  27.764  1.00  0.00     0.064 A 
ATOM     80  C   UNL A   1      41.701  25.610  27.537  1.00  0.00     0.173 A 
ATOM     81  C   UNL A   1      42.957  27.532  26.840  1.00  0.00     0.173 A 
ATOM     82  F   UNL A   1      40.889  24.988  28.405  1.00  0.00    -0.203 F 
ATOM     83  C   UNL A   1      42.199  24.893  26.450  1.00  0.00     0.198 A 
ATOM     84  C   UNL A   1      43.426  26.825  25.735  1.00  0.00     0.198 A 
ATOM     85  F   UNL A   1      43.355  28.801  27.010  1.00  0.00    -0.203 F 
ATOM     86  F   UNL A   1      41.869  23.603  26.293  1.00  0.00    -0.200 F 
ATOM     87  C   UNL A   1      43.056  25.502  25.547  1.00  0.00     0.200 A 
ATOM     88  F   UNL A   1      44.245  27.424  24.859  1.00  0.00    -0.200 F 
ATOM     89  F   UNL A   1      43.536  24.812  24.503  1.00  0.00    -0.200 F 
ENDBRANCH  55  79
BRANCH  67  90
ATOM     90  C   UNL A   1      44.430  27.399  34.315  1.00  0.00     0.064 A 
ATOM     91  C   UNL A   1      45.694  27.999  34.426  1.00  0.00     0.173 A 
ATOM     92  C   UNL A   1      44.247  26.146  34.922  1.00  0.00     0.173 A 
ATOM     93  F   UNL A   1      45.928  29.191  33.858  1.00  0.00    -0.203 F 
ATOM     94  C   UNL A   1      46.741  27.350  35.078  1.00  0.00     0.198 A 
ATOM     95  C   UNL A   1      45.284  25.519  35.606  1.00  0.00     0.198 A 
ATOM     96  F   UNL A   1      43.056  25.530  34.858  1.00  0.00    -0.203 F 
ATOM     97  F   UNL A   1      47.957  27.914  35.112  1.00  0.00    -0.200 F 
ATOM     98  C   UNL A   1      46.534  26.115  35.672  1.00  0.00     0.200 A 
ATOM     99  F   UNL A   1      45.075  24.334  36.197  1.00  0.00    -0.200 F 
ATOM    100  F   UNL A   1      47.541  25.494  36.301  1.00  0.00    -0.200 F 
ENDBRANCH  67  90
ENDBRANCH  41  42
ENDBRANCH  34  36
ENDBRANCH  33  34
ENDBRANCH  32  33
ENDBRANCH  31  32
ENDBRANCH  30  31
ENDBRANCH  29  30
ENDBRANCH  28  29
ENDBRANCH   1  28
TORSDOF 23
ENDMDL
MODEL 2
REMARK VINA RESULT:      -9.8      1.701      2.589
REMARK SMILES COc1ccc(C(F)(F)F)cc1-c1cccnc1C(=O)OCCOCCOCCOCCOC(=O)c1ccc(-c2c3nc(c(-c4c(F)c(F)c(F)c(F)c4F)c4ccc([nH]4)c(-c4c(F)c(F)c(F)c(F)c4F)c4nc(c(-c5c(F)c(F)c(F)c(F)c5F)c5ccc2[nH]5)C=C4)C=C3)cc1
REMARK SMILES IDX 27 1 26 2 25 3 24 4 23 5 22 6 21 7 19 8 20 9 18 10 13 11
REMARK SMILES IDX 14 12 15 13 17 14 16 15 12 16 3 17 4 18 5 19 11 20 6 21 2 22
REMARK SMILES IDX 1 23 7 24 8 25 9 26 10 27 28 28 29 29 30 30 31 31 32 32
REMARK SMILES IDX 33 33 34 34 35 35 36 36 37 37 98 38 38 39 97 40 39 41 40 42
REMARK SMILES IDX 41 43 91 44 42 45 96 46 90 47 92 48 43 49 95 50 89 51 88 52
REMARK SMILES IDX 44 54 76 55 56 56 75 57 57 58 60 59 74 60 93 61 58 62 59 63
REMARK SMILES IDX 73 65 94 66 61 67 45 68 46 69 54 70 47 71 48 72 52 73 55 74
REMARK SMILES IDX 49 75 50 76 53 77 51 78 77 79 78 80 86 81 79 82 80 83 84 84
REMARK SMILES IDX 87 85 81 86 82 87 85 88 83 89 62 90 63 91 71 92 64 93 65 94
REMARK SMILES IDX 69 95 72 96 66 97 67 98 70 99 68 100
REMARK H PARENT 92 53 60 64
REMARK Flexibility Score: inf
ROOT
ATOM      1  O   UNL A   1      32.648  27.532  25.634  1.00  0.00    -0.377 OA
ENDROOT
BRANCH   1   2
ATOM      2  C   UNL A   1      33.663  27.208  24.696  1.00  0.00     0.188 C 
BRANCH   2   3
ATOM      3  C   UNL A   1      34.017  28.297  23.664  1.00  0.00     0.188 C 
BRANCH   3   4
ATOM      4  O   UNL A   1      33.756  27.961  22.316  1.00  0.00    -0.376 OA
BRANCH   4   5
ATOM      5  C   UNL A   1      32.716  27.069  21.956  1.00  0.00     0.202 C 
BRANCH   5   6
ATOM      6  C   UNL A   1      32.905  25.613  21.501  1.00  0.00     0.261 C 
BRANCH   6   7
ATOM      7  O   UNL A   1      32.268  24.607  22.282  1.00  0.00    -0.458 OA
BRANCH   7   8
ATOM      8  C   UNL A   1      33.033  23.895  23.139  1.00  0.00     0.357 C 
ATOM      9  O   UNL A   1      34.139  23.440  22.889  1.00  0.00    -0.244 OA
BRANCH   8  10
ATOM     10  C   UNL A   1      32.374  23.831  24.489  1.00  0.00     0.156 A 
ATOM     11  C   UNL A   1      32.926  23.195  25.624  1.00  0.00     0.019 A 
ATOM     12  C   UNL A   1      32.183  23.343  26.811  1.00  0.00     0.013 A 
ATOM     13  C   UNL A   1      30.936  23.968  26.816  1.00  0.00     0.021 A 
ATOM     14  N   UNL A   1      31.153  24.451  24.481  1.00  0.00    -0.249 NA
ATOM     15  C   UNL A   1      30.456  24.480  25.630  1.00  0.00     0.112 A 
BRANCH  11  16
ATOM     16  C   UNL A   1      34.136  22.330  25.605  1.00  0.00     0.027 A 
ATOM     17  C   UNL A   1      34.109  20.980  25.179  1.00  0.00     0.126 A 
ATOM     18  C   UNL A   1      35.290  20.250  24.992  1.00  0.00     0.048 A 
ATOM     19  C   UNL A   1      36.528  20.856  25.192  1.00  0.00     0.017 A 
ATOM     20  C   UNL A   1      35.401  22.868  25.915  1.00  0.00     0.025 A 
ATOM     21  C   UNL A   1      36.596  22.174  25.653  1.00  0.00     0.056 A 
BRANCH  17  22
ATOM     22  O   UNL A   1      32.940  20.266  25.066  1.00  0.00    -0.496 OA
ATOM     23  C   UNL A   1      32.499  20.138  23.716  1.00  0.00     0.278 C 
ENDBRANCH  17  22
BRANCH  21  24
ATOM     24  C   UNL A   1      37.930  22.859  25.820  1.00  0.00     0.416 C 
ATOM     25  F   UNL A   1      38.977  22.073  25.455  1.00  0.00    -0.166 F 
ATOM     26  F   UNL A   1      38.030  23.991  25.064  1.00  0.00    -0.166 F 
ATOM     27  F   UNL A   1      38.180  23.255  27.100  1.00  0.00    -0.166 F 
ENDBRANCH  21  24
ENDBRANCH  11  16
ENDBRANCH   8  10
ENDBRANCH   7   8
ENDBRANCH   6   7
ENDBRANCH   5   6
ENDBRANCH   4   5
ENDBRANCH   3   4
ENDBRANCH   2   3
ENDBRANCH   1   2
BRANCH   1  28
ATOM     28  C   UNL A   1      31.541  28.332  25.228  1.00  0.00     0.188 C 
BRANCH  28  29
ATOM     29  C   UNL A   1      31.395  29.815  25.636  1.00  0.00     0.188 C 
BRANCH  29  30
ATOM     30  O   UNL A   1      32.618  30.468  25.932  1.00  0.00    -0.376 OA
BRANCH  30  31
ATOM     31  C   UNL A   1      32.731  31.177  27.152  1.00  0.00     0.202 C 
BRANCH  31  32
ATOM     32  C   UNL A   1      32.093  32.573  27.201  1.00  0.00     0.261 C 
BRANCH  32  33
ATOM     33  O   UNL A   1      33.008  33.681  27.190  1.00  0.00    -0.460 OA
BRANCH  33  34
ATOM     34  C   UNL A   1      33.450  34.118  28.386  1.00  0.00     0.338 C 
ATOM     35  O   UNL A   1      32.946  34.977  29.093  1.00  0.00    -0.246 OA
BRANCH  34  36
ATOM     36  C   UNL A   1      34.572  33.255  28.802  1.00  0.00     0.060 A 
ATOM     37  C   UNL A   1      34.403  32.409  29.904  1.00  0.00     0.016 A 
ATOM     38  C   UNL A   1      35.788  33.292  28.116  1.00  0.00     0.016 A 
ATOM     39  C   UNL A   1      35.468  31.626  30.350  1.00  0.00     0.010 A 
ATOM     40  C   UNL A   1      36.859  32.519  28.575  1.00  0.00     0.010 A 
ATOM     41  C   UNL A   1      36.714  31.710  29.716  1.00  0.00    -0.014 A 
BRANCH  41  42
ATOM     42  C   UNL A   1      37.899  31.085  30.354  1.00  0.00     0.031 A 
ATOM     43  C   UNL A   1      38.269  31.498  31.753  1.00  0.00     0.074 A 
ATOM     44  C   UNL A   1      38.610  30.137  29.720  1.00  0.00     0.049 A 
ATOM     45  N   UNL A   1      39.260  31.097  32.507  1.00  0.00    -0.248 NA
ATOM     46  C   UNL A   1      37.402  32.504  32.388  1.00  0.00     0.031 C 
ATOM     47  C   UNL A   1      38.331  29.625  28.380  1.00  0.00     0.029 A 
ATOM     48  N   UNL A   1      39.720  29.435  30.124  1.00  0.00    -0.354 N 
ATOM     49  C   UNL A   1      39.139  31.802  33.697  1.00  0.00     0.074 A 
ATOM     50  C   UNL A   1      38.000  32.681  33.556  1.00  0.00     0.031 C 
ATOM     51  C   UNL A   1      39.251  28.696  28.069  1.00  0.00     0.029 A 
ATOM     52  C   UNL A   1      40.202  28.571  29.174  1.00  0.00     0.049 A 
ATOM     53  H   UNL A   1      40.131  29.542  31.013  1.00  0.00     0.167 HD
ATOM     54  C   UNL A   1      39.905  31.716  34.812  1.00  0.00     0.037 A 
ATOM     55  C   UNL A   1      41.298  27.787  29.187  1.00  0.00     0.037 A 
ATOM     56  C   UNL A   1      41.037  30.837  34.951  1.00  0.00     0.049 A 
ATOM     57  C   UNL A   1      42.170  27.758  30.418  1.00  0.00     0.074 A 
ATOM     58  C   UNL A   1      41.858  30.656  36.051  1.00  0.00     0.029 A 
ATOM     59  N   UNL A   1      41.515  30.000  33.954  1.00  0.00    -0.354 N 
ATOM     60  N   UNL A   1      42.028  28.398  31.554  1.00  0.00    -0.248 NA
ATOM     61  C   UNL A   1      43.353  26.887  30.371  1.00  0.00     0.031 C 
ATOM     62  C   UNL A   1      42.873  29.762  35.696  1.00  0.00     0.029 A 
ATOM     63  C   UNL A   1      42.642  29.328  34.401  1.00  0.00     0.049 A 
ATOM     64  H   UNL A   1      41.114  29.899  33.061  1.00  0.00     0.167 HD
ATOM     65  C   UNL A   1      43.080  27.987  32.363  1.00  0.00     0.074 A 
ATOM     66  C   UNL A   1      43.841  27.023  31.596  1.00  0.00     0.031 C 
ATOM     67  C   UNL A   1      43.391  28.371  33.627  1.00  0.00     0.037 A 
BRANCH  54  68
ATOM     68  C   UNL A   1      39.566  32.621  35.963  1.00  0.00     0.064 A 
ATOM     69  C   UNL A   1      40.161  33.881  36.119  1.00  0.00     0.173 A 
ATOM     70  C   UNL A   1      38.595  32.235  36.901  1.00  0.00     0.173 A 
ATOM     71  F   UNL A   1      41.106  34.294  35.260  1.00  0.00    -0.203 F 
ATOM     72  C   UNL A   1      39.815  34.711  37.183  1.00  0.00     0.198 A 
ATOM     73  C   UNL A   1      38.227  33.080  37.943  1.00  0.00     0.198 A 
ATOM     74  F   UNL A   1      37.992  31.040  36.799  1.00  0.00    -0.203 F 
ATOM     75  F   UNL A   1      40.431  35.891  37.339  1.00  0.00    -0.200 F 
ATOM     76  C   UNL A   1      38.842  34.315  38.088  1.00  0.00     0.200 A 
ATOM     77  F   UNL A   1      37.276  32.700  38.809  1.00  0.00    -0.200 F 
ATOM     78  F   UNL A   1      38.501  35.120  39.104  1.00  0.00    -0.200 F 
ENDBRANCH  54  68
BRANCH  55  79
ATOM     79  C   UNL A   1      41.651  26.975  27.990  1.00  0.00     0.064 A 
ATOM     80  C   UNL A   1      41.157  25.675  27.818  1.00  0.00     0.173 A 
ATOM     81  C   UNL A   1      42.524  27.474  27.011  1.00  0.00     0.173 A 
ATOM     82  F   UNL A   1      40.341  25.141  28.739  1.00  0.00    -0.203 F 
ATOM     83  C   UNL A   1      41.545  24.895  26.730  1.00  0.00     0.198 A 
ATOM     84  C   UNL A   1      42.883  26.706  25.905  1.00  0.00     0.198 A 
ATOM     85  F   UNL A   1      43.027  28.712  27.127  1.00  0.00    -0.203 F 
ATOM     86  F   UNL A   1      41.108  23.632  26.624  1.00  0.00    -0.200 F 
ATOM     87  C   UNL A   1      42.402  25.412  25.772  1.00  0.00     0.200 A 
ATOM     88  F   UNL A   1      43.703  27.217  24.976  1.00  0.00    -0.200 F 
ATOM     89  F   UNL A   1      42.777  24.661  24.727  1.00  0.00    -0.200 F 
ENDBRANCH  55  79
BRANCH  67  90
ATOM     90  C   UNL A   1      44.584  27.719  34.273  1.00  0.00     0.064 A 
ATOM     91  C   UNL A   1      44.476  26.515  34.986  1.00  0.00     0.173 A 
ATOM     92  C   UNL A   1      45.858  28.297  34.157  1.00  0.00     0.173 A 
ATOM     93  F   UNL A   1      43.282  25.923  35.135  1.00  0.00    -0.203 F 
ATOM     94  C   UNL A   1      45.590  25.939  35.594  1.00  0.00     0.198 A 
ATOM     95  C   UNL A   1      46.975  27.698  34.733  1.00  0.00     0.198 A 
ATOM     96  F   UNL A   1      46.023  29.442  33.477  1.00  0.00    -0.203 F 
ATOM     97  F   UNL A   1      45.449  24.825  36.326  1.00  0.00    -0.200 F 
ATOM     98  C   UNL A   1      46.838  26.527  35.462  1.00  0.00     0.200 A 
ATOM     99  F   UNL A   1      48.184  28.259  34.587  1.00  0.00    -0.200 F 
ATOM    100  F   UNL A   1      47.908  25.971  36.046  1.00  0.00    -0.200 F 
ENDBRANCH  67  90
ENDBRANCH  41  42
ENDBRANCH  34  36
ENDBRANCH  33  34
ENDBRANCH  32  33
ENDBRANCH  31  32
ENDBRANCH  30  31
ENDBRANCH  29  30
ENDBRANCH  28  29
ENDBRANCH   1  28
TORSDOF 23
ENDMDL
MODEL 3
REMARK VINA RESULT:      -9.7      2.981      4.956
REMARK SMILES COc1ccc(C(F)(F)F)cc1-c1cccnc1C(=O)OCCOCCOCCOCCOC(=O)c1ccc(-c2c3nc(c(-c4c(F)c(F)c(F)c(F)c4F)c4ccc([nH]4)c(-c4c(F)c(F)c(F)c(F)c4F)c4nc(c(-c5c(F)c(F)c(F)c(F)c5F)c5ccc2[nH]5)C=C4)C=C3)cc1
REMARK SMILES IDX 27 1 26 2 25 3 24 4 23 5 22 6 21 7 19 8 20 9 18 10 13 11
REMARK SMILES IDX 14 12 15 13 17 14 16 15 12 16 3 17 4 18 5 19 11 20 6 21 2 22
REMARK SMILES IDX 1 23 7 24 8 25 9 26 10 27 28 28 29 29 30 30 31 31 32 32
REMARK SMILES IDX 33 33 34 34 35 35 36 36 37 37 98 38 38 39 97 40 39 41 40 42
REMARK SMILES IDX 41 43 91 44 42 45 96 46 90 47 92 48 43 49 95 50 89 51 88 52
REMARK SMILES IDX 44 54 76 55 56 56 75 57 57 58 60 59 74 60 93 61 58 62 59 63
REMARK SMILES IDX 73 65 94 66 61 67 45 68 46 69 54 70 47 71 48 72 52 73 55 74
REMARK SMILES IDX 49 75 50 76 53 77 51 78 77 79 78 80 86 81 79 82 80 83 84 84
REMARK SMILES IDX 87 85 81 86 82 87 85 88 83 89 62 90 63 91 71 92 64 93 65 94
REMARK SMILES IDX 69 95 72 96 66 97 67 98 70 99 68 100
REMARK H PARENT 92 53 60 64
REMARK Flexibility Score: inf
ROOT
ATOM      1  O   UNL A   1      35.081  34.626  27.944  1.00  0.00    -0.377 OA
ENDROOT
BRANCH   1   2
ATOM      2  C   UNL A   1      35.674  33.477  28.527  1.00  0.00     0.188 C 
BRANCH   2   3
ATOM      3  C   UNL A   1      34.831  32.186  28.512  1.00  0.00     0.188 C 
BRANCH   3   4
ATOM      4  O   UNL A   1      35.267  31.189  27.610  1.00  0.00    -0.376 OA
BRANCH   4   5
ATOM      5  C   UNL A   1      34.780  29.860  27.673  1.00  0.00     0.202 C 
BRANCH   5   6
ATOM      6  C   UNL A   1      33.842  29.202  26.648  1.00  0.00     0.261 C 
BRANCH   6   7
ATOM      7  O   UNL A   1      33.308  27.927  26.991  1.00  0.00    -0.458 OA
BRANCH   7   8
ATOM      8  C   UNL A   1      31.965  27.780  26.977  1.00  0.00     0.357 C 
ATOM      9  O   UNL A   1      31.218  28.018  27.913  1.00  0.00    -0.244 OA
BRANCH   8  10
ATOM     10  C   UNL A   1      31.504  27.381  25.602  1.00  0.00     0.156 A 
ATOM     11  C   UNL A   1      31.565  26.068  25.083  1.00  0.00     0.019 A 
ATOM     12  C   UNL A   1      30.985  25.903  23.811  1.00  0.00     0.013 A 
ATOM     13  C   UNL A   1      30.504  26.990  23.082  1.00  0.00     0.021 A 
ATOM     14  N   UNL A   1      31.031  28.458  24.899  1.00  0.00    -0.249 NA
ATOM     15  C   UNL A   1      30.572  28.242  23.655  1.00  0.00     0.112 A 
BRANCH  11  16
ATOM     16  C   UNL A   1      32.271  24.933  25.734  1.00  0.00     0.027 A 
ATOM     17  C   UNL A   1      31.595  23.915  26.449  1.00  0.00     0.126 A 
ATOM     18  C   UNL A   1      32.263  22.764  26.887  1.00  0.00     0.048 A 
ATOM     19  C   UNL A   1      33.612  22.581  26.594  1.00  0.00     0.017 A 
ATOM     20  C   UNL A   1      33.661  24.768  25.566  1.00  0.00     0.025 A 
ATOM     21  C   UNL A   1      34.325  23.582  25.927  1.00  0.00     0.056 A 
BRANCH  17  22
ATOM     22  O   UNL A   1      30.298  24.056  26.882  1.00  0.00    -0.496 OA
ATOM     23  C   UNL A   1      29.695  22.811  27.231  1.00  0.00     0.278 C 
ENDBRANCH  17  22
BRANCH  21  24
ATOM     24  C   UNL A   1      35.772  23.373  25.555  1.00  0.00     0.416 C 
ATOM     25  F   UNL A   1      36.305  22.254  26.114  1.00  0.00    -0.166 F 
ATOM     26  F   UNL A   1      35.947  23.238  24.209  1.00  0.00    -0.166 F 
ATOM     27  F   UNL A   1      36.582  24.405  25.925  1.00  0.00    -0.166 F 
ENDBRANCH  21  24
ENDBRANCH  11  16
ENDBRANCH   8  10
ENDBRANCH   7   8
ENDBRANCH   6   7
ENDBRANCH   5   6
ENDBRANCH   4   5
ENDBRANCH   3   4
ENDBRANCH   2   3
ENDBRANCH   1   2
BRANCH   1  28
ATOM     28  C   UNL A   1      34.072  35.338  28.656  1.00  0.00     0.188 C 
BRANCH  28  29
ATOM     29  C   UNL A   1      33.846  36.856  28.477  1.00  0.00     0.188 C 
BRANCH  29  30
ATOM     30  O   UNL A   1      33.225  37.494  29.580  1.00  0.00    -0.376 OA
BRANCH  30  31
ATOM     31  C   UNL A   1      32.762  36.695  30.654  1.00  0.00     0.202 C 
BRANCH  31  32
ATOM     32  C   UNL A   1      33.322  37.019  32.046  1.00  0.00     0.261 C 
BRANCH  32  33
ATOM     33  O   UNL A   1      34.389  36.172  32.504  1.00  0.00    -0.460 OA
BRANCH  33  34
ATOM     34  C   UNL A   1      34.068  34.899  32.812  1.00  0.00     0.338 C 
ATOM     35  O   UNL A   1      32.966  34.464  33.108  1.00  0.00    -0.246 OA
BRANCH  34  36
ATOM     36  C   UNL A   1      35.253  34.056  32.563  1.00  0.00     0.060 A 
ATOM     37  C   UNL A   1      35.238  32.723  32.991  1.00  0.00     0.016 A 
ATOM     38  C   UNL A   1      36.377  34.583  31.924  1.00  0.00     0.016 A 
ATOM     39  C   UNL A   1      36.368  31.924  32.817  1.00  0.00     0.010 A 
ATOM     40  C   UNL A   1      37.515  33.785  31.765  1.00  0.00     0.010 A 
ATOM     41  C   UNL A   1      37.528  32.463  32.244  1.00  0.00    -0.014 A 
BRANCH  41  42
ATOM     42  C   UNL A   1      38.795  31.695  32.307  1.00  0.00     0.031 A 
ATOM     43  C   UNL A   1      39.811  32.061  33.355  1.00  0.00     0.074 A 
ATOM     44  C   UNL A   1      39.024  30.663  31.477  1.00  0.00     0.049 A 
ATOM     45  N   UNL A   1      40.986  31.539  33.597  1.00  0.00    -0.248 NA
ATOM     46  C   UNL A   1      39.451  33.169  34.254  1.00  0.00     0.031 C 
ATOM     47  C   UNL A   1      38.105  30.188  30.445  1.00  0.00     0.029 A 
ATOM     48  N   UNL A   1      40.110  29.828  31.371  1.00  0.00    -0.354 N 
ATOM     49  C   UNL A   1      41.506  32.257  34.666  1.00  0.00     0.074 A 
ATOM     50  C   UNL A   1      40.535  33.272  35.008  1.00  0.00     0.031 C 
ATOM     51  C   UNL A   1      38.669  29.149  29.805  1.00  0.00     0.029 A 
ATOM     52  C   UNL A   1      40.001  28.907  30.360  1.00  0.00     0.049 A 
ATOM     53  H   UNL A   1      40.893  29.884  31.967  1.00  0.00     0.167 HD
ATOM     54  C   UNL A   1      42.683  32.078  35.311  1.00  0.00     0.037 A 
ATOM     55  C   UNL A   1      40.885  27.991  29.918  1.00  0.00     0.037 A 
ATOM     56  C   UNL A   1      43.647  31.063  34.971  1.00  0.00     0.049 A 
ATOM     57  C   UNL A   1      42.217  27.855  30.615  1.00  0.00     0.074 A 
ATOM     58  C   UNL A   1      44.857  30.782  35.584  1.00  0.00     0.029 A 
ATOM     59  N   UNL A   1      43.517  30.170  33.918  1.00  0.00    -0.354 N 
ATOM     60  N   UNL A   1      42.686  28.511  31.650  1.00  0.00    -0.248 NA
ATOM     61  C   UNL A   1      43.141  26.842  30.085  1.00  0.00     0.031 C 
ATOM     62  C   UNL A   1      45.488  29.766  34.859  1.00  0.00     0.029 A 
ATOM     63  C   UNL A   1      44.640  29.362  33.841  1.00  0.00     0.049 A 
ATOM     64  H   UNL A   1      42.741  30.118  33.315  1.00  0.00     0.167 HD
ATOM     65  C   UNL A   1      43.939  27.972  31.912  1.00  0.00     0.074 A 
ATOM     66  C   UNL A   1      44.149  26.918  30.941  1.00  0.00     0.031 C 
ATOM     67  C   UNL A   1      44.837  28.316  32.870  1.00  0.00     0.037 A 
BRANCH  54  68
ATOM     68  C   UNL A   1      43.015  33.020  36.434  1.00  0.00     0.064 A 
ATOM     69  C   UNL A   1      43.540  34.300  36.200  1.00  0.00     0.173 A 
ATOM     70  C   UNL A   1      42.761  32.650  37.764  1.00  0.00     0.173 A 
ATOM     71  F   UNL A   1      43.815  34.699  34.949  1.00  0.00    -0.203 F 
ATOM     72  C   UNL A   1      43.820  35.165  37.256  1.00  0.00     0.198 A 
ATOM     73  C   UNL A   1      43.011  33.528  38.814  1.00  0.00     0.198 A 
ATOM     74  F   UNL A   1      42.259  31.438  38.045  1.00  0.00    -0.203 F 
ATOM     75  F   UNL A   1      44.364  36.364  37.012  1.00  0.00    -0.200 F 
ATOM     76  C   UNL A   1      43.546  34.782  38.561  1.00  0.00     0.200 A 
ATOM     77  F   UNL A   1      42.732  33.161  40.074  1.00  0.00    -0.200 F 
ATOM     78  F   UNL A   1      43.804  35.620  39.575  1.00  0.00    -0.200 F 
ENDBRANCH  54  68
BRANCH  55  79
ATOM     79  C   UNL A   1      40.555  27.139  28.743  1.00  0.00     0.064 A 
ATOM     80  C   UNL A   1      39.623  26.097  28.836  1.00  0.00     0.173 A 
ATOM     81  C   UNL A   1      41.197  27.330  27.509  1.00  0.00     0.173 A 
ATOM     82  F   UNL A   1      39.002  25.855  30.000  1.00  0.00    -0.203 F 
ATOM     83  C   UNL A   1      39.368  25.258  27.752  1.00  0.00     0.198 A 
ATOM     84  C   UNL A   1      40.915  26.513  26.416  1.00  0.00     0.198 A 
ATOM     85  F   UNL A   1      42.098  28.312  27.365  1.00  0.00    -0.203 F 
ATOM     86  F   UNL A   1      38.521  24.229  27.888  1.00  0.00    -0.200 F 
ATOM     87  C   UNL A   1      40.009  25.471  26.541  1.00  0.00     0.200 A 
ATOM     88  F   UNL A   1      41.529  26.732  25.245  1.00  0.00    -0.200 F 
ATOM     89  F   UNL A   1      39.766  24.663  25.500  1.00  0.00    -0.200 F 
ENDBRANCH  55  79
BRANCH  67  90
ATOM     90  C   UNL A   1      46.113  27.521  32.938  1.00  0.00     0.064 A 
ATOM     91  C   UNL A   1      46.224  26.361  33.721  1.00  0.00     0.173 A 
ATOM     92  C   UNL A   1      47.234  27.912  32.189  1.00  0.00     0.173 A 
ATOM     93  F   UNL A   1      45.186  25.946  34.463  1.00  0.00    -0.203 F 
ATOM     94  C   UNL A   1      47.420  25.651  33.786  1.00  0.00     0.198 A 
ATOM     95  C   UNL A   1      48.417  27.178  32.227  1.00  0.00     0.198 A 
ATOM     96  F   UNL A   1      47.183  29.006  31.413  1.00  0.00    -0.203 F 
ATOM     97  F   UNL A   1      47.521  24.586  34.594  1.00  0.00    -0.200 F 
ATOM     98  C   UNL A   1      48.513  26.056  33.035  1.00  0.00     0.200 A 
ATOM     99  F   UNL A   1      49.465  27.560  31.484  1.00  0.00    -0.200 F 
ATOM    100  F   UNL A   1      49.662  25.370  33.097  1.00  0.00    -0.200 F 
ENDBRANCH  67  90
ENDBRANCH  41  42
ENDBRANCH  34  36
ENDBRANCH  33  34
ENDBRANCH  32  33
ENDBRANCH  31  32
ENDBRANCH  30  31
ENDBRANCH  29  30
ENDBRANCH  28  29
ENDBRANCH   1  28
TORSDOF 23
ENDMDL
