MODEL 1
REMARK VINA RESULT:     -11.4      0.000      0.000
REMARK SMILES O=C(OCCOCCOCCOCCOC(=O)[C@H]1CC[C@@H]2CCCC[C@H]2N1C(=O)C1CC[NH2+]CC1)c1ccc(-c2c3nc(c(-c4c(F)c(F)c(F)c(F)c4F)c4ccc([nH]4)c(-c4c(F)c(F)c(F)c(F)c4F)c4nc(c(-c5c(F)c(F)c(F)c(F)c5F)c5ccc2[nH]5)C=C4)C=C3)cc1
REMARK SMILES IDX 9 1 8 2 7 3 6 4 5 5 4 6 3 7 2 8 1 9 36 10 37 11 98 12 38 13
REMARK SMILES IDX 97 14 39 15 40 16 41 17 91 18 42 19 96 20 90 21 92 22 43 23
REMARK SMILES IDX 95 24 89 25 88 26 44 28 76 29 56 30 75 31 57 32 60 33 74 34
REMARK SMILES IDX 93 35 58 36 59 37 73 39 94 40 61 41 45 42 46 43 54 44 47 45
REMARK SMILES IDX 48 46 52 47 55 48 49 49 50 50 53 51 51 52 77 53 78 54 86 55
REMARK SMILES IDX 79 56 80 57 84 58 87 59 81 60 82 61 85 62 83 63 62 64 63 65
REMARK SMILES IDX 71 66 64 67 65 68 69 69 72 70 66 71 67 72 70 73 68 74 10 75
REMARK SMILES IDX 11 76 12 77 13 78 14 79 15 80 16 81 17 82 18 83 19 84 27 85
REMARK SMILES IDX 20 86 26 87 21 88 25 89 22 90 24 91 23 92 28 93 29 94 30 95
REMARK SMILES IDX 31 96 35 97 32 98 34 99 33 100
REMARK H PARENT 92 27 60 38 33 101 33 102
REMARK Flexibility Score: inf
ROOT
ATOM      1  O   UNL A   1      32.851  30.522  26.958  1.00  0.00    -0.377 OA
ENDROOT
BRANCH   1   2
ATOM      2  C   UNL A   1      33.796  31.361  27.626  1.00  0.00     0.188 C 
BRANCH   2   3
ATOM      3  C   UNL A   1      33.402  32.835  27.731  1.00  0.00     0.188 C 
BRANCH   3   4
ATOM      4  O   UNL A   1      34.379  33.561  28.469  1.00  0.00    -0.376 OA
BRANCH   4   5
ATOM      5  C   UNL A   1      33.878  34.303  29.584  1.00  0.00     0.202 C 
BRANCH   5   6
ATOM      6  C   UNL A   1      34.510  33.864  30.901  1.00  0.00     0.261 C 
BRANCH   6   7
ATOM      7  O   UNL A   1      34.780  32.461  30.802  1.00  0.00    -0.460 OA
BRANCH   7   8
ATOM      8  C   UNL A   1      35.582  31.951  31.771  1.00  0.00     0.338 C 
ATOM      9  O   UNL A   1      35.565  32.193  32.962  1.00  0.00    -0.246 OA
BRANCH   8  10
ATOM     10  C   UNL A   1      36.516  31.048  31.081  1.00  0.00     0.060 A 
ATOM     11  C   UNL A   1      37.226  30.115  31.845  1.00  0.00     0.016 A 
ATOM     12  C   UNL A   1      36.769  31.205  29.720  1.00  0.00     0.016 A 
ATOM     13  C   UNL A   1      38.295  29.443  31.301  1.00  0.00     0.010 A 
ATOM     14  C   UNL A   1      37.836  30.506  29.158  1.00  0.00     0.010 A 
ATOM     15  C   UNL A   1      38.631  29.676  29.970  1.00  0.00    -0.014 A 
BRANCH  15  16
ATOM     16  C   UNL A   1      39.946  29.200  29.517  1.00  0.00     0.031 A 
ATOM     17  C   UNL A   1      41.092  30.161  29.578  1.00  0.00     0.074 A 
ATOM     18  C   UNL A   1      40.112  27.907  29.199  1.00  0.00     0.049 A 
ATOM     19  N   UNL A   1      42.290  30.052  29.075  1.00  0.00    -0.248 NA
ATOM     20  C   UNL A   1      40.860  31.419  30.313  1.00  0.00     0.031 C 
ATOM     21  C   UNL A   1      39.077  26.875  29.290  1.00  0.00     0.029 A 
ATOM     22  N   UNL A   1      41.215  27.238  28.748  1.00  0.00    -0.354 N 
ATOM     23  C   UNL A   1      42.926  31.250  29.370  1.00  0.00     0.074 A 
ATOM     24  C   UNL A   1      42.003  32.062  30.126  1.00  0.00     0.031 C 
ATOM     25  C   UNL A   1      39.594  25.702  28.895  1.00  0.00     0.029 A 
ATOM     26  C   UNL A   1      40.957  25.928  28.432  1.00  0.00     0.049 A 
ATOM     27  H   UNL A   1      42.104  27.654  28.658  1.00  0.00     0.167 HD
ATOM     28  C   UNL A   1      44.171  31.628  29.003  1.00  0.00     0.037 A 
ATOM     29  C   UNL A   1      41.721  25.047  27.762  1.00  0.00     0.037 A 
ATOM     30  C   UNL A   1      45.063  30.762  28.282  1.00  0.00     0.049 A 
ATOM     31  C   UNL A   1      43.066  25.522  27.280  1.00  0.00     0.074 A 
ATOM     32  C   UNL A   1      46.342  31.015  27.826  1.00  0.00     0.029 A 
ATOM     33  N   UNL A   1      44.752  29.457  27.920  1.00  0.00    -0.354 N 
ATOM     34  N   UNL A   1      43.651  26.682  27.476  1.00  0.00    -0.248 NA
ATOM     35  C   UNL A   1      43.841  24.589  26.455  1.00  0.00     0.031 C 
ATOM     36  C   UNL A   1      46.785  29.877  27.145  1.00  0.00     0.029 A 
ATOM     37  C   UNL A   1      45.800  28.900  27.214  1.00  0.00     0.049 A 
ATOM     38  H   UNL A   1      43.909  28.997  28.134  1.00  0.00     0.167 HD
ATOM     39  C   UNL A   1      44.860  26.622  26.802  1.00  0.00     0.074 A 
ATOM     40  C   UNL A   1      44.937  25.296  26.216  1.00  0.00     0.031 C 
ATOM     41  C   UNL A   1      45.819  27.570  26.661  1.00  0.00     0.037 A 
BRANCH  28  42
ATOM     42  C   UNL A   1      44.585  33.040  29.285  1.00  0.00     0.064 A 
ATOM     43  C   UNL A   1      44.350  34.090  28.387  1.00  0.00     0.173 A 
ATOM     44  C   UNL A   1      45.239  33.342  30.491  1.00  0.00     0.173 A 
ATOM     45  F   UNL A   1      43.755  33.850  27.209  1.00  0.00    -0.203 F 
ATOM     46  C   UNL A   1      44.770  35.387  28.677  1.00  0.00     0.198 A 
ATOM     47  C   UNL A   1      45.636  34.643  30.788  1.00  0.00     0.198 A 
ATOM     48  F   UNL A   1      45.498  32.371  31.380  1.00  0.00    -0.203 F 
ATOM     49  F   UNL A   1      44.575  36.369  27.786  1.00  0.00    -0.200 F 
ATOM     50  C   UNL A   1      45.406  35.663  29.879  1.00  0.00     0.200 A 
ATOM     51  F   UNL A   1      46.251  34.905  31.949  1.00  0.00    -0.200 F 
ATOM     52  F   UNL A   1      45.809  36.911  30.156  1.00  0.00    -0.200 F 
ENDBRANCH  28  42
BRANCH  29  53
ATOM     53  C   UNL A   1      41.188  23.704  27.413  1.00  0.00     0.064 A 
ATOM     54  C   UNL A   1      41.738  22.536  27.957  1.00  0.00     0.173 A 
ATOM     55  C   UNL A   1      40.118  23.558  26.514  1.00  0.00     0.173 A 
ATOM     56  F   UNL A   1      42.774  22.617  28.805  1.00  0.00    -0.203 F 
ATOM     57  C   UNL A   1      41.254  21.278  27.600  1.00  0.00     0.198 A 
ATOM     58  C   UNL A   1      39.611  22.303  26.187  1.00  0.00     0.198 A 
ATOM     59  F   UNL A   1      39.551  24.641  25.960  1.00  0.00    -0.203 F 
ATOM     60  F   UNL A   1      41.833  20.175  28.095  1.00  0.00    -0.200 F 
ATOM     61  C   UNL A   1      40.187  21.162  26.721  1.00  0.00     0.200 A 
ATOM     62  F   UNL A   1      38.568  22.201  25.353  1.00  0.00    -0.200 F 
ATOM     63  F   UNL A   1      39.720  19.953  26.383  1.00  0.00    -0.200 F 
ENDBRANCH  29  53
BRANCH  41  64
ATOM     64  C   UNL A   1      47.020  27.195  25.853  1.00  0.00     0.064 A 
ATOM     65  C   UNL A   1      47.117  27.535  24.497  1.00  0.00     0.173 A 
ATOM     66  C   UNL A   1      48.110  26.554  26.459  1.00  0.00     0.173 A 
ATOM     67  F   UNL A   1      46.088  28.131  23.875  1.00  0.00    -0.203 F 
ATOM     68  C   UNL A   1      48.265  27.238  23.771  1.00  0.00     0.198 A 
ATOM     69  C   UNL A   1      49.267  26.286  25.738  1.00  0.00     0.198 A 
ATOM     70  F   UNL A   1      48.059  26.218  27.758  1.00  0.00    -0.203 F 
ATOM     71  F   UNL A   1      48.328  27.542  22.468  1.00  0.00    -0.200 F 
ATOM     72  C   UNL A   1      49.341  26.624  24.395  1.00  0.00     0.200 A 
ATOM     73  F   UNL A   1      50.311  25.705  26.344  1.00  0.00    -0.200 F 
ATOM     74  F   UNL A   1      50.454  26.355  23.698  1.00  0.00    -0.200 F 
ENDBRANCH  41  64
ENDBRANCH  15  16
ENDBRANCH   8  10
ENDBRANCH   7   8
ENDBRANCH   6   7
ENDBRANCH   5   6
ENDBRANCH   4   5
ENDBRANCH   3   4
ENDBRANCH   2   3
ENDBRANCH   1   2
BRANCH   1  75
ATOM     75  C   UNL A   1      33.354  29.319  26.384  1.00  0.00     0.188 C 
BRANCH  75  76
ATOM     76  C   UNL A   1      32.363  28.345  25.705  1.00  0.00     0.188 C 
BRANCH  76  77
ATOM     77  O   UNL A   1      32.906  27.463  24.719  1.00  0.00    -0.376 OA
BRANCH  77  78
ATOM     78  C   UNL A   1      33.963  26.593  25.161  1.00  0.00     0.202 C 
BRANCH  78  79
ATOM     79  C   UNL A   1      33.487  25.351  25.926  1.00  0.00     0.261 C 
BRANCH  79  80
ATOM     80  O   UNL A   1      34.540  24.388  25.843  1.00  0.00    -0.462 OA
BRANCH  80  81
ATOM     81  C   UNL A   1      34.516  23.179  26.455  1.00  0.00     0.328 C 
ATOM     82  O   UNL A   1      34.614  22.997  27.656  1.00  0.00    -0.250 OA
BRANCH  81  83
ATOM     83  C   UNL A   1      34.492  22.134  25.323  1.00  0.00     0.195 C 
ATOM     84  C   UNL A   1      35.528  21.123  25.901  1.00  0.00     0.037 C 
ATOM     85  N   UNL A   1      33.250  21.489  24.803  1.00  0.00    -0.325 N 
ATOM     86  C   UNL A   1      35.808  19.943  25.018  1.00  0.00     0.008 C 
ATOM     87  C   UNL A   1      33.515  20.174  24.036  1.00  0.00     0.089 C 
ATOM     88  C   UNL A   1      34.488  19.231  24.794  1.00  0.00     0.012 C 
ATOM     89  C   UNL A   1      32.293  19.351  23.553  1.00  0.00     0.025 C 
ATOM     90  C   UNL A   1      34.780  17.897  24.096  1.00  0.00     0.006 C 
ATOM     91  C   UNL A   1      32.626  18.009  22.901  1.00  0.00     0.002 C 
ATOM     92  C   UNL A   1      33.500  17.150  23.790  1.00  0.00     0.000 C 
BRANCH  85  93
ATOM     93  C   UNL A   1      32.054  22.169  24.512  1.00  0.00     0.227 C 
ATOM     94  O   UNL A   1      31.081  22.030  25.273  1.00  0.00    -0.275 OA
BRANCH  93  95
ATOM     95  C   UNL A   1      31.731  23.107  23.310  1.00  0.00     0.090 C 
ATOM     96  C   UNL A   1      30.570  24.107  23.397  1.00  0.00     0.075 C 
ATOM     97  C   UNL A   1      32.876  23.431  22.343  1.00  0.00     0.075 C 
ATOM     98  C   UNL A   1      30.844  25.504  22.842  1.00  0.00     0.261 C 
ATOM     99  C   UNL A   1      32.968  24.887  21.925  1.00  0.00     0.261 C 
ATOM    100  N   UNL A   1      31.667  25.471  21.634  1.00  0.00    -0.346 N 
ATOM    101  H   UNL A   1      31.795  26.422  21.288  1.00  0.00     0.346 HD
ATOM    102  H   UNL A   1      31.198  24.901  20.929  1.00  0.00     0.346 HD
ENDBRANCH  93  95
ENDBRANCH  85  93
ENDBRANCH  81  83
ENDBRANCH  80  81
ENDBRANCH  79  80
ENDBRANCH  78  79
ENDBRANCH  77  78
ENDBRANCH  76  77
ENDBRANCH  75  76
ENDBRANCH   1  75
TORSDOF 22
ENDMDL
MODEL 2
REMARK VINA RESULT:     -11.1      4.702      9.306
REMARK SMILES O=C(OCCOCCOCCOCCOC(=O)[C@H]1CC[C@@H]2CCCC[C@H]2N1C(=O)C1CC[NH2+]CC1)c1ccc(-c2c3nc(c(-c4c(F)c(F)c(F)c(F)c4F)c4ccc([nH]4)c(-c4c(F)c(F)c(F)c(F)c4F)c4nc(c(-c5c(F)c(F)c(F)c(F)c5F)c5ccc2[nH]5)C=C4)C=C3)cc1
REMARK SMILES IDX 9 1 8 2 7 3 6 4 5 5 4 6 3 7 2 8 1 9 36 10 37 11 98 12 38 13
REMARK SMILES IDX 97 14 39 15 40 16 41 17 91 18 42 19 96 20 90 21 92 22 43 23
REMARK SMILES IDX 95 24 89 25 88 26 44 28 76 29 56 30 75 31 57 32 60 33 74 34
REMARK SMILES IDX 93 35 58 36 59 37 73 39 94 40 61 41 45 42 46 43 54 44 47 45
REMARK SMILES IDX 48 46 52 47 55 48 49 49 50 50 53 51 51 52 77 53 78 54 86 55
REMARK SMILES IDX 79 56 80 57 84 58 87 59 81 60 82 61 85 62 83 63 62 64 63 65
REMARK SMILES IDX 71 66 64 67 65 68 69 69 72 70 66 71 67 72 70 73 68 74 10 75
REMARK SMILES IDX 11 76 12 77 13 78 14 79 15 80 16 81 17 82 18 83 19 84 27 85
REMARK SMILES IDX 20 86 26 87 21 88 25 89 22 90 24 91 23 92 28 93 29 94 30 95
REMARK SMILES IDX 31 96 35 97 32 98 34 99 33 100
REMARK H PARENT 92 27 60 38 33 101 33 102
REMARK Flexibility Score: inf
ROOT
ATOM      1  O   UNL A   1      33.627  28.159  24.472  1.00  0.00    -0.377 OA
ENDROOT
BRANCH   1   2
ATOM      2  C   UNL A   1      33.910  28.995  25.597  1.00  0.00     0.188 C 
BRANCH   2   3
ATOM      3  C   UNL A   1      33.193  28.613  26.892  1.00  0.00     0.188 C 
BRANCH   3   4
ATOM      4  O   UNL A   1      32.444  29.717  27.392  1.00  0.00    -0.376 OA
BRANCH   4   5
ATOM      5  C   UNL A   1      32.336  30.834  26.507  1.00  0.00     0.202 C 
BRANCH   5   6
ATOM      6  C   UNL A   1      32.071  32.138  27.251  1.00  0.00     0.261 C 
BRANCH   6   7
ATOM      7  O   UNL A   1      33.337  32.663  27.665  1.00  0.00    -0.460 OA
BRANCH   7   8
ATOM      8  C   UNL A   1      33.288  33.824  28.366  1.00  0.00     0.338 C 
ATOM      9  O   UNL A   1      32.532  34.763  28.206  1.00  0.00    -0.246 OA
BRANCH   8  10
ATOM     10  C   UNL A   1      34.367  33.737  29.360  1.00  0.00     0.060 A 
ATOM     11  C   UNL A   1      35.640  34.197  29.002  1.00  0.00     0.016 A 
ATOM     12  C   UNL A   1      34.149  33.102  30.580  1.00  0.00     0.016 A 
ATOM     13  C   UNL A   1      36.731  33.895  29.782  1.00  0.00     0.010 A 
ATOM     14  C   UNL A   1      35.250  32.816  31.386  1.00  0.00     0.010 A 
ATOM     15  C   UNL A   1      36.543  33.160  30.950  1.00  0.00    -0.014 A 
BRANCH  15  16
ATOM     16  C   UNL A   1      37.739  32.585  31.580  1.00  0.00     0.031 A 
ATOM     17  C   UNL A   1      38.451  31.488  30.851  1.00  0.00     0.074 A 
ATOM     18  C   UNL A   1      38.232  33.137  32.700  1.00  0.00     0.049 A 
ATOM     19  N   UNL A   1      39.403  30.701  31.267  1.00  0.00    -0.248 NA
ATOM     20  C   UNL A   1      38.038  31.247  29.455  1.00  0.00     0.031 C 
ATOM     21  C   UNL A   1      37.689  34.323  33.366  1.00  0.00     0.029 A 
ATOM     22  N   UNL A   1      39.305  32.782  33.467  1.00  0.00    -0.354 N 
ATOM     23  C   UNL A   1      39.650  29.830  30.215  1.00  0.00     0.074 A 
ATOM     24  C   UNL A   1      38.780  30.201  29.125  1.00  0.00     0.031 C 
ATOM     25  C   UNL A   1      38.429  34.591  34.452  1.00  0.00     0.029 A 
ATOM     26  C   UNL A   1      39.427  33.539  34.605  1.00  0.00     0.049 A 
ATOM     27  H   UNL A   1      39.928  32.057  33.228  1.00  0.00     0.167 HD
ATOM     28  C   UNL A   1      40.519  28.795  30.196  1.00  0.00     0.037 A 
ATOM     29  C   UNL A   1      40.205  33.338  35.683  1.00  0.00     0.037 A 
ATOM     30  C   UNL A   1      41.391  28.494  31.298  1.00  0.00     0.049 A 
ATOM     31  C   UNL A   1      41.095  32.124  35.678  1.00  0.00     0.074 A 
ATOM     32  C   UNL A   1      42.306  27.468  31.428  1.00  0.00     0.029 A 
ATOM     33  N   UNL A   1      41.449  29.243  32.467  1.00  0.00    -0.354 N 
ATOM     34  N   UNL A   1      41.280  31.239  34.724  1.00  0.00    -0.248 NA
ATOM     35  C   UNL A   1      41.854  31.855  36.904  1.00  0.00     0.031 C 
ATOM     36  C   UNL A   1      42.882  27.569  32.699  1.00  0.00     0.029 A 
ATOM     37  C   UNL A   1      42.359  28.683  33.342  1.00  0.00     0.049 A 
ATOM     38  H   UNL A   1      40.920  30.054  32.645  1.00  0.00     0.167 HD
ATOM     39  C   UNL A   1      42.173  30.309  35.231  1.00  0.00     0.074 A 
ATOM     40  C   UNL A   1      42.517  30.757  36.569  1.00  0.00     0.031 C 
ATOM     41  C   UNL A   1      42.662  29.181  34.660  1.00  0.00     0.037 A 
BRANCH  28  42
ATOM     42  C   UNL A   1      40.492  27.881  29.009  1.00  0.00     0.064 A 
ATOM     43  C   UNL A   1      41.227  28.136  27.843  1.00  0.00     0.173 A 
ATOM     44  C   UNL A   1      39.700  26.722  29.045  1.00  0.00     0.173 A 
ATOM     45  F   UNL A   1      41.975  29.245  27.746  1.00  0.00    -0.203 F 
ATOM     46  C   UNL A   1      41.158  27.272  26.750  1.00  0.00     0.198 A 
ATOM     47  C   UNL A   1      39.651  25.849  27.961  1.00  0.00     0.198 A 
ATOM     48  F   UNL A   1      38.968  26.437  30.133  1.00  0.00    -0.203 F 
ATOM     49  F   UNL A   1      41.835  27.556  25.629  1.00  0.00    -0.200 F 
ATOM     50  C   UNL A   1      40.376  26.128  26.813  1.00  0.00     0.200 A 
ATOM     51  F   UNL A   1      38.895  24.745  28.025  1.00  0.00    -0.200 F 
ATOM     52  F   UNL A   1      40.310  25.299  25.762  1.00  0.00    -0.200 F 
ENDBRANCH  28  42
BRANCH  29  53
ATOM     53  C   UNL A   1      40.082  34.221  36.873  1.00  0.00     0.064 A 
ATOM     54  C   UNL A   1      39.184  33.931  37.908  1.00  0.00     0.173 A 
ATOM     55  C   UNL A   1      40.857  35.387  36.995  1.00  0.00     0.173 A 
ATOM     56  F   UNL A   1      38.406  32.841  37.832  1.00  0.00    -0.203 F 
ATOM     57  C   UNL A   1      39.052  34.781  39.005  1.00  0.00     0.198 A 
ATOM     58  C   UNL A   1      40.750  36.215  38.110  1.00  0.00     0.198 A 
ATOM     59  F   UNL A   1      41.733  35.718  36.034  1.00  0.00    -0.203 F 
ATOM     60  F   UNL A   1      38.148  34.506  39.956  1.00  0.00    -0.200 F 
ATOM     61  C   UNL A   1      39.839  35.918  39.109  1.00  0.00     0.200 A 
ATOM     62  F   UNL A   1      41.528  37.302  38.212  1.00  0.00    -0.200 F 
ATOM     63  F   UNL A   1      39.713  36.730  40.167  1.00  0.00    -0.200 F 
ENDBRANCH  29  53
BRANCH  41  64
ATOM     64  C   UNL A   1      43.615  28.372  35.481  1.00  0.00     0.064 A 
ATOM     65  C   UNL A   1      44.999  28.572  35.392  1.00  0.00     0.173 A 
ATOM     66  C   UNL A   1      43.134  27.442  36.414  1.00  0.00     0.173 A 
ATOM     67  F   UNL A   1      45.500  29.439  34.497  1.00  0.00    -0.203 F 
ATOM     68  C   UNL A   1      45.873  27.860  36.205  1.00  0.00     0.198 A 
ATOM     69  C   UNL A   1      44.009  26.754  37.246  1.00  0.00     0.198 A 
ATOM     70  F   UNL A   1      41.815  27.226  36.535  1.00  0.00    -0.203 F 
ATOM     71  F   UNL A   1      47.195  28.041  36.084  1.00  0.00    -0.200 F 
ATOM     72  C   UNL A   1      45.377  26.961  37.138  1.00  0.00     0.200 A 
ATOM     73  F   UNL A   1      43.529  25.896  38.156  1.00  0.00    -0.200 F 
ATOM     74  F   UNL A   1      46.220  26.289  37.934  1.00  0.00    -0.200 F 
ENDBRANCH  41  64
ENDBRANCH  15  16
ENDBRANCH   8  10
ENDBRANCH   7   8
ENDBRANCH   6   7
ENDBRANCH   5   6
ENDBRANCH   4   5
ENDBRANCH   3   4
ENDBRANCH   2   3
ENDBRANCH   1   2
BRANCH   1  75
ATOM     75  C   UNL A   1      32.836  28.727  23.432  1.00  0.00     0.188 C 
BRANCH  75  76
ATOM     76  C   UNL A   1      31.319  28.910  23.665  1.00  0.00     0.188 C 
BRANCH  76  77
ATOM     77  O   UNL A   1      30.448  28.089  22.883  1.00  0.00    -0.376 OA
BRANCH  77  78
ATOM     78  C   UNL A   1      29.994  26.874  23.504  1.00  0.00     0.202 C 
BRANCH  78  79
ATOM     79  C   UNL A   1      30.777  25.619  23.095  1.00  0.00     0.261 C 
BRANCH  79  80
ATOM     80  O   UNL A   1      30.401  24.584  24.007  1.00  0.00    -0.462 OA
BRANCH  80  81
ATOM     81  C   UNL A   1      31.100  24.261  25.121  1.00  0.00     0.328 C 
ATOM     82  O   UNL A   1      30.631  24.158  26.241  1.00  0.00    -0.250 OA
BRANCH  81  83
ATOM     83  C   UNL A   1      32.579  24.209  24.691  1.00  0.00     0.195 C 
ATOM     84  C   UNL A   1      33.216  24.936  25.913  1.00  0.00     0.037 C 
ATOM     85  N   UNL A   1      33.294  22.958  24.297  1.00  0.00    -0.325 N 
ATOM     86  C   UNL A   1      34.703  25.116  25.826  1.00  0.00     0.008 C 
ATOM     87  C   UNL A   1      34.832  23.081  24.371  1.00  0.00     0.089 C 
ATOM     88  C   UNL A   1      35.312  23.734  25.696  1.00  0.00     0.012 C 
ATOM     89  C   UNL A   1      35.680  21.811  24.101  1.00  0.00     0.025 C 
ATOM     90  C   UNL A   1      36.833  23.868  25.843  1.00  0.00     0.006 C 
ATOM     91  C   UNL A   1      37.187  21.977  24.301  1.00  0.00     0.002 C 
ATOM     92  C   UNL A   1      37.518  22.530  25.671  1.00  0.00     0.000 C 
BRANCH  85  93
ATOM     93  C   UNL A   1      32.771  21.970  23.443  1.00  0.00     0.227 C 
ATOM     94  O   UNL A   1      32.652  22.221  22.232  1.00  0.00    -0.275 OA
BRANCH  93  95
ATOM     95  C   UNL A   1      32.273  20.537  23.800  1.00  0.00     0.090 C 
ATOM     96  C   UNL A   1      32.150  19.465  22.708  1.00  0.00     0.075 C 
ATOM     97  C   UNL A   1      32.475  20.060  25.243  1.00  0.00     0.075 C 
ATOM     98  C   UNL A   1      32.643  18.068  23.080  1.00  0.00     0.261 C 
ATOM     99  C   UNL A   1      32.980  18.636  25.381  1.00  0.00     0.261 C 
ATOM    100  N   UNL A   1      32.326  17.716  24.462  1.00  0.00    -0.346 N 
ATOM    101  H   UNL A   1      32.648  16.766  24.650  1.00  0.00     0.346 HD
ATOM    102  H   UNL A   1      31.316  17.776  24.596  1.00  0.00     0.346 HD
ENDBRANCH  93  95
ENDBRANCH  85  93
ENDBRANCH  81  83
ENDBRANCH  80  81
ENDBRANCH  79  80
ENDBRANCH  78  79
ENDBRANCH  77  78
ENDBRANCH  76  77
ENDBRANCH  75  76
ENDBRANCH   1  75
TORSDOF 22
ENDMDL
MODEL 3
REMARK VINA RESULT:     -10.8      4.746      9.261
REMARK SMILES O=C(OCCOCCOCCOCCOC(=O)[C@H]1CC[C@@H]2CCCC[C@H]2N1C(=O)C1CC[NH2+]CC1)c1ccc(-c2c3nc(c(-c4c(F)c(F)c(F)c(F)c4F)c4ccc([nH]4)c(-c4c(F)c(F)c(F)c(F)c4F)c4nc(c(-c5c(F)c(F)c(F)c(F)c5F)c5ccc2[nH]5)C=C4)C=C3)cc1
REMARK SMILES IDX 9 1 8 2 7 3 6 4 5 5 4 6 3 7 2 8 1 9 36 10 37 11 98 12 38 13
REMARK SMILES IDX 97 14 39 15 40 16 41 17 91 18 42 19 96 20 90 21 92 22 43 23
REMARK SMILES IDX 95 24 89 25 88 26 44 28 76 29 56 30 75 31 57 32 60 33 74 34
REMARK SMILES IDX 93 35 58 36 59 37 73 39 94 40 61 41 45 42 46 43 54 44 47 45
REMARK SMILES IDX 48 46 52 47 55 48 49 49 50 50 53 51 51 52 77 53 78 54 86 55
REMARK SMILES IDX 79 56 80 57 84 58 87 59 81 60 82 61 85 62 83 63 62 64 63 65
REMARK SMILES IDX 71 66 64 67 65 68 69 69 72 70 66 71 67 72 70 73 68 74 10 75
REMARK SMILES IDX 11 76 12 77 13 78 14 79 15 80 16 81 17 82 18 83 19 84 27 85
REMARK SMILES IDX 20 86 26 87 21 88 25 89 22 90 24 91 23 92 28 93 29 94 30 95
REMARK SMILES IDX 31 96 35 97 32 98 34 99 33 100
REMARK H PARENT 92 27 60 38 33 101 33 102
REMARK Flexibility Score: inf
ROOT
ATOM      1  O   UNL A   1      33.792  27.697  24.656  1.00  0.00    -0.377 OA
ENDROOT
BRANCH   1   2
ATOM      2  C   UNL A   1      33.454  27.378  26.008  1.00  0.00     0.188 C 
BRANCH   2   3
ATOM      3  C   UNL A   1      32.683  28.461  26.763  1.00  0.00     0.188 C 
BRANCH   3   4
ATOM      4  O   UNL A   1      33.582  29.399  27.347  1.00  0.00    -0.376 OA
BRANCH   4   5
ATOM      5  C   UNL A   1      33.187  30.769  27.248  1.00  0.00     0.202 C 
BRANCH   5   6
ATOM      6  C   UNL A   1      34.283  31.721  27.715  1.00  0.00     0.261 C 
BRANCH   6   7
ATOM      7  O   UNL A   1      33.903  33.043  27.314  1.00  0.00    -0.460 OA
BRANCH   7   8
ATOM      8  C   UNL A   1      33.521  33.871  28.320  1.00  0.00     0.338 C 
ATOM      9  O   UNL A   1      32.529  34.572  28.376  1.00  0.00    -0.246 OA
BRANCH   8  10
ATOM     10  C   UNL A   1      34.576  33.775  29.339  1.00  0.00     0.060 A 
ATOM     11  C   UNL A   1      35.856  34.244  29.018  1.00  0.00     0.016 A 
ATOM     12  C   UNL A   1      34.330  33.124  30.545  1.00  0.00     0.016 A 
ATOM     13  C   UNL A   1      36.928  33.935  29.821  1.00  0.00     0.010 A 
ATOM     14  C   UNL A   1      35.412  32.831  31.374  1.00  0.00     0.010 A 
ATOM     15  C   UNL A   1      36.714  33.185  30.974  1.00  0.00    -0.014 A 
BRANCH  15  16
ATOM     16  C   UNL A   1      37.896  32.605  31.627  1.00  0.00     0.031 A 
ATOM     17  C   UNL A   1      38.610  31.498  30.917  1.00  0.00     0.074 A 
ATOM     18  C   UNL A   1      38.377  33.163  32.749  1.00  0.00     0.049 A 
ATOM     19  N   UNL A   1      39.549  30.706  31.353  1.00  0.00    -0.248 NA
ATOM     20  C   UNL A   1      38.216  31.249  29.517  1.00  0.00     0.031 C 
ATOM     21  C   UNL A   1      37.833  34.358  33.398  1.00  0.00     0.029 A 
ATOM     22  N   UNL A   1      39.436  32.805  33.535  1.00  0.00    -0.354 N 
ATOM     23  C   UNL A   1      39.806  29.825  30.312  1.00  0.00     0.074 A 
ATOM     24  C   UNL A   1      38.954  30.194  29.206  1.00  0.00     0.031 C 
ATOM     25  C   UNL A   1      38.560  34.629  34.493  1.00  0.00     0.029 A 
ATOM     26  C   UNL A   1      39.547  33.570  34.669  1.00  0.00     0.049 A 
ATOM     27  H   UNL A   1      40.057  32.073  33.311  1.00  0.00     0.167 HD
ATOM     28  C   UNL A   1      40.667  28.783  30.313  1.00  0.00     0.037 A 
ATOM     29  C   UNL A   1      40.307  33.372  35.759  1.00  0.00     0.037 A 
ATOM     30  C   UNL A   1      41.520  28.484  31.430  1.00  0.00     0.049 A 
ATOM     31  C   UNL A   1      41.188  32.151  35.777  1.00  0.00     0.074 A 
ATOM     32  C   UNL A   1      42.425  27.452  31.582  1.00  0.00     0.029 A 
ATOM     33  N   UNL A   1      41.567  29.243  32.594  1.00  0.00    -0.354 N 
ATOM     34  N   UNL A   1      41.380  31.257  34.833  1.00  0.00    -0.248 NA
ATOM     35  C   UNL A   1      41.927  31.886  37.015  1.00  0.00     0.031 C 
ATOM     36  C   UNL A   1      42.983  27.560  32.860  1.00  0.00     0.029 A 
ATOM     37  C   UNL A   1      42.459  28.682  33.486  1.00  0.00     0.049 A 
ATOM     38  H   UNL A   1      41.041  30.059  32.758  1.00  0.00     0.167 HD
ATOM     39  C   UNL A   1      42.259  30.325  35.360  1.00  0.00     0.074 A 
ATOM     40  C   UNL A   1      42.586  30.780  36.699  1.00  0.00     0.031 C 
ATOM     41  C   UNL A   1      42.747  29.188  34.805  1.00  0.00     0.037 A 
BRANCH  28  42
ATOM     42  C   UNL A   1      40.649  27.861  29.133  1.00  0.00     0.064 A 
ATOM     43  C   UNL A   1      41.473  28.050  28.014  1.00  0.00     0.173 A 
ATOM     44  C   UNL A   1      39.777  26.760  29.127  1.00  0.00     0.173 A 
ATOM     45  F   UNL A   1      42.302  29.103  27.957  1.00  0.00    -0.203 F 
ATOM     46  C   UNL A   1      41.412  27.181  26.925  1.00  0.00     0.198 A 
ATOM     47  C   UNL A   1      39.735  25.881  28.048  1.00  0.00     0.198 A 
ATOM     48  F   UNL A   1      38.960  26.540  30.168  1.00  0.00    -0.203 F 
ATOM     49  F   UNL A   1      42.176  27.405  25.847  1.00  0.00    -0.200 F 
ATOM     50  C   UNL A   1      40.549  26.095  26.946  1.00  0.00     0.200 A 
ATOM     51  F   UNL A   1      38.900  24.833  28.071  1.00  0.00    -0.200 F 
ATOM     52  F   UNL A   1      40.491  25.261  25.899  1.00  0.00    -0.200 F 
ENDBRANCH  28  42
BRANCH  29  53
ATOM     53  C   UNL A   1      40.174  34.265  36.940  1.00  0.00     0.064 A 
ATOM     54  C   UNL A   1      40.990  35.393  37.098  1.00  0.00     0.173 A 
ATOM     55  C   UNL A   1      39.231  34.001  37.948  1.00  0.00     0.173 A 
ATOM     56  F   UNL A   1      41.921  35.680  36.176  1.00  0.00    -0.203 F 
ATOM     57  C   UNL A   1      40.881  36.208  38.225  1.00  0.00     0.198 A 
ATOM     58  C   UNL A   1      39.099  34.837  39.054  1.00  0.00     0.198 A 
ATOM     59  F   UNL A   1      38.424  32.934  37.852  1.00  0.00    -0.203 F 
ATOM     60  F   UNL A   1      41.709  37.251  38.375  1.00  0.00    -0.200 F 
ATOM     61  C   UNL A   1      39.932  35.934  39.198  1.00  0.00     0.200 A 
ATOM     62  F   UNL A   1      38.166  34.577  39.980  1.00  0.00    -0.200 F 
ATOM     63  F   UNL A   1      39.826  36.721  40.277  1.00  0.00    -0.200 F 
ENDBRANCH  29  53
BRANCH  41  64
ATOM     64  C   UNL A   1      43.682  28.378  35.646  1.00  0.00     0.064 A 
ATOM     65  C   UNL A   1      43.205  27.379  36.504  1.00  0.00     0.173 A 
ATOM     66  C   UNL A   1      45.068  28.557  35.536  1.00  0.00     0.173 A 
ATOM     67  F   UNL A   1      41.884  27.189  36.651  1.00  0.00    -0.203 F 
ATOM     68  C   UNL A   1      44.086  26.589  37.233  1.00  0.00     0.198 A 
ATOM     69  C   UNL A   1      45.947  27.746  36.244  1.00  0.00     0.198 A 
ATOM     70  F   UNL A   1      45.566  29.499  34.719  1.00  0.00    -0.203 F 
ATOM     71  F   UNL A   1      43.612  25.660  38.073  1.00  0.00    -0.200 F 
ATOM     72  C   UNL A   1      45.455  26.766  37.094  1.00  0.00     0.200 A 
ATOM     73  F   UNL A   1      47.269  27.909  36.098  1.00  0.00    -0.200 F 
ATOM     74  F   UNL A   1      46.304  25.992  37.783  1.00  0.00    -0.200 F 
ENDBRANCH  41  64
ENDBRANCH  15  16
ENDBRANCH   8  10
ENDBRANCH   7   8
ENDBRANCH   6   7
ENDBRANCH   5   6
ENDBRANCH   4   5
ENDBRANCH   3   4
ENDBRANCH   2   3
ENDBRANCH   1   2
BRANCH   1  75
ATOM     75  C   UNL A   1      33.183  28.859  24.099  1.00  0.00     0.188 C 
BRANCH  75  76
ATOM     76  C   UNL A   1      31.849  28.706  23.332  1.00  0.00     0.188 C 
BRANCH  76  77
ATOM     77  O   UNL A   1      31.279  27.396  23.293  1.00  0.00    -0.376 OA
BRANCH  77  78
ATOM     78  C   UNL A   1      31.233  26.763  22.002  1.00  0.00     0.202 C 
BRANCH  78  79
ATOM     79  C   UNL A   1      32.453  25.891  21.676  1.00  0.00     0.261 C 
BRANCH  79  80
ATOM     80  O   UNL A   1      32.295  24.672  22.406  1.00  0.00    -0.462 OA
BRANCH  80  81
ATOM     81  C   UNL A   1      33.326  23.926  22.872  1.00  0.00     0.328 C 
ATOM     82  O   UNL A   1      34.503  24.237  22.813  1.00  0.00    -0.250 OA
BRANCH  81  83
ATOM     83  C   UNL A   1      32.707  22.592  23.332  1.00  0.00     0.195 C 
ATOM     84  C   UNL A   1      32.440  21.951  21.937  1.00  0.00     0.037 C 
ATOM     85  N   UNL A   1      33.349  21.662  24.307  1.00  0.00    -0.325 N 
ATOM     86  C   UNL A   1      31.778  20.606  21.984  1.00  0.00     0.008 C 
ATOM     87  C   UNL A   1      32.789  20.223  24.244  1.00  0.00     0.089 C 
ATOM     88  C   UNL A   1      32.682  19.693  22.788  1.00  0.00     0.012 C 
ATOM     89  C   UNL A   1      33.461  19.139  25.124  1.00  0.00     0.025 C 
ATOM     90  C   UNL A   1      32.151  18.260  22.654  1.00  0.00     0.006 C 
ATOM     91  C   UNL A   1      32.932  17.717  24.928  1.00  0.00     0.002 C 
ATOM     92  C   UNL A   1      32.975  17.293  23.476  1.00  0.00     0.000 C 
BRANCH  85  93
ATOM     93  C   UNL A   1      33.961  22.057  25.510  1.00  0.00     0.227 C 
ATOM     94  O   UNL A   1      33.248  22.437  26.453  1.00  0.00    -0.275 OA
BRANCH  93  95
ATOM     95  C   UNL A   1      35.479  22.115  25.859  1.00  0.00     0.090 C 
ATOM     96  C   UNL A   1      36.424  20.999  25.393  1.00  0.00     0.075 C 
ATOM     97  C   UNL A   1      36.089  23.496  26.126  1.00  0.00     0.075 C 
ATOM     98  C   UNL A   1      37.778  21.450  24.846  1.00  0.00     0.261 C 
ATOM     99  C   UNL A   1      37.440  23.735  25.477  1.00  0.00     0.261 C 
ATOM    100  N   UNL A   1      38.326  22.585  25.586  1.00  0.00    -0.346 N 
ATOM    101  H   UNL A   1      39.240  22.827  25.203  1.00  0.00     0.346 HD
ATOM    102  H   UNL A   1      38.415  22.327  26.570  1.00  0.00     0.346 HD
ENDBRANCH  93  95
ENDBRANCH  85  93
ENDBRANCH  81  83
ENDBRANCH  80  81
ENDBRANCH  79  80
ENDBRANCH  78  79
ENDBRANCH  77  78
ENDBRANCH  76  77
ENDBRANCH  75  76
ENDBRANCH   1  75
TORSDOF 22
ENDMDL
