MODEL 1
REMARK VINA RESULT:     -10.8      0.000      0.000
REMARK SMILES CCn1nc(C)c(Br)c1C[C@H](C(=O)OCCOCCOCCOCCOC(=O)c1ccc(-c2c3nc(c(-c4c(F)c(F)c(F)c(F)c4F)c4ccc([nH]4)c(-c4c(F)c(F)c(F)c(F)c4F)c4nc(c(-c5c(F)c(F)c(F)c(F)c5F)c5ccc2[nH]5)C=C4)C=C3)cc1)c1ccc(F)cc1
REMARK SMILES IDX 19 1 18 2 17 3 16 4 15 5 14 6 12 7 13 8 11 9 10 10 9 11 3 12
REMARK SMILES IDX 4 13 5 14 7 15 6 16 8 17 2 18 1 19 92 20 93 21 98 22 94 23
REMARK SMILES IDX 97 24 95 25 96 26 20 27 21 28 22 29 23 30 24 31 25 32 26 33
REMARK SMILES IDX 27 34 28 35 29 36 30 37 91 38 31 39 90 40 32 41 33 42 34 43
REMARK SMILES IDX 84 44 35 45 89 46 83 47 85 48 36 49 88 50 82 51 81 52 37 54
REMARK SMILES IDX 69 55 49 56 68 57 50 58 53 59 67 60 86 61 51 62 52 63 66 65
REMARK SMILES IDX 87 66 54 67 38 68 39 69 47 70 40 71 41 72 45 73 48 74 42 75
REMARK SMILES IDX 43 76 46 77 44 78 70 79 71 80 79 81 72 82 73 83 77 84 80 85
REMARK SMILES IDX 74 86 75 87 78 88 76 89 55 90 56 91 64 92 57 93 58 94 62 95
REMARK SMILES IDX 65 96 59 97 60 98 63 99 61 100
REMARK H PARENT 85 53 53 64
REMARK Flexibility Score: inf
ROOT
ATOM      1  C   UNL A   1      40.606  21.769  26.702  1.00  0.00     0.188 C 
ENDROOT
BRANCH   1   2
ATOM      2  C   UNL A   1      39.165  21.963  26.181  1.00  0.00     0.188 C 
BRANCH   2   3
ATOM      3  O   UNL A   1      38.652  20.906  25.394  1.00  0.00    -0.376 OA
BRANCH   3   4
ATOM      4  C   UNL A   1      37.419  21.016  24.707  1.00  0.00     0.202 C 
BRANCH   4   5
ATOM      5  C   UNL A   1      36.873  22.306  24.077  1.00  0.00     0.261 C 
BRANCH   5   6
ATOM      6  O   UNL A   1      35.457  22.425  23.980  1.00  0.00    -0.463 OA
BRANCH   6   7
ATOM      7  C   UNL A   1      34.717  22.548  25.114  1.00  0.00     0.313 C 
ATOM      8  O   UNL A   1      35.132  23.007  26.168  1.00  0.00    -0.252 OA
BRANCH   7   9
ATOM      9  C   UNL A   1      33.295  22.057  24.827  1.00  0.00     0.135 C 
BRANCH   9  10
ATOM     10  C   UNL A   1      32.529  23.079  23.962  1.00  0.00     0.077 C 
BRANCH  10  11
ATOM     11  C   UNL A   1      32.338  24.407  24.655  1.00  0.00     0.054 A 
ATOM     12  N   UNL A   1      31.818  24.623  25.918  1.00  0.00    -0.268 N 
ATOM     13  N   UNL A   1      31.706  25.940  26.217  1.00  0.00    -0.177 NA
ATOM     14  C   UNL A   1      32.129  26.589  25.131  1.00  0.00     0.074 A 
ATOM     15  C   UNL A   1      32.564  25.678  24.155  1.00  0.00     0.062 A 
ATOM     16  C   UNL A   1      32.073  28.072  25.107  1.00  0.00     0.070 C 
ATOM     17  Br  UNL A   1      33.252  26.143  22.472  1.00  0.00    -0.047 Br
BRANCH  12  18
ATOM     18  C   UNL A   1      31.274  23.735  26.932  1.00  0.00     0.141 C 
ATOM     19  C   UNL A   1      30.142  22.787  26.589  1.00  0.00     0.029 C 
ENDBRANCH  12  18
ENDBRANCH  10  11
ENDBRANCH   9  10
BRANCH   9  20
ATOM     20  C   UNL A   1      33.282  20.602  24.364  1.00  0.00    -0.033 A 
ATOM     21  C   UNL A   1      34.066  19.610  24.964  1.00  0.00     0.007 A 
ATOM     22  C   UNL A   1      32.419  20.224  23.311  1.00  0.00     0.007 A 
ATOM     23  C   UNL A   1      33.981  18.283  24.528  1.00  0.00     0.039 A 
ATOM     24  C   UNL A   1      32.316  18.898  22.895  1.00  0.00     0.039 A 
ATOM     25  C   UNL A   1      33.101  17.938  23.508  1.00  0.00     0.123 A 
ATOM     26  F   UNL A   1      33.012  16.662  23.111  1.00  0.00    -0.207 F 
ENDBRANCH   9  20
ENDBRANCH   7   9
ENDBRANCH   6   7
ENDBRANCH   5   6
ENDBRANCH   4   5
ENDBRANCH   3   4
ENDBRANCH   2   3
ENDBRANCH   1   2
BRANCH   1  27
ATOM     27  O   UNL A   1      40.759  20.651  27.553  1.00  0.00    -0.377 OA
BRANCH  27  28
ATOM     28  C   UNL A   1      41.827  19.752  27.263  1.00  0.00     0.188 C 
BRANCH  28  29
ATOM     29  C   UNL A   1      42.296  19.448  25.808  1.00  0.00     0.188 C 
BRANCH  29  30
ATOM     30  O   UNL A   1      43.324  18.474  25.668  1.00  0.00    -0.376 OA
BRANCH  30  31
ATOM     31  C   UNL A   1      44.675  18.788  25.396  1.00  0.00     0.202 C 
BRANCH  31  32
ATOM     32  C   UNL A   1      44.911  19.854  24.332  1.00  0.00     0.261 C 
BRANCH  32  33
ATOM     33  O   UNL A   1      45.508  21.015  24.872  1.00  0.00    -0.460 OA
BRANCH  33  34
ATOM     34  C   UNL A   1      45.003  22.159  24.397  1.00  0.00     0.338 C 
ATOM     35  O   UNL A   1      45.330  22.762  23.370  1.00  0.00    -0.246 OA
BRANCH  34  36
ATOM     36  C   UNL A   1      44.058  22.679  25.369  1.00  0.00     0.060 A 
ATOM     37  C   UNL A   1      43.121  23.583  24.869  1.00  0.00     0.016 A 
ATOM     38  C   UNL A   1      44.469  22.649  26.709  1.00  0.00     0.016 A 
ATOM     39  C   UNL A   1      42.855  24.685  25.633  1.00  0.00     0.010 A 
ATOM     40  C   UNL A   1      44.253  23.774  27.443  1.00  0.00     0.010 A 
ATOM     41  C   UNL A   1      43.531  24.806  26.849  1.00  0.00    -0.014 A 
BRANCH  41  42
ATOM     42  C   UNL A   1      43.402  26.039  27.578  1.00  0.00     0.031 A 
ATOM     43  C   UNL A   1      44.484  26.971  27.215  1.00  0.00     0.074 A 
ATOM     44  C   UNL A   1      42.322  26.263  28.348  1.00  0.00     0.049 A 
ATOM     45  N   UNL A   1      45.429  27.412  27.972  1.00  0.00    -0.248 NA
ATOM     46  C   UNL A   1      44.676  27.273  25.782  1.00  0.00     0.031 C 
ATOM     47  C   UNL A   1      41.127  25.413  28.458  1.00  0.00     0.029 A 
ATOM     48  N   UNL A   1      41.993  27.354  29.090  1.00  0.00    -0.354 N 
ATOM     49  C   UNL A   1      46.168  28.261  27.153  1.00  0.00     0.074 A 
ATOM     50  C   UNL A   1      45.839  27.921  25.802  1.00  0.00     0.031 C 
ATOM     51  C   UNL A   1      40.126  26.123  29.023  1.00  0.00     0.029 A 
ATOM     52  C   UNL A   1      40.642  27.420  29.419  1.00  0.00     0.049 A 
ATOM     53  H   UNL A   1      42.649  28.033  29.369  1.00  0.00     0.167 HD
ATOM     54  C   UNL A   1      46.637  29.429  27.667  1.00  0.00     0.037 A 
ATOM     55  C   UNL A   1      40.001  28.514  29.895  1.00  0.00     0.037 A 
ATOM     56  C   UNL A   1      46.672  29.361  29.106  1.00  0.00     0.049 A 
ATOM     57  C   UNL A   1      41.033  29.436  30.428  1.00  0.00     0.074 A 
ATOM     58  C   UNL A   1      47.452  28.740  30.055  1.00  0.00     0.029 A 
ATOM     59  N   UNL A   1      45.490  29.706  29.706  1.00  0.00    -0.354 N 
ATOM     60  N   UNL A   1      41.750  29.176  31.487  1.00  0.00    -0.248 NA
ATOM     61  C   UNL A   1      41.547  30.503  29.574  1.00  0.00     0.031 C 
ATOM     62  C   UNL A   1      46.642  28.620  31.224  1.00  0.00     0.029 A 
ATOM     63  C   UNL A   1      45.399  29.197  30.972  1.00  0.00     0.049 A 
ATOM     64  H   UNL A   1      44.791  30.253  29.279  1.00  0.00     0.167 HD
ATOM     65  C   UNL A   1      42.984  29.731  31.209  1.00  0.00     0.074 A 
ATOM     66  C   UNL A   1      42.754  30.672  30.124  1.00  0.00     0.031 C 
ATOM     67  C   UNL A   1      44.125  29.129  31.650  1.00  0.00     0.037 A 
BRANCH  54  68
ATOM     68  C   UNL A   1      46.508  30.769  26.958  1.00  0.00     0.064 A 
ATOM     69  C   UNL A   1      47.653  31.589  26.896  1.00  0.00     0.173 A 
ATOM     70  C   UNL A   1      45.288  31.418  26.652  1.00  0.00     0.173 A 
ATOM     71  F   UNL A   1      48.868  31.086  27.160  1.00  0.00    -0.203 F 
ATOM     72  C   UNL A   1      47.568  32.963  26.652  1.00  0.00     0.198 A 
ATOM     73  C   UNL A   1      45.214  32.780  26.368  1.00  0.00     0.198 A 
ATOM     74  F   UNL A   1      44.101  30.809  26.712  1.00  0.00    -0.203 F 
ATOM     75  F   UNL A   1      48.670  33.720  26.732  1.00  0.00    -0.200 F 
ATOM     76  C   UNL A   1      46.347  33.559  26.404  1.00  0.00     0.200 A 
ATOM     77  F   UNL A   1      44.015  33.339  26.145  1.00  0.00    -0.200 F 
ATOM     78  F   UNL A   1      46.253  34.884  26.241  1.00  0.00    -0.200 F 
ENDBRANCH  54  68
BRANCH  55  79
ATOM     79  C   UNL A   1      38.599  28.937  29.671  1.00  0.00     0.064 A 
ATOM     80  C   UNL A   1      37.769  29.282  30.751  1.00  0.00     0.173 A 
ATOM     81  C   UNL A   1      38.128  29.274  28.388  1.00  0.00     0.173 A 
ATOM     82  F   UNL A   1      38.161  29.029  32.008  1.00  0.00    -0.203 F 
ATOM     83  C   UNL A   1      36.560  29.957  30.560  1.00  0.00     0.198 A 
ATOM     84  C   UNL A   1      36.916  29.939  28.197  1.00  0.00     0.198 A 
ATOM     85  F   UNL A   1      38.878  29.052  27.298  1.00  0.00    -0.203 F 
ATOM     86  F   UNL A   1      35.829  30.330  31.620  1.00  0.00    -0.200 F 
ATOM     87  C   UNL A   1      36.140  30.295  29.284  1.00  0.00     0.200 A 
ATOM     88  F   UNL A   1      36.539  30.290  26.960  1.00  0.00    -0.200 F 
ATOM     89  F   UNL A   1      35.014  31.000  29.105  1.00  0.00    -0.200 F 
ENDBRANCH  55  79
BRANCH  67  90
ATOM     90  C   UNL A   1      44.001  28.213  32.825  1.00  0.00     0.064 A 
ATOM     91  C   UNL A   1      43.854  28.640  34.154  1.00  0.00     0.173 A 
ATOM     92  C   UNL A   1      43.955  26.835  32.575  1.00  0.00     0.173 A 
ATOM     93  F   UNL A   1      43.810  29.945  34.454  1.00  0.00    -0.203 F 
ATOM     94  C   UNL A   1      43.711  27.721  35.191  1.00  0.00     0.198 A 
ATOM     95  C   UNL A   1      43.772  25.922  33.606  1.00  0.00     0.198 A 
ATOM     96  F   UNL A   1      44.047  26.378  31.316  1.00  0.00    -0.203 F 
ATOM     97  F   UNL A   1      43.595  28.148  36.456  1.00  0.00    -0.200 F 
ATOM     98  C   UNL A   1      43.664  26.363  34.915  1.00  0.00     0.200 A 
ATOM     99  F   UNL A   1      43.683  24.614  33.328  1.00  0.00    -0.200 F 
ATOM    100  F   UNL A   1      43.491  25.481  35.907  1.00  0.00    -0.200 F 
ENDBRANCH  67  90
ENDBRANCH  41  42
ENDBRANCH  34  36
ENDBRANCH  33  34
ENDBRANCH  32  33
ENDBRANCH  31  32
ENDBRANCH  30  31
ENDBRANCH  29  30
ENDBRANCH  28  29
ENDBRANCH  27  28
ENDBRANCH   1  27
TORSDOF 24
ENDMDL
MODEL 2
REMARK VINA RESULT:     -10.7      2.334      3.612
REMARK SMILES CCn1nc(C)c(Br)c1C[C@H](C(=O)OCCOCCOCCOCCOC(=O)c1ccc(-c2c3nc(c(-c4c(F)c(F)c(F)c(F)c4F)c4ccc([nH]4)c(-c4c(F)c(F)c(F)c(F)c4F)c4nc(c(-c5c(F)c(F)c(F)c(F)c5F)c5ccc2[nH]5)C=C4)C=C3)cc1)c1ccc(F)cc1
REMARK SMILES IDX 19 1 18 2 17 3 16 4 15 5 14 6 12 7 13 8 11 9 10 10 9 11 3 12
REMARK SMILES IDX 4 13 5 14 7 15 6 16 8 17 2 18 1 19 92 20 93 21 98 22 94 23
REMARK SMILES IDX 97 24 95 25 96 26 20 27 21 28 22 29 23 30 24 31 25 32 26 33
REMARK SMILES IDX 27 34 28 35 29 36 30 37 91 38 31 39 90 40 32 41 33 42 34 43
REMARK SMILES IDX 84 44 35 45 89 46 83 47 85 48 36 49 88 50 82 51 81 52 37 54
REMARK SMILES IDX 69 55 49 56 68 57 50 58 53 59 67 60 86 61 51 62 52 63 66 65
REMARK SMILES IDX 87 66 54 67 38 68 39 69 47 70 40 71 41 72 45 73 48 74 42 75
REMARK SMILES IDX 43 76 46 77 44 78 70 79 71 80 79 81 72 82 73 83 77 84 80 85
REMARK SMILES IDX 74 86 75 87 78 88 76 89 55 90 56 91 64 92 57 93 58 94 62 95
REMARK SMILES IDX 65 96 59 97 60 98 63 99 61 100
REMARK H PARENT 85 53 53 64
REMARK Flexibility Score: inf
ROOT
ATOM      1  C   UNL A   1      37.058  21.596  24.330  1.00  0.00     0.188 C 
ENDROOT
BRANCH   1   2
ATOM      2  C   UNL A   1      36.714  21.945  25.794  1.00  0.00     0.188 C 
BRANCH   2   3
ATOM      3  O   UNL A   1      36.555  23.323  26.073  1.00  0.00    -0.376 OA
BRANCH   3   4
ATOM      4  C   UNL A   1      35.278  23.907  26.248  1.00  0.00     0.202 C 
BRANCH   4   5
ATOM      5  C   UNL A   1      33.952  23.134  26.281  1.00  0.00     0.261 C 
BRANCH   5   6
ATOM      6  O   UNL A   1      32.987  23.553  27.242  1.00  0.00    -0.463 OA
BRANCH   6   7
ATOM      7  C   UNL A   1      31.778  24.008  26.819  1.00  0.00     0.313 C 
ATOM      8  O   UNL A   1      30.703  23.671  27.294  1.00  0.00    -0.252 OA
BRANCH   7   9
ATOM      9  C   UNL A   1      32.003  25.025  25.695  1.00  0.00     0.135 C 
BRANCH   9  10
ATOM     10  C   UNL A   1      30.871  24.942  24.651  1.00  0.00     0.077 C 
BRANCH  10  11
ATOM     11  C   UNL A   1      31.280  25.478  23.300  1.00  0.00     0.054 A 
ATOM     12  N   UNL A   1      30.888  26.672  22.721  1.00  0.00    -0.268 N 
ATOM     13  N   UNL A   1      31.371  26.824  21.463  1.00  0.00    -0.177 NA
ATOM     14  C   UNL A   1      32.058  25.709  21.208  1.00  0.00     0.074 A 
ATOM     15  C   UNL A   1      32.058  24.867  22.332  1.00  0.00     0.062 A 
ATOM     16  C   UNL A   1      32.670  25.528  19.868  1.00  0.00     0.070 C 
ATOM     17  Br  UNL A   1      32.911  23.198  22.431  1.00  0.00    -0.047 Br
BRANCH  12  18
ATOM     18  C   UNL A   1      29.987  27.731  23.144  1.00  0.00     0.141 C 
ATOM     19  C   UNL A   1      30.525  28.942  23.879  1.00  0.00     0.029 C 
ENDBRANCH  12  18
ENDBRANCH  10  11
ENDBRANCH   9  10
BRANCH   9  20
ATOM     20  C   UNL A   1      32.347  26.407  26.244  1.00  0.00    -0.033 A 
ATOM     21  C   UNL A   1      33.568  27.041  25.988  1.00  0.00     0.007 A 
ATOM     22  C   UNL A   1      31.385  27.099  27.014  1.00  0.00     0.007 A 
ATOM     23  C   UNL A   1      33.812  28.328  26.480  1.00  0.00     0.039 A 
ATOM     24  C   UNL A   1      31.619  28.391  27.482  1.00  0.00     0.039 A 
ATOM     25  C   UNL A   1      32.834  28.994  27.211  1.00  0.00     0.123 A 
ATOM     26  F   UNL A   1      33.069  30.233  27.660  1.00  0.00    -0.207 F 
ENDBRANCH   9  20
ENDBRANCH   7   9
ENDBRANCH   6   7
ENDBRANCH   5   6
ENDBRANCH   4   5
ENDBRANCH   3   4
ENDBRANCH   2   3
ENDBRANCH   1   2
BRANCH   1  27
ATOM     27  O   UNL A   1      37.764  20.379  24.185  1.00  0.00    -0.377 OA
BRANCH  27  28
ATOM     28  C   UNL A   1      38.129  19.692  25.380  1.00  0.00     0.188 C 
BRANCH  28  29
ATOM     29  C   UNL A   1      39.612  19.387  25.753  1.00  0.00     0.188 C 
BRANCH  29  30
ATOM     30  O   UNL A   1      40.175  20.180  26.791  1.00  0.00    -0.376 OA
BRANCH  30  31
ATOM     31  C   UNL A   1      41.474  19.985  27.314  1.00  0.00     0.202 C 
BRANCH  31  32
ATOM     32  C   UNL A   1      42.550  19.606  26.303  1.00  0.00     0.261 C 
BRANCH  32  33
ATOM     33  O   UNL A   1      42.848  20.673  25.425  1.00  0.00    -0.460 OA
BRANCH  33  34
ATOM     34  C   UNL A   1      44.070  20.611  24.886  1.00  0.00     0.338 C 
ATOM     35  O   UNL A   1      44.685  19.605  24.520  1.00  0.00    -0.246 OA
BRANCH  34  36
ATOM     36  C   UNL A   1      44.645  21.944  24.906  1.00  0.00     0.060 A 
ATOM     37  C   UNL A   1      45.646  22.150  25.855  1.00  0.00     0.016 A 
ATOM     38  C   UNL A   1      43.845  22.971  24.387  1.00  0.00     0.016 A 
ATOM     39  C   UNL A   1      45.613  23.329  26.544  1.00  0.00     0.010 A 
ATOM     40  C   UNL A   1      43.772  24.119  25.113  1.00  0.00     0.010 A 
ATOM     41  C   UNL A   1      44.592  24.230  26.234  1.00  0.00    -0.014 A 
BRANCH  41  42
ATOM     42  C   UNL A   1      44.432  25.390  27.069  1.00  0.00     0.031 A 
ATOM     43  C   UNL A   1      45.528  26.347  26.841  1.00  0.00     0.074 A 
ATOM     44  C   UNL A   1      43.319  25.545  27.809  1.00  0.00     0.049 A 
ATOM     45  N   UNL A   1      46.440  26.712  27.676  1.00  0.00    -0.248 NA
ATOM     46  C   UNL A   1      45.782  26.781  25.452  1.00  0.00     0.031 C 
ATOM     47  C   UNL A   1      42.120  24.694  27.787  1.00  0.00     0.029 A 
ATOM     48  N   UNL A   1      42.958  26.564  28.635  1.00  0.00    -0.354 N 
ATOM     49  C   UNL A   1      47.214  27.630  26.972  1.00  0.00     0.074 A 
ATOM     50  C   UNL A   1      46.943  27.419  25.582  1.00  0.00     0.031 C 
ATOM     51  C   UNL A   1      41.096  25.352  28.372  1.00  0.00     0.029 A 
ATOM     52  C   UNL A   1      41.595  26.604  28.910  1.00  0.00     0.049 A 
ATOM     53  H   UNL A   1      43.602  27.212  29.003  1.00  0.00     0.167 HD
ATOM     54  C   UNL A   1      47.660  28.743  27.612  1.00  0.00     0.037 A 
ATOM     55  C   UNL A   1      40.933  27.652  29.458  1.00  0.00     0.037 A 
ATOM     56  C   UNL A   1      47.633  28.542  29.039  1.00  0.00     0.049 A 
ATOM     57  C   UNL A   1      41.942  28.516  30.118  1.00  0.00     0.074 A 
ATOM     58  C   UNL A   1      48.371  27.832  29.959  1.00  0.00     0.029 A 
ATOM     59  N   UNL A   1      46.426  28.834  29.617  1.00  0.00    -0.354 N 
ATOM     60  N   UNL A   1      42.613  28.156  31.178  1.00  0.00    -0.248 NA
ATOM     61  C   UNL A   1      42.493  29.656  29.391  1.00  0.00     0.031 C 
ATOM     62  C   UNL A   1      47.512  27.607  31.075  1.00  0.00     0.029 A 
ATOM     63  C   UNL A   1      46.280  28.209  30.825  1.00  0.00     0.049 A 
ATOM     64  H   UNL A   1      45.747  29.421  29.213  1.00  0.00     0.167 HD
ATOM     65  C   UNL A   1      43.858  28.729  31.007  1.00  0.00     0.074 A 
ATOM     66  C   UNL A   1      43.675  29.769  30.005  1.00  0.00     0.031 C 
ATOM     67  C   UNL A   1      44.979  28.084  31.439  1.00  0.00     0.037 A 
BRANCH  54  68
ATOM     68  C   UNL A   1      47.562  30.144  27.027  1.00  0.00     0.064 A 
ATOM     69  C   UNL A   1      48.675  30.996  27.179  1.00  0.00     0.173 A 
ATOM     70  C   UNL A   1      46.361  30.788  26.644  1.00  0.00     0.173 A 
ATOM     71  F   UNL A   1      49.870  30.501  27.535  1.00  0.00    -0.203 F 
ATOM     72  C   UNL A   1      48.566  32.385  27.062  1.00  0.00     0.198 A 
ATOM     73  C   UNL A   1      46.268  32.169  26.486  1.00  0.00     0.198 A 
ATOM     74  F   UNL A   1      45.199  30.144  26.504  1.00  0.00    -0.203 F 
ATOM     75  F   UNL A   1      49.622  33.159  27.344  1.00  0.00    -0.200 F 
ATOM     76  C   UNL A   1      47.359  32.971  26.731  1.00  0.00     0.200 A 
ATOM     77  F   UNL A   1      45.082  32.716  26.179  1.00  0.00    -0.200 F 
ATOM     78  F   UNL A   1      47.234  34.302  26.687  1.00  0.00    -0.200 F 
ENDBRANCH  54  68
BRANCH  55  79
ATOM     79  C   UNL A   1      39.543  28.100  29.215  1.00  0.00     0.064 A 
ATOM     80  C   UNL A   1      38.622  28.197  30.271  1.00  0.00     0.173 A 
ATOM     81  C   UNL A   1      39.166  28.700  27.998  1.00  0.00     0.173 A 
ATOM     82  F   UNL A   1      38.920  27.685  31.473  1.00  0.00    -0.203 F 
ATOM     83  C   UNL A   1      37.413  28.886  30.129  1.00  0.00     0.198 A 
ATOM     84  C   UNL A   1      37.955  29.379  27.854  1.00  0.00     0.198 A 
ATOM     85  F   UNL A   1      40.004  28.724  26.952  1.00  0.00    -0.203 F 
ATOM     86  F   UNL A   1      36.592  29.017  31.180  1.00  0.00    -0.200 F 
ATOM     87  C   UNL A   1      37.086  29.486  28.924  1.00  0.00     0.200 A 
ATOM     88  F   UNL A   1      37.667  29.984  26.694  1.00  0.00    -0.200 F 
ATOM     89  F   UNL A   1      35.959  30.202  28.807  1.00  0.00    -0.200 F 
ENDBRANCH  55  79
BRANCH  67  90
ATOM     90  C   UNL A   1      44.804  27.063  32.516  1.00  0.00     0.064 A 
ATOM     91  C   UNL A   1      44.685  27.362  33.882  1.00  0.00     0.173 A 
ATOM     92  C   UNL A   1      44.676  25.722  32.130  1.00  0.00     0.173 A 
ATOM     93  F   UNL A   1      44.719  28.631  34.313  1.00  0.00    -0.203 F 
ATOM     94  C   UNL A   1      44.492  26.353  34.823  1.00  0.00     0.198 A 
ATOM     95  C   UNL A   1      44.442  24.722  33.065  1.00  0.00     0.198 A 
ATOM     96  F   UNL A   1      44.738  25.389  30.830  1.00  0.00    -0.203 F 
ATOM     97  F   UNL A   1      44.404  26.656  36.126  1.00  0.00    -0.200 F 
ATOM     98  C   UNL A   1      44.363  25.035  34.412  1.00  0.00     0.200 A 
ATOM     99  F   UNL A   1      44.276  23.457  32.658  1.00  0.00    -0.200 F 
ATOM    100  F   UNL A   1      44.141  24.068  35.313  1.00  0.00    -0.200 F 
ENDBRANCH  67  90
ENDBRANCH  41  42
ENDBRANCH  34  36
ENDBRANCH  33  34
ENDBRANCH  32  33
ENDBRANCH  31  32
ENDBRANCH  30  31
ENDBRANCH  29  30
ENDBRANCH  28  29
ENDBRANCH  27  28
ENDBRANCH   1  27
TORSDOF 24
ENDMDL
MODEL 3
REMARK VINA RESULT:     -10.6      1.722      2.857
REMARK SMILES CCn1nc(C)c(Br)c1C[C@H](C(=O)OCCOCCOCCOCCOC(=O)c1ccc(-c2c3nc(c(-c4c(F)c(F)c(F)c(F)c4F)c4ccc([nH]4)c(-c4c(F)c(F)c(F)c(F)c4F)c4nc(c(-c5c(F)c(F)c(F)c(F)c5F)c5ccc2[nH]5)C=C4)C=C3)cc1)c1ccc(F)cc1
REMARK SMILES IDX 19 1 18 2 17 3 16 4 15 5 14 6 12 7 13 8 11 9 10 10 9 11 3 12
REMARK SMILES IDX 4 13 5 14 7 15 6 16 8 17 2 18 1 19 92 20 93 21 98 22 94 23
REMARK SMILES IDX 97 24 95 25 96 26 20 27 21 28 22 29 23 30 24 31 25 32 26 33
REMARK SMILES IDX 27 34 28 35 29 36 30 37 91 38 31 39 90 40 32 41 33 42 34 43
REMARK SMILES IDX 84 44 35 45 89 46 83 47 85 48 36 49 88 50 82 51 81 52 37 54
REMARK SMILES IDX 69 55 49 56 68 57 50 58 53 59 67 60 86 61 51 62 52 63 66 65
REMARK SMILES IDX 87 66 54 67 38 68 39 69 47 70 40 71 41 72 45 73 48 74 42 75
REMARK SMILES IDX 43 76 46 77 44 78 70 79 71 80 79 81 72 82 73 83 77 84 80 85
REMARK SMILES IDX 74 86 75 87 78 88 76 89 55 90 56 91 64 92 57 93 58 94 62 95
REMARK SMILES IDX 65 96 59 97 60 98 63 99 61 100
REMARK H PARENT 85 53 53 64
REMARK Flexibility Score: inf
ROOT
ATOM      1  C   UNL A   1      36.648  21.812  24.506  1.00  0.00     0.188 C 
ENDROOT
BRANCH   1   2
ATOM      2  C   UNL A   1      35.268  21.304  24.979  1.00  0.00     0.188 C 
BRANCH   2   3
ATOM      3  O   UNL A   1      34.917  21.634  26.309  1.00  0.00    -0.376 OA
BRANCH   3   4
ATOM      4  C   UNL A   1      33.608  21.435  26.808  1.00  0.00     0.202 C 
BRANCH   4   5
ATOM      5  C   UNL A   1      32.897  22.356  27.810  1.00  0.00     0.261 C 
BRANCH   5   6
ATOM      6  O   UNL A   1      32.460  23.622  27.322  1.00  0.00    -0.463 OA
BRANCH   6   7
ATOM      7  C   UNL A   1      31.183  23.763  26.880  1.00  0.00     0.313 C 
ATOM      8  O   UNL A   1      30.217  23.176  27.346  1.00  0.00    -0.252 OA
BRANCH   7   9
ATOM      9  C   UNL A   1      31.167  24.794  25.747  1.00  0.00     0.135 C 
BRANCH   9  10
ATOM     10  C   UNL A   1      31.497  26.201  26.286  1.00  0.00     0.077 C 
BRANCH  10  11
ATOM     11  C   UNL A   1      31.447  27.265  25.216  1.00  0.00     0.054 A 
ATOM     12  N   UNL A   1      32.371  28.270  24.994  1.00  0.00    -0.268 N 
ATOM     13  N   UNL A   1      31.994  29.113  24.001  1.00  0.00    -0.177 NA
ATOM     14  C   UNL A   1      30.803  28.673  23.592  1.00  0.00     0.074 A 
ATOM     15  C   UNL A   1      30.445  27.509  24.292  1.00  0.00     0.062 A 
ATOM     16  C   UNL A   1      30.075  29.427  22.541  1.00  0.00     0.070 C 
ATOM     17  Br  UNL A   1      28.858  26.539  24.037  1.00  0.00    -0.047 Br
BRANCH  12  18
ATOM     18  C   UNL A   1      33.594  28.661  25.673  1.00  0.00     0.141 C 
ATOM     19  C   UNL A   1      33.545  29.188  27.093  1.00  0.00     0.029 C 
ENDBRANCH  12  18
ENDBRANCH  10  11
ENDBRANCH   9  10
BRANCH   9  20
ATOM     20  C   UNL A   1      31.954  24.309  24.532  1.00  0.00    -0.033 A 
ATOM     21  C   UNL A   1      33.150  24.906  24.118  1.00  0.00     0.007 A 
ATOM     22  C   UNL A   1      31.482  23.189  23.810  1.00  0.00     0.007 A 
ATOM     23  C   UNL A   1      33.853  24.391  23.022  1.00  0.00     0.039 A 
ATOM     24  C   UNL A   1      32.196  22.662  22.736  1.00  0.00     0.039 A 
ATOM     25  C   UNL A   1      33.377  23.270  22.350  1.00  0.00     0.123 A 
ATOM     26  F   UNL A   1      34.068  22.773  21.316  1.00  0.00    -0.207 F 
ENDBRANCH   9  20
ENDBRANCH   7   9
ENDBRANCH   6   7
ENDBRANCH   5   6
ENDBRANCH   4   5
ENDBRANCH   3   4
ENDBRANCH   2   3
ENDBRANCH   1   2
BRANCH   1  27
ATOM     27  O   UNL A   1      37.736  21.235  25.200  1.00  0.00    -0.377 OA
BRANCH  27  28
ATOM     28  C   UNL A   1      38.525  22.102  26.011  1.00  0.00     0.188 C 
BRANCH  28  29
ATOM     29  C   UNL A   1      40.070  21.945  26.152  1.00  0.00     0.188 C 
BRANCH  29  30
ATOM     30  O   UNL A   1      40.525  20.775  26.819  1.00  0.00    -0.376 OA
BRANCH  30  31
ATOM     31  C   UNL A   1      40.846  19.566  26.160  1.00  0.00     0.202 C 
BRANCH  31  32
ATOM     32  C   UNL A   1      42.323  19.189  26.141  1.00  0.00     0.261 C 
BRANCH  32  33
ATOM     33  O   UNL A   1      43.158  20.329  26.126  1.00  0.00    -0.460 OA
BRANCH  33  34
ATOM     34  C   UNL A   1      43.877  20.463  25.006  1.00  0.00     0.338 C 
ATOM     35  O   UNL A   1      44.158  19.592  24.179  1.00  0.00    -0.246 OA
BRANCH  34  36
ATOM     36  C   UNL A   1      44.407  21.814  24.965  1.00  0.00     0.060 A 
ATOM     37  C   UNL A   1      45.486  22.061  25.814  1.00  0.00     0.016 A 
ATOM     38  C   UNL A   1      43.529  22.810  24.517  1.00  0.00     0.016 A 
ATOM     39  C   UNL A   1      45.478  23.244  26.497  1.00  0.00     0.010 A 
ATOM     40  C   UNL A   1      43.486  23.962  25.240  1.00  0.00     0.010 A 
ATOM     41  C   UNL A   1      44.403  24.109  26.279  1.00  0.00    -0.014 A 
BRANCH  41  42
ATOM     42  C   UNL A   1      44.283  25.271  27.118  1.00  0.00     0.031 A 
ATOM     43  C   UNL A   1      45.400  26.201  26.877  1.00  0.00     0.074 A 
ATOM     44  C   UNL A   1      43.185  25.451  27.875  1.00  0.00     0.049 A 
ATOM     45  N   UNL A   1      46.332  26.541  27.700  1.00  0.00    -0.248 NA
ATOM     46  C   UNL A   1      45.645  26.632  25.486  1.00  0.00     0.031 C 
ATOM     47  C   UNL A   1      41.966  24.630  27.869  1.00  0.00     0.029 A 
ATOM     48  N   UNL A   1      42.862  26.476  28.708  1.00  0.00    -0.354 N 
ATOM     49  C   UNL A   1      47.118  27.442  26.987  1.00  0.00     0.074 A 
ATOM     50  C   UNL A   1      46.823  27.241  25.601  1.00  0.00     0.031 C 
ATOM     51  C   UNL A   1      40.967  25.311  28.470  1.00  0.00     0.029 A 
ATOM     52  C   UNL A   1      41.504  26.550  29.002  1.00  0.00     0.049 A 
ATOM     53  H   UNL A   1      43.526  27.107  29.069  1.00  0.00     0.167 HD
ATOM     54  C   UNL A   1      47.601  28.542  27.623  1.00  0.00     0.037 A 
ATOM     55  C   UNL A   1      40.876  27.612  29.562  1.00  0.00     0.037 A 
ATOM     56  C   UNL A   1      47.589  28.338  29.050  1.00  0.00     0.049 A 
ATOM     57  C   UNL A   1      41.915  28.450  30.210  1.00  0.00     0.074 A 
ATOM     58  C   UNL A   1      48.323  27.607  29.957  1.00  0.00     0.029 A 
ATOM     59  N   UNL A   1      46.397  28.658  29.646  1.00  0.00    -0.354 N 
ATOM     60  N   UNL A   1      42.591  28.070  31.259  1.00  0.00    -0.248 NA
ATOM     61  C   UNL A   1      42.483  29.577  29.477  1.00  0.00     0.031 C 
ATOM     62  C   UNL A   1      47.473  27.401  31.085  1.00  0.00     0.029 A 
ATOM     63  C   UNL A   1      46.254  28.034  30.854  1.00  0.00     0.049 A 
ATOM     64  H   UNL A   1      45.727  29.263  29.253  1.00  0.00     0.167 HD
ATOM     65  C   UNL A   1      43.848  28.613  31.072  1.00  0.00     0.074 A 
ATOM     66  C   UNL A   1      43.676  29.659  30.075  1.00  0.00     0.031 C 
ATOM     67  C   UNL A   1      44.958  27.939  31.486  1.00  0.00     0.037 A 
BRANCH  54  68
ATOM     68  C   UNL A   1      47.529  29.946  27.042  1.00  0.00     0.064 A 
ATOM     69  C   UNL A   1      48.658  30.776  27.196  1.00  0.00     0.173 A 
ATOM     70  C   UNL A   1      46.340  30.614  26.662  1.00  0.00     0.173 A 
ATOM     71  F   UNL A   1      49.843  30.258  27.549  1.00  0.00    -0.203 F 
ATOM     72  C   UNL A   1      48.575  32.167  27.083  1.00  0.00     0.198 A 
ATOM     73  C   UNL A   1      46.274  31.997  26.509  1.00  0.00     0.198 A 
ATOM     74  F   UNL A   1      45.166  29.993  26.522  1.00  0.00    -0.203 F 
ATOM     75  F   UNL A   1      49.646  32.920  27.367  1.00  0.00    -0.200 F 
ATOM     76  C   UNL A   1      47.380  32.777  26.755  1.00  0.00     0.200 A 
ATOM     77  F   UNL A   1      45.098  32.567  26.205  1.00  0.00    -0.200 F 
ATOM     78  F   UNL A   1      47.280  34.111  26.716  1.00  0.00    -0.200 F 
ENDBRANCH  54  68
BRANCH  55  79
ATOM     79  C   UNL A   1      39.494  28.094  29.340  1.00  0.00     0.064 A 
ATOM     80  C   UNL A   1      38.591  28.213  30.409  1.00  0.00     0.173 A 
ATOM     81  C   UNL A   1      39.114  28.706  28.130  1.00  0.00     0.173 A 
ATOM     82  F   UNL A   1      38.893  27.690  31.606  1.00  0.00    -0.203 F 
ATOM     83  C   UNL A   1      37.397  28.931  30.286  1.00  0.00     0.198 A 
ATOM     84  C   UNL A   1      37.918  29.415  28.004  1.00  0.00     0.198 A 
ATOM     85  F   UNL A   1      39.938  28.712  27.072  1.00  0.00    -0.203 F 
ATOM     86  F   UNL A   1      36.595  29.080  31.348  1.00  0.00    -0.200 F 
ATOM     87  C   UNL A   1      37.068  29.542  29.087  1.00  0.00     0.200 A 
ATOM     88  F   UNL A   1      37.629  30.030  26.849  1.00  0.00    -0.200 F 
ATOM     89  F   UNL A   1      35.957  30.286  28.987  1.00  0.00    -0.200 F 
ENDBRANCH  55  79
BRANCH  67  90
ATOM     90  C   UNL A   1      44.774  26.920  32.564  1.00  0.00     0.064 A 
ATOM     91  C   UNL A   1      44.664  27.220  33.930  1.00  0.00     0.173 A 
ATOM     92  C   UNL A   1      44.626  25.581  32.177  1.00  0.00     0.173 A 
ATOM     93  F   UNL A   1      44.717  28.488  34.361  1.00  0.00    -0.203 F 
ATOM     94  C   UNL A   1      44.461  26.213  34.871  1.00  0.00     0.198 A 
ATOM     95  C   UNL A   1      44.382  24.585  33.113  1.00  0.00     0.198 A 
ATOM     96  F   UNL A   1      44.679  25.249  30.877  1.00  0.00    -0.203 F 
ATOM     97  F   UNL A   1      44.382  26.517  36.175  1.00  0.00    -0.200 F 
ATOM     98  C   UNL A   1      44.313  24.897  34.461  1.00  0.00     0.200 A 
ATOM     99  F   UNL A   1      44.197  23.321  32.705  1.00  0.00    -0.200 F 
ATOM    100  F   UNL A   1      44.081  23.933  35.361  1.00  0.00    -0.200 F 
ENDBRANCH  67  90
ENDBRANCH  41  42
ENDBRANCH  34  36
ENDBRANCH  33  34
ENDBRANCH  32  33
ENDBRANCH  31  32
ENDBRANCH  30  31
ENDBRANCH  29  30
ENDBRANCH  28  29
ENDBRANCH  27  28
ENDBRANCH   1  27
TORSDOF 24
ENDMDL
