MODEL 1
REMARK VINA RESULT:     -10.8      0.000      0.000
REMARK SMILES Cc1csc(NC(=O)[C@@H]2CC=CC[C@H]2C(=O)OCCOCCOCCOCCOC(=O)c2ccc(-c3c4nc(c(-c5c(F)c(F)c(F)c(F)c5F)c5ccc([nH]5)c(-c5c(F)c(F)c(F)c(F)c5F)c5nc(c(-c6c(F)c(F)c(F)c(F)c6F)c6ccc3[nH]6)C=C5)C=C4)cc2)n1
REMARK SMILES IDX 23 1 22 2 21 3 20 4 19 5 18 6 17 7 15 8 16 9 14 10 9 11
REMARK SMILES IDX 10 12 11 13 13 14 12 15 7 16 6 17 8 19 5 20 1 21 2 22 3 23
REMARK SMILES IDX 95 24 4 25 24 26 25 27 26 28 27 29 28 30 29 31 30 32 31 33
REMARK SMILES IDX 32 34 33 35 94 36 34 37 93 38 35 39 36 40 37 41 87 42 38 43
REMARK SMILES IDX 92 44 86 45 88 46 39 47 91 48 85 49 84 50 40 52 72 53 52 54
REMARK SMILES IDX 71 55 53 56 56 57 70 58 89 59 54 60 55 61 69 63 90 64 57 65
REMARK SMILES IDX 41 66 42 67 50 68 43 69 44 70 48 71 51 72 45 73 46 74 49 75
REMARK SMILES IDX 47 76 73 77 74 78 82 79 75 80 76 81 80 82 83 83 77 84 78 85
REMARK SMILES IDX 81 86 79 87 58 88 59 89 67 90 60 91 61 92 65 93 68 94 62 95
REMARK SMILES IDX 63 96 66 97 64 98
REMARK H PARENT 6 18 88 51 56 62
REMARK Flexibility Score: inf
ROOT
ATOM      1  O   UNL A   1      33.289  23.024  27.260  1.00  0.00    -0.377 OA
ENDROOT
BRANCH   1   2
ATOM      2  C   UNL A   1      31.985  22.787  26.767  1.00  0.00     0.188 C 
BRANCH   2   3
ATOM      3  C   UNL A   1      31.048  23.959  26.509  1.00  0.00     0.188 C 
BRANCH   3   4
ATOM      4  O   UNL A   1      30.639  24.228  25.188  1.00  0.00    -0.376 OA
BRANCH   4   5
ATOM      5  C   UNL A   1      31.271  23.609  24.084  1.00  0.00     0.202 C 
BRANCH   5   6
ATOM      6  C   UNL A   1      32.584  24.084  23.430  1.00  0.00     0.261 C 
BRANCH   6   7
ATOM      7  O   UNL A   1      32.892  25.494  23.380  1.00  0.00    -0.463 OA
BRANCH   7   8
ATOM      8  C   UNL A   1      33.643  25.964  24.416  1.00  0.00     0.310 C 
ATOM      9  O   UNL A   1      34.463  25.276  25.020  1.00  0.00    -0.252 OA
BRANCH   8  10
ATOM     10  C   UNL A   1      33.235  27.343  24.932  1.00  0.00     0.116 C 
ATOM     11  C   UNL A   1      31.947  28.060  24.398  1.00  0.00     0.097 C 
ATOM     12  C   UNL A   1      31.549  29.191  25.359  1.00  0.00     0.041 C 
ATOM     13  C   UNL A   1      31.956  29.163  26.788  1.00  0.00    -0.030 C 
ATOM     14  C   UNL A   1      33.280  27.121  26.460  1.00  0.00     0.043 C 
ATOM     15  C   UNL A   1      32.756  28.230  27.294  1.00  0.00    -0.030 C 
BRANCH  11  16
ATOM     16  C   UNL A   1      32.167  28.667  22.967  1.00  0.00     0.230 C 
ATOM     17  N   UNL A   1      31.192  28.800  22.005  1.00  0.00    -0.302 N 
ATOM     18  H   UNL A   1      31.331  28.341  21.145  1.00  0.00     0.172 HD
ATOM     19  O   UNL A   1      33.313  28.941  22.581  1.00  0.00    -0.274 OA
BRANCH  17  20
ATOM     20  C   UNL A   1      30.039  29.529  22.161  1.00  0.00     0.189 A 
ATOM     21  C   UNL A   1      28.013  32.085  20.770  1.00  0.00     0.068 C 
ATOM     22  C   UNL A   1      28.427  30.914  21.583  1.00  0.00     0.051 A 
ATOM     23  C   UNL A   1      27.654  29.908  22.127  1.00  0.00     0.092 A 
ATOM     24  N   UNL A   1      29.778  30.735  21.758  1.00  0.00    -0.225 NA
ATOM     25  S   UNL A   1      28.685  28.668  22.755  1.00  0.00    -0.105 S 
ENDBRANCH  17  20
ENDBRANCH  11  16
ENDBRANCH   8  10
ENDBRANCH   7   8
ENDBRANCH   6   7
ENDBRANCH   5   6
ENDBRANCH   4   5
ENDBRANCH   3   4
ENDBRANCH   2   3
ENDBRANCH   1   2
BRANCH   1  26
ATOM     26  C   UNL A   1      34.346  22.159  26.891  1.00  0.00     0.188 C 
BRANCH  26  27
ATOM     27  C   UNL A   1      34.082  21.054  25.868  1.00  0.00     0.188 C 
BRANCH  27  28
ATOM     28  O   UNL A   1      34.767  21.114  24.619  1.00  0.00    -0.376 OA
BRANCH  28  29
ATOM     29  C   UNL A   1      36.060  21.711  24.551  1.00  0.00     0.202 C 
BRANCH  29  30
ATOM     30  C   UNL A   1      37.211  20.832  25.014  1.00  0.00     0.261 C 
BRANCH  30  31
ATOM     31  O   UNL A   1      38.413  21.610  25.086  1.00  0.00    -0.460 OA
BRANCH  31  32
ATOM     32  C   UNL A   1      39.237  21.295  26.110  1.00  0.00     0.338 C 
ATOM     33  O   UNL A   1      39.674  20.202  26.405  1.00  0.00    -0.246 OA
BRANCH  32  34
ATOM     34  C   UNL A   1      39.691  22.544  26.747  1.00  0.00     0.060 A 
ATOM     35  C   UNL A   1      39.093  23.740  26.329  1.00  0.00     0.016 A 
ATOM     36  C   UNL A   1      40.714  22.547  27.699  1.00  0.00     0.016 A 
ATOM     37  C   UNL A   1      39.570  24.954  26.806  1.00  0.00     0.010 A 
ATOM     38  C   UNL A   1      41.201  23.766  28.166  1.00  0.00     0.010 A 
ATOM     39  C   UNL A   1      40.664  24.970  27.677  1.00  0.00    -0.014 A 
BRANCH  39  40
ATOM     40  C   UNL A   1      41.395  26.235  27.887  1.00  0.00     0.031 A 
ATOM     41  C   UNL A   1      40.685  27.348  28.605  1.00  0.00     0.074 A 
ATOM     42  C   UNL A   1      42.665  26.374  27.476  1.00  0.00     0.049 A 
ATOM     43  N   UNL A   1      41.090  28.562  28.867  1.00  0.00    -0.248 NA
ATOM     44  C   UNL A   1      39.327  27.049  29.091  1.00  0.00     0.031 C 
ATOM     45  C   UNL A   1      43.458  25.337  26.821  1.00  0.00     0.029 A 
ATOM     46  N   UNL A   1      43.506  27.454  27.549  1.00  0.00    -0.354 N 
ATOM     47  C   UNL A   1      40.036  29.173  29.535  1.00  0.00     0.074 A 
ATOM     48  C   UNL A   1      38.962  28.209  29.613  1.00  0.00     0.031 C 
ATOM     49  C   UNL A   1      44.674  25.836  26.538  1.00  0.00     0.029 A 
ATOM     50  C   UNL A   1      44.725  27.235  26.960  1.00  0.00     0.049 A 
ATOM     51  H   UNL A   1      43.259  28.303  27.982  1.00  0.00     0.167 HD
ATOM     52  C   UNL A   1      39.978  30.425  30.044  1.00  0.00     0.037 A 
ATOM     53  C   UNL A   1      45.752  28.085  26.765  1.00  0.00     0.037 A 
ATOM     54  C   UNL A   1      41.057  31.373  29.956  1.00  0.00     0.049 A 
ATOM     55  C   UNL A   1      45.629  29.501  27.268  1.00  0.00     0.074 A 
ATOM     56  C   UNL A   1      41.115  32.663  30.451  1.00  0.00     0.029 A 
ATOM     57  N   UNL A   1      42.266  31.131  29.318  1.00  0.00    -0.354 N 
ATOM     58  N   UNL A   1      44.642  30.069  27.920  1.00  0.00    -0.248 NA
ATOM     59  C   UNL A   1      46.766  30.393  27.008  1.00  0.00     0.031 C 
ATOM     60  C   UNL A   1      42.333  33.225  30.053  1.00  0.00     0.029 A 
ATOM     61  C   UNL A   1      43.064  32.262  29.375  1.00  0.00     0.049 A 
ATOM     62  H   UNL A   1      42.519  30.282  28.888  1.00  0.00     0.167 HD
ATOM     63  C   UNL A   1      45.052  31.371  28.180  1.00  0.00     0.074 A 
ATOM     64  C   UNL A   1      46.383  31.503  27.625  1.00  0.00     0.031 C 
ATOM     65  C   UNL A   1      44.392  32.367  28.822  1.00  0.00     0.037 A 
BRANCH  52  66
ATOM     66  C   UNL A   1      38.694  30.853  30.695  1.00  0.00     0.064 A 
ATOM     67  C   UNL A   1      37.589  31.287  29.948  1.00  0.00     0.173 A 
ATOM     68  C   UNL A   1      38.563  30.809  32.092  1.00  0.00     0.173 A 
ATOM     69  F   UNL A   1      37.665  31.366  28.611  1.00  0.00    -0.203 F 
ATOM     70  C   UNL A   1      36.412  31.689  30.577  1.00  0.00     0.198 A 
ATOM     71  C   UNL A   1      37.375  31.179  32.715  1.00  0.00     0.198 A 
ATOM     72  F   UNL A   1      39.589  30.403  32.855  1.00  0.00    -0.203 F 
ATOM     73  F   UNL A   1      35.389  32.153  29.846  1.00  0.00    -0.200 F 
ATOM     74  C   UNL A   1      36.303  31.626  31.958  1.00  0.00     0.200 A 
ATOM     75  F   UNL A   1      37.268  31.105  34.048  1.00  0.00    -0.200 F 
ATOM     76  F   UNL A   1      35.168  32.007  32.560  1.00  0.00    -0.200 F 
ENDBRANCH  52  66
BRANCH  53  77
ATOM     77  C   UNL A   1      46.974  27.627  26.056  1.00  0.00     0.064 A 
ATOM     78  C   UNL A   1      47.071  27.702  24.660  1.00  0.00     0.173 A 
ATOM     79  C   UNL A   1      48.066  27.091  26.756  1.00  0.00     0.173 A 
ATOM     80  F   UNL A   1      46.046  28.187  23.943  1.00  0.00    -0.203 F 
ATOM     81  C   UNL A   1      48.201  27.237  23.990  1.00  0.00     0.198 A 
ATOM     82  C   UNL A   1      49.209  26.656  26.088  1.00  0.00     0.198 A 
ATOM     83  F   UNL A   1      48.026  26.995  28.093  1.00  0.00    -0.203 F 
ATOM     84  F   UNL A   1      48.244  27.273  22.651  1.00  0.00    -0.200 F 
ATOM     85  C   UNL A   1      49.272  26.721  24.704  1.00  0.00     0.200 A 
ATOM     86  F   UNL A   1      50.246  26.171  26.784  1.00  0.00    -0.200 F 
ATOM     87  F   UNL A   1      50.359  26.277  24.060  1.00  0.00    -0.200 F 
ENDBRANCH  53  77
BRANCH  65  88
ATOM     88  C   UNL A   1      45.115  33.671  29.001  1.00  0.00     0.064 A 
ATOM     89  C   UNL A   1      45.045  34.695  28.046  1.00  0.00     0.173 A 
ATOM     90  C   UNL A   1      45.852  33.915  30.172  1.00  0.00     0.173 A 
ATOM     91  F   UNL A   1      44.364  34.510  26.905  1.00  0.00    -0.203 F 
ATOM     92  C   UNL A   1      45.713  35.902  28.241  1.00  0.00     0.198 A 
ATOM     93  C   UNL A   1      46.486  35.136  30.380  1.00  0.00     0.198 A 
ATOM     94  F   UNL A   1      45.942  32.973  31.123  1.00  0.00    -0.203 F 
ATOM     95  F   UNL A   1      45.679  36.845  27.289  1.00  0.00    -0.200 F 
ATOM     96  C   UNL A   1      46.425  36.125  29.410  1.00  0.00     0.200 A 
ATOM     97  F   UNL A   1      47.156  35.355  31.520  1.00  0.00    -0.200 F 
ATOM     98  F   UNL A   1      47.057  37.290  29.600  1.00  0.00    -0.200 F 
ENDBRANCH  65  88
ENDBRANCH  39  40
ENDBRANCH  32  34
ENDBRANCH  31  32
ENDBRANCH  30  31
ENDBRANCH  29  30
ENDBRANCH  28  29
ENDBRANCH  27  28
ENDBRANCH  26  27
ENDBRANCH   1  26
TORSDOF 22
ENDMDL
MODEL 2
REMARK VINA RESULT:     -10.7      4.559      8.781
REMARK SMILES Cc1csc(NC(=O)[C@@H]2CC=CC[C@H]2C(=O)OCCOCCOCCOCCOC(=O)c2ccc(-c3c4nc(c(-c5c(F)c(F)c(F)c(F)c5F)c5ccc([nH]5)c(-c5c(F)c(F)c(F)c(F)c5F)c5nc(c(-c6c(F)c(F)c(F)c(F)c6F)c6ccc3[nH]6)C=C5)C=C4)cc2)n1
REMARK SMILES IDX 23 1 22 2 21 3 20 4 19 5 18 6 17 7 15 8 16 9 14 10 9 11
REMARK SMILES IDX 10 12 11 13 13 14 12 15 7 16 6 17 8 19 5 20 1 21 2 22 3 23
REMARK SMILES IDX 95 24 4 25 24 26 25 27 26 28 27 29 28 30 29 31 30 32 31 33
REMARK SMILES IDX 32 34 33 35 94 36 34 37 93 38 35 39 36 40 37 41 87 42 38 43
REMARK SMILES IDX 92 44 86 45 88 46 39 47 91 48 85 49 84 50 40 52 72 53 52 54
REMARK SMILES IDX 71 55 53 56 56 57 70 58 89 59 54 60 55 61 69 63 90 64 57 65
REMARK SMILES IDX 41 66 42 67 50 68 43 69 44 70 48 71 51 72 45 73 46 74 49 75
REMARK SMILES IDX 47 76 73 77 74 78 82 79 75 80 76 81 80 82 83 83 77 84 78 85
REMARK SMILES IDX 81 86 79 87 58 88 59 89 67 90 60 91 61 92 65 93 68 94 62 95
REMARK SMILES IDX 63 96 66 97 64 98
REMARK H PARENT 6 18 88 51 56 62
REMARK Flexibility Score: inf
ROOT
ATOM      1  O   UNL A   1      39.406  20.852  25.781  1.00  0.00    -0.377 OA
ENDROOT
BRANCH   1   2
ATOM      2  C   UNL A   1      38.336  21.760  25.617  1.00  0.00     0.188 C 
BRANCH   2   3
ATOM      3  C   UNL A   1      38.468  23.189  26.128  1.00  0.00     0.188 C 
BRANCH   3   4
ATOM      4  O   UNL A   1      37.346  24.038  26.081  1.00  0.00    -0.376 OA
BRANCH   4   5
ATOM      5  C   UNL A   1      36.213  23.713  25.297  1.00  0.00     0.202 C 
BRANCH   5   6
ATOM      6  C   UNL A   1      35.038  24.666  24.996  1.00  0.00     0.261 C 
BRANCH   6   7
ATOM      7  O   UNL A   1      34.375  25.353  26.080  1.00  0.00    -0.463 OA
BRANCH   7   8
ATOM      8  C   UNL A   1      33.695  26.480  25.727  1.00  0.00     0.310 C 
ATOM      9  O   UNL A   1      33.768  27.535  26.352  1.00  0.00    -0.252 OA
BRANCH   8  10
ATOM     10  C   UNL A   1      32.651  26.283  24.629  1.00  0.00     0.116 C 
ATOM     11  C   UNL A   1      31.117  26.349  24.947  1.00  0.00     0.097 C 
ATOM     12  C   UNL A   1      30.326  26.544  23.644  1.00  0.00     0.041 C 
ATOM     13  C   UNL A   1      30.957  27.161  22.449  1.00  0.00    -0.030 C 
ATOM     14  C   UNL A   1      33.145  27.280  23.558  1.00  0.00     0.043 C 
ATOM     15  C   UNL A   1      32.245  27.487  22.397  1.00  0.00    -0.030 C 
BRANCH  11  16
ATOM     16  C   UNL A   1      30.610  25.044  25.656  1.00  0.00     0.230 C 
ATOM     17  N   UNL A   1      30.281  23.872  25.015  1.00  0.00    -0.302 N 
ATOM     18  H   UNL A   1      29.361  23.533  25.122  1.00  0.00     0.172 HD
ATOM     19  O   UNL A   1      30.347  25.060  26.868  1.00  0.00    -0.274 OA
BRANCH  17  20
ATOM     20  C   UNL A   1      31.143  23.141  24.237  1.00  0.00     0.189 A 
ATOM     21  C   UNL A   1      33.420  23.271  21.521  1.00  0.00     0.068 C 
ATOM     22  C   UNL A   1      32.730  22.798  22.748  1.00  0.00     0.051 A 
ATOM     23  C   UNL A   1      33.185  21.950  23.738  1.00  0.00     0.092 A 
ATOM     24  N   UNL A   1      31.492  23.338  23.002  1.00  0.00    -0.225 NA
ATOM     25  S   UNL A   1      32.064  21.952  25.055  1.00  0.00    -0.105 S 
ENDBRANCH  17  20
ENDBRANCH  11  16
ENDBRANCH   8  10
ENDBRANCH   7   8
ENDBRANCH   6   7
ENDBRANCH   5   6
ENDBRANCH   4   5
ENDBRANCH   3   4
ENDBRANCH   2   3
ENDBRANCH   1   2
BRANCH   1  26
ATOM     26  C   UNL A   1      40.407  21.115  26.746  1.00  0.00     0.188 C 
BRANCH  26  27
ATOM     27  C   UNL A   1      41.759  20.411  26.628  1.00  0.00     0.188 C 
BRANCH  27  28
ATOM     28  O   UNL A   1      42.497  20.566  25.417  1.00  0.00    -0.376 OA
BRANCH  28  29
ATOM     29  C   UNL A   1      43.920  20.475  25.441  1.00  0.00     0.202 C 
BRANCH  29  30
ATOM     30  C   UNL A   1      44.661  21.785  25.225  1.00  0.00     0.261 C 
BRANCH  30  31
ATOM     31  O   UNL A   1      44.004  22.834  25.949  1.00  0.00    -0.460 OA
BRANCH  31  32
ATOM     32  C   UNL A   1      44.057  24.052  25.364  1.00  0.00     0.338 C 
ATOM     33  O   UNL A   1      44.547  24.342  24.293  1.00  0.00    -0.246 OA
BRANCH  32  34
ATOM     34  C   UNL A   1      43.249  24.991  26.164  1.00  0.00     0.060 A 
ATOM     35  C   UNL A   1      43.662  26.328  26.208  1.00  0.00     0.016 A 
ATOM     36  C   UNL A   1      42.136  24.559  26.890  1.00  0.00     0.016 A 
ATOM     37  C   UNL A   1      43.010  27.225  27.044  1.00  0.00     0.010 A 
ATOM     38  C   UNL A   1      41.491  25.455  27.739  1.00  0.00     0.010 A 
ATOM     39  C   UNL A   1      41.963  26.774  27.855  1.00  0.00    -0.014 A 
BRANCH  39  40
ATOM     40  C   UNL A   1      41.524  27.612  28.989  1.00  0.00     0.031 A 
ATOM     41  C   UNL A   1      42.298  27.519  30.274  1.00  0.00     0.074 A 
ATOM     42  C   UNL A   1      40.485  28.452  28.864  1.00  0.00     0.049 A 
ATOM     43  N   UNL A   1      42.084  28.110  31.419  1.00  0.00    -0.248 NA
ATOM     44  C   UNL A   1      43.474  26.632  30.265  1.00  0.00     0.031 C 
ATOM     45  C   UNL A   1      39.707  28.655  27.645  1.00  0.00     0.029 A 
ATOM     46  N   UNL A   1      39.907  29.288  29.783  1.00  0.00    -0.354 N 
ATOM     47  C   UNL A   1      43.087  27.659  32.267  1.00  0.00     0.074 A 
ATOM     48  C   UNL A   1      43.893  26.723  31.517  1.00  0.00     0.031 C 
ATOM     49  C   UNL A   1      38.739  29.554  27.894  1.00  0.00     0.029 A 
ATOM     50  C   UNL A   1      38.812  29.956  29.298  1.00  0.00     0.049 A 
ATOM     51  H   UNL A   1      40.246  29.399  30.701  1.00  0.00     0.167 HD
ATOM     52  C   UNL A   1      43.317  28.004  33.555  1.00  0.00     0.037 A 
ATOM     53  C   UNL A   1      37.955  30.778  29.933  1.00  0.00     0.037 A 
ATOM     54  C   UNL A   1      42.503  28.938  34.288  1.00  0.00     0.049 A 
ATOM     55  C   UNL A   1      38.184  31.082  31.393  1.00  0.00     0.074 A 
ATOM     56  C   UNL A   1      42.652  29.376  35.591  1.00  0.00     0.029 A 
ATOM     57  N   UNL A   1      41.376  29.568  33.778  1.00  0.00    -0.354 N 
ATOM     58  N   UNL A   1      39.147  30.674  32.186  1.00  0.00    -0.248 NA
ATOM     59  C   UNL A   1      37.207  31.963  32.044  1.00  0.00     0.031 C 
ATOM     60  C   UNL A   1      41.577  30.218  35.890  1.00  0.00     0.029 A 
ATOM     61  C   UNL A   1      40.799  30.365  34.753  1.00  0.00     0.049 A 
ATOM     62  H   UNL A   1      41.037  29.464  32.859  1.00  0.00     0.167 HD
ATOM     63  C   UNL A   1      38.913  31.276  33.415  1.00  0.00     0.074 A 
ATOM     64  C   UNL A   1      37.723  32.086  33.259  1.00  0.00     0.031 C 
ATOM     65  C   UNL A   1      39.617  31.171  34.569  1.00  0.00     0.037 A 
BRANCH  52  66
ATOM     66  C   UNL A   1      44.461  27.337  34.262  1.00  0.00     0.064 A 
ATOM     67  C   UNL A   1      45.746  27.901  34.297  1.00  0.00     0.173 A 
ATOM     68  C   UNL A   1      44.263  26.120  34.933  1.00  0.00     0.173 A 
ATOM     69  F   UNL A   1      45.996  29.052  33.657  1.00  0.00    -0.203 F 
ATOM     70  C   UNL A   1      46.794  27.256  34.951  1.00  0.00     0.198 A 
ATOM     71  C   UNL A   1      45.304  25.497  35.615  1.00  0.00     0.198 A 
ATOM     72  F   UNL A   1      43.056  25.536  34.932  1.00  0.00    -0.203 F 
ATOM     73  F   UNL A   1      48.025  27.786  34.923  1.00  0.00    -0.200 F 
ATOM     74  C   UNL A   1      46.570  26.060  35.616  1.00  0.00     0.200 A 
ATOM     75  F   UNL A   1      45.082  24.348  36.268  1.00  0.00    -0.200 F 
ATOM     76  F   UNL A   1      47.578  25.446  36.250  1.00  0.00    -0.200 F 
ENDBRANCH  52  66
BRANCH  53  77
ATOM     77  C   UNL A   1      36.801  31.361  29.202  1.00  0.00     0.064 A 
ATOM     78  C   UNL A   1      36.783  32.715  28.840  1.00  0.00     0.173 A 
ATOM     79  C   UNL A   1      35.685  30.582  28.860  1.00  0.00     0.173 A 
ATOM     80  F   UNL A   1      37.817  33.507  29.162  1.00  0.00    -0.203 F 
ATOM     81  C   UNL A   1      35.685  33.272  28.188  1.00  0.00     0.198 A 
ATOM     82  C   UNL A   1      34.600  31.133  28.180  1.00  0.00     0.198 A 
ATOM     83  F   UNL A   1      35.649  29.281  29.182  1.00  0.00    -0.203 F 
ATOM     84  F   UNL A   1      35.673  34.582  27.903  1.00  0.00    -0.200 F 
ATOM     85  C   UNL A   1      34.597  32.480  27.853  1.00  0.00     0.200 A 
ATOM     86  F   UNL A   1      33.559  30.360  27.845  1.00  0.00    -0.200 F 
ATOM     87  F   UNL A   1      33.543  33.016  27.224  1.00  0.00    -0.200 F 
ENDBRANCH  53  77
BRANCH  65  88
ATOM     88  C   UNL A   1      39.150  31.989  35.740  1.00  0.00     0.064 A 
ATOM     89  C   UNL A   1      38.331  31.449  36.742  1.00  0.00     0.173 A 
ATOM     90  C   UNL A   1      39.569  33.322  35.882  1.00  0.00     0.173 A 
ATOM     91  F   UNL A   1      37.893  30.185  36.648  1.00  0.00    -0.203 F 
ATOM     92  C   UNL A   1      37.921  32.223  37.825  1.00  0.00     0.198 A 
ATOM     93  C   UNL A   1      39.190  34.080  36.986  1.00  0.00     0.198 A 
ATOM     94  F   UNL A   1      40.363  33.884  34.959  1.00  0.00    -0.203 F 
ATOM     95  F   UNL A   1      37.093  31.703  38.741  1.00  0.00    -0.200 F 
ATOM     96  C   UNL A   1      38.358  33.533  37.951  1.00  0.00     0.200 A 
ATOM     97  F   UNL A   1      39.630  35.339  37.115  1.00  0.00    -0.200 F 
ATOM     98  F   UNL A   1      37.972  34.272  39.000  1.00  0.00    -0.200 F 
ENDBRANCH  65  88
ENDBRANCH  39  40
ENDBRANCH  32  34
ENDBRANCH  31  32
ENDBRANCH  30  31
ENDBRANCH  29  30
ENDBRANCH  28  29
ENDBRANCH  27  28
ENDBRANCH  26  27
ENDBRANCH   1  26
TORSDOF 22
ENDMDL
MODEL 3
REMARK VINA RESULT:     -10.5      4.455      8.714
REMARK SMILES Cc1csc(NC(=O)[C@@H]2CC=CC[C@H]2C(=O)OCCOCCOCCOCCOC(=O)c2ccc(-c3c4nc(c(-c5c(F)c(F)c(F)c(F)c5F)c5ccc([nH]5)c(-c5c(F)c(F)c(F)c(F)c5F)c5nc(c(-c6c(F)c(F)c(F)c(F)c6F)c6ccc3[nH]6)C=C5)C=C4)cc2)n1
REMARK SMILES IDX 23 1 22 2 21 3 20 4 19 5 18 6 17 7 15 8 16 9 14 10 9 11
REMARK SMILES IDX 10 12 11 13 13 14 12 15 7 16 6 17 8 19 5 20 1 21 2 22 3 23
REMARK SMILES IDX 95 24 4 25 24 26 25 27 26 28 27 29 28 30 29 31 30 32 31 33
REMARK SMILES IDX 32 34 33 35 94 36 34 37 93 38 35 39 36 40 37 41 87 42 38 43
REMARK SMILES IDX 92 44 86 45 88 46 39 47 91 48 85 49 84 50 40 52 72 53 52 54
REMARK SMILES IDX 71 55 53 56 56 57 70 58 89 59 54 60 55 61 69 63 90 64 57 65
REMARK SMILES IDX 41 66 42 67 50 68 43 69 44 70 48 71 51 72 45 73 46 74 49 75
REMARK SMILES IDX 47 76 73 77 74 78 82 79 75 80 76 81 80 82 83 83 77 84 78 85
REMARK SMILES IDX 81 86 79 87 58 88 59 89 67 90 60 91 61 92 65 93 68 94 62 95
REMARK SMILES IDX 63 96 66 97 64 98
REMARK H PARENT 6 18 88 51 56 62
REMARK Flexibility Score: inf
ROOT
ATOM      1  O   UNL A   1      38.995  21.033  25.578  1.00  0.00    -0.377 OA
ENDROOT
BRANCH   1   2
ATOM      2  C   UNL A   1      37.718  21.600  25.365  1.00  0.00     0.188 C 
BRANCH   2   3
ATOM      3  C   UNL A   1      37.462  23.054  25.739  1.00  0.00     0.188 C 
BRANCH   3   4
ATOM      4  O   UNL A   1      36.581  23.818  24.949  1.00  0.00    -0.376 OA
BRANCH   4   5
ATOM      5  C   UNL A   1      35.627  23.198  24.105  1.00  0.00     0.202 C 
BRANCH   5   6
ATOM      6  C   UNL A   1      34.688  23.938  23.132  1.00  0.00     0.261 C 
BRANCH   6   7
ATOM      7  O   UNL A   1      33.647  24.794  23.650  1.00  0.00    -0.463 OA
BRANCH   7   8
ATOM      8  C   UNL A   1      33.263  25.810  22.827  1.00  0.00     0.310 C 
ATOM      9  O   UNL A   1      33.828  26.068  21.767  1.00  0.00    -0.252 OA
BRANCH   8  10
ATOM     10  C   UNL A   1      32.222  26.759  23.419  1.00  0.00     0.116 C 
ATOM     11  C   UNL A   1      32.650  28.047  24.204  1.00  0.00     0.097 C 
ATOM     12  C   UNL A   1      31.457  29.009  24.309  1.00  0.00     0.041 C 
ATOM     13  C   UNL A   1      30.347  28.966  23.324  1.00  0.00    -0.030 C 
ATOM     14  C   UNL A   1      31.307  27.005  22.198  1.00  0.00     0.043 C 
ATOM     15  C   UNL A   1      30.264  28.046  22.367  1.00  0.00    -0.030 C 
BRANCH  11  16
ATOM     16  C   UNL A   1      33.156  27.708  25.651  1.00  0.00     0.230 C 
ATOM     17  N   UNL A   1      32.477  26.938  26.567  1.00  0.00    -0.302 N 
ATOM     18  H   UNL A   1      32.239  27.354  27.428  1.00  0.00     0.172 HD
ATOM     19  O   UNL A   1      34.176  28.257  26.094  1.00  0.00    -0.274 OA
BRANCH  17  20
ATOM     20  C   UNL A   1      32.110  25.631  26.366  1.00  0.00     0.189 A 
ATOM     21  C   UNL A   1      32.628  22.280  27.403  1.00  0.00     0.068 C 
ATOM     22  C   UNL A   1      31.988  23.474  26.795  1.00  0.00     0.051 A 
ATOM     23  C   UNL A   1      30.657  23.706  26.511  1.00  0.00     0.092 A 
ATOM     24  N   UNL A   1      32.806  24.552  26.554  1.00  0.00    -0.225 NA
ATOM     25  S   UNL A   1      30.449  25.361  26.051  1.00  0.00    -0.105 S 
ENDBRANCH  17  20
ENDBRANCH  11  16
ENDBRANCH   8  10
ENDBRANCH   7   8
ENDBRANCH   6   7
ENDBRANCH   5   6
ENDBRANCH   4   5
ENDBRANCH   3   4
ENDBRANCH   2   3
ENDBRANCH   1   2
BRANCH   1  26
ATOM     26  C   UNL A   1      39.817  21.529  26.618  1.00  0.00     0.188 C 
BRANCH  26  27
ATOM     27  C   UNL A   1      41.228  20.963  26.785  1.00  0.00     0.188 C 
BRANCH  27  28
ATOM     28  O   UNL A   1      42.035  20.807  25.619  1.00  0.00    -0.376 OA
BRANCH  28  29
ATOM     29  C   UNL A   1      43.432  20.556  25.756  1.00  0.00     0.202 C 
BRANCH  29  30
ATOM     30  C   UNL A   1      44.343  21.709  25.368  1.00  0.00     0.261 C 
BRANCH  30  31
ATOM     31  O   UNL A   1      44.005  22.870  26.138  1.00  0.00    -0.460 OA
BRANCH  31  32
ATOM     32  C   UNL A   1      43.830  24.002  25.420  1.00  0.00     0.338 C 
ATOM     33  O   UNL A   1      44.120  24.198  24.258  1.00  0.00    -0.246 OA
BRANCH  32  34
ATOM     34  C   UNL A   1      43.047  24.953  26.229  1.00  0.00     0.060 A 
ATOM     35  C   UNL A   1      43.473  26.287  26.254  1.00  0.00     0.016 A 
ATOM     36  C   UNL A   1      41.947  24.536  26.982  1.00  0.00     0.016 A 
ATOM     37  C   UNL A   1      42.846  27.197  27.096  1.00  0.00     0.010 A 
ATOM     38  C   UNL A   1      41.327  25.445  27.837  1.00  0.00     0.010 A 
ATOM     39  C   UNL A   1      41.813  26.761  27.933  1.00  0.00    -0.014 A 
BRANCH  39  40
ATOM     40  C   UNL A   1      41.405  27.610  29.070  1.00  0.00     0.031 A 
ATOM     41  C   UNL A   1      42.192  27.506  30.345  1.00  0.00     0.074 A 
ATOM     42  C   UNL A   1      40.382  28.471  28.954  1.00  0.00     0.049 A 
ATOM     43  N   UNL A   1      42.004  28.105  31.491  1.00  0.00    -0.248 NA
ATOM     44  C   UNL A   1      43.350  26.596  30.325  1.00  0.00     0.031 C 
ATOM     45  C   UNL A   1      39.592  28.686  27.744  1.00  0.00     0.029 A 
ATOM     46  N   UNL A   1      39.832  29.322  29.877  1.00  0.00    -0.354 N 
ATOM     47  C   UNL A   1      43.009  27.636  32.328  1.00  0.00     0.074 A 
ATOM     48  C   UNL A   1      43.786  26.681  31.571  1.00  0.00     0.031 C 
ATOM     49  C   UNL A   1      38.646  29.605  28.003  1.00  0.00     0.029 A 
ATOM     50  C   UNL A   1      38.745  30.010  29.404  1.00  0.00     0.049 A 
ATOM     51  H   UNL A   1      40.184  29.429  30.791  1.00  0.00     0.167 HD
ATOM     52  C   UNL A   1      43.261  27.981  33.612  1.00  0.00     0.037 A 
ATOM     53  C   UNL A   1      37.912  30.851  30.047  1.00  0.00     0.037 A 
ATOM     54  C   UNL A   1      42.476  28.933  34.351  1.00  0.00     0.049 A 
ATOM     55  C   UNL A   1      38.165  31.155  31.502  1.00  0.00     0.074 A 
ATOM     56  C   UNL A   1      42.650  29.372  35.651  1.00  0.00     0.029 A 
ATOM     57  N   UNL A   1      41.356  29.584  33.853  1.00  0.00    -0.354 N 
ATOM     58  N   UNL A   1      39.130  30.730  32.285  1.00  0.00    -0.248 NA
ATOM     59  C   UNL A   1      37.214  32.058  32.162  1.00  0.00     0.031 C 
ATOM     60  C   UNL A   1      41.595  30.237  35.961  1.00  0.00     0.029 A 
ATOM     61  C   UNL A   1      40.807  30.395  34.832  1.00  0.00     0.049 A 
ATOM     62  H   UNL A   1      41.003  29.484  32.939  1.00  0.00     0.167 HD
ATOM     63  C   UNL A   1      38.923  31.340  33.515  1.00  0.00     0.074 A 
ATOM     64  C   UNL A   1      37.748  32.174  33.370  1.00  0.00     0.031 C 
ATOM     65  C   UNL A   1      39.639  31.225  34.661  1.00  0.00     0.037 A 
BRANCH  52  66
ATOM     66  C   UNL A   1      44.401  27.292  34.307  1.00  0.00     0.064 A 
ATOM     67  C   UNL A   1      44.249  26.042  34.925  1.00  0.00     0.173 A 
ATOM     68  C   UNL A   1      45.672  27.887  34.337  1.00  0.00     0.173 A 
ATOM     69  F   UNL A   1      43.052  25.437  34.942  1.00  0.00    -0.203 F 
ATOM     70  C   UNL A   1      45.319  25.428  35.573  1.00  0.00     0.198 A 
ATOM     71  C   UNL A   1      46.747  27.255  34.955  1.00  0.00     0.198 A 
ATOM     72  F   UNL A   1      45.873  29.082  33.763  1.00  0.00    -0.203 F 
ATOM     73  F   UNL A   1      45.137  24.260  36.205  1.00  0.00    -0.200 F 
ATOM     74  C   UNL A   1      46.569  26.031  35.580  1.00  0.00     0.200 A 
ATOM     75  F   UNL A   1      47.955  27.834  34.949  1.00  0.00    -0.200 F 
ATOM     76  F   UNL A   1      47.598  25.435  36.198  1.00  0.00    -0.200 F 
ENDBRANCH  52  66
BRANCH  53  77
ATOM     77  C   UNL A   1      36.761  31.455  29.328  1.00  0.00     0.064 A 
ATOM     78  C   UNL A   1      36.750  32.817  28.996  1.00  0.00     0.173 A 
ATOM     79  C   UNL A   1      35.642  30.689  28.969  1.00  0.00     0.173 A 
ATOM     80  F   UNL A   1      37.786  33.597  29.336  1.00  0.00    -0.203 F 
ATOM     81  C   UNL A   1      35.654  33.393  28.356  1.00  0.00     0.198 A 
ATOM     82  C   UNL A   1      34.560  31.259  28.300  1.00  0.00     0.198 A 
ATOM     83  F   UNL A   1      35.601  29.381  29.262  1.00  0.00    -0.203 F 
ATOM     84  F   UNL A   1      35.648  34.709  28.099  1.00  0.00    -0.200 F 
ATOM     85  C   UNL A   1      34.563  32.613  28.003  1.00  0.00     0.200 A 
ATOM     86  F   UNL A   1      33.516  30.498  27.948  1.00  0.00    -0.200 F 
ATOM     87  F   UNL A   1      33.512  33.168  27.385  1.00  0.00    -0.200 F 
ENDBRANCH  53  77
BRANCH  65  88
ATOM     88  C   UNL A   1      39.203  32.055  35.835  1.00  0.00     0.064 A 
ATOM     89  C   UNL A   1      39.665  33.365  36.029  1.00  0.00     0.173 A 
ATOM     90  C   UNL A   1      38.273  31.545  36.755  1.00  0.00     0.173 A 
ATOM     91  F   UNL A   1      40.564  33.896  35.187  1.00  0.00    -0.203 F 
ATOM     92  C   UNL A   1      39.237  34.121  37.118  1.00  0.00     0.198 A 
ATOM     93  C   UNL A   1      37.817  32.317  37.819  1.00  0.00     0.198 A 
ATOM     94  F   UNL A   1      37.790  30.302  36.609  1.00  0.00    -0.203 F 
ATOM     95  F   UNL A   1      39.734  35.350  37.314  1.00  0.00    -0.200 F 
ATOM     96  C   UNL A   1      38.307  33.600  38.006  1.00  0.00     0.200 A 
ATOM     97  F   UNL A   1      36.904  31.818  38.664  1.00  0.00    -0.200 F 
ATOM     98  F   UNL A   1      37.888  34.333  39.046  1.00  0.00    -0.200 F 
ENDBRANCH  65  88
ENDBRANCH  39  40
ENDBRANCH  32  34
ENDBRANCH  31  32
ENDBRANCH  30  31
ENDBRANCH  29  30
ENDBRANCH  28  29
ENDBRANCH  27  28
ENDBRANCH  26  27
ENDBRANCH   1  26
TORSDOF 22
ENDMDL
