MODEL 1
REMARK VINA RESULT:     -10.2      0.000      0.000
REMARK SMILES COC(=O)CCS(=O)(=O)Nc1ccc(C(=O)OCCOCCOCCOCCOC(=O)c2ccc(-c3c4nc(c(-c5c(F)c(F)c(F)c(F)c5F)c5ccc([nH]5)c(-c5c(F)c(F)c(F)c(F)c5F)c5nc(c(-c6c(F)c(F)c(F)c(F)c6F)c6ccc3[nH]6)C=C5)C=C4)cc2)cc1
REMARK SMILES IDX 21 1 20 2 19 3 18 4 17 5 15 6 16 7 14 8 11 9 12 10 96 11
REMARK SMILES IDX 13 12 95 13 10 14 7 16 8 17 9 18 6 19 5 20 3 21 4 22 2 23
REMARK SMILES IDX 1 24 22 25 23 26 24 27 25 28 26 29 27 30 28 31 29 32 30 33
REMARK SMILES IDX 31 34 32 35 33 36 94 37 34 38 93 39 35 40 36 41 37 42 87 43
REMARK SMILES IDX 38 44 92 45 86 46 88 47 39 48 91 49 85 50 84 51 40 53 72 54
REMARK SMILES IDX 52 55 71 56 53 57 56 58 70 59 89 60 54 61 55 62 69 64 90 65
REMARK SMILES IDX 57 66 41 67 42 68 50 69 43 70 44 71 48 72 51 73 45 74 46 75
REMARK SMILES IDX 49 76 47 77 73 78 74 79 82 80 75 81 76 82 80 83 83 84 77 85
REMARK SMILES IDX 78 86 81 87 79 88 58 89 59 90 67 91 60 92 61 93 65 94 68 95
REMARK SMILES IDX 62 96 63 97 66 98 64 99
REMARK H PARENT 10 15 88 52 56 63
REMARK Flexibility Score: inf
ROOT
ATOM      1  C   UNL A   1      39.632  22.710  26.934  1.00  0.00     0.188 C 
ENDROOT
BRANCH   1   2
ATOM      2  O   UNL A   1      39.229  22.186  25.671  1.00  0.00    -0.376 OA
BRANCH   2   3
ATOM      3  C   UNL A   1      38.080  21.358  25.611  1.00  0.00     0.202 C 
BRANCH   3   4
ATOM      4  C   UNL A   1      37.117  21.744  24.494  1.00  0.00     0.261 C 
BRANCH   4   5
ATOM      5  O   UNL A   1      36.444  22.987  24.715  1.00  0.00    -0.460 OA
BRANCH   5   6
ATOM      6  C   UNL A   1      35.111  22.996  24.948  1.00  0.00     0.338 C 
ATOM      7  O   UNL A   1      34.450  22.164  25.540  1.00  0.00    -0.246 OA
BRANCH   6   8
ATOM      8  C   UNL A   1      34.635  24.314  24.479  1.00  0.00     0.060 A 
ATOM      9  C   UNL A   1      33.401  26.720  23.745  1.00  0.00     0.049 A 
ATOM     10  C   UNL A   1      33.704  25.762  22.772  1.00  0.00     0.027 A 
ATOM     11  C   UNL A   1      33.745  26.462  25.066  1.00  0.00     0.027 A 
ATOM     12  C   UNL A   1      34.336  24.558  23.134  1.00  0.00     0.018 A 
ATOM     13  C   UNL A   1      34.363  25.283  25.437  1.00  0.00     0.018 A 
BRANCH   9  14
ATOM     14  N   UNL A   1      32.543  27.803  23.431  1.00  0.00    -0.284 N 
ATOM     15  H   UNL A   1      32.893  28.711  23.583  1.00  0.00     0.180 HD
BRANCH  14  16
ATOM     16  S   UNL A   1      31.003  27.679  22.832  1.00  0.00     0.233 S 
ATOM     17  O   UNL A   1      30.183  27.254  23.948  1.00  0.00    -0.207 OA
ATOM     18  O   UNL A   1      31.063  26.883  21.626  1.00  0.00    -0.207 OA
BRANCH  16  19
ATOM     19  C   UNL A   1      30.448  29.315  22.366  1.00  0.00     0.171 C 
BRANCH  19  20
ATOM     20  C   UNL A   1      29.283  29.905  23.140  1.00  0.00     0.141 C 
BRANCH  20  21
ATOM     21  C   UNL A   1      27.915  29.758  22.527  1.00  0.00     0.306 C 
ATOM     22  O   UNL A   1      26.921  29.439  23.167  1.00  0.00    -0.252 OA
BRANCH  21  23
ATOM     23  O   UNL A   1      27.940  29.999  21.193  1.00  0.00    -0.469 OA
ATOM     24  C   UNL A   1      27.980  31.385  20.841  1.00  0.00     0.282 C 
ENDBRANCH  21  23
ENDBRANCH  20  21
ENDBRANCH  19  20
ENDBRANCH  16  19
ENDBRANCH  14  16
ENDBRANCH   9  14
ENDBRANCH   6   8
ENDBRANCH   5   6
ENDBRANCH   4   5
ENDBRANCH   3   4
ENDBRANCH   2   3
ENDBRANCH   1   2
BRANCH   1  25
ATOM     25  C   UNL A   1      40.868  21.981  27.496  1.00  0.00     0.188 C 
BRANCH  25  26
ATOM     26  O   UNL A   1      40.699  20.624  27.916  1.00  0.00    -0.377 OA
BRANCH  26  27
ATOM     27  C   UNL A   1      41.543  19.680  27.258  1.00  0.00     0.188 C 
BRANCH  27  28
ATOM     28  C   UNL A   1      42.206  20.260  25.992  1.00  0.00     0.188 C 
BRANCH  28  29
ATOM     29  O   UNL A   1      43.512  19.776  25.743  1.00  0.00    -0.376 OA
BRANCH  29  30
ATOM     30  C   UNL A   1      44.493  20.588  25.121  1.00  0.00     0.202 C 
BRANCH  30  31
ATOM     31  C   UNL A   1      44.979  21.962  25.623  1.00  0.00     0.261 C 
BRANCH  31  32
ATOM     32  O   UNL A   1      44.089  23.076  25.557  1.00  0.00    -0.460 OA
BRANCH  32  33
ATOM     33  C   UNL A   1      44.612  24.296  25.328  1.00  0.00     0.338 C 
ATOM     34  O   UNL A   1      45.450  24.608  24.505  1.00  0.00    -0.246 OA
BRANCH  33  35
ATOM     35  C   UNL A   1      43.832  25.234  26.162  1.00  0.00     0.060 A 
ATOM     36  C   UNL A   1      43.932  26.612  25.932  1.00  0.00     0.016 A 
ATOM     37  C   UNL A   1      42.976  24.735  27.147  1.00  0.00     0.016 A 
ATOM     38  C   UNL A   1      43.197  27.502  26.716  1.00  0.00     0.010 A 
ATOM     39  C   UNL A   1      42.264  25.625  27.949  1.00  0.00     0.010 A 
ATOM     40  C   UNL A   1      42.403  27.012  27.759  1.00  0.00    -0.014 A 
BRANCH  40  41
ATOM     41  C   UNL A   1      41.923  27.922  28.824  1.00  0.00     0.031 A 
ATOM     42  C   UNL A   1      42.689  27.927  30.118  1.00  0.00     0.074 A 
ATOM     43  C   UNL A   1      40.835  28.692  28.665  1.00  0.00     0.049 A 
ATOM     44  N   UNL A   1      42.393  28.490  31.260  1.00  0.00    -0.248 NA
ATOM     45  C   UNL A   1      43.963  27.186  30.124  1.00  0.00     0.031 C 
ATOM     46  C   UNL A   1      40.049  28.811  27.439  1.00  0.00     0.029 A 
ATOM     47  N   UNL A   1      40.188  29.505  29.563  1.00  0.00    -0.354 N 
ATOM     48  C   UNL A   1      43.436  28.164  32.116  1.00  0.00     0.074 A 
ATOM     49  C   UNL A   1      44.359  27.335  31.378  1.00  0.00     0.031 C 
ATOM     50  C   UNL A   1      39.007  29.629  27.669  1.00  0.00     0.029 A 
ATOM     51  C   UNL A   1      39.029  30.052  29.069  1.00  0.00     0.049 A 
ATOM     52  H   UNL A   1      40.524  29.681  30.471  1.00  0.00     0.167 HD
ATOM     53  C   UNL A   1      43.610  28.534  33.406  1.00  0.00     0.037 A 
ATOM     54  C   UNL A   1      38.081  30.774  29.698  1.00  0.00     0.037 A 
ATOM     55  C   UNL A   1      42.681  29.348  34.139  1.00  0.00     0.049 A 
ATOM     56  C   UNL A   1      38.252  31.091  31.166  1.00  0.00     0.074 A 
ATOM     57  C   UNL A   1      42.743  29.753  35.459  1.00  0.00     0.029 A 
ATOM     58  N   UNL A   1      41.519  29.882  33.605  1.00  0.00    -0.354 N 
ATOM     59  N   UNL A   1      39.235  30.778  31.975  1.00  0.00    -0.248 NA
ATOM     60  C   UNL A   1      37.176  31.861  31.810  1.00  0.00     0.031 C 
ATOM     61  C   UNL A   1      41.597  30.504  35.736  1.00  0.00     0.029 A 
ATOM     62  C   UNL A   1      40.851  30.611  34.573  1.00  0.00     0.049 A 
ATOM     63  H   UNL A   1      41.214  29.761  32.677  1.00  0.00     0.167 HD
ATOM     64  C   UNL A   1      38.923  31.355  33.201  1.00  0.00     0.074 A 
ATOM     65  C   UNL A   1      37.658  32.036  33.032  1.00  0.00     0.031 C 
ATOM     66  C   UNL A   1      39.619  31.325  34.364  1.00  0.00     0.037 A 
BRANCH  53  67
ATOM     67  C   UNL A   1      44.842  28.049  34.107  1.00  0.00     0.064 A 
ATOM     68  C   UNL A   1      44.938  26.737  34.593  1.00  0.00     0.173 A 
ATOM     69  C   UNL A   1      45.957  28.888  34.250  1.00  0.00     0.173 A 
ATOM     70  F   UNL A   1      43.890  25.904  34.499  1.00  0.00    -0.203 F 
ATOM     71  C   UNL A   1      46.102  26.285  35.209  1.00  0.00     0.198 A 
ATOM     72  C   UNL A   1      47.129  28.424  34.840  1.00  0.00     0.198 A 
ATOM     73  F   UNL A   1      45.915  30.152  33.804  1.00  0.00    -0.203 F 
ATOM     74  F   UNL A   1      46.159  25.039  35.698  1.00  0.00    -0.200 F 
ATOM     75  C   UNL A   1      47.200  27.125  35.322  1.00  0.00     0.200 A 
ATOM     76  F   UNL A   1      48.193  29.234  34.939  1.00  0.00    -0.200 F 
ATOM     77  F   UNL A   1      48.326  26.684  35.899  1.00  0.00    -0.200 F 
ENDBRANCH  53  67
BRANCH  54  78
ATOM     78  C   UNL A   1      36.864  31.228  28.972  1.00  0.00     0.064 A 
ATOM     79  C   UNL A   1      36.702  32.570  28.599  1.00  0.00     0.173 A 
ATOM     80  C   UNL A   1      35.805  30.347  28.701  1.00  0.00     0.173 A 
ATOM     81  F   UNL A   1      37.673  33.458  28.858  1.00  0.00    -0.203 F 
ATOM     82  C   UNL A   1      35.516  33.021  28.021  1.00  0.00     0.198 A 
ATOM     83  C   UNL A   1      34.633  30.792  28.092  1.00  0.00     0.198 A 
ATOM     84  F   UNL A   1      35.903  29.053  29.038  1.00  0.00    -0.203 F 
ATOM     85  F   UNL A   1      35.362  34.323  27.742  1.00  0.00    -0.200 F 
ATOM     86  C   UNL A   1      34.484  32.132  27.765  1.00  0.00     0.200 A 
ATOM     87  F   UNL A   1      33.642  29.927  27.837  1.00  0.00    -0.200 F 
ATOM     88  F   UNL A   1      33.340  32.567  27.221  1.00  0.00    -0.200 F 
ENDBRANCH  54  78
BRANCH  66  89
ATOM     89  C   UNL A   1      39.086  32.120  35.519  1.00  0.00     0.064 A 
ATOM     90  C   UNL A   1      38.300  31.537  36.523  1.00  0.00     0.173 A 
ATOM     91  C   UNL A   1      39.438  33.472  35.659  1.00  0.00     0.173 A 
ATOM     92  F   UNL A   1      37.929  30.252  36.429  1.00  0.00    -0.203 F 
ATOM     93  C   UNL A   1      37.869  32.287  37.616  1.00  0.00     0.198 A 
ATOM     94  C   UNL A   1      39.032  34.208  36.767  1.00  0.00     0.198 A 
ATOM     95  F   UNL A   1      40.198  34.072  34.730  1.00  0.00    -0.203 F 
ATOM     96  F   UNL A   1      37.087  31.720  38.546  1.00  0.00    -0.200 F 
ATOM     97  C   UNL A   1      38.244  33.616  37.742  1.00  0.00     0.200 A 
ATOM     98  F   UNL A   1      39.410  35.487  36.897  1.00  0.00    -0.200 F 
ATOM     99  F   UNL A   1      37.843  34.328  38.804  1.00  0.00    -0.200 F 
ENDBRANCH  66  89
ENDBRANCH  40  41
ENDBRANCH  33  35
ENDBRANCH  32  33
ENDBRANCH  31  32
ENDBRANCH  30  31
ENDBRANCH  29  30
ENDBRANCH  28  29
ENDBRANCH  27  28
ENDBRANCH  26  27
ENDBRANCH  25  26
ENDBRANCH   1  25
TORSDOF 26
ENDMDL
MODEL 2
REMARK VINA RESULT:      -9.7      4.933      7.434
REMARK SMILES COC(=O)CCS(=O)(=O)Nc1ccc(C(=O)OCCOCCOCCOCCOC(=O)c2ccc(-c3c4nc(c(-c5c(F)c(F)c(F)c(F)c5F)c5ccc([nH]5)c(-c5c(F)c(F)c(F)c(F)c5F)c5nc(c(-c6c(F)c(F)c(F)c(F)c6F)c6ccc3[nH]6)C=C5)C=C4)cc2)cc1
REMARK SMILES IDX 21 1 20 2 19 3 18 4 17 5 15 6 16 7 14 8 11 9 12 10 96 11
REMARK SMILES IDX 13 12 95 13 10 14 7 16 8 17 9 18 6 19 5 20 3 21 4 22 2 23
REMARK SMILES IDX 1 24 22 25 23 26 24 27 25 28 26 29 27 30 28 31 29 32 30 33
REMARK SMILES IDX 31 34 32 35 33 36 94 37 34 38 93 39 35 40 36 41 37 42 87 43
REMARK SMILES IDX 38 44 92 45 86 46 88 47 39 48 91 49 85 50 84 51 40 53 72 54
REMARK SMILES IDX 52 55 71 56 53 57 56 58 70 59 89 60 54 61 55 62 69 64 90 65
REMARK SMILES IDX 57 66 41 67 42 68 50 69 43 70 44 71 48 72 51 73 45 74 46 75
REMARK SMILES IDX 49 76 47 77 73 78 74 79 82 80 75 81 76 82 80 83 83 84 77 85
REMARK SMILES IDX 78 86 81 87 79 88 58 89 59 90 67 91 60 92 61 93 65 94 68 95
REMARK SMILES IDX 62 96 63 97 66 98 64 99
REMARK H PARENT 10 15 88 52 56 63
REMARK Flexibility Score: inf
ROOT
ATOM      1  C   UNL A   1      37.936  20.703  24.974  1.00  0.00     0.188 C 
ENDROOT
BRANCH   1   2
ATOM      2  O   UNL A   1      36.667  20.059  25.075  1.00  0.00    -0.376 OA
BRANCH   2   3
ATOM      3  C   UNL A   1      35.519  20.851  25.326  1.00  0.00     0.202 C 
BRANCH   3   4
ATOM      4  C   UNL A   1      34.419  20.664  24.286  1.00  0.00     0.261 C 
BRANCH   4   5
ATOM      5  O   UNL A   1      33.424  21.691  24.307  1.00  0.00    -0.460 OA
BRANCH   5   6
ATOM      6  C   UNL A   1      32.247  21.472  24.939  1.00  0.00     0.338 C 
ATOM      7  O   UNL A   1      31.818  20.420  25.375  1.00  0.00    -0.246 OA
BRANCH   6   8
ATOM      8  C   UNL A   1      31.653  22.808  25.146  1.00  0.00     0.060 A 
ATOM      9  C   UNL A   1      30.832  25.479  25.366  1.00  0.00     0.049 A 
ATOM     10  C   UNL A   1      31.257  24.780  26.500  1.00  0.00     0.027 A 
ATOM     11  C   UNL A   1      30.805  24.816  24.145  1.00  0.00     0.027 A 
ATOM     12  C   UNL A   1      31.657  23.435  26.397  1.00  0.00     0.018 A 
ATOM     13  C   UNL A   1      31.198  23.496  24.028  1.00  0.00     0.018 A 
BRANCH   9  14
ATOM     14  N   UNL A   1      30.680  26.887  25.415  1.00  0.00    -0.284 N 
ATOM     15  H   UNL A   1      29.762  27.236  25.492  1.00  0.00     0.180 HD
BRANCH  14  16
ATOM     16  S   UNL A   1      31.908  27.998  25.355  1.00  0.00     0.233 S 
ATOM     17  O   UNL A   1      33.127  27.226  25.230  1.00  0.00    -0.207 OA
ATOM     18  O   UNL A   1      31.731  28.909  26.465  1.00  0.00    -0.207 OA
BRANCH  16  19
ATOM     19  C   UNL A   1      31.731  28.949  23.850  1.00  0.00     0.171 C 
BRANCH  19  20
ATOM     20  C   UNL A   1      31.023  28.287  22.683  1.00  0.00     0.141 C 
BRANCH  20  21
ATOM     21  C   UNL A   1      29.634  28.777  22.363  1.00  0.00     0.306 C 
ATOM     22  O   UNL A   1      29.409  29.721  21.617  1.00  0.00    -0.252 OA
BRANCH  21  23
ATOM     23  O   UNL A   1      28.691  28.058  23.020  1.00  0.00    -0.469 OA
ATOM     24  C   UNL A   1      27.413  28.695  23.108  1.00  0.00     0.282 C 
ENDBRANCH  21  23
ENDBRANCH  20  21
ENDBRANCH  19  20
ENDBRANCH  16  19
ENDBRANCH  14  16
ENDBRANCH   9  14
ENDBRANCH   6   8
ENDBRANCH   5   6
ENDBRANCH   4   5
ENDBRANCH   3   4
ENDBRANCH   2   3
ENDBRANCH   1   2
BRANCH   1  25
ATOM     25  C   UNL A   1      38.012  21.972  25.846  1.00  0.00     0.188 C 
BRANCH  25  26
ATOM     26  O   UNL A   1      39.228  22.725  25.809  1.00  0.00    -0.377 OA
BRANCH  26  27
ATOM     27  C   UNL A   1      39.775  23.049  27.087  1.00  0.00     0.188 C 
BRANCH  27  28
ATOM     28  C   UNL A   1      40.991  22.173  27.449  1.00  0.00     0.188 C 
BRANCH  28  29
ATOM     29  O   UNL A   1      41.478  21.381  26.383  1.00  0.00    -0.376 OA
BRANCH  29  30
ATOM     30  C   UNL A   1      41.463  19.965  26.450  1.00  0.00     0.202 C 
BRANCH  30  31
ATOM     31  C   UNL A   1      42.563  19.025  25.919  1.00  0.00     0.261 C 
BRANCH  31  32
ATOM     32  O   UNL A   1      43.126  19.276  24.632  1.00  0.00    -0.460 OA
BRANCH  32  33
ATOM     33  C   UNL A   1      44.467  19.337  24.524  1.00  0.00     0.338 C 
ATOM     34  O   UNL A   1      45.229  18.458  24.173  1.00  0.00    -0.246 OA
BRANCH  33  35
ATOM     35  C   UNL A   1      44.827  20.752  24.750  1.00  0.00     0.060 A 
ATOM     36  C   UNL A   1      45.546  21.109  25.898  1.00  0.00     0.016 A 
ATOM     37  C   UNL A   1      44.479  21.714  23.798  1.00  0.00     0.016 A 
ATOM     38  C   UNL A   1      45.890  22.444  26.116  1.00  0.00     0.010 A 
ATOM     39  C   UNL A   1      44.797  23.050  24.029  1.00  0.00     0.010 A 
ATOM     40  C   UNL A   1      45.470  23.423  25.207  1.00  0.00    -0.014 A 
BRANCH  40  41
ATOM     41  C   UNL A   1      45.485  24.853  25.590  1.00  0.00     0.031 A 
ATOM     42  C   UNL A   1      46.807  25.566  25.529  1.00  0.00     0.074 A 
ATOM     43  C   UNL A   1      44.377  25.489  26.006  1.00  0.00     0.049 A 
ATOM     44  N   UNL A   1      47.135  26.753  25.966  1.00  0.00    -0.248 NA
ATOM     45  C   UNL A   1      47.914  24.831  24.891  1.00  0.00     0.031 C 
ATOM     46  C   UNL A   1      43.034  24.917  26.052  1.00  0.00     0.029 A 
ATOM     47  N   UNL A   1      44.221  26.762  26.496  1.00  0.00    -0.354 N 
ATOM     48  C   UNL A   1      48.482  26.901  25.663  1.00  0.00     0.074 A 
ATOM     49  C   UNL A   1      48.921  25.678  25.032  1.00  0.00     0.031 C 
ATOM     50  C   UNL A   1      42.192  25.828  26.572  1.00  0.00     0.029 A 
ATOM     51  C   UNL A   1      42.947  27.027  26.934  1.00  0.00     0.049 A 
ATOM     52  H   UNL A   1      44.951  27.422  26.529  1.00  0.00     0.167 HD
ATOM     53  C   UNL A   1      49.280  27.970  25.888  1.00  0.00     0.037 A 
ATOM     54  C   UNL A   1      42.466  28.102  27.590  1.00  0.00     0.037 A 
ATOM     55  C   UNL A   1      48.841  29.178  26.528  1.00  0.00     0.049 A 
ATOM     56  C   UNL A   1      43.404  29.243  27.916  1.00  0.00     0.074 A 
ATOM     57  C   UNL A   1      49.575  30.308  26.836  1.00  0.00     0.029 A 
ATOM     58  N   UNL A   1      47.544  29.409  26.958  1.00  0.00    -0.354 N 
ATOM     59  N   UNL A   1      44.677  29.379  27.634  1.00  0.00    -0.248 NA
ATOM     60  C   UNL A   1      42.834  30.381  28.654  1.00  0.00     0.031 C 
ATOM     61  C   UNL A   1      48.729  31.211  27.486  1.00  0.00     0.029 A 
ATOM     62  C   UNL A   1      47.457  30.664  27.533  1.00  0.00     0.049 A 
ATOM     63  H   UNL A   1      46.796  28.774  26.868  1.00  0.00     0.167 HD
ATOM     64  C   UNL A   1      45.045  30.631  28.112  1.00  0.00     0.074 A 
ATOM     65  C   UNL A   1      43.861  31.217  28.703  1.00  0.00     0.031 C 
ATOM     66  C   UNL A   1      46.253  31.245  28.067  1.00  0.00     0.037 A 
BRANCH  53  67
ATOM     67  C   UNL A   1      50.710  27.873  25.450  1.00  0.00     0.064 A 
ATOM     68  C   UNL A   1      51.731  27.545  26.354  1.00  0.00     0.173 A 
ATOM     69  C   UNL A   1      51.057  28.060  24.104  1.00  0.00     0.173 A 
ATOM     70  F   UNL A   1      51.451  27.377  27.656  1.00  0.00    -0.203 F 
ATOM     71  C   UNL A   1      53.050  27.420  25.928  1.00  0.00     0.198 A 
ATOM     72  C   UNL A   1      52.372  27.906  23.677  1.00  0.00     0.198 A 
ATOM     73  F   UNL A   1      50.118  28.377  23.201  1.00  0.00    -0.203 F 
ATOM     74  F   UNL A   1      54.015  27.141  26.816  1.00  0.00    -0.200 F 
ATOM     75  C   UNL A   1      53.368  27.589  24.589  1.00  0.00     0.200 A 
ATOM     76  F   UNL A   1      52.677  28.059  22.380  1.00  0.00    -0.200 F 
ATOM     77  F   UNL A   1      54.636  27.451  24.178  1.00  0.00    -0.200 F 
ENDBRANCH  53  67
BRANCH  54  78
ATOM     78  C   UNL A   1      41.043  28.157  28.021  1.00  0.00     0.064 A 
ATOM     79  C   UNL A   1      40.081  28.832  27.254  1.00  0.00     0.173 A 
ATOM     80  C   UNL A   1      40.629  27.603  29.242  1.00  0.00     0.173 A 
ATOM     81  F   UNL A   1      40.431  29.401  26.092  1.00  0.00    -0.203 F 
ATOM     82  C   UNL A   1      38.772  28.983  27.709  1.00  0.00     0.198 A 
ATOM     83  C   UNL A   1      39.311  27.725  29.680  1.00  0.00     0.198 A 
ATOM     84  F   UNL A   1      41.506  26.950  30.017  1.00  0.00    -0.203 F 
ATOM     85  F   UNL A   1      37.894  29.695  26.990  1.00  0.00    -0.200 F 
ATOM     86  C   UNL A   1      38.387  28.428  28.920  1.00  0.00     0.200 A 
ATOM     87  F   UNL A   1      38.941  27.178  30.845  1.00  0.00    -0.200 F 
ATOM     88  F   UNL A   1      37.133  28.584  29.364  1.00  0.00    -0.200 F 
ENDBRANCH  54  78
BRANCH  66  89
ATOM     89  C   UNL A   1      46.345  32.650  28.583  1.00  0.00     0.064 A 
ATOM     90  C   UNL A   1      46.691  32.933  29.912  1.00  0.00     0.173 A 
ATOM     91  C   UNL A   1      46.157  33.731  27.707  1.00  0.00     0.173 A 
ATOM     92  F   UNL A   1      46.871  31.935  30.790  1.00  0.00    -0.203 F 
ATOM     93  C   UNL A   1      46.828  34.249  30.348  1.00  0.00     0.198 A 
ATOM     94  C   UNL A   1      46.324  35.042  28.139  1.00  0.00     0.198 A 
ATOM     95  F   UNL A   1      45.834  33.512  26.423  1.00  0.00    -0.203 F 
ATOM     96  F   UNL A   1      47.124  34.498  31.631  1.00  0.00    -0.200 F 
ATOM     97  C   UNL A   1      46.655  35.301  29.460  1.00  0.00     0.200 A 
ATOM     98  F   UNL A   1      46.174  36.056  27.275  1.00  0.00    -0.200 F 
ATOM     99  F   UNL A   1      46.804  36.564  29.879  1.00  0.00    -0.200 F 
ENDBRANCH  66  89
ENDBRANCH  40  41
ENDBRANCH  33  35
ENDBRANCH  32  33
ENDBRANCH  31  32
ENDBRANCH  30  31
ENDBRANCH  29  30
ENDBRANCH  28  29
ENDBRANCH  27  28
ENDBRANCH  26  27
ENDBRANCH  25  26
ENDBRANCH   1  25
TORSDOF 26
ENDMDL
MODEL 3
REMARK VINA RESULT:      -9.0      3.697      8.434
REMARK SMILES COC(=O)CCS(=O)(=O)Nc1ccc(C(=O)OCCOCCOCCOCCOC(=O)c2ccc(-c3c4nc(c(-c5c(F)c(F)c(F)c(F)c5F)c5ccc([nH]5)c(-c5c(F)c(F)c(F)c(F)c5F)c5nc(c(-c6c(F)c(F)c(F)c(F)c6F)c6ccc3[nH]6)C=C5)C=C4)cc2)cc1
REMARK SMILES IDX 21 1 20 2 19 3 18 4 17 5 15 6 16 7 14 8 11 9 12 10 96 11
REMARK SMILES IDX 13 12 95 13 10 14 7 16 8 17 9 18 6 19 5 20 3 21 4 22 2 23
REMARK SMILES IDX 1 24 22 25 23 26 24 27 25 28 26 29 27 30 28 31 29 32 30 33
REMARK SMILES IDX 31 34 32 35 33 36 94 37 34 38 93 39 35 40 36 41 37 42 87 43
REMARK SMILES IDX 38 44 92 45 86 46 88 47 39 48 91 49 85 50 84 51 40 53 72 54
REMARK SMILES IDX 52 55 71 56 53 57 56 58 70 59 89 60 54 61 55 62 69 64 90 65
REMARK SMILES IDX 57 66 41 67 42 68 50 69 43 70 44 71 48 72 51 73 45 74 46 75
REMARK SMILES IDX 49 76 47 77 73 78 74 79 82 80 75 81 76 82 80 83 83 84 77 85
REMARK SMILES IDX 78 86 81 87 79 88 58 89 59 90 67 91 60 92 61 93 65 94 68 95
REMARK SMILES IDX 62 96 63 97 66 98 64 99
REMARK H PARENT 10 15 88 52 56 63
REMARK Flexibility Score: inf
ROOT
ATOM      1  C   UNL A   1      37.465  21.635  24.693  1.00  0.00     0.188 C 
ENDROOT
BRANCH   1   2
ATOM      2  O   UNL A   1      37.330  20.227  24.876  1.00  0.00    -0.376 OA
BRANCH   2   3
ATOM      3  C   UNL A   1      36.029  19.673  24.968  1.00  0.00     0.202 C 
BRANCH   3   4
ATOM      4  C   UNL A   1      34.924  20.674  24.646  1.00  0.00     0.261 C 
BRANCH   4   5
ATOM      5  O   UNL A   1      33.780  20.088  24.018  1.00  0.00    -0.460 OA
BRANCH   5   6
ATOM      6  C   UNL A   1      32.547  20.308  24.531  1.00  0.00     0.338 C 
ATOM      7  O   UNL A   1      31.878  19.557  25.215  1.00  0.00    -0.246 OA
BRANCH   6   8
ATOM      8  C   UNL A   1      32.239  21.722  24.232  1.00  0.00     0.060 A 
ATOM      9  C   UNL A   1      31.294  24.298  23.667  1.00  0.00     0.049 A 
ATOM     10  C   UNL A   1      31.947  23.559  22.676  1.00  0.00     0.027 A 
ATOM     11  C   UNL A   1      31.147  23.740  24.931  1.00  0.00     0.027 A 
ATOM     12  C   UNL A   1      32.436  22.270  22.960  1.00  0.00     0.018 A 
ATOM     13  C   UNL A   1      31.619  22.473  25.222  1.00  0.00     0.018 A 
BRANCH   9  14
ATOM     14  N   UNL A   1      30.579  25.471  23.320  1.00  0.00    -0.284 N 
ATOM     15  H   UNL A   1      29.605  25.464  23.474  1.00  0.00     0.180 HD
BRANCH  14  16
ATOM     16  S   UNL A   1      31.231  26.854  22.681  1.00  0.00     0.233 S 
ATOM     17  O   UNL A   1      30.891  26.830  21.273  1.00  0.00    -0.207 OA
ATOM     18  O   UNL A   1      32.615  26.920  23.096  1.00  0.00    -0.207 OA
BRANCH  16  19
ATOM     19  C   UNL A   1      30.389  28.258  23.401  1.00  0.00     0.171 C 
BRANCH  19  20
ATOM     20  C   UNL A   1      30.397  29.557  22.615  1.00  0.00     0.141 C 
BRANCH  20  21
ATOM     21  C   UNL A   1      29.066  30.060  22.119  1.00  0.00     0.306 C 
ATOM     22  O   UNL A   1      28.171  29.322  21.728  1.00  0.00    -0.252 OA
BRANCH  21  23
ATOM     23  O   UNL A   1      29.008  31.414  22.142  1.00  0.00    -0.469 OA
ATOM     24  C   UNL A   1      28.194  31.956  23.186  1.00  0.00     0.282 C 
ENDBRANCH  21  23
ENDBRANCH  20  21
ENDBRANCH  19  20
ENDBRANCH  16  19
ENDBRANCH  14  16
ENDBRANCH   9  14
ENDBRANCH   6   8
ENDBRANCH   5   6
ENDBRANCH   4   5
ENDBRANCH   3   4
ENDBRANCH   2   3
ENDBRANCH   1   2
BRANCH   1  25
ATOM     25  C   UNL A   1      37.355  22.406  26.023  1.00  0.00     0.188 C 
BRANCH  25  26
ATOM     26  O   UNL A   1      36.438  23.501  26.076  1.00  0.00    -0.377 OA
BRANCH  26  27
ATOM     27  C   UNL A   1      36.102  24.069  24.810  1.00  0.00     0.188 C 
BRANCH  27  28
ATOM     28  C   UNL A   1      34.727  24.765  24.819  1.00  0.00     0.188 C 
BRANCH  28  29
ATOM     29  O   UNL A   1      34.380  25.357  26.056  1.00  0.00    -0.376 OA
BRANCH  29  30
ATOM     30  C   UNL A   1      33.544  26.501  26.118  1.00  0.00     0.202 C 
BRANCH  30  31
ATOM     31  C   UNL A   1      34.021  27.962  26.224  1.00  0.00     0.261 C 
BRANCH  31  32
ATOM     32  O   UNL A   1      34.100  28.572  27.512  1.00  0.00    -0.460 OA
BRANCH  32  33
ATOM     33  C   UNL A   1      34.561  29.835  27.591  1.00  0.00     0.338 C 
ATOM     34  O   UNL A   1      33.947  30.869  27.416  1.00  0.00    -0.246 OA
BRANCH  33  35
ATOM     35  C   UNL A   1      35.940  29.730  28.113  1.00  0.00     0.060 A 
ATOM     36  C   UNL A   1      37.023  30.020  27.272  1.00  0.00     0.016 A 
ATOM     37  C   UNL A   1      36.148  29.377  29.448  1.00  0.00     0.016 A 
ATOM     38  C   UNL A   1      38.326  29.924  27.759  1.00  0.00     0.010 A 
ATOM     39  C   UNL A   1      37.451  29.252  29.926  1.00  0.00     0.010 A 
ATOM     40  C   UNL A   1      38.543  29.488  29.072  1.00  0.00    -0.014 A 
BRANCH  40  41
ATOM     41  C   UNL A   1      39.883  29.019  29.492  1.00  0.00     0.031 A 
ATOM     42  C   UNL A   1      40.696  29.945  30.353  1.00  0.00     0.074 A 
ATOM     43  C   UNL A   1      40.374  27.831  29.102  1.00  0.00     0.049 A 
ATOM     44  N   UNL A   1      41.949  29.861  30.715  1.00  0.00    -0.248 NA
ATOM     45  C   UNL A   1      39.997  31.135  30.869  1.00  0.00     0.031 C 
ATOM     46  C   UNL A   1      39.657  26.830  28.317  1.00  0.00     0.029 A 
ATOM     47  N   UNL A   1      41.617  27.281  29.300  1.00  0.00    -0.354 N 
ATOM     48  C   UNL A   1      42.186  30.988  31.492  1.00  0.00     0.074 A 
ATOM     49  C   UNL A   1      40.963  31.754  31.529  1.00  0.00     0.031 C 
ATOM     50  C   UNL A   1      40.483  25.796  28.074  1.00  0.00     0.029 A 
ATOM     51  C   UNL A   1      41.796  26.086  28.648  1.00  0.00     0.049 A 
ATOM     52  H   UNL A   1      42.312  27.702  29.856  1.00  0.00     0.167 HD
ATOM     53  C   UNL A   1      43.327  31.346  32.125  1.00  0.00     0.037 A 
ATOM     54  C   UNL A   1      42.910  25.341  28.503  1.00  0.00     0.037 A 
ATOM     55  C   UNL A   1      44.545  30.586  32.073  1.00  0.00     0.049 A 
ATOM     56  C   UNL A   1      44.197  25.814  29.140  1.00  0.00     0.074 A 
ATOM     57  C   UNL A   1      45.768  30.874  32.649  1.00  0.00     0.029 A 
ATOM     58  N   UNL A   1      44.687  29.381  31.403  1.00  0.00    -0.354 N 
ATOM     59  N   UNL A   1      44.422  26.881  29.868  1.00  0.00    -0.248 NA
ATOM     60  C   UNL A   1      45.389  24.977  28.930  1.00  0.00     0.031 C 
ATOM     61  C   UNL A   1      46.663  29.860  32.296  1.00  0.00     0.029 A 
ATOM     62  C   UNL A   1      45.981  28.914  31.548  1.00  0.00     0.049 A 
ATOM     63  H   UNL A   1      43.974  28.925  30.899  1.00  0.00     0.167 HD
ATOM     64  C   UNL A   1      45.758  26.815  30.245  1.00  0.00     0.074 A 
ATOM     65  C   UNL A   1      46.297  25.605  29.664  1.00  0.00     0.031 C 
ATOM     66  C   UNL A   1      46.478  27.678  31.003  1.00  0.00     0.037 A 
BRANCH  53  67
ATOM     67  C   UNL A   1      43.313  32.619  32.914  1.00  0.00     0.064 A 
ATOM     68  C   UNL A   1      43.547  33.860  32.304  1.00  0.00     0.173 A 
ATOM     69  C   UNL A   1      43.014  32.605  34.284  1.00  0.00     0.173 A 
ATOM     70  F   UNL A   1      43.859  33.923  30.999  1.00  0.00    -0.203 F 
ATOM     71  C   UNL A   1      43.494  35.040  33.039  1.00  0.00     0.198 A 
ATOM     72  C   UNL A   1      42.933  33.789  35.010  1.00  0.00     0.198 A 
ATOM     73  F   UNL A   1      42.785  31.444  34.915  1.00  0.00    -0.203 F 
ATOM     74  F   UNL A   1      43.755  36.212  32.443  1.00  0.00    -0.200 F 
ATOM     75  C   UNL A   1      43.176  35.006  34.389  1.00  0.00     0.200 A 
ATOM     76  F   UNL A   1      42.616  33.755  36.313  1.00  0.00    -0.200 F 
ATOM     77  F   UNL A   1      43.108  36.144  35.092  1.00  0.00    -0.200 F 
ENDBRANCH  53  67
BRANCH  54  78
ATOM     78  C   UNL A   1      42.889  24.088  27.701  1.00  0.00     0.064 A 
ATOM     79  C   UNL A   1      43.177  24.103  26.328  1.00  0.00     0.173 A 
ATOM     80  C   UNL A   1      42.508  22.863  28.271  1.00  0.00     0.173 A 
ATOM     81  F   UNL A   1      43.521  25.253  25.730  1.00  0.00    -0.203 F 
ATOM     82  C   UNL A   1      43.047  22.954  25.550  1.00  0.00     0.198 A 
ATOM     83  C   UNL A   1      42.412  21.707  27.499  1.00  0.00     0.198 A 
ATOM     84  F   UNL A   1      42.218  22.791  29.578  1.00  0.00    -0.203 F 
ATOM     85  F   UNL A   1      43.258  23.015  24.229  1.00  0.00    -0.200 F 
ATOM     86  C   UNL A   1      42.667  21.756  26.137  1.00  0.00     0.200 A 
ATOM     87  F   UNL A   1      42.055  20.549  28.071  1.00  0.00    -0.200 F 
ATOM     88  F   UNL A   1      42.530  20.654  25.388  1.00  0.00    -0.200 F 
ENDBRANCH  54  78
BRANCH  66  89
ATOM     89  C   UNL A   1      47.895  27.308  31.331  1.00  0.00     0.064 A 
ATOM     90  C   UNL A   1      48.980  27.795  30.590  1.00  0.00     0.173 A 
ATOM     91  C   UNL A   1      48.167  26.514  32.457  1.00  0.00     0.173 A 
ATOM     92  F   UNL A   1      48.771  28.548  29.501  1.00  0.00    -0.203 F 
ATOM     93  C   UNL A   1      50.288  27.483  30.954  1.00  0.00     0.198 A 
ATOM     94  C   UNL A   1      49.475  26.231  32.835  1.00  0.00     0.198 A 
ATOM     95  F   UNL A   1      47.162  26.033  33.205  1.00  0.00    -0.203 F 
ATOM     96  F   UNL A   1      51.311  27.928  30.211  1.00  0.00    -0.200 F 
ATOM     97  C   UNL A   1      50.535  26.712  32.081  1.00  0.00     0.200 A 
ATOM     98  F   UNL A   1      49.712  25.501  33.933  1.00  0.00    -0.200 F 
ATOM     99  F   UNL A   1      51.795  26.429  32.438  1.00  0.00    -0.200 F 
ENDBRANCH  66  89
ENDBRANCH  40  41
ENDBRANCH  33  35
ENDBRANCH  32  33
ENDBRANCH  31  32
ENDBRANCH  30  31
ENDBRANCH  29  30
ENDBRANCH  28  29
ENDBRANCH  27  28
ENDBRANCH  26  27
ENDBRANCH  25  26
ENDBRANCH   1  25
TORSDOF 26
ENDMDL
