MODEL 1
REMARK VINA RESULT:      -7.6      0.000      0.000
REMARK SMILES Cc1ccc(S(=O)(=O)n2cc(C(=O)C(=O)NCC(=O)N[C@H](Cc3c[nH]c4ccccc34)C(=O)OCCOCCOCCOCCOC(=O)c3ccc(-c4c5nc(c(-c6c(F)c(F)c(F)c(F)c6F)c6ccc([nH]6)c(-c6c(F)c(F)c(F)c(F)c6F)c6nc(c(-c7c(F)c(F)c(F)c(F)c7F)c7ccc4[nH]7)C=C6)C=C5)cc3)c3ccccc32)cc1
REMARK SMILES IDX 38 1 37 2 36 3 35 4 34 5 32 6 33 7 21 8 20 9 18 10 19 11
REMARK SMILES IDX 17 13 16 14 14 15 15 16 12 18 13 19 11 20 9 21 10 22 117 23
REMARK SMILES IDX 112 24 116 25 113 26 115 27 114 28 6 29 7 30 8 31 5 32 1 33
REMARK SMILES IDX 2 34 3 35 119 36 4 37 118 38 22 39 23 40 24 41 31 42 25 43
REMARK SMILES IDX 26 44 30 45 27 47 29 48 28 49 39 50 40 51 41 52 42 53 43 54
REMARK SMILES IDX 44 55 45 56 46 57 47 58 48 59 49 60 50 61 111 62 51 63
REMARK SMILES IDX 110 64 52 65 53 66 54 67 104 68 55 69 109 70 103 71 105 72
REMARK SMILES IDX 56 73 108 74 102 75 101 76 57 78 89 79 69 80 88 81 70 82
REMARK SMILES IDX 73 83 87 84 106 85 71 86 72 87 86 89 107 90 74 91 58 92
REMARK SMILES IDX 59 93 67 94 60 95 61 96 65 97 68 98 62 99 63 100 66 101
REMARK SMILES IDX 64 102 90 103 91 104 99 105 92 106 93 107 97 108 100 109
REMARK SMILES IDX 94 110 95 111 98 112 96 113 75 114 76 115 84 116 77 117
REMARK SMILES IDX 78 118 82 119 85 120 79 121 80 122 83 123 81 124
REMARK H PARENT 20 12 16 17 25 46 105 77 73 88
REMARK Flexibility Score: inf
ROOT
ATOM      1  C   UNL A   1      43.101  34.101  29.674  1.00  0.00     0.188 C 
ENDROOT
BRANCH   1   2
ATOM      2  O   UNL A   1      42.279  32.968  29.349  1.00  0.00    -0.376 OA
BRANCH   2   3
ATOM      3  C   UNL A   1      42.504  31.777  30.040  1.00  0.00     0.202 C 
BRANCH   3   4
ATOM      4  C   UNL A   1      41.340  30.876  30.378  1.00  0.00     0.261 C 
BRANCH   4   5
ATOM      5  O   UNL A   1      41.717  29.977  31.426  1.00  0.00    -0.462 OA
BRANCH   5   6
ATOM      6  C   UNL A   1      41.505  28.676  31.153  1.00  0.00     0.329 C 
ATOM      7  O   UNL A   1      42.359  27.809  31.242  1.00  0.00    -0.250 OA
BRANCH   6   8
ATOM      8  C   UNL A   1      40.213  28.397  30.486  1.00  0.00     0.196 C 
BRANCH   8   9
ATOM      9  N   UNL A   1      39.367  28.075  31.658  1.00  0.00    -0.341 N 
ATOM     10  C   UNL A   1      38.046  28.486  31.919  1.00  0.00     0.240 C 
ATOM     11  O   UNL A   1      37.580  28.129  33.011  1.00  0.00    -0.273 OA
ATOM     12  H   UNL A   1      39.781  27.502  32.342  1.00  0.00     0.164 HD
BRANCH  10  13
ATOM     13  C   UNL A   1      37.118  29.407  30.949  1.00  0.00     0.216 C 
BRANCH  13  14
ATOM     14  N   UNL A   1      36.093  30.354  31.494  1.00  0.00    -0.340 N 
ATOM     15  C   UNL A   1      36.102  31.725  31.853  1.00  0.00     0.292 C 
ATOM     16  O   UNL A   1      35.085  32.331  32.188  1.00  0.00    -0.265 OA
ATOM     17  H   UNL A   1      35.217  29.928  31.633  1.00  0.00     0.164 HD
BRANCH  15  18
ATOM     18  C   UNL A   1      37.379  32.520  31.823  1.00  0.00     0.252 C 
ATOM     19  O   UNL A   1      37.920  32.457  30.710  1.00  0.00    -0.283 OA
BRANCH  18  20
ATOM     20  C   UNL A   1      38.072  33.261  32.928  1.00  0.00     0.054 A 
ATOM     21  N   UNL A   1      38.546  34.623  34.688  1.00  0.00    -0.240 N 
ATOM     22  C   UNL A   1      38.555  34.553  33.267  1.00  0.00     0.117 A 
ATOM     23  C   UNL A   1      38.010  33.396  35.147  1.00  0.00     0.065 A 
ATOM     24  C   UNL A   1      38.295  32.524  34.116  1.00  0.00     0.012 A 
ATOM     25  C   UNL A   1      37.701  32.928  36.442  1.00  0.00     0.028 A 
ATOM     26  C   UNL A   1      38.489  31.169  34.398  1.00  0.00     0.011 A 
ATOM     27  C   UNL A   1      38.029  31.602  36.718  1.00  0.00     0.002 A 
ATOM     28  C   UNL A   1      38.453  30.741  35.716  1.00  0.00     0.001 A 
BRANCH  21  29
ATOM     29  S   UNL A   1      39.657  35.176  35.865  1.00  0.00     0.268 S 
ATOM     30  O   UNL A   1      39.618  36.604  35.563  1.00  0.00    -0.201 OA
ATOM     31  O   UNL A   1      40.807  34.344  35.511  1.00  0.00    -0.201 OA
BRANCH  29  32
ATOM     32  C   UNL A   1      39.939  35.221  37.579  1.00  0.00     0.088 A 
ATOM     33  C   UNL A   1      40.795  33.794  41.565  1.00  0.00     0.044 C 
ATOM     34  C   UNL A   1      40.495  34.351  40.206  1.00  0.00    -0.051 A 
ATOM     35  C   UNL A   1      41.072  33.683  39.146  1.00  0.00     0.005 A 
ATOM     36  C   UNL A   1      39.654  35.463  39.948  1.00  0.00     0.005 A 
ATOM     37  C   UNL A   1      40.804  34.123  37.875  1.00  0.00     0.022 A 
ATOM     38  C   UNL A   1      39.351  35.902  38.627  1.00  0.00     0.022 A 
ENDBRANCH  29  32
ENDBRANCH  21  29
ENDBRANCH  18  20
ENDBRANCH  15  18
ENDBRANCH  13  14
ENDBRANCH  10  13
ENDBRANCH   8   9
BRANCH   8  39
ATOM     39  C   UNL A   1      40.173  27.685  29.013  1.00  0.00     0.074 C 
BRANCH  39  40
ATOM     40  C   UNL A   1      39.952  26.261  28.365  1.00  0.00    -0.020 A 
ATOM     41  C   UNL A   1      39.321  25.076  28.289  1.00  0.00     0.087 A 
ATOM     42  C   UNL A   1      40.803  25.141  28.230  1.00  0.00     0.003 A 
ATOM     43  N   UNL A   1      39.462  23.865  26.820  1.00  0.00    -0.361 N 
ATOM     44  C   UNL A   1      40.607  23.689  26.837  1.00  0.00     0.046 A 
ATOM     45  C   UNL A   1      42.533  25.280  28.743  1.00  0.00     0.010 A 
ATOM     46  H   UNL A   1      38.769  23.500  26.224  1.00  0.00     0.166 HD
ATOM     47  C   UNL A   1      41.975  22.755  26.314  1.00  0.00     0.026 A 
ATOM     48  C   UNL A   1      43.708  24.275  28.101  1.00  0.00     0.001 A 
ATOM     49  C   UNL A   1      43.427  23.097  26.979  1.00  0.00     0.002 A 
ENDBRANCH  39  40
ENDBRANCH   8  39
ENDBRANCH   6   8
ENDBRANCH   5   6
ENDBRANCH   4   5
ENDBRANCH   3   4
ENDBRANCH   2   3
ENDBRANCH   1   2
BRANCH   1  50
ATOM     50  C   UNL A   1      43.263  35.476  28.996  1.00  0.00     0.188 C 
BRANCH  50  51
ATOM     51  O   UNL A   1      42.114  36.110  28.499  1.00  0.00    -0.377 OA
BRANCH  51  52
ATOM     52  C   UNL A   1      41.959  35.993  27.110  1.00  0.00     0.188 C 
BRANCH  52  53
ATOM     53  C   UNL A   1      43.262  35.829  26.481  1.00  0.00     0.188 C 
BRANCH  53  54
ATOM     54  O   UNL A   1      43.004  34.764  25.575  1.00  0.00    -0.376 OA
BRANCH  54  55
ATOM     55  C   UNL A   1      44.000  33.782  25.652  1.00  0.00     0.202 C 
BRANCH  55  56
ATOM     56  C   UNL A   1      45.341  34.493  25.448  1.00  0.00     0.261 C 
BRANCH  56  57
ATOM     57  O   UNL A   1      46.365  33.633  26.145  1.00  0.00    -0.460 OA
BRANCH  57  58
ATOM     58  C   UNL A   1      46.564  33.512  27.509  1.00  0.00     0.338 C 
ATOM     59  O   UNL A   1      46.504  34.471  28.268  1.00  0.00    -0.246 OA
BRANCH  58  60
ATOM     60  C   UNL A   1      46.827  32.083  28.088  1.00  0.00     0.060 A 
ATOM     61  C   UNL A   1      45.863  31.052  27.973  1.00  0.00     0.016 A 
ATOM     62  C   UNL A   1      47.831  31.826  29.000  1.00  0.00     0.016 A 
ATOM     63  C   UNL A   1      45.732  29.977  28.934  1.00  0.00     0.010 A 
ATOM     64  C   UNL A   1      47.619  30.848  30.012  1.00  0.00     0.010 A 
ATOM     65  C   UNL A   1      46.540  29.923  30.068  1.00  0.00    -0.014 A 
BRANCH  65  66
ATOM     66  C   UNL A   1      46.390  28.964  31.282  1.00  0.00     0.031 A 
ATOM     67  C   UNL A   1      47.482  27.855  31.391  1.00  0.00     0.074 A 
ATOM     68  C   UNL A   1      45.807  29.305  32.485  1.00  0.00     0.049 A 
ATOM     69  N   UNL A   1      47.846  27.177  32.434  1.00  0.00    -0.248 NA
ATOM     70  C   UNL A   1      48.294  27.455  30.239  1.00  0.00     0.031 C 
ATOM     71  C   UNL A   1      46.553  29.886  33.581  1.00  0.00     0.029 A 
ATOM     72  N   UNL A   1      44.517  29.595  32.927  1.00  0.00    -0.354 N 
ATOM     73  C   UNL A   1      49.071  26.510  32.189  1.00  0.00     0.074 A 
ATOM     74  C   UNL A   1      49.292  26.749  30.786  1.00  0.00     0.031 C 
ATOM     75  C   UNL A   1      45.843  30.337  34.593  1.00  0.00     0.029 A 
ATOM     76  C   UNL A   1      44.463  30.146  34.205  1.00  0.00     0.049 A 
ATOM     77  H   UNL A   1      43.715  29.425  32.383  1.00  0.00     0.167 HD
ATOM     78  C   UNL A   1      49.779  25.894  33.213  1.00  0.00     0.037 A 
ATOM     79  C   UNL A   1      43.626  30.893  34.965  1.00  0.00     0.037 A 
ATOM     80  C   UNL A   1      49.023  25.985  34.499  1.00  0.00     0.049 A 
ATOM     81  C   UNL A   1      43.909  29.490  35.964  1.00  0.00     0.074 A 
ATOM     82  C   UNL A   1      49.316  26.247  35.827  1.00  0.00     0.029 A 
ATOM     83  N   UNL A   1      47.630  25.923  34.492  1.00  0.00    -0.354 N 
ATOM     84  N   UNL A   1      45.037  28.799  36.251  1.00  0.00    -0.248 NA
ATOM     85  C   UNL A   1      42.747  28.582  36.146  1.00  0.00     0.031 C 
ATOM     86  C   UNL A   1      48.118  26.682  36.488  1.00  0.00     0.029 A 
ATOM     87  C   UNL A   1      47.050  26.462  35.638  1.00  0.00     0.049 A 
ATOM     88  H   UNL A   1      47.109  25.536  33.751  1.00  0.00     0.167 HD
ATOM     89  C   UNL A   1      44.769  27.414  36.160  1.00  0.00     0.074 A 
ATOM     90  C   UNL A   1      43.323  27.382  36.336  1.00  0.00     0.031 C 
ATOM     91  C   UNL A   1      45.602  26.346  35.801  1.00  0.00     0.037 A 
BRANCH  78  92
ATOM     92  C   UNL A   1      51.258  25.315  33.182  1.00  0.00     0.064 A 
ATOM     93  C   UNL A   1      51.502  23.967  32.781  1.00  0.00     0.173 A 
ATOM     94  C   UNL A   1      52.454  25.965  33.578  1.00  0.00     0.173 A 
ATOM     95  F   UNL A   1      50.544  23.226  32.212  1.00  0.00    -0.203 F 
ATOM     96  C   UNL A   1      52.748  23.316  32.874  1.00  0.00     0.198 A 
ATOM     97  C   UNL A   1      53.727  25.334  33.588  1.00  0.00     0.198 A 
ATOM     98  F   UNL A   1      52.471  27.242  33.964  1.00  0.00    -0.203 F 
ATOM     99  F   UNL A   1      52.851  22.017  32.547  1.00  0.00    -0.200 F 
ATOM    100  C   UNL A   1      53.869  24.004  33.263  1.00  0.00     0.200 A 
ATOM    101  F   UNL A   1      54.822  26.043  33.910  1.00  0.00    -0.200 F 
ATOM    102  F   UNL A   1      55.072  23.406  33.284  1.00  0.00    -0.200 F 
ENDBRANCH  78  92
BRANCH  79 103
ATOM    103  C   UNL A   1      44.191  32.437  34.400  1.00  0.00     0.064 A 
ATOM    104  C   UNL A   1      44.885  33.313  32.750  1.00  0.00     0.173 A 
ATOM    105  C   UNL A   1      43.972  33.654  35.948  1.00  0.00     0.173 A 
ATOM    106  F   UNL A   1      45.144  32.490  31.715  1.00  0.00    -0.203 F 
ATOM    107  C   UNL A   1      45.266  35.242  32.392  1.00  0.00     0.198 A 
ATOM    108  C   UNL A   1      44.228  35.552  35.653  1.00  0.00     0.198 A 
ATOM    109  F   UNL A   1      44.314  33.209  37.177  1.00  0.00    -0.203 F 
ATOM    110  F   UNL A   1      45.800  35.572  31.183  1.00  0.00    -0.200 F 
ATOM    111  C   UNL A   1      44.758  36.472  34.029  1.00  0.00     0.200 A 
ATOM    112  F   UNL A   1      44.378  36.281  36.773  1.00  0.00    -0.200 F 
ATOM    113  F   UNL A   1      44.814  37.825  34.285  1.00  0.00    -0.200 F 
ENDBRANCH  79 103
BRANCH  91 114
ATOM    114  C   UNL A   1      45.097  24.891  35.616  1.00  0.00     0.064 A 
ATOM    115  C   UNL A   1      45.356  23.873  36.533  1.00  0.00     0.173 A 
ATOM    116  C   UNL A   1      44.307  24.484  34.498  1.00  0.00     0.173 A 
ATOM    117  F   UNL A   1      45.744  24.154  37.786  1.00  0.00    -0.203 F 
ATOM    118  C   UNL A   1      45.208  22.529  36.192  1.00  0.00     0.198 A 
ATOM    119  C   UNL A   1      44.020  23.147  34.231  1.00  0.00     0.198 A 
ATOM    120  F   UNL A   1      43.779  25.359  33.631  1.00  0.00    -0.203 F 
ATOM    121  F   UNL A   1      45.724  21.589  36.993  1.00  0.00    -0.200 F 
ATOM    122  C   UNL A   1      44.567  22.166  35.023  1.00  0.00     0.200 A 
ATOM    123  F   UNL A   1      43.248  22.820  33.184  1.00  0.00    -0.200 F 
ATOM    124  F   UNL A   1      44.460  20.877  34.676  1.00  0.00    -0.200 F 
ENDBRANCH  91 114
ENDBRANCH  65  66
ENDBRANCH  58  60
ENDBRANCH  57  58
ENDBRANCH  56  57
ENDBRANCH  55  56
ENDBRANCH  54  55
ENDBRANCH  53  54
ENDBRANCH  52  53
ENDBRANCH  51  52
ENDBRANCH  50  51
ENDBRANCH   1  50
TORSDOF 29
ENDMDL
MODEL 2
REMARK VINA RESULT:      -6.9      4.648     12.379
REMARK SMILES Cc1ccc(S(=O)(=O)n2cc(C(=O)C(=O)NCC(=O)N[C@H](Cc3c[nH]c4ccccc34)C(=O)OCCOCCOCCOCCOC(=O)c3ccc(-c4c5nc(c(-c6c(F)c(F)c(F)c(F)c6F)c6ccc([nH]6)c(-c6c(F)c(F)c(F)c(F)c6F)c6nc(c(-c7c(F)c(F)c(F)c(F)c7F)c7ccc4[nH]7)C=C6)C=C5)cc3)c3ccccc32)cc1
REMARK SMILES IDX 38 1 37 2 36 3 35 4 34 5 32 6 33 7 21 8 20 9 18 10 19 11
REMARK SMILES IDX 17 13 16 14 14 15 15 16 12 18 13 19 11 20 9 21 10 22 117 23
REMARK SMILES IDX 112 24 116 25 113 26 115 27 114 28 6 29 7 30 8 31 5 32 1 33
REMARK SMILES IDX 2 34 3 35 119 36 4 37 118 38 22 39 23 40 24 41 31 42 25 43
REMARK SMILES IDX 26 44 30 45 27 47 29 48 28 49 39 50 40 51 41 52 42 53 43 54
REMARK SMILES IDX 44 55 45 56 46 57 47 58 48 59 49 60 50 61 111 62 51 63
REMARK SMILES IDX 110 64 52 65 53 66 54 67 104 68 55 69 109 70 103 71 105 72
REMARK SMILES IDX 56 73 108 74 102 75 101 76 57 78 89 79 69 80 88 81 70 82
REMARK SMILES IDX 73 83 87 84 106 85 71 86 72 87 86 89 107 90 74 91 58 92
REMARK SMILES IDX 59 93 67 94 60 95 61 96 65 97 68 98 62 99 63 100 66 101
REMARK SMILES IDX 64 102 90 103 91 104 99 105 92 106 93 107 97 108 100 109
REMARK SMILES IDX 94 110 95 111 98 112 96 113 75 114 76 115 84 116 77 117
REMARK SMILES IDX 78 118 82 119 85 120 79 121 80 122 83 123 81 124
REMARK H PARENT 20 12 16 17 25 46 105 77 73 88
REMARK Flexibility Score: inf
ROOT
ATOM      1  C   UNL A   1      42.250  28.940  36.334  1.00  0.00     0.188 C 
ENDROOT
BRANCH   1   2
ATOM      2  O   UNL A   1      42.553  27.712  37.018  1.00  0.00    -0.376 OA
BRANCH   2   3
ATOM      3  C   UNL A   1      41.842  26.569  36.653  1.00  0.00     0.202 C 
BRANCH   3   4
ATOM      4  C   UNL A   1      42.565  25.250  36.518  1.00  0.00     0.261 C 
BRANCH   4   5
ATOM      5  O   UNL A   1      43.323  25.240  35.303  1.00  0.00    -0.462 OA
BRANCH   5   6
ATOM      6  C   UNL A   1      44.635  25.501  35.457  1.00  0.00     0.329 C 
ATOM      7  O   UNL A   1      45.180  25.657  36.537  1.00  0.00    -0.250 OA
BRANCH   6   8
ATOM      8  C   UNL A   1      45.338  25.840  34.199  1.00  0.00     0.196 C 
BRANCH   8   9
ATOM      9  N   UNL A   1      46.748  25.720  34.635  1.00  0.00    -0.341 N 
ATOM     10  C   UNL A   1      47.908  25.684  33.838  1.00  0.00     0.240 C 
ATOM     11  O   UNL A   1      48.973  25.513  34.449  1.00  0.00    -0.273 OA
ATOM     12  H   UNL A   1      46.893  25.657  35.607  1.00  0.00     0.164 HD
BRANCH  10  13
ATOM     13  C   UNL A   1      47.960  25.801  32.216  1.00  0.00     0.216 C 
BRANCH  13  14
ATOM     14  N   UNL A   1      49.252  25.920  31.468  1.00  0.00    -0.340 N 
ATOM     15  C   UNL A   1      49.606  26.339  30.161  1.00  0.00     0.292 C 
ATOM     16  O   UNL A   1      50.776  26.454  29.794  1.00  0.00    -0.265 OA
ATOM     17  H   UNL A   1      50.030  25.647  32.005  1.00  0.00     0.164 HD
BRANCH  15  18
ATOM     18  C   UNL A   1      48.547  26.683  29.149  1.00  0.00     0.252 C 
ATOM     19  O   UNL A   1      48.702  27.833  28.714  1.00  0.00    -0.283 OA
BRANCH  18  20
ATOM     20  C   UNL A   1      47.358  25.887  28.698  1.00  0.00     0.054 A 
ATOM     21  N   UNL A   1      45.288  25.250  28.005  1.00  0.00    -0.240 N 
ATOM     22  C   UNL A   1      46.105  25.405  29.159  1.00  0.00     0.117 A 
ATOM     23  C   UNL A   1      46.058  25.695  26.904  1.00  0.00     0.065 A 
ATOM     24  C   UNL A   1      47.355  25.508  27.334  1.00  0.00     0.012 A 
ATOM     25  C   UNL A   1      45.750  25.838  25.534  1.00  0.00     0.028 A 
ATOM     26  C   UNL A   1      48.358  25.244  26.395  1.00  0.00     0.011 A 
ATOM     27  C   UNL A   1      46.735  25.444  24.631  1.00  0.00     0.002 A 
ATOM     28  C   UNL A   1      48.014  25.116  25.058  1.00  0.00     0.001 A 
BRANCH  21  29
ATOM     29  S   UNL A   1      44.234  24.026  27.440  1.00  0.00     0.268 S 
ATOM     30  O   UNL A   1      43.436  24.821  26.511  1.00  0.00    -0.201 OA
ATOM     31  O   UNL A   1      43.698  23.570  28.723  1.00  0.00    -0.201 OA
BRANCH  29  32
ATOM     32  C   UNL A   1      44.219  22.486  26.636  1.00  0.00     0.088 A 
ATOM     33  C   UNL A   1      45.242  19.421  23.769  1.00  0.00     0.044 C 
ATOM     34  C   UNL A   1      44.846  20.442  24.793  1.00  0.00    -0.051 A 
ATOM     35  C   UNL A   1      45.832  21.333  25.161  1.00  0.00     0.005 A 
ATOM     36  C   UNL A   1      43.553  20.566  25.362  1.00  0.00     0.005 A 
ATOM     37  C   UNL A   1      45.519  22.315  26.067  1.00  0.00     0.022 A 
ATOM     38  C   UNL A   1      43.218  21.604  26.281  1.00  0.00     0.022 A 
ENDBRANCH  29  32
ENDBRANCH  21  29
ENDBRANCH  18  20
ENDBRANCH  15  18
ENDBRANCH  13  14
ENDBRANCH  10  13
ENDBRANCH   8   9
BRANCH   8  39
ATOM     39  C   UNL A   1      44.713  26.947  33.169  1.00  0.00     0.074 C 
BRANCH  39  40
ATOM     40  C   UNL A   1      43.863  27.016  31.838  1.00  0.00    -0.020 A 
ATOM     41  C   UNL A   1      43.511  26.548  30.628  1.00  0.00     0.087 A 
ATOM     42  C   UNL A   1      43.772  27.995  30.824  1.00  0.00     0.003 A 
ATOM     43  N   UNL A   1      41.966  27.107  29.656  1.00  0.00    -0.361 N 
ATOM     44  C   UNL A   1      42.201  28.238  29.575  1.00  0.00     0.046 A 
ATOM     45  C   UNL A   1      44.648  29.565  31.031  1.00  0.00     0.010 A 
ATOM     46  H   UNL A   1      41.198  26.589  29.324  1.00  0.00     0.166 HD
ATOM     47  C   UNL A   1      41.864  29.777  28.842  1.00  0.00     0.026 A 
ATOM     48  C   UNL A   1      44.148  30.947  30.230  1.00  0.00     0.001 A 
ATOM     49  C   UNL A   1      42.855  31.023  29.205  1.00  0.00     0.002 A 
ENDBRANCH  39  40
ENDBRANCH   8  39
ENDBRANCH   6   8
ENDBRANCH   5   6
ENDBRANCH   4   5
ENDBRANCH   3   4
ENDBRANCH   2   3
ENDBRANCH   1   2
BRANCH   1  50
ATOM     50  C   UNL A   1      41.301  29.251  35.161  1.00  0.00     0.188 C 
BRANCH  50  51
ATOM     51  O   UNL A   1      41.749  28.989  33.858  1.00  0.00    -0.377 OA
BRANCH  51  52
ATOM     52  C   UNL A   1      40.810  29.299  32.863  1.00  0.00     0.188 C 
BRANCH  52  53
ATOM     53  C   UNL A   1      39.553  29.698  33.479  1.00  0.00     0.188 C 
BRANCH  53  54
ATOM     54  O   UNL A   1      38.713  28.602  33.137  1.00  0.00    -0.376 OA
BRANCH  54  55
ATOM     55  C   UNL A   1      37.562  29.037  32.468  1.00  0.00     0.202 C 
BRANCH  55  56
ATOM     56  C   UNL A   1      37.235  30.433  33.005  1.00  0.00     0.261 C 
BRANCH  56  57
ATOM     57  O   UNL A   1      36.140  30.963  32.115  1.00  0.00    -0.460 OA
BRANCH  57  58
ATOM     58  C   UNL A   1      36.007  32.255  31.635  1.00  0.00     0.338 C 
ATOM     59  O   UNL A   1      34.999  32.923  31.823  1.00  0.00    -0.246 OA
BRANCH  58  60
ATOM     60  C   UNL A   1      37.217  32.880  30.867  1.00  0.00     0.060 A 
ATOM     61  C   UNL A   1      38.159  32.068  30.188  1.00  0.00     0.016 A 
ATOM     62  C   UNL A   1      37.625  34.184  31.062  1.00  0.00     0.016 A 
ATOM     63  C   UNL A   1      39.543  32.447  30.000  1.00  0.00     0.010 A 
ATOM     64  C   UNL A   1      39.011  34.498  30.993  1.00  0.00     0.010 A 
ATOM     65  C   UNL A   1      40.042  33.638  30.523  1.00  0.00    -0.014 A 
BRANCH  65  66
ATOM     66  C   UNL A   1      41.528  34.086  30.585  1.00  0.00     0.031 A 
ATOM     67  C   UNL A   1      41.968  35.080  29.465  1.00  0.00     0.074 A 
ATOM     68  C   UNL A   1      42.278  34.166  31.740  1.00  0.00     0.049 A 
ATOM     69  N   UNL A   1      42.974  35.898  29.458  1.00  0.00    -0.248 NA
ATOM     70  C   UNL A   1      41.212  35.224  28.219  1.00  0.00     0.031 C 
ATOM     71  C   UNL A   1      42.330  35.358  32.560  1.00  0.00     0.029 A 
ATOM     72  N   UNL A   1      42.818  33.258  32.649  1.00  0.00    -0.354 N 
ATOM     73  C   UNL A   1      42.840  36.841  28.410  1.00  0.00     0.074 A 
ATOM     74  C   UNL A   1      41.695  36.354  27.685  1.00  0.00     0.031 C 
ATOM     75  C   UNL A   1      42.925  35.236  33.727  1.00  0.00     0.029 A 
ATOM     76  C   UNL A   1      43.289  33.839  33.825  1.00  0.00     0.049 A 
ATOM     77  H   UNL A   1      42.863  32.290  32.475  1.00  0.00     0.167 HD
ATOM     78  C   UNL A   1      43.670  37.951  28.322  1.00  0.00     0.037 A 
ATOM     79  C   UNL A   1      43.565  33.487  35.103  1.00  0.00     0.037 A 
ATOM     80  C   UNL A   1      44.704  37.917  29.401  1.00  0.00     0.049 A 
ATOM     81  C   UNL A   1      45.062  34.204  34.565  1.00  0.00     0.074 A 
ATOM     82  C   UNL A   1      45.280  38.822  30.276  1.00  0.00     0.029 A 
ATOM     83  N   UNL A   1      45.230  36.696  29.822  1.00  0.00    -0.354 N 
ATOM     84  N   UNL A   1      45.322  35.321  33.846  1.00  0.00    -0.248 NA
ATOM     85  C   UNL A   1      46.204  33.267  34.398  1.00  0.00     0.031 C 
ATOM     86  C   UNL A   1      45.832  38.102  31.390  1.00  0.00     0.029 A 
ATOM     87  C   UNL A   1      45.807  36.754  31.089  1.00  0.00     0.049 A 
ATOM     88  H   UNL A   1      45.197  35.876  29.278  1.00  0.00     0.167 HD
ATOM     89  C   UNL A   1      46.297  35.026  32.865  1.00  0.00     0.074 A 
ATOM     90  C   UNL A   1      46.939  33.849  33.435  1.00  0.00     0.031 C 
ATOM     91  C   UNL A   1      46.498  35.566  31.589  1.00  0.00     0.037 A 
BRANCH  78  92
ATOM     92  C   UNL A   1      43.525  39.220  27.379  1.00  0.00     0.064 A 
ATOM     93  C   UNL A   1      42.265  39.874  27.229  1.00  0.00     0.173 A 
ATOM     94  C   UNL A   1      44.519  39.809  26.557  1.00  0.00     0.173 A 
ATOM     95  F   UNL A   1      41.234  39.590  28.033  1.00  0.00    -0.203 F 
ATOM     96  C   UNL A   1      42.000  40.900  26.300  1.00  0.00     0.198 A 
ATOM     97  C   UNL A   1      44.272  40.903  25.684  1.00  0.00     0.198 A 
ATOM     98  F   UNL A   1      45.783  39.380  26.555  1.00  0.00    -0.203 F 
ATOM     99  F   UNL A   1      40.755  41.391  26.183  1.00  0.00    -0.200 F 
ATOM    100  C   UNL A   1      43.008  41.429  25.535  1.00  0.00     0.200 A 
ATOM    101  F   UNL A   1      45.286  41.448  24.991  1.00  0.00    -0.200 F 
ATOM    102  F   UNL A   1      42.774  42.455  24.701  1.00  0.00    -0.200 F 
ENDBRANCH  78  92
BRANCH  79 103
ATOM    103  C   UNL A   1      41.954  33.724  35.714  1.00  0.00     0.064 A 
ATOM    104  C   UNL A   1      40.052  33.492  35.168  1.00  0.00     0.173 A 
ATOM    105  C   UNL A   1      42.206  34.370  37.569  1.00  0.00     0.173 A 
ATOM    106  F   UNL A   1      39.848  33.155  33.880  1.00  0.00    -0.203 F 
ATOM    107  C   UNL A   1      38.381  33.689  36.247  1.00  0.00     0.198 A 
ATOM    108  C   UNL A   1      40.642  34.492  38.708  1.00  0.00     0.198 A 
ATOM    109  F   UNL A   1      43.170  35.285  37.812  1.00  0.00    -0.203 F 
ATOM    110  F   UNL A   1      37.188  33.530  35.608  1.00  0.00    -0.200 F 
ATOM    111  C   UNL A   1      38.785  34.134  38.269  1.00  0.00     0.200 A 
ATOM    112  F   UNL A   1      40.813  35.220  39.825  1.00  0.00    -0.200 F 
ATOM    113  F   UNL A   1      38.017  34.354  39.391  1.00  0.00    -0.200 F 
ENDBRANCH  79 103
BRANCH  91 114
ATOM    114  C   UNL A   1      47.543  35.018  30.582  1.00  0.00     0.064 A 
ATOM    115  C   UNL A   1      48.724  35.691  30.269  1.00  0.00     0.173 A 
ATOM    116  C   UNL A   1      47.387  33.768  29.911  1.00  0.00     0.173 A 
ATOM    117  F   UNL A   1      49.199  36.660  31.065  1.00  0.00    -0.203 F 
ATOM    118  C   UNL A   1      49.463  35.374  29.130  1.00  0.00     0.198 A 
ATOM    119  C   UNL A   1      48.220  33.368  28.867  1.00  0.00     0.198 A 
ATOM    120  F   UNL A   1      46.432  32.887  30.240  1.00  0.00    -0.203 F 
ATOM    121  F   UNL A   1      50.424  36.211  28.718  1.00  0.00    -0.200 F 
ATOM    122  C   UNL A   1      49.190  34.227  28.410  1.00  0.00     0.200 A 
ATOM    123  F   UNL A   1      48.049  32.170  28.290  1.00  0.00    -0.200 F 
ATOM    124  F   UNL A   1      49.874  33.943  27.294  1.00  0.00    -0.200 F 
ENDBRANCH  91 114
ENDBRANCH  65  66
ENDBRANCH  58  60
ENDBRANCH  57  58
ENDBRANCH  56  57
ENDBRANCH  55  56
ENDBRANCH  54  55
ENDBRANCH  53  54
ENDBRANCH  52  53
ENDBRANCH  51  52
ENDBRANCH  50  51
ENDBRANCH   1  50
TORSDOF 29
ENDMDL
MODEL 3
REMARK VINA RESULT:      -6.6      4.143      9.538
REMARK SMILES Cc1ccc(S(=O)(=O)n2cc(C(=O)C(=O)NCC(=O)N[C@H](Cc3c[nH]c4ccccc34)C(=O)OCCOCCOCCOCCOC(=O)c3ccc(-c4c5nc(c(-c6c(F)c(F)c(F)c(F)c6F)c6ccc([nH]6)c(-c6c(F)c(F)c(F)c(F)c6F)c6nc(c(-c7c(F)c(F)c(F)c(F)c7F)c7ccc4[nH]7)C=C6)C=C5)cc3)c3ccccc32)cc1
REMARK SMILES IDX 38 1 37 2 36 3 35 4 34 5 32 6 33 7 21 8 20 9 18 10 19 11
REMARK SMILES IDX 17 13 16 14 14 15 15 16 12 18 13 19 11 20 9 21 10 22 117 23
REMARK SMILES IDX 112 24 116 25 113 26 115 27 114 28 6 29 7 30 8 31 5 32 1 33
REMARK SMILES IDX 2 34 3 35 119 36 4 37 118 38 22 39 23 40 24 41 31 42 25 43
REMARK SMILES IDX 26 44 30 45 27 47 29 48 28 49 39 50 40 51 41 52 42 53 43 54
REMARK SMILES IDX 44 55 45 56 46 57 47 58 48 59 49 60 50 61 111 62 51 63
REMARK SMILES IDX 110 64 52 65 53 66 54 67 104 68 55 69 109 70 103 71 105 72
REMARK SMILES IDX 56 73 108 74 102 75 101 76 57 78 89 79 69 80 88 81 70 82
REMARK SMILES IDX 73 83 87 84 106 85 71 86 72 87 86 89 107 90 74 91 58 92
REMARK SMILES IDX 59 93 67 94 60 95 61 96 65 97 68 98 62 99 63 100 66 101
REMARK SMILES IDX 64 102 90 103 91 104 99 105 92 106 93 107 97 108 100 109
REMARK SMILES IDX 94 110 95 111 98 112 96 113 75 114 76 115 84 116 77 117
REMARK SMILES IDX 78 118 82 119 85 120 79 121 80 122 83 123 81 124
REMARK H PARENT 20 12 16 17 25 46 105 77 73 88
REMARK Flexibility Score: inf
ROOT
ATOM      1  C   UNL A   1      47.483  32.617  30.063  1.00  0.00     0.188 C 
ENDROOT
BRANCH   1   2
ATOM      2  O   UNL A   1      46.336  32.443  29.213  1.00  0.00    -0.376 OA
BRANCH   2   3
ATOM      3  C   UNL A   1      45.625  33.581  28.833  1.00  0.00     0.202 C 
BRANCH   3   4
ATOM      4  C   UNL A   1      45.045  34.488  29.893  1.00  0.00     0.261 C 
BRANCH   4   5
ATOM      5  O   UNL A   1      44.295  33.711  30.833  1.00  0.00    -0.462 OA
BRANCH   5   6
ATOM      6  C   UNL A   1      42.988  34.023  30.903  1.00  0.00     0.329 C 
ATOM      7  O   UNL A   1      42.493  35.020  30.404  1.00  0.00    -0.250 OA
BRANCH   6   8
ATOM      8  C   UNL A   1      42.216  33.191  31.854  1.00  0.00     0.196 C 
BRANCH   8   9
ATOM      9  N   UNL A   1      41.566  34.243  32.669  1.00  0.00    -0.341 N 
ATOM     10  C   UNL A   1      40.368  34.162  33.403  1.00  0.00     0.240 C 
ATOM     11  O   UNL A   1      40.005  35.212  33.953  1.00  0.00    -0.273 OA
ATOM     12  H   UNL A   1      42.031  35.110  32.701  1.00  0.00     0.164 HD
BRANCH  10  13
ATOM     13  C   UNL A   1      39.419  32.848  33.549  1.00  0.00     0.216 C 
BRANCH  13  14
ATOM     14  N   UNL A   1      38.145  32.870  34.335  1.00  0.00    -0.340 N 
ATOM     15  C   UNL A   1      37.824  32.718  35.707  1.00  0.00     0.292 C 
ATOM     16  O   UNL A   1      36.686  32.883  36.146  1.00  0.00    -0.265 OA
ATOM     17  H   UNL A   1      37.352  33.025  33.772  1.00  0.00     0.164 HD
BRANCH  15  18
ATOM     18  C   UNL A   1      38.885  32.356  36.710  1.00  0.00     0.252 C 
ATOM     19  O   UNL A   1      38.587  31.320  37.322  1.00  0.00    -0.283 OA
BRANCH  18  20
ATOM     20  C   UNL A   1      40.133  33.094  37.093  1.00  0.00     0.054 A 
ATOM     21  N   UNL A   1      41.963  34.446  37.092  1.00  0.00    -0.240 N 
ATOM     22  C   UNL A   1      41.532  33.112  36.850  1.00  0.00     0.117 A 
ATOM     23  C   UNL A   1      40.804  35.190  37.417  1.00  0.00     0.065 A 
ATOM     24  C   UNL A   1      39.946  34.232  37.916  1.00  0.00     0.012 A 
ATOM     25  C   UNL A   1      40.608  36.562  37.681  1.00  0.00     0.028 A 
ATOM     26  C   UNL A   1      38.991  34.596  38.870  1.00  0.00     0.011 A 
ATOM     27  C   UNL A   1      39.742  36.876  38.727  1.00  0.00     0.002 A 
ATOM     28  C   UNL A   1      38.968  35.900  39.339  1.00  0.00     0.001 A 
BRANCH  21  29
ATOM     29  S   UNL A   1      43.280  35.144  37.931  1.00  0.00     0.268 S 
ATOM     30  O   UNL A   1      44.299  35.033  36.891  1.00  0.00    -0.201 OA
ATOM     31  O   UNL A   1      43.288  34.280  39.113  1.00  0.00    -0.201 OA
BRANCH  29  32
ATOM     32  C   UNL A   1      43.790  36.604  38.723  1.00  0.00     0.088 A 
ATOM     33  C   UNL A   1      43.789  39.874  41.545  1.00  0.00     0.044 C 
ATOM     34  C   UNL A   1      43.844  38.764  40.539  1.00  0.00    -0.051 A 
ATOM     35  C   UNL A   1      43.369  37.543  40.970  1.00  0.00     0.005 A 
ATOM     36  C   UNL A   1      44.306  38.896  39.204  1.00  0.00     0.005 A 
ATOM     37  C   UNL A   1      43.360  36.497  40.082  1.00  0.00     0.022 A 
ATOM     38  C   UNL A   1      44.269  37.818  38.273  1.00  0.00     0.022 A 
ENDBRANCH  29  32
ENDBRANCH  21  29
ENDBRANCH  18  20
ENDBRANCH  15  18
ENDBRANCH  13  14
ENDBRANCH  10  13
ENDBRANCH   8   9
BRANCH   8  39
ATOM     39  C   UNL A   1      42.810  31.760  32.380  1.00  0.00     0.074 C 
BRANCH  39  40
ATOM     40  C   UNL A   1      44.112  31.165  33.050  1.00  0.00    -0.020 A 
ATOM     41  C   UNL A   1      45.304  30.547  32.987  1.00  0.00     0.087 A 
ATOM     42  C   UNL A   1      44.300  30.136  34.000  1.00  0.00     0.003 A 
ATOM     43  N   UNL A   1      46.564  30.472  34.419  1.00  0.00    -0.361 N 
ATOM     44  C   UNL A   1      45.905  29.949  35.215  1.00  0.00     0.046 A 
ATOM     45  C   UNL A   1      42.853  29.360  34.760  1.00  0.00     0.010 A 
ATOM     46  H   UNL A   1      47.496  30.785  34.467  1.00  0.00     0.166 HD
ATOM     47  C   UNL A   1      45.790  29.113  36.733  1.00  0.00     0.026 A 
ATOM     48  C   UNL A   1      42.959  28.605  36.250  1.00  0.00     0.001 A 
ATOM     49  C   UNL A   1      44.339  28.489  37.149  1.00  0.00     0.002 A 
ENDBRANCH  39  40
ENDBRANCH   8  39
ENDBRANCH   6   8
ENDBRANCH   5   6
ENDBRANCH   4   5
ENDBRANCH   3   4
ENDBRANCH   2   3
ENDBRANCH   1   2
BRANCH   1  50
ATOM     50  C   UNL A   1      48.518  31.611  30.604  1.00  0.00     0.188 C 
BRANCH  50  51
ATOM     51  O   UNL A   1      49.744  32.108  31.070  1.00  0.00    -0.377 OA
BRANCH  51  52
ATOM     52  C   UNL A   1      50.860  31.559  30.422  1.00  0.00     0.188 C 
BRANCH  52  53
ATOM     53  C   UNL A   1      51.713  30.889  31.393  1.00  0.00     0.188 C 
BRANCH  53  54
ATOM     54  O   UNL A   1      51.171  31.365  32.619  1.00  0.00    -0.376 OA
BRANCH  54  55
ATOM     55  C   UNL A   1      51.253  30.391  33.621  1.00  0.00     0.202 C 
BRANCH  55  56
ATOM     56  C   UNL A   1      50.092  30.646  34.586  1.00  0.00     0.261 C 
BRANCH  56  57
ATOM     57  O   UNL A   1      49.326  29.350  34.651  1.00  0.00    -0.460 OA
BRANCH  57  58
ATOM     58  C   UNL A   1      49.772  28.096  34.269  1.00  0.00     0.338 C 
ATOM     59  O   UNL A   1      50.423  27.376  35.016  1.00  0.00    -0.246 OA
BRANCH  58  60
ATOM     60  C   UNL A   1      49.381  27.580  32.846  1.00  0.00     0.060 A 
ATOM     61  C   UNL A   1      48.941  28.469  31.834  1.00  0.00     0.016 A 
ATOM     62  C   UNL A   1      49.129  26.249  32.583  1.00  0.00     0.016 A 
ATOM     63  C   UNL A   1      48.027  28.082  30.780  1.00  0.00     0.010 A 
ATOM     64  C   UNL A   1      48.132  25.903  31.628  1.00  0.00     0.010 A 
ATOM     65  C   UNL A   1      47.489  26.798  30.729  1.00  0.00    -0.014 A 
BRANCH  65  66
ATOM     66  C   UNL A   1      46.353  26.294  29.797  1.00  0.00     0.031 A 
ATOM     67  C   UNL A   1      44.911  26.715  30.220  1.00  0.00     0.074 A 
ATOM     68  C   UNL A   1      46.496  26.044  28.447  1.00  0.00     0.049 A 
ATOM     69  N   UNL A   1      43.840  26.782  29.493  1.00  0.00    -0.248 NA
ATOM     70  C   UNL A   1      44.601  27.139  31.587  1.00  0.00     0.031 C 
ATOM     71  C   UNL A   1      46.294  27.059  27.436  1.00  0.00     0.029 A 
ATOM     72  N   UNL A   1      47.158  25.096  27.669  1.00  0.00    -0.354 N 
ATOM     73  C   UNL A   1      42.827  27.506  30.166  1.00  0.00     0.074 A 
ATOM     74  C   UNL A   1      43.393  27.707  31.475  1.00  0.00     0.031 C 
ATOM     75  C   UNL A   1      46.649  26.738  26.210  1.00  0.00     0.029 A 
ATOM     76  C   UNL A   1      47.221  25.414  26.314  1.00  0.00     0.049 A 
ATOM     77  H   UNL A   1      47.546  24.273  28.044  1.00  0.00     0.167 HD
ATOM     78  C   UNL A   1      41.665  27.902  29.518  1.00  0.00     0.037 A 
ATOM     79  C   UNL A   1      47.961  25.106  25.222  1.00  0.00     0.037 A 
ATOM     80  C   UNL A   1      41.647  27.386  28.115  1.00  0.00     0.049 A 
ATOM     81  C   UNL A   1      46.334  24.748  24.702  1.00  0.00     0.074 A 
ATOM     82  C   UNL A   1      41.301  27.870  26.865  1.00  0.00     0.029 A 
ATOM     83  N   UNL A   1      42.208  26.143  27.825  1.00  0.00    -0.354 N 
ATOM     84  N   UNL A   1      45.168  25.416  24.859  1.00  0.00    -0.248 NA
ATOM     85  C   UNL A   1      46.023  23.308  24.499  1.00  0.00     0.031 C 
ATOM     86  C   UNL A   1      41.971  27.089  25.864  1.00  0.00     0.029 A 
ATOM     87  C   UNL A   1      42.535  25.987  26.480  1.00  0.00     0.049 A 
ATOM     88  H   UNL A   1      42.356  25.444  28.504  1.00  0.00     0.167 HD
ATOM     89  C   UNL A   1      44.157  24.503  25.236  1.00  0.00     0.074 A 
ATOM     90  C   UNL A   1      44.705  23.243  24.754  1.00  0.00     0.031 C 
ATOM     91  C   UNL A   1      43.018  24.682  26.032  1.00  0.00     0.037 A 
BRANCH  78  92
ATOM     92  C   UNL A   1      40.543  28.906  30.026  1.00  0.00     0.064 A 
ATOM     93  C   UNL A   1      39.359  28.415  30.653  1.00  0.00     0.173 A 
ATOM     94  C   UNL A   1      40.513  30.316  29.886  1.00  0.00     0.173 A 
ATOM     95  F   UNL A   1      39.251  27.137  31.034  1.00  0.00    -0.203 F 
ATOM     96  C   UNL A   1      38.243  29.207  30.989  1.00  0.00     0.198 A 
ATOM     97  C   UNL A   1      39.423  31.126  30.306  1.00  0.00     0.198 A 
ATOM     98  F   UNL A   1      41.529  30.998  29.353  1.00  0.00    -0.203 F 
ATOM     99  F   UNL A   1      37.143  28.630  31.501  1.00  0.00    -0.200 F 
ATOM    100  C   UNL A   1      38.279  30.569  30.831  1.00  0.00     0.200 A 
ATOM    101  F   UNL A   1      39.504  32.463  30.202  1.00  0.00    -0.200 F 
ATOM    102  F   UNL A   1      37.245  31.335  31.217  1.00  0.00    -0.200 F 
ENDBRANCH  78  92
BRANCH  79 103
ATOM    103  C   UNL A   1      49.192  26.305  25.488  1.00  0.00     0.064 A 
ATOM    104  C   UNL A   1      50.233  27.140  26.969  1.00  0.00     0.173 A 
ATOM    105  C   UNL A   1      49.694  26.927  23.676  1.00  0.00     0.173 A 
ATOM    106  F   UNL A   1      49.841  26.815  28.216  1.00  0.00    -0.203 F 
ATOM    107  C   UNL A   1      51.779  28.404  26.888  1.00  0.00     0.198 A 
ATOM    108  C   UNL A   1      51.246  28.076  23.508  1.00  0.00     0.198 A 
ATOM    109  F   UNL A   1      48.715  27.142  22.770  1.00  0.00    -0.203 F 
ATOM    110  F   UNL A   1      52.276  28.878  28.064  1.00  0.00    -0.200 F 
ATOM    111  C   UNL A   1      52.384  28.798  24.905  1.00  0.00     0.200 A 
ATOM    112  F   UNL A   1      51.351  28.713  22.329  1.00  0.00    -0.200 F 
ATOM    113  F   UNL A   1      53.367  29.566  24.321  1.00  0.00    -0.200 F 
ENDBRANCH  79 103
BRANCH  91 114
ATOM    114  C   UNL A   1      42.082  23.522  26.462  1.00  0.00     0.064 A 
ATOM    115  C   UNL A   1      42.539  22.380  27.118  1.00  0.00     0.173 A 
ATOM    116  C   UNL A   1      40.672  23.544  26.238  1.00  0.00     0.173 A 
ATOM    117  F   UNL A   1      43.733  22.364  27.728  1.00  0.00    -0.203 F 
ATOM    118  C   UNL A   1      41.770  21.218  27.179  1.00  0.00     0.198 A 
ATOM    119  C   UNL A   1      39.863  22.428  26.444  1.00  0.00     0.198 A 
ATOM    120  F   UNL A   1      40.025  24.641  25.820  1.00  0.00    -0.203 F 
ATOM    121  F   UNL A   1      42.343  20.072  27.567  1.00  0.00    -0.200 F 
ATOM    122  C   UNL A   1      40.438  21.235  26.812  1.00  0.00     0.200 A 
ATOM    123  F   UNL A   1      38.539  22.510  26.248  1.00  0.00    -0.200 F 
ATOM    124  F   UNL A   1      39.710  20.111  26.832  1.00  0.00    -0.200 F 
ENDBRANCH  91 114
ENDBRANCH  65  66
ENDBRANCH  58  60
ENDBRANCH  57  58
ENDBRANCH  56  57
ENDBRANCH  55  56
ENDBRANCH  54  55
ENDBRANCH  53  54
ENDBRANCH  52  53
ENDBRANCH  51  52
ENDBRANCH  50  51
ENDBRANCH   1  50
TORSDOF 29
ENDMDL
