MODEL 1
REMARK VINA RESULT:      -8.3      0.000      0.000
REMARK SMILES CC(C)C[C@H](NC(=O)[C@H](C)NC(=O)[C@@H](NC(=O)CNC(=O)OCc1ccccc1)C(C)C)C(=O)OCCOCCOCCOCCOC(=O)c1ccc(-c2c3nc(c(-c4c(F)c(F)c(F)c(F)c4F)c4ccc([nH]4)c(-c4c(F)c(F)c(F)c(F)c4F)c4nc(c(-c5c(F)c(F)c(F)c(F)c5F)c5ccc2[nH]5)C=C4)C=C3)cc1
REMARK SMILES IDX 37 1 36 2 35 3 33 4 34 5 5 6 4 7 2 8 1 9 3 10 6 11 7 12 8 14
REMARK SMILES IDX 9 15 10 16 11 17 12 18 13 20 14 21 15 22 16 23 17 25 18 26
REMARK SMILES IDX 19 27 20 28 21 30 22 31 23 32 24 33 25 34 29 35 26 36 28 37
REMARK SMILES IDX 27 38 30 39 31 40 32 41 38 42 39 43 40 44 41 45 42 46 43 47
REMARK SMILES IDX 44 48 45 49 46 50 47 51 48 52 49 53 50 54 51 55 112 56 52 57
REMARK SMILES IDX 111 58 53 59 54 60 55 61 105 62 56 63 110 64 104 65 106 66
REMARK SMILES IDX 57 67 109 68 103 69 102 70 58 72 90 73 70 74 89 75 71 76
REMARK SMILES IDX 74 77 88 78 107 79 72 80 73 81 87 83 108 84 75 85 59 86
REMARK SMILES IDX 60 87 68 88 61 89 62 90 66 91 69 92 63 93 64 94 67 95 65 96
REMARK SMILES IDX 91 97 92 98 100 99 93 100 94 101 98 102 101 103 95 104
REMARK SMILES IDX 96 105 99 106 97 107 76 108 77 109 85 110 78 111 79 112
REMARK SMILES IDX 83 113 86 114 80 115 81 116 84 117 82 118
REMARK H PARENT 6 13 11 19 15 24 19 29 106 71 74 82
REMARK Flexibility Score: inf
ROOT
ATOM      1  C   UNL A   1      34.221  24.326  26.019  1.00  0.00     0.202 C 
ENDROOT
BRANCH   1   2
ATOM      2  C   UNL A   1      33.868  25.428  24.995  1.00  0.00     0.261 C 
BRANCH   2   3
ATOM      3  O   UNL A   1      34.288  26.764  25.262  1.00  0.00    -0.462 OA
BRANCH   3   4
ATOM      4  C   UNL A   1      33.565  27.704  24.626  1.00  0.00     0.328 C 
ATOM      5  O   UNL A   1      34.052  28.551  23.885  1.00  0.00    -0.250 OA
BRANCH   4   6
ATOM      6  C   UNL A   1      32.048  27.534  24.825  1.00  0.00     0.192 C 
BRANCH   6   7
ATOM      7  C   UNL A   1      31.285  28.545  23.977  1.00  0.00     0.040 C 
BRANCH   7   8
ATOM      8  C   UNL A   1      30.256  27.951  23.010  1.00  0.00    -0.015 C 
ATOM      9  C   UNL A   1      29.336  26.934  23.683  1.00  0.00     0.007 C 
ATOM     10  C   UNL A   1      29.448  29.093  22.405  1.00  0.00     0.007 C 
ENDBRANCH   7   8
ENDBRANCH   6   7
BRANCH   6  11
ATOM     11  N   UNL A   1      31.474  27.595  26.177  1.00  0.00    -0.341 N 
ATOM     12  C   UNL A   1      31.805  28.381  27.247  1.00  0.00     0.242 C 
ATOM     13  H   UNL A   1      30.732  26.968  26.339  1.00  0.00     0.164 HD
ATOM     14  O   UNL A   1      31.477  27.948  28.357  1.00  0.00    -0.273 OA
BRANCH  12  15
ATOM     15  C   UNL A   1      32.605  29.729  27.153  1.00  0.00     0.168 C 
ATOM     16  C   UNL A   1      32.111  30.765  26.165  1.00  0.00     0.041 C 
BRANCH  15  17
ATOM     17  N   UNL A   1      34.031  29.512  26.981  1.00  0.00    -0.343 N 
ATOM     18  C   UNL A   1      35.090  30.142  27.555  1.00  0.00     0.243 C 
ATOM     19  H   UNL A   1      34.268  28.796  26.349  1.00  0.00     0.164 HD
ATOM     20  O   UNL A   1      36.204  29.815  27.125  1.00  0.00    -0.273 OA
BRANCH  18  21
ATOM     21  C   UNL A   1      35.000  31.111  28.791  1.00  0.00     0.174 C 
BRANCH  21  22
ATOM     22  N   UNL A   1      35.547  30.608  30.076  1.00  0.00    -0.343 N 
ATOM     23  C   UNL A   1      36.671  30.022  30.567  1.00  0.00     0.240 C 
ATOM     24  H   UNL A   1      34.891  30.741  30.798  1.00  0.00     0.164 HD
ATOM     25  O   UNL A   1      36.595  29.643  31.745  1.00  0.00    -0.273 OA
BRANCH  23  26
ATOM     26  C   UNL A   1      37.998  29.808  29.815  1.00  0.00     0.219 C 
BRANCH  26  27
ATOM     27  N   UNL A   1      38.601  28.505  29.989  1.00  0.00    -0.312 N 
ATOM     28  C   UNL A   1      39.034  27.677  29.002  1.00  0.00     0.407 C 
ATOM     29  H   UNL A   1      38.709  28.187  30.914  1.00  0.00     0.167 HD
ATOM     30  O   UNL A   1      39.241  26.491  29.240  1.00  0.00    -0.225 OA
BRANCH  28  31
ATOM     31  O   UNL A   1      39.160  28.281  27.798  1.00  0.00    -0.445 OA
BRANCH  31  32
ATOM     32  C   UNL A   1      40.503  28.516  27.330  1.00  0.00     0.270 C 
BRANCH  32  33
ATOM     33  C   UNL A   1      41.606  28.195  28.309  1.00  0.00    -0.011 A 
ATOM     34  C   UNL A   1      42.289  26.973  28.281  1.00  0.00     0.007 A 
ATOM     35  C   UNL A   1      42.002  29.171  29.237  1.00  0.00     0.007 A 
ATOM     36  C   UNL A   1      43.410  26.769  29.081  1.00  0.00     0.000 A 
ATOM     37  C   UNL A   1      43.107  28.954  30.059  1.00  0.00     0.000 A 
ATOM     38  C   UNL A   1      43.825  27.764  29.963  1.00  0.00     0.000 A 
ENDBRANCH  32  33
ENDBRANCH  31  32
ENDBRANCH  28  31
ENDBRANCH  26  27
ENDBRANCH  23  26
ENDBRANCH  21  22
BRANCH  21  39
ATOM     39  C   UNL A   1      35.360  32.565  28.466  1.00  0.00     0.015 C 
ATOM     40  C   UNL A   1      34.527  33.625  29.189  1.00  0.00     0.010 C 
ATOM     41  C   UNL A   1      36.853  32.836  28.692  1.00  0.00     0.010 C 
ENDBRANCH  21  39
ENDBRANCH  18  21
ENDBRANCH  15  17
ENDBRANCH  12  15
ENDBRANCH   6  11
ENDBRANCH   4   6
ENDBRANCH   3   4
ENDBRANCH   2   3
ENDBRANCH   1   2
BRANCH   1  42
ATOM     42  O   UNL A   1      34.647  22.996  25.766  1.00  0.00    -0.376 OA
BRANCH  42  43
ATOM     43  C   UNL A   1      35.906  22.647  25.229  1.00  0.00     0.188 C 
BRANCH  43  44
ATOM     44  C   UNL A   1      37.005  23.717  25.279  1.00  0.00     0.188 C 
BRANCH  44  45
ATOM     45  O   UNL A   1      37.733  23.719  26.488  1.00  0.00    -0.377 OA
BRANCH  45  46
ATOM     46  C   UNL A   1      39.076  23.246  26.446  1.00  0.00     0.188 C 
BRANCH  46  47
ATOM     47  C   UNL A   1      40.244  24.156  26.895  1.00  0.00     0.188 C 
BRANCH  47  48
ATOM     48  O   UNL A   1      41.379  23.467  27.395  1.00  0.00    -0.376 OA
BRANCH  48  49
ATOM     49  C   UNL A   1      41.580  22.114  27.017  1.00  0.00     0.202 C 
BRANCH  49  50
ATOM     50  C   UNL A   1      42.431  21.839  25.767  1.00  0.00     0.261 C 
BRANCH  50  51
ATOM     51  O   UNL A   1      43.362  22.867  25.392  1.00  0.00    -0.460 OA
BRANCH  51  52
ATOM     52  C   UNL A   1      44.617  22.786  25.883  1.00  0.00     0.338 C 
ATOM     53  O   UNL A   1      45.307  21.788  25.967  1.00  0.00    -0.246 OA
BRANCH  52  54
ATOM     54  C   UNL A   1      45.112  24.163  26.110  1.00  0.00     0.060 A 
ATOM     55  C   UNL A   1      44.872  25.133  25.128  1.00  0.00     0.016 A 
ATOM     56  C   UNL A   1      45.810  24.498  27.273  1.00  0.00     0.016 A 
ATOM     57  C   UNL A   1      45.369  26.426  25.282  1.00  0.00     0.010 A 
ATOM     58  C   UNL A   1      46.331  25.791  27.415  1.00  0.00     0.010 A 
ATOM     59  C   UNL A   1      46.145  26.749  26.404  1.00  0.00    -0.014 A 
BRANCH  59  60
ATOM     60  C   UNL A   1      46.902  28.027  26.414  1.00  0.00     0.031 A 
ATOM     61  C   UNL A   1      48.387  27.988  26.158  1.00  0.00     0.074 A 
ATOM     62  C   UNL A   1      46.279  29.207  26.578  1.00  0.00     0.049 A 
ATOM     63  N   UNL A   1      49.251  28.970  26.117  1.00  0.00    -0.248 NA
ATOM     64  C   UNL A   1      48.973  26.661  25.913  1.00  0.00     0.031 C 
ATOM     65  C   UNL A   1      44.843  29.382  26.789  1.00  0.00     0.029 A 
ATOM     66  N   UNL A   1      46.780  30.486  26.593  1.00  0.00    -0.354 N 
ATOM     67  C   UNL A   1      50.478  28.381  25.837  1.00  0.00     0.074 A 
ATOM     68  C   UNL A   1      50.256  26.954  25.758  1.00  0.00     0.031 C 
ATOM     69  C   UNL A   1      44.579  30.694  26.925  1.00  0.00     0.029 A 
ATOM     70  C   UNL A   1      45.830  31.446  26.841  1.00  0.00     0.049 A 
ATOM     71  H   UNL A   1      47.729  30.694  26.442  1.00  0.00     0.167 HD
ATOM     72  C   UNL A   1      51.679  28.978  25.648  1.00  0.00     0.037 A 
ATOM     73  C   UNL A   1      45.962  32.778  27.007  1.00  0.00     0.037 A 
ATOM     74  C   UNL A   1      51.902  30.398  25.732  1.00  0.00     0.049 A 
ATOM     75  C   UNL A   1      47.330  33.406  26.874  1.00  0.00     0.074 A 
ATOM     76  C   UNL A   1      53.083  31.098  25.556  1.00  0.00     0.029 A 
ATOM     77  N   UNL A   1      50.924  31.335  26.025  1.00  0.00    -0.354 N 
ATOM     78  N   UNL A   1      48.479  32.844  26.585  1.00  0.00    -0.248 NA
ATOM     79  C   UNL A   1      47.413  34.858  27.085  1.00  0.00     0.031 C 
ATOM     80  C   UNL A   1      52.832  32.451  25.800  1.00  0.00     0.029 A 
ATOM     81  C   UNL A   1      51.480  32.604  26.060  1.00  0.00     0.049 A 
ATOM     82  H   UNL A   1      49.974  31.129  26.185  1.00  0.00     0.167 HD
ATOM     83  C   UNL A   1      49.411  33.875  26.549  1.00  0.00     0.074 A 
ATOM     84  C   UNL A   1      48.687  35.100  26.815  1.00  0.00     0.031 C 
ATOM     85  C   UNL A   1      50.747  33.816  26.321  1.00  0.00     0.037 A 
BRANCH  72  86
ATOM     86  C   UNL A   1      52.857  28.096  25.344  1.00  0.00     0.064 A 
ATOM     87  C   UNL A   1      53.243  27.810  24.027  1.00  0.00     0.173 A 
ATOM     88  C   UNL A   1      53.647  27.584  26.384  1.00  0.00     0.173 A 
ATOM     89  F   UNL A   1      52.514  28.263  22.995  1.00  0.00    -0.203 F 
ATOM     90  C   UNL A   1      54.367  27.031  23.761  1.00  0.00     0.198 A 
ATOM     91  C   UNL A   1      54.788  26.832  26.117  1.00  0.00     0.198 A 
ATOM     92  F   UNL A   1      53.324  27.829  27.664  1.00  0.00    -0.203 F 
ATOM     93  F   UNL A   1      54.695  26.739  22.496  1.00  0.00    -0.200 F 
ATOM     94  C   UNL A   1      55.144  26.553  24.806  1.00  0.00     0.200 A 
ATOM     95  F   UNL A   1      55.546  26.383  27.126  1.00  0.00    -0.200 F 
ATOM     96  F   UNL A   1      56.236  25.819  24.549  1.00  0.00    -0.200 F 
ENDBRANCH  72  86
BRANCH  73  97
ATOM     97  C   UNL A   1      44.780  33.618  27.346  1.00  0.00     0.064 A 
ATOM     98  C   UNL A   1      44.124  34.383  26.370  1.00  0.00     0.173 A 
ATOM     99  C   UNL A   1      44.324  33.723  28.669  1.00  0.00     0.173 A 
ATOM    100  F   UNL A   1      44.538  34.340  25.096  1.00  0.00    -0.203 F 
ATOM    101  C   UNL A   1      43.084  35.247  26.712  1.00  0.00     0.198 A 
ATOM    102  C   UNL A   1      43.259  34.558  29.001  1.00  0.00     0.198 A 
ATOM    103  F   UNL A   1      44.916  33.017  29.643  1.00  0.00    -0.203 F 
ATOM    104  F   UNL A   1      42.526  36.022  25.771  1.00  0.00    -0.200 F 
ATOM    105  C   UNL A   1      42.650  35.331  28.025  1.00  0.00     0.200 A 
ATOM    106  F   UNL A   1      42.833  34.624  30.270  1.00  0.00    -0.200 F 
ATOM    107  F   UNL A   1      41.655  36.167  28.353  1.00  0.00    -0.200 F 
ENDBRANCH  73  97
BRANCH  85 108
ATOM    108  C   UNL A   1      51.503  35.118  26.310  1.00  0.00     0.064 A 
ATOM    109  C   UNL A   1      51.966  35.716  27.493  1.00  0.00     0.173 A 
ATOM    110  C   UNL A   1      51.777  35.771  25.098  1.00  0.00     0.173 A 
ATOM    111  F   UNL A   1      51.724  35.140  28.680  1.00  0.00    -0.203 F 
ATOM    112  C   UNL A   1      52.629  36.940  27.465  1.00  0.00     0.198 A 
ATOM    113  C   UNL A   1      52.475  36.975  25.072  1.00  0.00     0.198 A 
ATOM    114  F   UNL A   1      51.369  35.240  23.935  1.00  0.00    -0.203 F 
ATOM    115  F   UNL A   1      52.994  37.527  28.614  1.00  0.00    -0.200 F 
ATOM    116  C   UNL A   1      52.888  37.566  26.256  1.00  0.00     0.200 A 
ATOM    117  F   UNL A   1      52.741  37.567  23.900  1.00  0.00    -0.200 F 
ATOM    118  F   UNL A   1      53.524  38.745  26.232  1.00  0.00    -0.200 F 
ENDBRANCH  85 108
ENDBRANCH  59  60
ENDBRANCH  52  54
ENDBRANCH  51  52
ENDBRANCH  50  51
ENDBRANCH  49  50
ENDBRANCH  48  49
ENDBRANCH  47  48
ENDBRANCH  46  47
ENDBRANCH  45  46
ENDBRANCH  44  45
ENDBRANCH  43  44
ENDBRANCH  42  43
ENDBRANCH   1  42
TORSDOF 33
ENDMDL
MODEL 2
REMARK VINA RESULT:      -8.0      3.462      8.765
REMARK SMILES CC(C)C[C@H](NC(=O)[C@H](C)NC(=O)[C@@H](NC(=O)CNC(=O)OCc1ccccc1)C(C)C)C(=O)OCCOCCOCCOCCOC(=O)c1ccc(-c2c3nc(c(-c4c(F)c(F)c(F)c(F)c4F)c4ccc([nH]4)c(-c4c(F)c(F)c(F)c(F)c4F)c4nc(c(-c5c(F)c(F)c(F)c(F)c5F)c5ccc2[nH]5)C=C4)C=C3)cc1
REMARK SMILES IDX 37 1 36 2 35 3 33 4 34 5 5 6 4 7 2 8 1 9 3 10 6 11 7 12 8 14
REMARK SMILES IDX 9 15 10 16 11 17 12 18 13 20 14 21 15 22 16 23 17 25 18 26
REMARK SMILES IDX 19 27 20 28 21 30 22 31 23 32 24 33 25 34 29 35 26 36 28 37
REMARK SMILES IDX 27 38 30 39 31 40 32 41 38 42 39 43 40 44 41 45 42 46 43 47
REMARK SMILES IDX 44 48 45 49 46 50 47 51 48 52 49 53 50 54 51 55 112 56 52 57
REMARK SMILES IDX 111 58 53 59 54 60 55 61 105 62 56 63 110 64 104 65 106 66
REMARK SMILES IDX 57 67 109 68 103 69 102 70 58 72 90 73 70 74 89 75 71 76
REMARK SMILES IDX 74 77 88 78 107 79 72 80 73 81 87 83 108 84 75 85 59 86
REMARK SMILES IDX 60 87 68 88 61 89 62 90 66 91 69 92 63 93 64 94 67 95 65 96
REMARK SMILES IDX 91 97 92 98 100 99 93 100 94 101 98 102 101 103 95 104
REMARK SMILES IDX 96 105 99 106 97 107 76 108 77 109 85 110 78 111 79 112
REMARK SMILES IDX 83 113 86 114 80 115 81 116 84 117 82 118
REMARK H PARENT 6 13 11 19 15 24 19 29 106 71 74 82
REMARK Flexibility Score: inf
ROOT
ATOM      1  C   UNL A   1      37.616  23.712  26.121  1.00  0.00     0.202 C 
ENDROOT
BRANCH   1   2
ATOM      2  C   UNL A   1      36.704  23.096  25.036  1.00  0.00     0.261 C 
BRANCH   2   3
ATOM      3  O   UNL A   1      36.593  21.677  24.968  1.00  0.00    -0.462 OA
BRANCH   3   4
ATOM      4  C   UNL A   1      35.339  21.235  24.756  1.00  0.00     0.328 C 
ATOM      5  O   UNL A   1      34.984  20.078  24.952  1.00  0.00    -0.250 OA
BRANCH   4   6
ATOM      6  C   UNL A   1      34.364  22.357  24.359  1.00  0.00     0.192 C 
BRANCH   6   7
ATOM      7  C   UNL A   1      32.941  21.992  24.764  1.00  0.00     0.040 C 
BRANCH   7   8
ATOM      8  C   UNL A   1      32.338  22.839  25.889  1.00  0.00    -0.015 C 
ATOM      9  C   UNL A   1      30.828  22.648  26.023  1.00  0.00     0.007 C 
ATOM     10  C   UNL A   1      33.045  22.484  27.192  1.00  0.00     0.007 C 
ENDBRANCH   7   8
ENDBRANCH   6   7
BRANCH   6  11
ATOM     11  N   UNL A   1      34.303  22.817  22.963  1.00  0.00    -0.341 N 
ATOM     12  C   UNL A   1      33.524  23.778  22.379  1.00  0.00     0.242 C 
ATOM     13  H   UNL A   1      34.923  22.359  22.351  1.00  0.00     0.164 HD
ATOM     14  O   UNL A   1      33.358  23.670  21.159  1.00  0.00    -0.273 OA
BRANCH  12  15
ATOM     15  C   UNL A   1      32.802  24.937  23.153  1.00  0.00     0.168 C 
ATOM     16  C   UNL A   1      31.370  25.244  22.769  1.00  0.00     0.041 C 
BRANCH  15  17
ATOM     17  N   UNL A   1      33.588  26.159  23.175  1.00  0.00    -0.343 N 
ATOM     18  C   UNL A   1      33.230  27.426  23.511  1.00  0.00     0.243 C 
ATOM     19  H   UNL A   1      34.528  26.051  22.904  1.00  0.00     0.164 HD
ATOM     20  O   UNL A   1      34.094  28.293  23.323  1.00  0.00    -0.273 OA
BRANCH  18  21
ATOM     21  C   UNL A   1      31.894  27.822  24.240  1.00  0.00     0.174 C 
BRANCH  21  22
ATOM     22  N   UNL A   1      31.925  27.852  25.724  1.00  0.00    -0.343 N 
ATOM     23  C   UNL A   1      32.767  28.186  26.738  1.00  0.00     0.240 C 
ATOM     24  H   UNL A   1      31.068  27.530  26.087  1.00  0.00     0.164 HD
ATOM     25  O   UNL A   1      32.367  27.886  27.872  1.00  0.00    -0.273 OA
BRANCH  23  26
ATOM     26  C   UNL A   1      34.125  28.897  26.605  1.00  0.00     0.219 C 
BRANCH  26  27
ATOM     27  N   UNL A   1      34.106  30.316  26.888  1.00  0.00    -0.312 N 
ATOM     28  C   UNL A   1      34.992  30.997  27.662  1.00  0.00     0.407 C 
ATOM     29  H   UNL A   1      33.381  30.840  26.479  1.00  0.00     0.167 HD
ATOM     30  O   UNL A   1      34.712  32.118  28.078  1.00  0.00    -0.225 OA
BRANCH  28  31
ATOM     31  O   UNL A   1      36.127  30.310  27.927  1.00  0.00    -0.445 OA
BRANCH  31  32
ATOM     32  C   UNL A   1      36.411  30.041  29.315  1.00  0.00     0.270 C 
BRANCH  32  33
ATOM     33  C   UNL A   1      37.302  31.041  30.010  1.00  0.00    -0.011 A 
ATOM     34  C   UNL A   1      38.369  31.666  29.353  1.00  0.00     0.007 A 
ATOM     35  C   UNL A   1      37.017  31.403  31.337  1.00  0.00     0.007 A 
ATOM     36  C   UNL A   1      39.066  32.705  29.964  1.00  0.00     0.000 A 
ATOM     37  C   UNL A   1      37.737  32.424  31.958  1.00  0.00     0.000 A 
ATOM     38  C   UNL A   1      38.744  33.091  31.262  1.00  0.00     0.000 A 
ENDBRANCH  32  33
ENDBRANCH  31  32
ENDBRANCH  28  31
ENDBRANCH  26  27
ENDBRANCH  23  26
ENDBRANCH  21  22
BRANCH  21  39
ATOM     39  C   UNL A   1      31.159  28.999  23.591  1.00  0.00     0.015 C 
ATOM     40  C   UNL A   1      29.865  28.642  22.856  1.00  0.00     0.010 C 
ATOM     41  C   UNL A   1      30.888  30.118  24.604  1.00  0.00     0.010 C 
ENDBRANCH  21  39
ENDBRANCH  18  21
ENDBRANCH  15  17
ENDBRANCH  12  15
ENDBRANCH   6  11
ENDBRANCH   4   6
ENDBRANCH   3   4
ENDBRANCH   2   3
ENDBRANCH   1   2
BRANCH   1  42
ATOM     42  O   UNL A   1      38.865  23.230  26.595  1.00  0.00    -0.376 OA
BRANCH  42  43
ATOM     43  C   UNL A   1      39.989  24.043  26.856  1.00  0.00     0.188 C 
BRANCH  43  44
ATOM     44  C   UNL A   1      39.748  25.556  26.954  1.00  0.00     0.188 C 
BRANCH  44  45
ATOM     45  O   UNL A   1      40.526  26.186  27.949  1.00  0.00    -0.377 OA
BRANCH  45  46
ATOM     46  C   UNL A   1      40.181  27.521  28.304  1.00  0.00     0.188 C 
BRANCH  46  47
ATOM     47  C   UNL A   1      39.806  27.875  29.762  1.00  0.00     0.188 C 
BRANCH  47  48
ATOM     48  O   UNL A   1      38.613  27.269  30.235  1.00  0.00    -0.376 OA
BRANCH  48  49
ATOM     49  C   UNL A   1      38.424  27.130  31.635  1.00  0.00     0.202 C 
BRANCH  49  50
ATOM     50  C   UNL A   1      38.538  28.395  32.501  1.00  0.00     0.261 C 
BRANCH  50  51
ATOM     51  O   UNL A   1      39.759  28.552  33.242  1.00  0.00    -0.460 OA
BRANCH  51  52
ATOM     52  C   UNL A   1      39.947  29.714  33.902  1.00  0.00     0.338 C 
ATOM     53  O   UNL A   1      39.604  29.974  35.040  1.00  0.00    -0.246 OA
BRANCH  52  54
ATOM     54  C   UNL A   1      40.840  30.568  33.086  1.00  0.00     0.060 A 
ATOM     55  C   UNL A   1      41.115  30.182  31.768  1.00  0.00     0.016 A 
ATOM     56  C   UNL A   1      41.408  31.732  33.611  1.00  0.00     0.016 A 
ATOM     57  C   UNL A   1      41.994  30.931  30.986  1.00  0.00     0.010 A 
ATOM     58  C   UNL A   1      42.310  32.469  32.834  1.00  0.00     0.010 A 
ATOM     59  C   UNL A   1      42.636  32.051  31.532  1.00  0.00    -0.014 A 
BRANCH  59  60
ATOM     60  C   UNL A   1      43.773  32.661  30.796  1.00  0.00     0.031 A 
ATOM     61  C   UNL A   1      43.574  34.007  30.148  1.00  0.00     0.074 A 
ATOM     62  C   UNL A   1      44.979  32.068  30.759  1.00  0.00     0.049 A 
ATOM     63  N   UNL A   1      44.418  34.732  29.458  1.00  0.00    -0.248 NA
ATOM     64  C   UNL A   1      42.244  34.617  30.304  1.00  0.00     0.031 C 
ATOM     65  C   UNL A   1      45.311  30.788  31.382  1.00  0.00     0.029 A 
ATOM     66  N   UNL A   1      46.152  32.469  30.166  1.00  0.00    -0.354 N 
ATOM     67  C   UNL A   1      43.724  35.881  29.103  1.00  0.00     0.074 A 
ATOM     68  C   UNL A   1      42.379  35.743  29.618  1.00  0.00     0.031 C 
ATOM     69  C   UNL A   1      46.601  30.502  31.129  1.00  0.00     0.029 A 
ATOM     70  C   UNL A   1      47.175  31.562  30.301  1.00  0.00     0.049 A 
ATOM     71  H   UNL A   1      46.250  33.324  29.689  1.00  0.00     0.167 HD
ATOM     72  C   UNL A   1      44.171  36.964  28.422  1.00  0.00     0.037 A 
ATOM     73  C   UNL A   1      48.423  31.577  29.792  1.00  0.00     0.037 A 
ATOM     74  C   UNL A   1      45.508  37.100  27.904  1.00  0.00     0.049 A 
ATOM     75  C   UNL A   1      48.868  32.759  28.964  1.00  0.00     0.074 A 
ATOM     76  C   UNL A   1      46.057  38.159  27.201  1.00  0.00     0.029 A 
ATOM     77  N   UNL A   1      46.504  36.144  28.026  1.00  0.00    -0.354 N 
ATOM     78  N   UNL A   1      48.213  33.853  28.655  1.00  0.00    -0.248 NA
ATOM     79  C   UNL A   1      50.232  32.709  28.419  1.00  0.00     0.031 C 
ATOM     80  C   UNL A   1      47.365  37.819  26.847  1.00  0.00     0.029 A 
ATOM     81  C   UNL A   1      47.656  36.577  27.388  1.00  0.00     0.049 A 
ATOM     82  H   UNL A   1      46.407  35.285  28.496  1.00  0.00     0.167 HD
ATOM     83  C   UNL A   1      49.094  34.630  27.910  1.00  0.00     0.074 A 
ATOM     84  C   UNL A   1      50.339  33.895  27.841  1.00  0.00     0.031 C 
ATOM     85  C   UNL A   1      48.892  35.839  27.331  1.00  0.00     0.037 A 
BRANCH  72  86
ATOM     86  C   UNL A   1      43.204  38.087  28.180  1.00  0.00     0.064 A 
ATOM     87  C   UNL A   1      43.110  39.180  29.055  1.00  0.00     0.173 A 
ATOM     88  C   UNL A   1      42.405  38.101  27.027  1.00  0.00     0.173 A 
ATOM     89  F   UNL A   1      43.841  39.209  30.181  1.00  0.00    -0.203 F 
ATOM     90  C   UNL A   1      42.243  40.238  28.791  1.00  0.00     0.198 A 
ATOM     91  C   UNL A   1      41.563  39.174  26.749  1.00  0.00     0.198 A 
ATOM     92  F   UNL A   1      42.457  37.081  26.155  1.00  0.00    -0.203 F 
ATOM     93  F   UNL A   1      42.143  41.253  29.659  1.00  0.00    -0.200 F 
ATOM     94  C   UNL A   1      41.479  40.239  27.633  1.00  0.00     0.200 A 
ATOM     95  F   UNL A   1      40.837  39.181  25.623  1.00  0.00    -0.200 F 
ATOM     96  F   UNL A   1      40.659  41.266  27.371  1.00  0.00    -0.200 F 
ENDBRANCH  72  86
BRANCH  73  97
ATOM     97  C   UNL A   1      49.344  30.429  30.018  1.00  0.00     0.064 A 
ATOM     98  C   UNL A   1      49.303  29.289  29.203  1.00  0.00     0.173 A 
ATOM     99  C   UNL A   1      50.241  30.423  31.098  1.00  0.00     0.173 A 
ATOM    100  F   UNL A   1      48.445  29.231  28.174  1.00  0.00    -0.203 F 
ATOM    101  C   UNL A   1      50.094  28.174  29.481  1.00  0.00     0.198 A 
ATOM    102  C   UNL A   1      51.058  29.324  31.351  1.00  0.00     0.198 A 
ATOM    103  F   UNL A   1      50.321  31.485  31.912  1.00  0.00    -0.203 F 
ATOM    104  F   UNL A   1      49.979  27.070  28.730  1.00  0.00    -0.200 F 
ATOM    105  C   UNL A   1      50.973  28.194  30.552  1.00  0.00     0.200 A 
ATOM    106  F   UNL A   1      51.918  29.354  32.379  1.00  0.00    -0.200 F 
ATOM    107  F   UNL A   1      51.728  27.121  30.823  1.00  0.00    -0.200 F 
ENDBRANCH  73  97
BRANCH  85 108
ATOM    108  C   UNL A   1      50.055  36.460  26.607  1.00  0.00     0.064 A 
ATOM    109  C   UNL A   1      50.328  36.174  25.259  1.00  0.00     0.173 A 
ATOM    110  C   UNL A   1      50.904  37.362  27.267  1.00  0.00     0.173 A 
ATOM    111  F   UNL A   1      49.555  35.312  24.582  1.00  0.00    -0.203 F 
ATOM    112  C   UNL A   1      51.433  36.729  24.618  1.00  0.00     0.198 A 
ATOM    113  C   UNL A   1      51.985  37.945  26.611  1.00  0.00     0.198 A 
ATOM    114  F   UNL A   1      50.685  37.682  28.552  1.00  0.00    -0.203 F 
ATOM    115  F   UNL A   1      51.715  36.382  23.355  1.00  0.00    -0.200 F 
ATOM    116  C   UNL A   1      52.257  37.617  25.291  1.00  0.00     0.200 A 
ATOM    117  F   UNL A   1      52.768  38.819  27.258  1.00  0.00    -0.200 F 
ATOM    118  F   UNL A   1      53.321  38.148  24.673  1.00  0.00    -0.200 F 
ENDBRANCH  85 108
ENDBRANCH  59  60
ENDBRANCH  52  54
ENDBRANCH  51  52
ENDBRANCH  50  51
ENDBRANCH  49  50
ENDBRANCH  48  49
ENDBRANCH  47  48
ENDBRANCH  46  47
ENDBRANCH  45  46
ENDBRANCH  44  45
ENDBRANCH  43  44
ENDBRANCH  42  43
ENDBRANCH   1  42
TORSDOF 33
ENDMDL
MODEL 3
REMARK VINA RESULT:      -7.8      5.701      9.741
REMARK SMILES CC(C)C[C@H](NC(=O)[C@H](C)NC(=O)[C@@H](NC(=O)CNC(=O)OCc1ccccc1)C(C)C)C(=O)OCCOCCOCCOCCOC(=O)c1ccc(-c2c3nc(c(-c4c(F)c(F)c(F)c(F)c4F)c4ccc([nH]4)c(-c4c(F)c(F)c(F)c(F)c4F)c4nc(c(-c5c(F)c(F)c(F)c(F)c5F)c5ccc2[nH]5)C=C4)C=C3)cc1
REMARK SMILES IDX 37 1 36 2 35 3 33 4 34 5 5 6 4 7 2 8 1 9 3 10 6 11 7 12 8 14
REMARK SMILES IDX 9 15 10 16 11 17 12 18 13 20 14 21 15 22 16 23 17 25 18 26
REMARK SMILES IDX 19 27 20 28 21 30 22 31 23 32 24 33 25 34 29 35 26 36 28 37
REMARK SMILES IDX 27 38 30 39 31 40 32 41 38 42 39 43 40 44 41 45 42 46 43 47
REMARK SMILES IDX 44 48 45 49 46 50 47 51 48 52 49 53 50 54 51 55 112 56 52 57
REMARK SMILES IDX 111 58 53 59 54 60 55 61 105 62 56 63 110 64 104 65 106 66
REMARK SMILES IDX 57 67 109 68 103 69 102 70 58 72 90 73 70 74 89 75 71 76
REMARK SMILES IDX 74 77 88 78 107 79 72 80 73 81 87 83 108 84 75 85 59 86
REMARK SMILES IDX 60 87 68 88 61 89 62 90 66 91 69 92 63 93 64 94 67 95 65 96
REMARK SMILES IDX 91 97 92 98 100 99 93 100 94 101 98 102 101 103 95 104
REMARK SMILES IDX 96 105 99 106 97 107 76 108 77 109 85 110 78 111 79 112
REMARK SMILES IDX 83 113 86 114 80 115 81 116 84 117 82 118
REMARK H PARENT 6 13 11 19 15 24 19 29 106 71 74 82
REMARK Flexibility Score: inf
ROOT
ATOM      1  C   UNL A   1      41.477  28.295  34.601  1.00  0.00     0.202 C 
ENDROOT
BRANCH   1   2
ATOM      2  C   UNL A   1      41.225  29.685  35.228  1.00  0.00     0.261 C 
BRANCH   2   3
ATOM      3  O   UNL A   1      40.209  29.809  36.219  1.00  0.00    -0.462 OA
BRANCH   3   4
ATOM      4  C   UNL A   1      39.213  30.650  35.883  1.00  0.00     0.328 C 
ATOM      5  O   UNL A   1      38.034  30.321  35.829  1.00  0.00    -0.250 OA
BRANCH   4   6
ATOM      6  C   UNL A   1      39.690  32.100  35.692  1.00  0.00     0.192 C 
BRANCH   6   7
ATOM      7  C   UNL A   1      40.108  32.703  37.028  1.00  0.00     0.040 C 
BRANCH   7   8
ATOM      8  C   UNL A   1      39.484  34.062  37.363  1.00  0.00    -0.015 C 
ATOM      9  C   UNL A   1      38.675  34.033  38.658  1.00  0.00     0.007 C 
ATOM     10  C   UNL A   1      40.600  35.096  37.446  1.00  0.00     0.007 C 
ENDBRANCH   7   8
ENDBRANCH   6   7
BRANCH   6  11
ATOM     11  N   UNL A   1      38.812  33.082  35.039  1.00  0.00    -0.341 N 
ATOM     12  C   UNL A   1      38.995  33.819  33.901  1.00  0.00     0.242 C 
ATOM     13  H   UNL A   1      37.952  33.234  35.495  1.00  0.00     0.164 HD
ATOM     14  O   UNL A   1      38.324  34.853  33.813  1.00  0.00    -0.273 OA
BRANCH  12  15
ATOM     15  C   UNL A   1      40.023  33.472  32.767  1.00  0.00     0.168 C 
ATOM     16  C   UNL A   1      40.998  34.554  32.354  1.00  0.00     0.041 C 
BRANCH  15  17
ATOM     17  N   UNL A   1      39.378  32.905  31.594  1.00  0.00    -0.343 N 
ATOM     18  C   UNL A   1      39.435  31.647  31.083  1.00  0.00     0.243 C 
ATOM     19  H   UNL A   1      38.812  33.533  31.090  1.00  0.00     0.164 HD
ATOM     20  O   UNL A   1      38.864  31.485  29.997  1.00  0.00    -0.273 OA
BRANCH  18  21
ATOM     21  C   UNL A   1      40.025  30.396  31.833  1.00  0.00     0.174 C 
BRANCH  21  22
ATOM     22  N   UNL A   1      39.063  29.334  32.221  1.00  0.00    -0.343 N 
ATOM     23  C   UNL A   1      37.774  29.200  32.632  1.00  0.00     0.240 C 
ATOM     24  H   UNL A   1      39.494  28.450  32.163  1.00  0.00     0.164 HD
ATOM     25  O   UNL A   1      37.453  28.057  32.987  1.00  0.00    -0.273 OA
BRANCH  23  26
ATOM     26  C   UNL A   1      36.706  30.308  32.677  1.00  0.00     0.219 C 
BRANCH  26  27
ATOM     27  N   UNL A   1      36.101  30.631  31.404  1.00  0.00    -0.312 N 
ATOM     28  C   UNL A   1      35.639  31.849  31.015  1.00  0.00     0.407 C 
ATOM     29  H   UNL A   1      36.016  29.896  30.754  1.00  0.00     0.167 HD
ATOM     30  O   UNL A   1      34.880  31.942  30.055  1.00  0.00    -0.225 OA
BRANCH  28  31
ATOM     31  O   UNL A   1      36.066  32.869  31.795  1.00  0.00    -0.445 OA
BRANCH  31  32
ATOM     32  C   UNL A   1      35.939  34.197  31.248  1.00  0.00     0.270 C 
BRANCH  32  33
ATOM     33  C   UNL A   1      34.801  35.026  31.791  1.00  0.00    -0.011 A 
ATOM     34  C   UNL A   1      34.901  35.719  33.004  1.00  0.00     0.007 A 
ATOM     35  C   UNL A   1      33.628  35.157  31.031  1.00  0.00     0.007 A 
ATOM     36  C   UNL A   1      33.905  36.609  33.396  1.00  0.00     0.000 A 
ATOM     37  C   UNL A   1      32.617  36.026  31.441  1.00  0.00     0.000 A 
ATOM     38  C   UNL A   1      32.767  36.769  32.610  1.00  0.00     0.000 A 
ENDBRANCH  32  33
ENDBRANCH  31  32
ENDBRANCH  28  31
ENDBRANCH  26  27
ENDBRANCH  23  26
ENDBRANCH  21  22
BRANCH  21  39
ATOM     39  C   UNL A   1      41.342  29.883  31.241  1.00  0.00     0.015 C 
ATOM     40  C   UNL A   1      41.200  28.877  30.097  1.00  0.00     0.010 C 
ATOM     41  C   UNL A   1      42.248  31.041  30.803  1.00  0.00     0.010 C 
ENDBRANCH  21  39
ENDBRANCH  18  21
ENDBRANCH  15  17
ENDBRANCH  12  15
ENDBRANCH   6  11
ENDBRANCH   4   6
ENDBRANCH   3   4
ENDBRANCH   2   3
ENDBRANCH   1   2
BRANCH   1  42
ATOM     42  O   UNL A   1      42.611  27.456  34.756  1.00  0.00    -0.376 OA
BRANCH  42  43
ATOM     43  C   UNL A   1      43.304  26.843  33.689  1.00  0.00     0.188 C 
BRANCH  43  44
ATOM     44  C   UNL A   1      44.328  25.760  34.054  1.00  0.00     0.188 C 
BRANCH  44  45
ATOM     45  O   UNL A   1      43.977  24.474  33.587  1.00  0.00    -0.377 OA
BRANCH  45  46
ATOM     46  C   UNL A   1      44.946  23.440  33.725  1.00  0.00     0.188 C 
BRANCH  46  47
ATOM     47  C   UNL A   1      44.625  22.168  34.546  1.00  0.00     0.188 C 
BRANCH  47  48
ATOM     48  O   UNL A   1      45.449  21.968  35.684  1.00  0.00    -0.376 OA
BRANCH  48  49
ATOM     49  C   UNL A   1      46.413  20.928  35.657  1.00  0.00     0.202 C 
BRANCH  49  50
ATOM     50  C   UNL A   1      47.648  21.119  34.761  1.00  0.00     0.261 C 
BRANCH  50  51
ATOM     51  O   UNL A   1      48.784  21.752  35.370  1.00  0.00    -0.460 OA
BRANCH  51  52
ATOM     52  C   UNL A   1      49.799  22.129  34.563  1.00  0.00     0.338 C 
ATOM     53  O   UNL A   1      50.743  21.450  34.208  1.00  0.00    -0.246 OA
BRANCH  52  54
ATOM     54  C   UNL A   1      49.466  23.456  33.995  1.00  0.00     0.060 A 
ATOM     55  C   UNL A   1      48.459  24.214  34.606  1.00  0.00     0.016 A 
ATOM     56  C   UNL A   1      50.132  23.949  32.870  1.00  0.00     0.016 A 
ATOM     57  C   UNL A   1      48.081  25.443  34.069  1.00  0.00     0.010 A 
ATOM     58  C   UNL A   1      49.735  25.173  32.316  1.00  0.00     0.010 A 
ATOM     59  C   UNL A   1      48.682  25.907  32.890  1.00  0.00    -0.014 A 
BRANCH  59  60
ATOM     60  C   UNL A   1      48.077  27.060  32.176  1.00  0.00     0.031 A 
ATOM     61  C   UNL A   1      47.081  26.787  31.079  1.00  0.00     0.074 A 
ATOM     62  C   UNL A   1      48.351  28.326  32.537  1.00  0.00     0.049 A 
ATOM     63  N   UNL A   1      46.425  27.629  30.322  1.00  0.00    -0.248 NA
ATOM     64  C   UNL A   1      46.785  25.373  30.803  1.00  0.00     0.031 C 
ATOM     65  C   UNL A   1      49.261  28.721  33.609  1.00  0.00     0.029 A 
ATOM     66  N   UNL A   1      47.886  29.517  32.033  1.00  0.00    -0.354 N 
ATOM     67  C   UNL A   1      45.637  26.848  29.485  1.00  0.00     0.074 A 
ATOM     68  C   UNL A   1      45.925  25.465  29.798  1.00  0.00     0.031 C 
ATOM     69  C   UNL A   1      49.298  30.064  33.677  1.00  0.00     0.029 A 
ATOM     70  C   UNL A   1      48.439  30.622  32.633  1.00  0.00     0.049 A 
ATOM     71  H   UNL A   1      47.220  29.573  31.311  1.00  0.00     0.167 HD
ATOM     72  C   UNL A   1      44.742  27.247  28.550  1.00  0.00     0.037 A 
ATOM     73  C   UNL A   1      48.286  31.932  32.354  1.00  0.00     0.037 A 
ATOM     74  C   UNL A   1      44.459  28.623  28.233  1.00  0.00     0.049 A 
ATOM     75  C   UNL A   1      47.345  32.344  31.247  1.00  0.00     0.074 A 
ATOM     76  C   UNL A   1      43.569  29.128  27.301  1.00  0.00     0.029 A 
ATOM     77  N   UNL A   1      45.068  29.713  28.834  1.00  0.00    -0.354 N 
ATOM     78  N   UNL A   1      46.586  31.600  30.479  1.00  0.00    -0.248 NA
ATOM     79  C   UNL A   1      47.236  33.785  30.975  1.00  0.00     0.031 C 
ATOM     80  C   UNL A   1      43.682  30.522  27.297  1.00  0.00     0.029 A 
ATOM     81  C   UNL A   1      44.592  30.889  28.275  1.00  0.00     0.049 A 
ATOM     82  H   UNL A   1      45.740  29.661  29.552  1.00  0.00     0.167 HD
ATOM     83  C   UNL A   1      45.889  32.481  29.659  1.00  0.00     0.074 A 
ATOM     84  C   UNL A   1      46.294  33.816  30.045  1.00  0.00     0.031 C 
ATOM     85  C   UNL A   1      44.999  32.213  28.672  1.00  0.00     0.037 A 
BRANCH  72  86
ATOM     86  C   UNL A   1      44.008  26.183  27.785  1.00  0.00     0.064 A 
ATOM     87  C   UNL A   1      44.424  25.774  26.509  1.00  0.00     0.173 A 
ATOM     88  C   UNL A   1      42.914  25.520  28.361  1.00  0.00     0.173 A 
ATOM     89  F   UNL A   1      45.455  26.385  25.906  1.00  0.00    -0.203 F 
ATOM     90  C   UNL A   1      43.763  24.751  25.833  1.00  0.00     0.198 A 
ATOM     91  C   UNL A   1      42.274  24.477  27.696  1.00  0.00     0.198 A 
ATOM     92  F   UNL A   1      42.476  25.870  29.581  1.00  0.00    -0.203 F 
ATOM     93  F   UNL A   1      44.154  24.403  24.600  1.00  0.00    -0.200 F 
ATOM     94  C   UNL A   1      42.697  24.097  26.431  1.00  0.00     0.200 A 
ATOM     95  F   UNL A   1      41.255  23.836  28.282  1.00  0.00    -0.200 F 
ATOM     96  F   UNL A   1      42.073  23.101  25.787  1.00  0.00    -0.200 F 
ENDBRANCH  72  86
BRANCH  73  97
ATOM     97  C   UNL A   1      49.058  32.959  33.105  1.00  0.00     0.064 A 
ATOM     98  C   UNL A   1      48.522  33.595  34.234  1.00  0.00     0.173 A 
ATOM     99  C   UNL A   1      50.326  33.375  32.668  1.00  0.00     0.173 A 
ATOM    100  F   UNL A   1      47.303  33.256  34.678  1.00  0.00    -0.203 F 
ATOM    101  C   UNL A   1      49.205  34.630  34.872  1.00  0.00     0.198 A 
ATOM    102  C   UNL A   1      51.024  34.382  33.330  1.00  0.00     0.198 A 
ATOM    103  F   UNL A   1      50.886  32.804  31.591  1.00  0.00    -0.203 F 
ATOM    104  F   UNL A   1      48.635  35.270  35.903  1.00  0.00    -0.200 F 
ATOM    105  C   UNL A   1      50.457  35.020  34.422  1.00  0.00     0.200 A 
ATOM    106  F   UNL A   1      52.240  34.745  32.899  1.00  0.00    -0.200 F 
ATOM    107  F   UNL A   1      51.110  36.018  35.031  1.00  0.00    -0.200 F 
ENDBRANCH  73  97
BRANCH  85 108
ATOM    108  C   UNL A   1      44.373  33.387  27.969  1.00  0.00     0.064 A 
ATOM    109  C   UNL A   1      43.379  34.171  28.576  1.00  0.00     0.173 A 
ATOM    110  C   UNL A   1      44.780  33.739  26.672  1.00  0.00     0.173 A 
ATOM    111  F   UNL A   1      42.946  33.874  29.811  1.00  0.00    -0.203 F 
ATOM    112  C   UNL A   1      42.784  35.229  27.894  1.00  0.00     0.198 A 
ATOM    113  C   UNL A   1      44.210  34.822  26.008  1.00  0.00     0.198 A 
ATOM    114  F   UNL A   1      45.734  33.032  26.047  1.00  0.00    -0.203 F 
ATOM    115  F   UNL A   1      41.786  35.915  28.467  1.00  0.00    -0.200 F 
ATOM    116  C   UNL A   1      43.203  35.558  26.614  1.00  0.00     0.200 A 
ATOM    117  F   UNL A   1      44.631  35.149  24.779  1.00  0.00    -0.200 F 
ATOM    118  F   UNL A   1      42.628  36.575  25.959  1.00  0.00    -0.200 F 
ENDBRANCH  85 108
ENDBRANCH  59  60
ENDBRANCH  52  54
ENDBRANCH  51  52
ENDBRANCH  50  51
ENDBRANCH  49  50
ENDBRANCH  48  49
ENDBRANCH  47  48
ENDBRANCH  46  47
ENDBRANCH  45  46
ENDBRANCH  44  45
ENDBRANCH  43  44
ENDBRANCH  42  43
ENDBRANCH   1  42
TORSDOF 33
ENDMDL
