MODEL 1
REMARK VINA RESULT:      -9.9      0.000      0.000
REMARK SMILES C[C@@H](Oc1ccccc1Cl)C(=O)Nc1ccc(C(=O)OCCOCCOCCOCCOC(=O)c2ccc(-c3c4nc(c(-c5c(F)c(F)c(F)c(F)c5F)c5ccc([nH]5)c(-c5c(F)c(F)c(F)c(F)c5F)c5nc(c(-c6c(F)c(F)c(F)c(F)c6F)c6ccc3[nH]6)C=C5)C=C4)cc2)cc1
REMARK SMILES IDX 25 1 24 2 23 3 22 4 21 5 20 6 18 7 19 8 17 9 14 10 15 11
REMARK SMILES IDX 99 12 16 13 98 14 13 15 11 16 12 17 2 19 1 20 3 21 4 22 5 23
REMARK SMILES IDX 9 24 6 25 8 26 10 27 7 28 26 29 27 30 28 31 29 32 30 33
REMARK SMILES IDX 31 34 32 35 33 36 34 37 35 38 36 39 97 40 37 41 96 42 38 43
REMARK SMILES IDX 39 44 40 45 90 46 41 47 95 48 89 49 91 50 42 51 94 52 88 53
REMARK SMILES IDX 87 54 43 56 75 57 55 58 74 59 56 60 59 61 73 62 92 63 57 64
REMARK SMILES IDX 58 65 72 67 93 68 60 69 44 70 45 71 53 72 46 73 47 74 51 75
REMARK SMILES IDX 54 76 48 77 49 78 52 79 50 80 76 81 77 82 85 83 78 84 79 85
REMARK SMILES IDX 83 86 86 87 80 88 81 89 84 90 82 91 61 92 62 93 70 94 63 95
REMARK SMILES IDX 64 96 68 97 71 98 65 99 66 100 69 101 67 102
REMARK H PARENT 13 18 91 55 59 66
REMARK Flexibility Score: inf
ROOT
ATOM      1  C   UNL A   1      32.934  36.428  29.436  1.00  0.00     0.188 C 
ENDROOT
BRANCH   1   2
ATOM      2  C   UNL A   1      33.934  35.259  29.347  1.00  0.00     0.188 C 
BRANCH   2   3
ATOM      3  O   UNL A   1      33.304  33.991  29.252  1.00  0.00    -0.376 OA
BRANCH   3   4
ATOM      4  C   UNL A   1      33.503  33.185  28.104  1.00  0.00     0.202 C 
BRANCH   4   5
ATOM      5  C   UNL A   1      34.288  31.868  28.202  1.00  0.00     0.261 C 
BRANCH   5   6
ATOM      6  O   UNL A   1      33.611  30.708  27.720  1.00  0.00    -0.460 OA
BRANCH   6   7
ATOM      7  C   UNL A   1      34.369  29.639  27.410  1.00  0.00     0.338 C 
ATOM      8  O   UNL A   1      35.545  29.476  27.687  1.00  0.00    -0.246 OA
BRANCH   7   9
ATOM      9  C   UNL A   1      33.484  28.595  26.835  1.00  0.00     0.060 A 
ATOM     10  C   UNL A   1      31.895  26.784  25.481  1.00  0.00     0.041 A 
ATOM     11  C   UNL A   1      33.270  26.563  25.541  1.00  0.00     0.027 A 
ATOM     12  C   UNL A   1      31.293  27.742  26.290  1.00  0.00     0.027 A 
ATOM     13  C   UNL A   1      34.072  27.493  26.202  1.00  0.00     0.018 A 
ATOM     14  C   UNL A   1      32.091  28.667  26.955  1.00  0.00     0.018 A 
BRANCH  10  15
ATOM     15  N   UNL A   1      31.180  26.162  24.457  1.00  0.00    -0.323 N 
ATOM     16  C   UNL A   1      31.023  24.802  24.307  1.00  0.00     0.265 C 
ATOM     17  O   UNL A   1      30.239  24.420  23.427  1.00  0.00    -0.270 OA
ATOM     18  H   UNL A   1      30.751  26.743  23.788  1.00  0.00     0.170 HD
BRANCH  16  19
ATOM     19  C   UNL A   1      31.770  23.747  25.189  1.00  0.00     0.259 C 
ATOM     20  C   UNL A   1      30.807  23.267  26.272  1.00  0.00     0.064 C 
BRANCH  19  21
ATOM     21  O   UNL A   1      32.333  22.653  24.465  1.00  0.00    -0.479 OA
BRANCH  21  22
ATOM     22  C   UNL A   1      33.590  22.251  24.822  1.00  0.00     0.139 A 
ATOM     23  C   UNL A   1      34.567  23.230  25.019  1.00  0.00     0.048 A 
ATOM     24  C   UNL A   1      33.963  20.901  24.784  1.00  0.00     0.083 A 
ATOM     25  C   UNL A   1      35.899  22.857  25.225  1.00  0.00     0.004 A 
ATOM     26  C   UNL A   1      35.294  20.533  25.001  1.00  0.00     0.024 A 
ATOM     27  Cl  UNL A   1      32.845  19.632  24.445  1.00  0.00    -0.080 Cl
ATOM     28  C   UNL A   1      36.262  21.510  25.223  1.00  0.00     0.002 A 
ENDBRANCH  21  22
ENDBRANCH  19  21
ENDBRANCH  16  19
ENDBRANCH  10  15
ENDBRANCH   7   9
ENDBRANCH   6   7
ENDBRANCH   5   6
ENDBRANCH   4   5
ENDBRANCH   3   4
ENDBRANCH   2   3
ENDBRANCH   1   2
BRANCH   1  29
ATOM     29  O   UNL A   1      32.995  37.217  30.613  1.00  0.00    -0.377 OA
BRANCH  29  30
ATOM     30  C   UNL A   1      32.840  36.580  31.883  1.00  0.00     0.188 C 
BRANCH  30  31
ATOM     31  C   UNL A   1      33.735  36.908  33.107  1.00  0.00     0.188 C 
BRANCH  31  32
ATOM     32  O   UNL A   1      34.971  36.217  33.159  1.00  0.00    -0.376 OA
BRANCH  32  33
ATOM     33  C   UNL A   1      34.953  34.818  33.379  1.00  0.00     0.202 C 
BRANCH  33  34
ATOM     34  C   UNL A   1      35.830  33.964  32.453  1.00  0.00     0.261 C 
BRANCH  34  35
ATOM     35  O   UNL A   1      36.617  32.950  33.098  1.00  0.00    -0.460 OA
BRANCH  35  36
ATOM     36  C   UNL A   1      36.622  31.724  32.536  1.00  0.00     0.338 C 
ATOM     37  O   UNL A   1      35.702  30.924  32.494  1.00  0.00    -0.246 OA
BRANCH  36  38
ATOM     38  C   UNL A   1      37.894  31.573  31.803  1.00  0.00     0.060 A 
ATOM     39  C   UNL A   1      37.909  31.766  30.415  1.00  0.00     0.016 A 
ATOM     40  C   UNL A   1      39.069  31.251  32.487  1.00  0.00     0.016 A 
ATOM     41  C   UNL A   1      39.096  31.605  29.701  1.00  0.00     0.010 A 
ATOM     42  C   UNL A   1      40.252  31.067  31.767  1.00  0.00     0.010 A 
ATOM     43  C   UNL A   1      40.264  31.211  30.368  1.00  0.00    -0.014 A 
BRANCH  43  44
ATOM     44  C   UNL A   1      41.443  30.768  29.586  1.00  0.00     0.031 A 
ATOM     45  C   UNL A   1      41.458  29.362  29.052  1.00  0.00     0.074 A 
ATOM     46  C   UNL A   1      42.474  31.596  29.344  1.00  0.00     0.049 A 
ATOM     47  N   UNL A   1      42.394  28.732  28.392  1.00  0.00    -0.248 NA
ATOM     48  C   UNL A   1      40.251  28.557  29.302  1.00  0.00     0.031 C 
ATOM     49  C   UNL A   1      42.561  32.988  29.779  1.00  0.00     0.029 A 
ATOM     50  N   UNL A   1      43.656  31.375  28.679  1.00  0.00    -0.354 N 
ATOM     51  C   UNL A   1      41.898  27.455  28.160  1.00  0.00     0.074 A 
ATOM     52  C   UNL A   1      40.589  27.391  28.771  1.00  0.00     0.031 C 
ATOM     53  C   UNL A   1      43.744  33.493  29.387  1.00  0.00     0.029 A 
ATOM     54  C   UNL A   1      44.510  32.451  28.706  1.00  0.00     0.049 A 
ATOM     55  H   UNL A   1      43.870  30.528  28.227  1.00  0.00     0.167 HD
ATOM     56  C   UNL A   1      42.483  26.431  27.496  1.00  0.00     0.037 A 
ATOM     57  C   UNL A   1      45.776  32.564  28.258  1.00  0.00     0.037 A 
ATOM     58  C   UNL A   1      43.783  26.503  26.883  1.00  0.00     0.049 A 
ATOM     59  C   UNL A   1      46.426  31.387  27.572  1.00  0.00     0.074 A 
ATOM     60  C   UNL A   1      44.442  25.533  26.150  1.00  0.00     0.029 A 
ATOM     61  N   UNL A   1      44.626  27.602  26.946  1.00  0.00    -0.354 N 
ATOM     62  N   UNL A   1      45.934  30.199  27.316  1.00  0.00    -0.248 NA
ATOM     63  C   UNL A   1      47.810  31.570  27.107  1.00  0.00     0.031 C 
ATOM     64  C   UNL A   1      45.713  26.019  25.829  1.00  0.00     0.029 A 
ATOM     65  C   UNL A   1      45.817  27.319  26.296  1.00  0.00     0.049 A 
ATOM     66  H   UNL A   1      44.410  28.456  27.386  1.00  0.00     0.167 HD
ATOM     67  C   UNL A   1      46.930  29.507  26.637  1.00  0.00     0.074 A 
ATOM     68  C   UNL A   1      48.050  30.415  26.504  1.00  0.00     0.031 C 
ATOM     69  C   UNL A   1      46.920  28.236  26.165  1.00  0.00     0.037 A 
BRANCH  56  70
ATOM     70  C   UNL A   1      41.742  25.127  27.427  1.00  0.00     0.064 A 
ATOM     71  C   UNL A   1      42.036  24.058  28.285  1.00  0.00     0.173 A 
ATOM     72  C   UNL A   1      40.681  24.969  26.522  1.00  0.00     0.173 A 
ATOM     73  F   UNL A   1      43.050  24.151  29.159  1.00  0.00    -0.203 F 
ATOM     74  C   UNL A   1      41.308  22.872  28.227  1.00  0.00     0.198 A 
ATOM     75  C   UNL A   1      39.935  23.795  26.488  1.00  0.00     0.198 A 
ATOM     76  F   UNL A   1      40.356  25.963  25.680  1.00  0.00    -0.203 F 
ATOM     77  F   UNL A   1      41.633  21.847  29.027  1.00  0.00    -0.200 F 
ATOM     78  C   UNL A   1      40.253  22.745  27.337  1.00  0.00     0.200 A 
ATOM     79  F   UNL A   1      38.906  23.681  25.638  1.00  0.00    -0.200 F 
ATOM     80  F   UNL A   1      39.542  21.609  27.292  1.00  0.00    -0.200 F 
ENDBRANCH  56  70
BRANCH  57  81
ATOM     81  C   UNL A   1      46.534  33.828  28.469  1.00  0.00     0.064 A 
ATOM     82  C   UNL A   1      47.306  34.032  29.623  1.00  0.00     0.173 A 
ATOM     83  C   UNL A   1      46.466  34.877  27.541  1.00  0.00     0.173 A 
ATOM     84  F   UNL A   1      47.382  33.071  30.555  1.00  0.00    -0.203 F 
ATOM     85  C   UNL A   1      47.955  35.244  29.851  1.00  0.00     0.198 A 
ATOM     86  C   UNL A   1      47.143  36.076  27.753  1.00  0.00     0.198 A 
ATOM     87  F   UNL A   1      45.738  34.739  26.422  1.00  0.00    -0.203 F 
ATOM     88  F   UNL A   1      48.632  35.435  30.991  1.00  0.00    -0.200 F 
ATOM     89  C   UNL A   1      47.877  36.263  28.914  1.00  0.00     0.200 A 
ATOM     90  F   UNL A   1      47.076  37.052  26.838  1.00  0.00    -0.200 F 
ATOM     91  F   UNL A   1      48.499  37.429  29.134  1.00  0.00    -0.200 F 
ENDBRANCH  57  81
BRANCH  69  92
ATOM     92  C   UNL A   1      48.139  27.760  25.422  1.00  0.00     0.064 A 
ATOM     93  C   UNL A   1      49.254  27.231  26.087  1.00  0.00     0.173 A 
ATOM     94  C   UNL A   1      48.170  27.796  24.018  1.00  0.00     0.173 A 
ATOM     95  F   UNL A   1      49.281  27.184  27.428  1.00  0.00    -0.203 F 
ATOM     96  C   UNL A   1      50.367  26.786  25.378  1.00  0.00     0.198 A 
ATOM     97  C   UNL A   1      49.269  27.316  23.311  1.00  0.00     0.198 A 
ATOM     98  F   UNL A   1      47.126  28.281  23.329  1.00  0.00    -0.203 F 
ATOM     99  F   UNL A   1      51.444  26.337  26.038  1.00  0.00    -0.200 F 
ATOM    100  C   UNL A   1      50.370  26.820  23.991  1.00  0.00     0.200 A 
ATOM    101  F   UNL A   1      49.261  27.333  21.971  1.00  0.00    -0.200 F 
ATOM    102  F   UNL A   1      51.439  26.383  23.311  1.00  0.00    -0.200 F 
ENDBRANCH  69  92
ENDBRANCH  43  44
ENDBRANCH  36  38
ENDBRANCH  35  36
ENDBRANCH  34  35
ENDBRANCH  33  34
ENDBRANCH  32  33
ENDBRANCH  31  32
ENDBRANCH  30  31
ENDBRANCH  29  30
ENDBRANCH   1  29
TORSDOF 24
ENDMDL
MODEL 2
REMARK VINA RESULT:      -9.6      7.434     11.409
REMARK SMILES C[C@@H](Oc1ccccc1Cl)C(=O)Nc1ccc(C(=O)OCCOCCOCCOCCOC(=O)c2ccc(-c3c4nc(c(-c5c(F)c(F)c(F)c(F)c5F)c5ccc([nH]5)c(-c5c(F)c(F)c(F)c(F)c5F)c5nc(c(-c6c(F)c(F)c(F)c(F)c6F)c6ccc3[nH]6)C=C5)C=C4)cc2)cc1
REMARK SMILES IDX 25 1 24 2 23 3 22 4 21 5 20 6 18 7 19 8 17 9 14 10 15 11
REMARK SMILES IDX 99 12 16 13 98 14 13 15 11 16 12 17 2 19 1 20 3 21 4 22 5 23
REMARK SMILES IDX 9 24 6 25 8 26 10 27 7 28 26 29 27 30 28 31 29 32 30 33
REMARK SMILES IDX 31 34 32 35 33 36 34 37 35 38 36 39 97 40 37 41 96 42 38 43
REMARK SMILES IDX 39 44 40 45 90 46 41 47 95 48 89 49 91 50 42 51 94 52 88 53
REMARK SMILES IDX 87 54 43 56 75 57 55 58 74 59 56 60 59 61 73 62 92 63 57 64
REMARK SMILES IDX 58 65 72 67 93 68 60 69 44 70 45 71 53 72 46 73 47 74 51 75
REMARK SMILES IDX 54 76 48 77 49 78 52 79 50 80 76 81 77 82 85 83 78 84 79 85
REMARK SMILES IDX 83 86 86 87 80 88 81 89 84 90 82 91 61 92 62 93 70 94 63 95
REMARK SMILES IDX 64 96 68 97 71 98 65 99 66 100 69 101 67 102
REMARK H PARENT 13 18 91 55 59 66
REMARK Flexibility Score: inf
ROOT
ATOM      1  C   UNL A   1      32.997  36.389  29.400  1.00  0.00     0.188 C 
ENDROOT
BRANCH   1   2
ATOM      2  C   UNL A   1      33.304  34.889  29.225  1.00  0.00     0.188 C 
BRANCH   2   3
ATOM      3  O   UNL A   1      34.553  34.645  28.596  1.00  0.00    -0.376 OA
BRANCH   3   4
ATOM      4  C   UNL A   1      34.801  33.399  27.972  1.00  0.00     0.202 C 
BRANCH   4   5
ATOM      5  C   UNL A   1      34.097  32.125  28.466  1.00  0.00     0.261 C 
BRANCH   5   6
ATOM      6  O   UNL A   1      33.703  31.203  27.451  1.00  0.00    -0.460 OA
BRANCH   6   7
ATOM      7  C   UNL A   1      34.481  30.118  27.271  1.00  0.00     0.338 C 
ATOM      8  O   UNL A   1      35.671  30.027  27.521  1.00  0.00    -0.246 OA
BRANCH   7   9
ATOM      9  C   UNL A   1      33.607  28.980  26.893  1.00  0.00     0.060 A 
ATOM     10  C   UNL A   1      31.958  26.797  26.500  1.00  0.00     0.041 A 
ATOM     11  C   UNL A   1      31.386  28.027  26.822  1.00  0.00     0.027 A 
ATOM     12  C   UNL A   1      33.296  26.711  26.131  1.00  0.00     0.027 A 
ATOM     13  C   UNL A   1      32.222  29.120  27.045  1.00  0.00     0.018 A 
ATOM     14  C   UNL A   1      34.132  27.801  26.348  1.00  0.00     0.018 A 
BRANCH  10  15
ATOM     15  N   UNL A   1      31.210  25.646  26.748  1.00  0.00    -0.323 N 
ATOM     16  C   UNL A   1      31.080  24.578  25.887  1.00  0.00     0.265 C 
ATOM     17  O   UNL A   1      30.498  23.574  26.318  1.00  0.00    -0.270 OA
ATOM     18  H   UNL A   1      30.737  25.591  27.609  1.00  0.00     0.170 HD
BRANCH  16  19
ATOM     19  C   UNL A   1      31.636  24.582  24.423  1.00  0.00     0.259 C 
ATOM     20  C   UNL A   1      32.111  23.169  24.092  1.00  0.00     0.064 C 
BRANCH  19  21
ATOM     21  O   UNL A   1      30.726  25.074  23.440  1.00  0.00    -0.479 OA
BRANCH  21  22
ATOM     22  C   UNL A   1      30.751  26.416  23.184  1.00  0.00     0.139 A 
ATOM     23  C   UNL A   1      31.972  27.004  22.843  1.00  0.00     0.048 A 
ATOM     24  C   UNL A   1      29.646  27.233  23.461  1.00  0.00     0.083 A 
ATOM     25  C   UNL A   1      32.073  28.394  22.733  1.00  0.00     0.004 A 
ATOM     26  C   UNL A   1      29.749  28.621  23.339  1.00  0.00     0.024 A 
ATOM     27  Cl  UNL A   1      28.128  26.604  23.988  1.00  0.00    -0.080 Cl
ATOM     28  C   UNL A   1      30.962  29.202  22.973  1.00  0.00     0.002 A 
ENDBRANCH  21  22
ENDBRANCH  19  21
ENDBRANCH  16  19
ENDBRANCH  10  15
ENDBRANCH   7   9
ENDBRANCH   6   7
ENDBRANCH   5   6
ENDBRANCH   4   5
ENDBRANCH   3   4
ENDBRANCH   2   3
ENDBRANCH   1   2
BRANCH   1  29
ATOM     29  O   UNL A   1      32.540  36.789  30.682  1.00  0.00    -0.377 OA
BRANCH  29  30
ATOM     30  C   UNL A   1      33.488  37.275  31.635  1.00  0.00     0.188 C 
BRANCH  30  31
ATOM     31  C   UNL A   1      33.519  36.801  33.112  1.00  0.00     0.188 C 
BRANCH  31  32
ATOM     32  O   UNL A   1      34.678  36.084  33.497  1.00  0.00    -0.376 OA
BRANCH  32  33
ATOM     33  C   UNL A   1      35.349  35.312  32.518  1.00  0.00     0.202 C 
BRANCH  33  34
ATOM     34  C   UNL A   1      34.836  33.882  32.298  1.00  0.00     0.261 C 
BRANCH  34  35
ATOM     35  O   UNL A   1      35.733  32.829  32.683  1.00  0.00    -0.460 OA
BRANCH  35  36
ATOM     36  C   UNL A   1      36.805  32.612  31.893  1.00  0.00     0.338 C 
ATOM     37  O   UNL A   1      36.949  32.953  30.730  1.00  0.00    -0.246 OA
BRANCH  36  38
ATOM     38  C   UNL A   1      37.874  32.042  32.736  1.00  0.00     0.060 A 
ATOM     39  C   UNL A   1      37.532  31.160  33.769  1.00  0.00     0.016 A 
ATOM     40  C   UNL A   1      39.211  32.371  32.497  1.00  0.00     0.016 A 
ATOM     41  C   UNL A   1      38.526  30.629  34.591  1.00  0.00     0.010 A 
ATOM     42  C   UNL A   1      40.202  31.857  33.335  1.00  0.00     0.010 A 
ATOM     43  C   UNL A   1      39.862  31.010  34.405  1.00  0.00    -0.014 A 
BRANCH  43  44
ATOM     44  C   UNL A   1      40.871  30.676  35.439  1.00  0.00     0.031 A 
ATOM     45  C   UNL A   1      41.083  31.646  36.568  1.00  0.00     0.074 A 
ATOM     46  C   UNL A   1      41.577  29.534  35.385  1.00  0.00     0.049 A 
ATOM     47  N   UNL A   1      41.941  31.602  37.555  1.00  0.00    -0.248 NA
ATOM     48  C   UNL A   1      40.209  32.831  36.584  1.00  0.00     0.031 C 
ATOM     49  C   UNL A   1      41.438  28.502  34.361  1.00  0.00     0.029 A 
ATOM     50  N   UNL A   1      42.566  29.059  36.213  1.00  0.00    -0.354 N 
ATOM     51  C   UNL A   1      41.721  32.755  38.298  1.00  0.00     0.074 A 
ATOM     52  C   UNL A   1      40.666  33.492  37.637  1.00  0.00     0.031 C 
ATOM     53  C   UNL A   1      42.326  27.522  34.609  1.00  0.00     0.029 A 
ATOM     54  C   UNL A   1      43.116  27.875  35.786  1.00  0.00     0.049 A 
ATOM     55  H   UNL A   1      42.852  29.523  37.032  1.00  0.00     0.167 HD
ATOM     56  C   UNL A   1      42.343  33.160  39.430  1.00  0.00     0.037 A 
ATOM     57  C   UNL A   1      44.161  27.177  36.276  1.00  0.00     0.037 A 
ATOM     58  C   UNL A   1      43.386  32.419  40.088  1.00  0.00     0.049 A 
ATOM     59  C   UNL A   1      44.874  27.682  37.507  1.00  0.00     0.074 A 
ATOM     60  C   UNL A   1      44.046  32.724  41.265  1.00  0.00     0.029 A 
ATOM     61  N   UNL A   1      43.929  31.232  39.618  1.00  0.00    -0.354 N 
ATOM     62  N   UNL A   1      44.630  28.748  38.231  1.00  0.00    -0.248 NA
ATOM     63  C   UNL A   1      46.007  26.879  37.994  1.00  0.00     0.031 C 
ATOM     64  C   UNL A   1      45.038  31.761  41.470  1.00  0.00     0.029 A 
ATOM     65  C   UNL A   1      44.946  30.814  40.462  1.00  0.00     0.049 A 
ATOM     66  H   UNL A   1      43.637  30.759  38.806  1.00  0.00     0.167 HD
ATOM     67  C   UNL A   1      45.554  28.728  39.269  1.00  0.00     0.074 A 
ATOM     68  C   UNL A   1      46.352  27.533  39.093  1.00  0.00     0.031 C 
ATOM     69  C   UNL A   1      45.727  29.617  40.279  1.00  0.00     0.037 A 
BRANCH  56  70
ATOM     70  C   UNL A   1      41.941  34.483  40.014  1.00  0.00     0.064 A 
ATOM     71  C   UNL A   1      40.938  34.593  40.988  1.00  0.00     0.173 A 
ATOM     72  C   UNL A   1      42.613  35.654  39.630  1.00  0.00     0.173 A 
ATOM     73  F   UNL A   1      40.255  33.507  41.380  1.00  0.00    -0.203 F 
ATOM     74  C   UNL A   1      40.611  35.828  41.542  1.00  0.00     0.198 A 
ATOM     75  C   UNL A   1      42.306  36.881  40.208  1.00  0.00     0.198 A 
ATOM     76  F   UNL A   1      43.583  35.604  38.703  1.00  0.00    -0.203 F 
ATOM     77  F   UNL A   1      39.621  35.917  42.441  1.00  0.00    -0.200 F 
ATOM     78  C   UNL A   1      41.301  36.969  41.160  1.00  0.00     0.200 A 
ATOM     79  F   UNL A   1      42.985  37.979  39.848  1.00  0.00    -0.200 F 
ATOM     80  F   UNL A   1      40.996  38.154  41.705  1.00  0.00    -0.200 F 
ENDBRANCH  56  70
BRANCH  57  81
ATOM     81  C   UNL A   1      44.623  25.941  35.588  1.00  0.00     0.064 A 
ATOM     82  C   UNL A   1      44.043  24.693  35.862  1.00  0.00     0.173 A 
ATOM     83  C   UNL A   1      45.686  25.975  34.673  1.00  0.00     0.173 A 
ATOM     84  F   UNL A   1      43.043  24.601  36.750  1.00  0.00    -0.203 F 
ATOM     85  C   UNL A   1      44.527  23.528  35.271  1.00  0.00     0.198 A 
ATOM     86  C   UNL A   1      46.147  24.814  34.056  1.00  0.00     0.198 A 
ATOM     87  F   UNL A   1      46.281  27.141  34.377  1.00  0.00    -0.203 F 
ATOM     88  F   UNL A   1      43.997  22.342  35.601  1.00  0.00    -0.200 F 
ATOM     89  C   UNL A   1      45.575  23.590  34.365  1.00  0.00     0.200 A 
ATOM     90  F   UNL A   1      47.150  24.881  33.171  1.00  0.00    -0.200 F 
ATOM     91  F   UNL A   1      46.041  22.469  33.798  1.00  0.00    -0.200 F 
ENDBRANCH  57  81
BRANCH  69  92
ATOM     92  C   UNL A   1      46.790  29.314  41.298  1.00  0.00     0.064 A 
ATOM     93  C   UNL A   1      46.546  28.485  42.402  1.00  0.00     0.173 A 
ATOM     94  C   UNL A   1      48.087  29.829  41.141  1.00  0.00     0.173 A 
ATOM     95  F   UNL A   1      45.321  27.975  42.605  1.00  0.00    -0.203 F 
ATOM     96  C   UNL A   1      47.549  28.208  43.327  1.00  0.00     0.198 A 
ATOM     97  C   UNL A   1      49.098  29.521  42.049  1.00  0.00     0.198 A 
ATOM     98  F   UNL A   1      48.381  30.619  40.098  1.00  0.00    -0.203 F 
ATOM     99  F   UNL A   1      47.276  27.458  44.405  1.00  0.00    -0.200 F 
ATOM    100  C   UNL A   1      48.825  28.718  43.146  1.00  0.00     0.200 A 
ATOM    101  F   UNL A   1      50.335  30.000  41.859  1.00  0.00    -0.200 F 
ATOM    102  F   UNL A   1      49.792  28.444  44.032  1.00  0.00    -0.200 F 
ENDBRANCH  69  92
ENDBRANCH  43  44
ENDBRANCH  36  38
ENDBRANCH  35  36
ENDBRANCH  34  35
ENDBRANCH  33  34
ENDBRANCH  32  33
ENDBRANCH  31  32
ENDBRANCH  30  31
ENDBRANCH  29  30
ENDBRANCH   1  29
TORSDOF 24
ENDMDL
MODEL 3
REMARK VINA RESULT:      -9.6      7.676     10.294
REMARK SMILES C[C@@H](Oc1ccccc1Cl)C(=O)Nc1ccc(C(=O)OCCOCCOCCOCCOC(=O)c2ccc(-c3c4nc(c(-c5c(F)c(F)c(F)c(F)c5F)c5ccc([nH]5)c(-c5c(F)c(F)c(F)c(F)c5F)c5nc(c(-c6c(F)c(F)c(F)c(F)c6F)c6ccc3[nH]6)C=C5)C=C4)cc2)cc1
REMARK SMILES IDX 25 1 24 2 23 3 22 4 21 5 20 6 18 7 19 8 17 9 14 10 15 11
REMARK SMILES IDX 99 12 16 13 98 14 13 15 11 16 12 17 2 19 1 20 3 21 4 22 5 23
REMARK SMILES IDX 9 24 6 25 8 26 10 27 7 28 26 29 27 30 28 31 29 32 30 33
REMARK SMILES IDX 31 34 32 35 33 36 34 37 35 38 36 39 97 40 37 41 96 42 38 43
REMARK SMILES IDX 39 44 40 45 90 46 41 47 95 48 89 49 91 50 42 51 94 52 88 53
REMARK SMILES IDX 87 54 43 56 75 57 55 58 74 59 56 60 59 61 73 62 92 63 57 64
REMARK SMILES IDX 58 65 72 67 93 68 60 69 44 70 45 71 53 72 46 73 47 74 51 75
REMARK SMILES IDX 54 76 48 77 49 78 52 79 50 80 76 81 77 82 85 83 78 84 79 85
REMARK SMILES IDX 83 86 86 87 80 88 81 89 84 90 82 91 61 92 62 93 70 94 63 95
REMARK SMILES IDX 64 96 68 97 71 98 65 99 66 100 69 101 67 102
REMARK H PARENT 13 18 91 55 59 66
REMARK Flexibility Score: inf
ROOT
ATOM      1  C   UNL A   1      33.021  36.386  29.397  1.00  0.00     0.188 C 
ENDROOT
BRANCH   1   2
ATOM      2  C   UNL A   1      33.386  34.900  29.212  1.00  0.00     0.188 C 
BRANCH   2   3
ATOM      3  O   UNL A   1      34.654  34.708  28.603  1.00  0.00    -0.376 OA
BRANCH   3   4
ATOM      4  C   UNL A   1      34.978  33.460  28.018  1.00  0.00     0.202 C 
BRANCH   4   5
ATOM      5  C   UNL A   1      34.247  32.181  28.454  1.00  0.00     0.261 C 
BRANCH   5   6
ATOM      6  O   UNL A   1      33.904  31.276  27.405  1.00  0.00    -0.460 OA
BRANCH   6   7
ATOM      7  C   UNL A   1      34.618  30.137  27.318  1.00  0.00     0.338 C 
ATOM      8  O   UNL A   1      35.783  29.983  27.642  1.00  0.00    -0.246 OA
BRANCH   7   9
ATOM      9  C   UNL A   1      33.694  29.040  26.938  1.00  0.00     0.060 A 
ATOM     10  C   UNL A   1      31.942  26.939  26.543  1.00  0.00     0.041 A 
ATOM     11  C   UNL A   1      31.428  28.202  26.835  1.00  0.00     0.027 A 
ATOM     12  C   UNL A   1      33.281  26.779  26.201  1.00  0.00     0.027 A 
ATOM     13  C   UNL A   1      32.315  29.253  27.061  1.00  0.00     0.018 A 
ATOM     14  C   UNL A   1      34.167  27.828  26.420  1.00  0.00     0.018 A 
BRANCH  10  15
ATOM     15  N   UNL A   1      31.131  25.832  26.791  1.00  0.00    -0.323 N 
ATOM     16  C   UNL A   1      31.006  24.734  25.967  1.00  0.00     0.265 C 
ATOM     17  O   UNL A   1      30.355  23.775  26.404  1.00  0.00    -0.270 OA
ATOM     18  H   UNL A   1      30.606  25.834  27.623  1.00  0.00     0.170 HD
BRANCH  16  19
ATOM     19  C   UNL A   1      31.646  24.652  24.542  1.00  0.00     0.259 C 
ATOM     20  C   UNL A   1      32.119  23.217  24.317  1.00  0.00     0.064 C 
BRANCH  19  21
ATOM     21  O   UNL A   1      30.803  25.099  23.481  1.00  0.00    -0.479 OA
BRANCH  21  22
ATOM     22  C   UNL A   1      30.794  26.439  23.216  1.00  0.00     0.139 A 
ATOM     23  C   UNL A   1      32.002  27.059  22.886  1.00  0.00     0.048 A 
ATOM     24  C   UNL A   1      29.662  27.227  23.472  1.00  0.00     0.083 A 
ATOM     25  C   UNL A   1      32.065  28.450  22.766  1.00  0.00     0.004 A 
ATOM     26  C   UNL A   1      29.729  28.617  23.341  1.00  0.00     0.024 A 
ATOM     27  Cl  UNL A   1      28.157  26.559  23.984  1.00  0.00    -0.080 Cl
ATOM     28  C   UNL A   1      30.929  29.229  22.986  1.00  0.00     0.002 A 
ENDBRANCH  21  22
ENDBRANCH  19  21
ENDBRANCH  16  19
ENDBRANCH  10  15
ENDBRANCH   7   9
ENDBRANCH   6   7
ENDBRANCH   5   6
ENDBRANCH   4   5
ENDBRANCH   3   4
ENDBRANCH   2   3
ENDBRANCH   1   2
BRANCH   1  29
ATOM     29  O   UNL A   1      32.548  36.759  30.681  1.00  0.00    -0.377 OA
BRANCH  29  30
ATOM     30  C   UNL A   1      33.482  37.239  31.651  1.00  0.00     0.188 C 
BRANCH  30  31
ATOM     31  C   UNL A   1      33.554  36.688  33.099  1.00  0.00     0.188 C 
BRANCH  31  32
ATOM     32  O   UNL A   1      34.792  36.109  33.470  1.00  0.00    -0.376 OA
BRANCH  32  33
ATOM     33  C   UNL A   1      35.431  35.239  32.553  1.00  0.00     0.202 C 
BRANCH  33  34
ATOM     34  C   UNL A   1      34.859  33.819  32.436  1.00  0.00     0.261 C 
BRANCH  34  35
ATOM     35  O   UNL A   1      35.732  32.758  32.855  1.00  0.00    -0.460 OA
BRANCH  35  36
ATOM     36  C   UNL A   1      36.801  32.495  32.075  1.00  0.00     0.338 C 
ATOM     37  O   UNL A   1      36.924  32.729  30.883  1.00  0.00    -0.246 OA
BRANCH  36  38
ATOM     38  C   UNL A   1      37.893  32.033  32.952  1.00  0.00     0.060 A 
ATOM     39  C   UNL A   1      37.589  31.218  34.050  1.00  0.00     0.016 A 
ATOM     40  C   UNL A   1      39.215  32.397  32.684  1.00  0.00     0.016 A 
ATOM     41  C   UNL A   1      38.604  30.791  34.905  1.00  0.00     0.010 A 
ATOM     42  C   UNL A   1      40.228  31.988  33.554  1.00  0.00     0.010 A 
ATOM     43  C   UNL A   1      39.923  31.211  34.686  1.00  0.00    -0.014 A 
BRANCH  43  44
ATOM     44  C   UNL A   1      40.947  30.996  35.737  1.00  0.00     0.031 A 
ATOM     45  C   UNL A   1      41.834  29.786  35.632  1.00  0.00     0.074 A 
ATOM     46  C   UNL A   1      41.095  31.860  36.756  1.00  0.00     0.049 A 
ATOM     47  N   UNL A   1      42.759  29.358  36.452  1.00  0.00    -0.248 NA
ATOM     48  C   UNL A   1      41.649  28.942  34.441  1.00  0.00     0.031 C 
ATOM     49  C   UNL A   1      40.320  33.082  36.948  1.00  0.00     0.029 A 
ATOM     50  N   UNL A   1      41.949  31.827  37.833  1.00  0.00    -0.354 N 
ATOM     51  C   UNL A   1      43.254  28.191  35.885  1.00  0.00     0.074 A 
ATOM     52  C   UNL A   1      42.513  27.963  34.665  1.00  0.00     0.031 C 
ATOM     53  C   UNL A   1      40.719  33.676  38.088  1.00  0.00     0.029 A 
ATOM     54  C   UNL A   1      41.751  32.856  38.721  1.00  0.00     0.049 A 
ATOM     55  H   UNL A   1      42.635  31.133  37.956  1.00  0.00     0.167 HD
ATOM     56  C   UNL A   1      44.240  27.384  36.342  1.00  0.00     0.037 A 
ATOM     57  C   UNL A   1      42.318  33.088  39.922  1.00  0.00     0.037 A 
ATOM     58  C   UNL A   1      44.981  27.620  37.553  1.00  0.00     0.049 A 
ATOM     59  C   UNL A   1      43.375  32.140  40.435  1.00  0.00     0.074 A 
ATOM     60  C   UNL A   1      46.029  26.884  38.077  1.00  0.00     0.029 A 
ATOM     61  N   UNL A   1      44.741  28.662  38.435  1.00  0.00    -0.354 N 
ATOM     62  N   UNL A   1      43.870  31.064  39.871  1.00  0.00    -0.248 NA
ATOM     63  C   UNL A   1      43.956  32.442  41.752  1.00  0.00     0.031 C 
ATOM     64  C   UNL A   1      46.377  27.440  39.311  1.00  0.00     0.029 A 
ATOM     65  C   UNL A   1      45.597  28.566  39.521  1.00  0.00     0.049 A 
ATOM     66  H   UNL A   1      44.064  29.366  38.309  1.00  0.00     0.167 HD
ATOM     67  C   UNL A   1      44.838  30.582  40.746  1.00  0.00     0.074 A 
ATOM     68  C   UNL A   1      44.873  31.494  41.871  1.00  0.00     0.031 C 
ATOM     69  C   UNL A   1      45.627  29.485  40.630  1.00  0.00     0.037 A 
BRANCH  56  70
ATOM     70  C   UNL A   1      44.555  26.146  35.552  1.00  0.00     0.064 A 
ATOM     71  C   UNL A   1      45.631  26.089  34.656  1.00  0.00     0.173 A 
ATOM     72  C   UNL A   1      43.795  24.981  35.740  1.00  0.00     0.173 A 
ATOM     73  F   UNL A   1      46.380  27.179  34.429  1.00  0.00    -0.203 F 
ATOM     74  C   UNL A   1      45.925  24.917  33.964  1.00  0.00     0.198 A 
ATOM     75  C   UNL A   1      44.111  23.803  35.071  1.00  0.00     0.198 A 
ATOM     76  F   UNL A   1      42.755  24.981  36.589  1.00  0.00    -0.203 F 
ATOM     77  F   UNL A   1      46.933  24.896  33.081  1.00  0.00    -0.200 F 
ATOM     78  C   UNL A   1      45.172  23.773  34.179  1.00  0.00     0.200 A 
ATOM     79  F   UNL A   1      43.391  22.694  35.293  1.00  0.00    -0.200 F 
ATOM     80  F   UNL A   1      45.466  22.641  33.524  1.00  0.00    -0.200 F 
ENDBRANCH  56  70
BRANCH  57  81
ATOM     81  C   UNL A   1      41.881  34.249  40.745  1.00  0.00     0.064 A 
ATOM     82  C   UNL A   1      42.579  35.465  40.719  1.00  0.00     0.173 A 
ATOM     83  C   UNL A   1      40.780  34.151  41.608  1.00  0.00     0.173 A 
ATOM     84  F   UNL A   1      43.656  35.602  39.932  1.00  0.00    -0.203 F 
ATOM     85  C   UNL A   1      42.210  36.525  41.545  1.00  0.00     0.198 A 
ATOM     86  C   UNL A   1      40.390  35.223  42.408  1.00  0.00     0.198 A 
ATOM     87  F   UNL A   1      40.078  33.009  41.677  1.00  0.00    -0.203 F 
ATOM     88  F   UNL A   1      42.934  37.653  41.547  1.00  0.00    -0.200 F 
ATOM     89  C   UNL A   1      41.114  36.405  42.385  1.00  0.00     0.200 A 
ATOM     90  F   UNL A   1      39.322  35.107  43.208  1.00  0.00    -0.200 F 
ATOM     91  F   UNL A   1      40.761  37.424  43.180  1.00  0.00    -0.200 F 
ENDBRANCH  57  81
BRANCH  69  92
ATOM     92  C   UNL A   1      46.627  29.229  41.724  1.00  0.00     0.064 A 
ATOM     93  C   UNL A   1      46.359  28.350  42.783  1.00  0.00     0.173 A 
ATOM     94  C   UNL A   1      47.889  29.842  41.685  1.00  0.00     0.173 A 
ATOM     95  F   UNL A   1      45.164  27.746  42.874  1.00  0.00    -0.203 F 
ATOM     96  C   UNL A   1      47.305  28.119  43.779  1.00  0.00     0.198 A 
ATOM     97  C   UNL A   1      48.846  29.579  42.662  1.00  0.00     0.198 A 
ATOM     98  F   UNL A   1      48.204  30.683  40.689  1.00  0.00    -0.203 F 
ATOM     99  F   UNL A   1      47.005  27.318  44.812  1.00  0.00    -0.200 F 
ATOM    100  C   UNL A   1      48.550  28.726  43.713  1.00  0.00     0.200 A 
ATOM    101  F   UNL A   1      50.055  30.153  42.585  1.00  0.00    -0.200 F 
ATOM    102  F   UNL A   1      49.462  28.495  44.668  1.00  0.00    -0.200 F 
ENDBRANCH  69  92
ENDBRANCH  43  44
ENDBRANCH  36  38
ENDBRANCH  35  36
ENDBRANCH  34  35
ENDBRANCH  33  34
ENDBRANCH  32  33
ENDBRANCH  31  32
ENDBRANCH  30  31
ENDBRANCH  29  30
ENDBRANCH   1  29
TORSDOF 24
ENDMDL
