MODEL 1
REMARK VINA RESULT:      -9.5      0.000      0.000
REMARK SMILES O=C(OCCOCCOCCOCCOC(=O)[C@H]1C[C@H]2CCCC[C@@H]2[N@@H+]1CC[C@@H]1CCCO1)c1ccc(-c2c3nc(c(-c4c(F)c(F)c(F)c(F)c4F)c4ccc([nH]4)c(-c4c(F)c(F)c(F)c(F)c4F)c4nc(c(-c5c(F)c(F)c(F)c(F)c5F)c5ccc2[nH]5)C=C4)C=C3)cc1
REMARK SMILES IDX 10 1 9 2 8 3 7 4 6 5 5 6 4 7 3 8 2 9 1 10 34 11 35 12 96 13
REMARK SMILES IDX 36 14 95 15 37 16 38 17 39 18 89 19 40 20 94 21 88 22 90 23
REMARK SMILES IDX 41 24 93 25 87 26 86 27 42 29 74 30 54 31 73 32 55 33 58 34
REMARK SMILES IDX 72 35 91 36 56 37 57 38 71 40 92 41 59 42 43 43 44 44 52 45
REMARK SMILES IDX 45 46 46 47 50 48 53 49 47 50 48 51 51 52 49 53 75 54 76 55
REMARK SMILES IDX 84 56 77 57 78 58 82 59 85 60 79 61 80 62 83 63 81 64 60 65
REMARK SMILES IDX 61 66 69 67 62 68 63 69 67 70 70 71 64 72 65 73 68 74 66 75
REMARK SMILES IDX 11 76 12 77 13 78 14 79 15 80 16 81 17 82 18 83 19 84 26 85
REMARK SMILES IDX 20 86 25 87 21 89 24 90 22 91 23 92 27 93 28 94 29 95 30 96
REMARK SMILES IDX 33 97 31 98 32 99
REMARK H PARENT 90 28 58 39 26 88
REMARK Flexibility Score: inf
ROOT
ATOM      1  C   UNL A   1      33.005  29.946  27.319  1.00  0.00     0.188 C 
ENDROOT
BRANCH   1   2
ATOM      2  O   UNL A   1      33.599  31.229  27.264  1.00  0.00    -0.377 OA
BRANCH   2   3
ATOM      3  C   UNL A   1      34.794  31.420  27.997  1.00  0.00     0.188 C 
BRANCH   3   4
ATOM      4  C   UNL A   1      34.729  32.401  29.160  1.00  0.00     0.188 C 
BRANCH   4   5
ATOM      5  O   UNL A   1      34.815  31.725  30.418  1.00  0.00    -0.376 OA
BRANCH   5   6
ATOM      6  C   UNL A   1      34.682  32.550  31.578  1.00  0.00     0.202 C 
BRANCH   6   7
ATOM      7  C   UNL A   1      35.067  34.016  31.386  1.00  0.00     0.261 C 
BRANCH   7   8
ATOM      8  O   UNL A   1      36.230  34.412  32.121  1.00  0.00    -0.460 OA
BRANCH   8   9
ATOM      9  C   UNL A   1      37.194  33.636  32.675  1.00  0.00     0.338 C 
ATOM     10  O   UNL A   1      37.415  33.779  33.878  1.00  0.00    -0.246 OA
BRANCH   9  11
ATOM     11  C   UNL A   1      38.065  32.668  31.922  1.00  0.00     0.060 A 
ATOM     12  C   UNL A   1      38.813  31.627  32.477  1.00  0.00     0.016 A 
ATOM     13  C   UNL A   1      38.097  32.810  30.521  1.00  0.00     0.016 A 
ATOM     14  C   UNL A   1      39.556  30.755  31.700  1.00  0.00     0.010 A 
ATOM     15  C   UNL A   1      38.892  31.980  29.728  1.00  0.00     0.010 A 
ATOM     16  C   UNL A   1      39.649  30.975  30.334  1.00  0.00    -0.014 A 
BRANCH  16  17
ATOM     17  C   UNL A   1      40.805  30.371  29.665  1.00  0.00     0.031 A 
ATOM     18  C   UNL A   1      42.041  31.214  29.588  1.00  0.00     0.074 A 
ATOM     19  C   UNL A   1      40.796  29.073  29.332  1.00  0.00     0.049 A 
ATOM     20  N   UNL A   1      43.179  30.978  28.999  1.00  0.00    -0.248 NA
ATOM     21  C   UNL A   1      41.992  32.506  30.300  1.00  0.00     0.031 C 
ATOM     22  C   UNL A   1      39.691  28.146  29.579  1.00  0.00     0.029 A 
ATOM     23  N   UNL A   1      41.757  28.306  28.737  1.00  0.00    -0.354 N 
ATOM     24  C   UNL A   1      43.958  32.103  29.235  1.00  0.00     0.074 A 
ATOM     25  C   UNL A   1      43.178  33.019  30.029  1.00  0.00     0.031 C 
ATOM     26  C   UNL A   1      40.034  26.931  29.121  1.00  0.00     0.029 A 
ATOM     27  C   UNL A   1      41.347  27.020  28.491  1.00  0.00     0.049 A 
ATOM     28  H   UNL A   1      42.655  28.641  28.509  1.00  0.00     0.167 HD
ATOM     29  C   UNL A   1      45.214  32.345  28.797  1.00  0.00     0.037 A 
ATOM     30  C   UNL A   1      41.961  26.060  27.778  1.00  0.00     0.037 A 
ATOM     31  C   UNL A   1      45.938  31.400  27.996  1.00  0.00     0.049 A 
ATOM     32  C   UNL A   1      43.305  26.394  27.182  1.00  0.00     0.074 A 
ATOM     33  C   UNL A   1      47.174  31.530  27.397  1.00  0.00     0.029 A 
ATOM     34  N   UNL A   1      45.463  30.130  27.680  1.00  0.00    -0.354 N 
ATOM     35  N   UNL A   1      44.009  27.497  27.299  1.00  0.00    -0.248 NA
ATOM     36  C   UNL A   1      43.932  25.367  26.344  1.00  0.00     0.031 C 
ATOM     37  C   UNL A   1      47.421  30.358  26.672  1.00  0.00     0.029 A 
ATOM     38  C   UNL A   1      46.372  29.471  26.877  1.00  0.00     0.049 A 
ATOM     39  H   UNL A   1      44.605  29.756  27.987  1.00  0.00     0.167 HD
ATOM     40  C   UNL A   1      45.174  27.291  26.575  1.00  0.00     0.074 A 
ATOM     41  C   UNL A   1      45.080  25.950  26.027  1.00  0.00     0.031 C 
ATOM     42  C   UNL A   1      46.226  28.124  26.376  1.00  0.00     0.037 A 
BRANCH  29  43
ATOM     43  C   UNL A   1      45.782  33.705  29.081  1.00  0.00     0.064 A 
ATOM     44  C   UNL A   1      46.496  33.992  30.256  1.00  0.00     0.173 A 
ATOM     45  C   UNL A   1      45.524  34.765  28.200  1.00  0.00     0.173 A 
ATOM     46  F   UNL A   1      46.736  33.024  31.154  1.00  0.00    -0.203 F 
ATOM     47  C   UNL A   1      46.889  35.295  30.556  1.00  0.00     0.198 A 
ATOM     48  C   UNL A   1      45.947  36.061  28.487  1.00  0.00     0.198 A 
ATOM     49  F   UNL A   1      44.834  34.553  27.069  1.00  0.00    -0.203 F 
ATOM     50  F   UNL A   1      47.493  35.560  31.723  1.00  0.00    -0.200 F 
ATOM     51  C   UNL A   1      46.616  36.327  29.672  1.00  0.00     0.200 A 
ATOM     52  F   UNL A   1      45.681  37.056  27.630  1.00  0.00    -0.200 F 
ATOM     53  F   UNL A   1      46.976  37.583  29.970  1.00  0.00    -0.200 F 
ENDBRANCH  29  43
BRANCH  30  54
ATOM     54  C   UNL A   1      41.287  24.755  27.543  1.00  0.00     0.064 A 
ATOM     55  C   UNL A   1      40.157  24.651  26.722  1.00  0.00     0.173 A 
ATOM     56  C   UNL A   1      41.769  23.574  28.132  1.00  0.00     0.173 A 
ATOM     57  F   UNL A   1      39.640  25.749  26.151  1.00  0.00    -0.203 F 
ATOM     58  C   UNL A   1      39.531  23.423  26.508  1.00  0.00     0.198 A 
ATOM     59  C   UNL A   1      41.162  22.343  27.893  1.00  0.00     0.198 A 
ATOM     60  F   UNL A   1      42.845  23.612  28.932  1.00  0.00    -0.203 F 
ATOM     61  F   UNL A   1      38.427  23.358  25.750  1.00  0.00    -0.200 F 
ATOM     62  C   UNL A   1      40.039  22.269  27.087  1.00  0.00     0.200 A 
ATOM     63  F   UNL A   1      41.666  21.230  28.446  1.00  0.00    -0.200 F 
ATOM     64  F   UNL A   1      39.440  21.088  26.876  1.00  0.00    -0.200 F 
ENDBRANCH  30  54
BRANCH  42  65
ATOM     65  C   UNL A   1      47.378  27.583  25.583  1.00  0.00     0.064 A 
ATOM     66  C   UNL A   1      47.431  27.697  24.189  1.00  0.00     0.173 A 
ATOM     67  C   UNL A   1      48.475  27.018  26.248  1.00  0.00     0.173 A 
ATOM     68  F   UNL A   1      46.398  28.222  23.512  1.00  0.00    -0.203 F 
ATOM     69  C   UNL A   1      48.541  27.244  23.483  1.00  0.00     0.198 A 
ATOM     70  C   UNL A   1      49.597  26.599  25.543  1.00  0.00     0.198 A 
ATOM     71  F   UNL A   1      48.470  26.899  27.585  1.00  0.00    -0.203 F 
ATOM     72  F   UNL A   1      48.558  27.324  22.145  1.00  0.00    -0.200 F 
ATOM     73  C   UNL A   1      49.626  26.707  24.160  1.00  0.00     0.200 A 
ATOM     74  F   UNL A   1      50.652  26.099  26.201  1.00  0.00    -0.200 F 
ATOM     75  F   UNL A   1      50.702  26.291  23.479  1.00  0.00    -0.200 F 
ENDBRANCH  42  65
ENDBRANCH  16  17
ENDBRANCH   9  11
ENDBRANCH   8   9
ENDBRANCH   7   8
ENDBRANCH   6   7
ENDBRANCH   5   6
ENDBRANCH   4   5
ENDBRANCH   3   4
ENDBRANCH   2   3
ENDBRANCH   1   2
BRANCH   1  76
ATOM     76  C   UNL A   1      33.639  28.759  26.549  1.00  0.00     0.188 C 
BRANCH  76  77
ATOM     77  O   UNL A   1      34.021  28.884  25.192  1.00  0.00    -0.376 OA
BRANCH  77  78
ATOM     78  C   UNL A   1      33.051  28.677  24.186  1.00  0.00     0.202 C 
BRANCH  78  79
ATOM     79  C   UNL A   1      31.571  29.051  24.403  1.00  0.00     0.261 C 
BRANCH  79  80
ATOM     80  O   UNL A   1      30.595  28.012  24.191  1.00  0.00    -0.459 OA
BRANCH  80  81
ATOM     81  C   UNL A   1      30.978  26.965  23.395  1.00  0.00     0.365 C 
ATOM     82  O   UNL A   1      31.402  27.109  22.261  1.00  0.00    -0.245 OA
BRANCH  81  83
ATOM     83  C   UNL A   1      30.876  25.577  24.143  1.00  0.00     0.295 C 
ATOM     84  C   UNL A   1      31.354  24.512  23.138  1.00  0.00     0.087 C 
ATOM     85  N   UNL A   1      31.848  25.507  25.293  1.00  0.00    -0.320 N 
ATOM     86  C   UNL A   1      32.713  24.074  23.674  1.00  0.00     0.054 C 
ATOM     87  C   UNL A   1      33.114  25.158  24.660  1.00  0.00     0.188 C 
ATOM     88  H   UNL A   1      31.884  26.406  25.774  1.00  0.00     0.349 HD
ATOM     89  C   UNL A   1      33.845  23.835  22.695  1.00  0.00     0.010 C 
ATOM     90  C   UNL A   1      34.333  24.814  25.502  1.00  0.00     0.065 C 
ATOM     91  C   UNL A   1      35.100  23.416  23.475  1.00  0.00     0.001 C 
ATOM     92  C   UNL A   1      35.495  24.389  24.599  1.00  0.00     0.006 C 
BRANCH  85  93
ATOM     93  C   UNL A   1      31.477  24.752  26.507  1.00  0.00     0.265 C 
BRANCH  93  94
ATOM     94  C   UNL A   1      30.762  23.381  26.522  1.00  0.00     0.093 C 
BRANCH  94  95
ATOM     95  C   UNL A   1      31.559  22.059  26.554  1.00  0.00     0.123 C 
ATOM     96  C   UNL A   1      33.005  22.102  27.042  1.00  0.00     0.034 C 
ATOM     97  O   UNL A   1      31.582  21.363  25.311  1.00  0.00    -0.378 OA
ATOM     98  C   UNL A   1      33.759  21.157  26.121  1.00  0.00     0.031 C 
ATOM     99  C   UNL A   1      32.677  20.450  25.343  1.00  0.00     0.160 C 
ENDBRANCH  94  95
ENDBRANCH  93  94
ENDBRANCH  85  93
ENDBRANCH  81  83
ENDBRANCH  80  81
ENDBRANCH  79  80
ENDBRANCH  78  79
ENDBRANCH  77  78
ENDBRANCH  76  77
ENDBRANCH   1  76
TORSDOF 23
ENDMDL
MODEL 2
REMARK VINA RESULT:      -8.9      6.015     11.089
REMARK SMILES O=C(OCCOCCOCCOCCOC(=O)[C@H]1C[C@H]2CCCC[C@@H]2[N@@H+]1CC[C@@H]1CCCO1)c1ccc(-c2c3nc(c(-c4c(F)c(F)c(F)c(F)c4F)c4ccc([nH]4)c(-c4c(F)c(F)c(F)c(F)c4F)c4nc(c(-c5c(F)c(F)c(F)c(F)c5F)c5ccc2[nH]5)C=C4)C=C3)cc1
REMARK SMILES IDX 10 1 9 2 8 3 7 4 6 5 5 6 4 7 3 8 2 9 1 10 34 11 35 12 96 13
REMARK SMILES IDX 36 14 95 15 37 16 38 17 39 18 89 19 40 20 94 21 88 22 90 23
REMARK SMILES IDX 41 24 93 25 87 26 86 27 42 29 74 30 54 31 73 32 55 33 58 34
REMARK SMILES IDX 72 35 91 36 56 37 57 38 71 40 92 41 59 42 43 43 44 44 52 45
REMARK SMILES IDX 45 46 46 47 50 48 53 49 47 50 48 51 51 52 49 53 75 54 76 55
REMARK SMILES IDX 84 56 77 57 78 58 82 59 85 60 79 61 80 62 83 63 81 64 60 65
REMARK SMILES IDX 61 66 69 67 62 68 63 69 67 70 70 71 64 72 65 73 68 74 66 75
REMARK SMILES IDX 11 76 12 77 13 78 14 79 15 80 16 81 17 82 18 83 19 84 26 85
REMARK SMILES IDX 20 86 25 87 21 89 24 90 22 91 23 92 27 93 28 94 29 95 30 96
REMARK SMILES IDX 33 97 31 98 32 99
REMARK H PARENT 90 28 58 39 26 88
REMARK Flexibility Score: inf
ROOT
ATOM      1  C   UNL A   1      40.985  28.090  26.264  1.00  0.00     0.188 C 
ENDROOT
BRANCH   1   2
ATOM      2  O   UNL A   1      41.464  27.049  25.434  1.00  0.00    -0.377 OA
BRANCH   2   3
ATOM      3  C   UNL A   1      41.480  25.743  25.981  1.00  0.00     0.188 C 
BRANCH   3   4
ATOM      4  C   UNL A   1      42.681  25.383  26.845  1.00  0.00     0.188 C 
BRANCH   4   5
ATOM      5  O   UNL A   1      43.100  24.034  26.619  1.00  0.00    -0.376 OA
BRANCH   5   6
ATOM      6  C   UNL A   1      44.508  23.837  26.469  1.00  0.00     0.202 C 
BRANCH   6   7
ATOM      7  C   UNL A   1      45.041  23.982  25.045  1.00  0.00     0.261 C 
BRANCH   7   8
ATOM      8  O   UNL A   1      45.396  25.323  24.692  1.00  0.00    -0.460 OA
BRANCH   8   9
ATOM      9  C   UNL A   1      46.324  26.136  25.254  1.00  0.00     0.338 C 
ATOM     10  O   UNL A   1      47.508  25.902  25.007  1.00  0.00    -0.246 OA
BRANCH   9  11
ATOM     11  C   UNL A   1      46.028  27.255  26.214  1.00  0.00     0.060 A 
ATOM     12  C   UNL A   1      46.856  27.698  27.248  1.00  0.00     0.016 A 
ATOM     13  C   UNL A   1      44.812  27.942  26.023  1.00  0.00     0.016 A 
ATOM     14  C   UNL A   1      46.519  28.768  28.059  1.00  0.00     0.010 A 
ATOM     15  C   UNL A   1      44.427  28.981  26.872  1.00  0.00     0.010 A 
ATOM     16  C   UNL A   1      45.275  29.363  27.913  1.00  0.00    -0.014 A 
BRANCH  16  17
ATOM     17  C   UNL A   1      44.782  30.108  29.076  1.00  0.00     0.031 A 
ATOM     18  C   UNL A   1      44.557  31.575  28.877  1.00  0.00     0.074 A 
ATOM     19  C   UNL A   1      44.375  29.459  30.176  1.00  0.00     0.049 A 
ATOM     20  N   UNL A   1      44.201  32.490  29.733  1.00  0.00    -0.248 NA
ATOM     21  C   UNL A   1      44.739  32.079  27.501  1.00  0.00     0.031 C 
ATOM     22  C   UNL A   1      44.373  28.005  30.346  1.00  0.00     0.029 A 
ATOM     23  N   UNL A   1      43.863  29.939  31.348  1.00  0.00    -0.354 N 
ATOM     24  C   UNL A   1      44.159  33.676  29.010  1.00  0.00     0.074 A 
ATOM     25  C   UNL A   1      44.510  33.372  27.646  1.00  0.00     0.031 C 
ATOM     26  C   UNL A   1      43.894  27.712  31.566  1.00  0.00     0.029 A 
ATOM     27  C   UNL A   1      43.628  28.958  32.277  1.00  0.00     0.049 A 
ATOM     28  H   UNL A   1      43.679  30.893  31.508  1.00  0.00     0.167 HD
ATOM     29  C   UNL A   1      43.870  34.913  29.471  1.00  0.00     0.037 A 
ATOM     30  C   UNL A   1      43.293  29.086  33.573  1.00  0.00     0.037 A 
ATOM     31  C   UNL A   1      43.541  35.159  30.846  1.00  0.00     0.049 A 
ATOM     32  C   UNL A   1      43.106  30.484  34.104  1.00  0.00     0.074 A 
ATOM     33  C   UNL A   1      43.316  36.359  31.488  1.00  0.00     0.029 A 
ATOM     34  N   UNL A   1      43.396  34.154  31.797  1.00  0.00    -0.354 N 
ATOM     35  N   UNL A   1      43.175  31.629  33.461  1.00  0.00    -0.248 NA
ATOM     36  C   UNL A   1      42.816  30.616  35.535  1.00  0.00     0.031 C 
ATOM     37  C   UNL A   1      43.091  36.081  32.842  1.00  0.00     0.029 A 
ATOM     38  C   UNL A   1      43.104  34.705  33.029  1.00  0.00     0.049 A 
ATOM     39  H   UNL A   1      43.486  33.189  31.618  1.00  0.00     0.167 HD
ATOM     40  C   UNL A   1      42.909  32.616  34.398  1.00  0.00     0.074 A 
ATOM     41  C   UNL A   1      42.672  31.929  35.655  1.00  0.00     0.031 C 
ATOM     42  C   UNL A   1      42.863  33.963  34.244  1.00  0.00     0.037 A 
BRANCH  29  43
ATOM     43  C   UNL A   1      44.028  36.051  28.505  1.00  0.00     0.064 A 
ATOM     44  C   UNL A   1      45.266  36.667  28.262  1.00  0.00     0.173 A 
ATOM     45  C   UNL A   1      42.895  36.596  27.880  1.00  0.00     0.173 A 
ATOM     46  F   UNL A   1      46.376  36.213  28.866  1.00  0.00    -0.203 F 
ATOM     47  C   UNL A   1      45.357  37.809  27.469  1.00  0.00     0.198 A 
ATOM     48  C   UNL A   1      42.995  37.718  27.061  1.00  0.00     0.198 A 
ATOM     49  F   UNL A   1      41.684  36.059  28.086  1.00  0.00    -0.203 F 
ATOM     50  F   UNL A   1      46.535  38.431  27.321  1.00  0.00    -0.200 F 
ATOM     51  C   UNL A   1      44.222  38.333  26.868  1.00  0.00     0.200 A 
ATOM     52  F   UNL A   1      41.896  38.222  26.481  1.00  0.00    -0.200 F 
ATOM     53  F   UNL A   1      44.306  39.442  26.121  1.00  0.00    -0.200 F 
ENDBRANCH  29  43
BRANCH  30  54
ATOM     54  C   UNL A   1      43.189  27.883  34.441  1.00  0.00     0.064 A 
ATOM     55  C   UNL A   1      44.248  27.476  35.262  1.00  0.00     0.173 A 
ATOM     56  C   UNL A   1      42.012  27.115  34.476  1.00  0.00     0.173 A 
ATOM     57  F   UNL A   1      45.402  28.160  35.254  1.00  0.00    -0.203 F 
ATOM     58  C   UNL A   1      44.140  26.346  36.072  1.00  0.00     0.198 A 
ATOM     59  C   UNL A   1      41.895  26.004  35.309  1.00  0.00     0.198 A 
ATOM     60  F   UNL A   1      40.966  27.453  33.708  1.00  0.00    -0.203 F 
ATOM     61  F   UNL A   1      45.185  25.956  36.818  1.00  0.00    -0.200 F 
ATOM     62  C   UNL A   1      42.961  25.615  36.101  1.00  0.00     0.200 A 
ATOM     63  F   UNL A   1      40.747  25.311  35.341  1.00  0.00    -0.200 F 
ATOM     64  F   UNL A   1      42.857  24.533  36.885  1.00  0.00    -0.200 F 
ENDBRANCH  30  54
BRANCH  42  65
ATOM     65  C   UNL A   1      42.487  34.770  35.450  1.00  0.00     0.064 A 
ATOM     66  C   UNL A   1      41.172  35.196  35.671  1.00  0.00     0.173 A 
ATOM     67  C   UNL A   1      43.450  35.045  36.432  1.00  0.00     0.173 A 
ATOM     68  F   UNL A   1      40.222  34.964  34.752  1.00  0.00    -0.203 F 
ATOM     69  C   UNL A   1      40.836  35.888  36.830  1.00  0.00     0.198 A 
ATOM     70  C   UNL A   1      43.104  35.705  37.604  1.00  0.00     0.198 A 
ATOM     71  F   UNL A   1      44.720  34.645  36.265  1.00  0.00    -0.203 F 
ATOM     72  F   UNL A   1      39.581  36.323  37.007  1.00  0.00    -0.200 F 
ATOM     73  C   UNL A   1      41.798  36.132  37.799  1.00  0.00     0.200 A 
ATOM     74  F   UNL A   1      44.030  35.921  38.548  1.00  0.00    -0.200 F 
ATOM     75  F   UNL A   1      41.468  36.780  38.924  1.00  0.00    -0.200 F 
ENDBRANCH  42  65
ENDBRANCH  16  17
ENDBRANCH   9  11
ENDBRANCH   8   9
ENDBRANCH   7   8
ENDBRANCH   6   7
ENDBRANCH   5   6
ENDBRANCH   4   5
ENDBRANCH   3   4
ENDBRANCH   2   3
ENDBRANCH   1   2
BRANCH   1  76
ATOM     76  C   UNL A   1      40.275  27.758  27.601  1.00  0.00     0.188 C 
BRANCH  76  77
ATOM     77  O   UNL A   1      40.390  28.610  28.725  1.00  0.00    -0.376 OA
BRANCH  77  78
ATOM     78  C   UNL A   1      40.316  28.048  30.020  1.00  0.00     0.202 C 
BRANCH  78  79
ATOM     79  C   UNL A   1      39.016  28.092  30.847  1.00  0.00     0.261 C 
BRANCH  79  80
ATOM     80  O   UNL A   1      38.730  29.314  31.555  1.00  0.00    -0.459 OA
BRANCH  80  81
ATOM     81  C   UNL A   1      38.222  29.185  32.820  1.00  0.00     0.365 C 
ATOM     82  O   UNL A   1      37.339  28.395  33.107  1.00  0.00    -0.245 OA
BRANCH  81  83
ATOM     83  C   UNL A   1      38.964  30.115  33.860  1.00  0.00     0.295 C 
ATOM     84  C   UNL A   1      39.652  31.218  33.033  1.00  0.00     0.087 C 
ATOM     85  N   UNL A   1      37.978  30.835  34.745  1.00  0.00    -0.320 N 
ATOM     86  C   UNL A   1      38.838  32.472  33.330  1.00  0.00     0.054 C 
ATOM     87  C   UNL A   1      37.540  31.964  33.933  1.00  0.00     0.188 C 
ATOM     88  H   UNL A   1      37.212  30.210  34.994  1.00  0.00     0.349 HD
ATOM     89  C   UNL A   1      38.528  33.431  32.196  1.00  0.00     0.010 C 
ATOM     90  C   UNL A   1      36.663  33.053  34.531  1.00  0.00     0.065 C 
ATOM     91  C   UNL A   1      37.694  34.599  32.743  1.00  0.00     0.001 C 
ATOM     92  C   UNL A   1      36.430  34.166  33.504  1.00  0.00     0.006 C 
BRANCH  85  93
ATOM     93  C   UNL A   1      38.342  31.121  36.148  1.00  0.00     0.265 C 
BRANCH  93  94
ATOM     94  C   UNL A   1      38.498  32.533  36.759  1.00  0.00     0.093 C 
BRANCH  94  95
ATOM     95  C   UNL A   1      37.966  32.861  38.171  1.00  0.00     0.123 C 
ATOM     96  C   UNL A   1      38.772  33.825  39.038  1.00  0.00     0.034 C 
ATOM     97  O   UNL A   1      37.718  31.715  38.980  1.00  0.00    -0.378 OA
ATOM     98  C   UNL A   1      38.708  33.241  40.439  1.00  0.00     0.031 C 
ATOM     99  C   UNL A   1      37.679  32.142  40.340  1.00  0.00     0.160 C 
ENDBRANCH  94  95
ENDBRANCH  93  94
ENDBRANCH  85  93
ENDBRANCH  81  83
ENDBRANCH  80  81
ENDBRANCH  79  80
ENDBRANCH  78  79
ENDBRANCH  77  78
ENDBRANCH  76  77
ENDBRANCH   1  76
TORSDOF 23
ENDMDL
MODEL 3
REMARK VINA RESULT:      -8.8      6.941      9.615
REMARK SMILES O=C(OCCOCCOCCOCCOC(=O)[C@H]1C[C@H]2CCCC[C@@H]2[N@@H+]1CC[C@@H]1CCCO1)c1ccc(-c2c3nc(c(-c4c(F)c(F)c(F)c(F)c4F)c4ccc([nH]4)c(-c4c(F)c(F)c(F)c(F)c4F)c4nc(c(-c5c(F)c(F)c(F)c(F)c5F)c5ccc2[nH]5)C=C4)C=C3)cc1
REMARK SMILES IDX 10 1 9 2 8 3 7 4 6 5 5 6 4 7 3 8 2 9 1 10 34 11 35 12 96 13
REMARK SMILES IDX 36 14 95 15 37 16 38 17 39 18 89 19 40 20 94 21 88 22 90 23
REMARK SMILES IDX 41 24 93 25 87 26 86 27 42 29 74 30 54 31 73 32 55 33 58 34
REMARK SMILES IDX 72 35 91 36 56 37 57 38 71 40 92 41 59 42 43 43 44 44 52 45
REMARK SMILES IDX 45 46 46 47 50 48 53 49 47 50 48 51 51 52 49 53 75 54 76 55
REMARK SMILES IDX 84 56 77 57 78 58 82 59 85 60 79 61 80 62 83 63 81 64 60 65
REMARK SMILES IDX 61 66 69 67 62 68 63 69 67 70 70 71 64 72 65 73 68 74 66 75
REMARK SMILES IDX 11 76 12 77 13 78 14 79 15 80 16 81 17 82 18 83 19 84 26 85
REMARK SMILES IDX 20 86 25 87 21 89 24 90 22 91 23 92 27 93 28 94 29 95 30 96
REMARK SMILES IDX 33 97 31 98 32 99
REMARK H PARENT 90 28 58 39 26 88
REMARK Flexibility Score: inf
ROOT
ATOM      1  C   UNL A   1      33.084  30.144  27.317  1.00  0.00     0.188 C 
ENDROOT
BRANCH   1   2
ATOM      2  O   UNL A   1      33.613  31.456  27.291  1.00  0.00    -0.377 OA
BRANCH   2   3
ATOM      3  C   UNL A   1      34.866  31.661  27.917  1.00  0.00     0.188 C 
BRANCH   3   4
ATOM      4  C   UNL A   1      34.887  32.627  29.095  1.00  0.00     0.188 C 
BRANCH   4   5
ATOM      5  O   UNL A   1      34.991  31.929  30.339  1.00  0.00    -0.376 OA
BRANCH   5   6
ATOM      6  C   UNL A   1      34.799  32.721  31.514  1.00  0.00     0.202 C 
BRANCH   6   7
ATOM      7  C   UNL A   1      34.303  34.145  31.270  1.00  0.00     0.261 C 
BRANCH   7   8
ATOM      8  O   UNL A   1      35.024  35.145  31.997  1.00  0.00    -0.460 OA
BRANCH   8   9
ATOM      9  C   UNL A   1      35.359  35.169  33.311  1.00  0.00     0.338 C 
ATOM     10  O   UNL A   1      34.720  35.923  34.045  1.00  0.00    -0.246 OA
BRANCH   9  11
ATOM     11  C   UNL A   1      36.496  34.403  33.929  1.00  0.00     0.060 A 
ATOM     12  C   UNL A   1      36.420  33.573  35.051  1.00  0.00     0.016 A 
ATOM     13  C   UNL A   1      37.747  34.510  33.290  1.00  0.00     0.016 A 
ATOM     14  C   UNL A   1      37.514  32.871  35.526  1.00  0.00     0.010 A 
ATOM     15  C   UNL A   1      38.876  33.861  33.794  1.00  0.00     0.010 A 
ATOM     16  C   UNL A   1      38.755  33.070  34.939  1.00  0.00    -0.014 A 
BRANCH  16  17
ATOM     17  C   UNL A   1      39.916  32.725  35.764  1.00  0.00     0.031 A 
ATOM     18  C   UNL A   1      40.310  33.727  36.806  1.00  0.00     0.074 A 
ATOM     19  C   UNL A   1      40.451  31.497  35.707  1.00  0.00     0.049 A 
ATOM     20  N   UNL A   1      41.325  33.729  37.622  1.00  0.00    -0.248 NA
ATOM     21  C   UNL A   1      39.411  34.887  36.963  1.00  0.00     0.031 C 
ATOM     22  C   UNL A   1      39.969  30.406  34.858  1.00  0.00     0.029 A 
ATOM     23  N   UNL A   1      41.500  30.956  36.394  1.00  0.00    -0.354 N 
ATOM     24  C   UNL A   1      41.207  34.904  38.355  1.00  0.00     0.074 A 
ATOM     25  C   UNL A   1      40.022  35.587  37.903  1.00  0.00     0.031 C 
ATOM     26  C   UNL A   1      40.737  29.324  35.066  1.00  0.00     0.029 A 
ATOM     27  C   UNL A   1      41.799  29.675  36.005  1.00  0.00     0.049 A 
ATOM     28  H   UNL A   1      41.992  31.437  37.099  1.00  0.00     0.167 HD
ATOM     29  C   UNL A   1      42.045  35.369  39.308  1.00  0.00     0.037 A 
ATOM     30  C   UNL A   1      42.855  28.915  36.341  1.00  0.00     0.037 A 
ATOM     31  C   UNL A   1      43.221  34.652  39.708  1.00  0.00     0.049 A 
ATOM     32  C   UNL A   1      43.852  29.505  37.305  1.00  0.00     0.074 A 
ATOM     33  C   UNL A   1      44.216  35.028  40.587  1.00  0.00     0.029 A 
ATOM     34  N   UNL A   1      43.555  33.388  39.231  1.00  0.00    -0.354 N 
ATOM     35  N   UNL A   1      43.818  30.665  37.923  1.00  0.00    -0.248 NA
ATOM     36  C   UNL A   1      45.039  28.700  37.606  1.00  0.00     0.031 C 
ATOM     37  C   UNL A   1      45.181  34.013  40.596  1.00  0.00     0.029 A 
ATOM     38  C   UNL A   1      44.752  32.974  39.780  1.00  0.00     0.049 A 
ATOM     39  H   UNL A   1      43.014  32.863  38.596  1.00  0.00     0.167 HD
ATOM     40  C   UNL A   1      44.960  30.720  38.707  1.00  0.00     0.074 A 
ATOM     41  C   UNL A   1      45.663  29.469  38.488  1.00  0.00     0.031 C 
ATOM     42  C   UNL A   1      45.395  31.705  39.533  1.00  0.00     0.037 A 
BRANCH  29  43
ATOM     43  C   UNL A   1      41.759  36.739  39.853  1.00  0.00     0.064 A 
ATOM     44  C   UNL A   1      42.362  37.896  39.333  1.00  0.00     0.173 A 
ATOM     45  C   UNL A   1      40.936  36.883  40.979  1.00  0.00     0.173 A 
ATOM     46  F   UNL A   1      43.192  37.812  38.282  1.00  0.00    -0.203 F 
ATOM     47  C   UNL A   1      42.187  39.134  39.948  1.00  0.00     0.198 A 
ATOM     48  C   UNL A   1      40.737  38.127  41.572  1.00  0.00     0.198 A 
ATOM     49  F   UNL A   1      40.346  35.810  41.528  1.00  0.00    -0.203 F 
ATOM     50  F   UNL A   1      42.841  40.210  39.487  1.00  0.00    -0.200 F 
ATOM     51  C   UNL A   1      41.374  39.249  41.065  1.00  0.00     0.200 A 
ATOM     52  F   UNL A   1      39.950  38.235  42.652  1.00  0.00    -0.200 F 
ATOM     53  F   UNL A   1      41.221  40.436  41.668  1.00  0.00    -0.200 F 
ENDBRANCH  29  43
BRANCH  30  54
ATOM     54  C   UNL A   1      43.045  27.579  35.716  1.00  0.00     0.064 A 
ATOM     55  C   UNL A   1      43.874  27.401  34.601  1.00  0.00     0.173 A 
ATOM     56  C   UNL A   1      42.403  26.440  36.232  1.00  0.00     0.173 A 
ATOM     57  F   UNL A   1      44.496  28.457  34.054  1.00  0.00    -0.203 F 
ATOM     58  C   UNL A   1      44.046  26.144  34.022  1.00  0.00     0.198 A 
ATOM     59  C   UNL A   1      42.599  25.180  35.672  1.00  0.00     0.198 A 
ATOM     60  F   UNL A   1      41.593  26.549  37.295  1.00  0.00    -0.203 F 
ATOM     61  F   UNL A   1      44.814  26.009  32.931  1.00  0.00    -0.200 F 
ATOM     62  C   UNL A   1      43.414  25.033  34.563  1.00  0.00     0.200 A 
ATOM     63  F   UNL A   1      41.996  24.109  36.208  1.00  0.00    -0.200 F 
ATOM     64  F   UNL A   1      43.585  23.824  34.009  1.00  0.00    -0.200 F 
ENDBRANCH  30  54
BRANCH  42  65
ATOM     65  C   UNL A   1      46.655  31.439  40.299  1.00  0.00     0.064 A 
ATOM     66  C   UNL A   1      46.641  30.783  41.537  1.00  0.00     0.173 A 
ATOM     67  C   UNL A   1      47.895  31.778  39.740  1.00  0.00     0.173 A 
ATOM     68  F   UNL A   1      45.475  30.451  42.113  1.00  0.00    -0.203 F 
ATOM     69  C   UNL A   1      47.829  30.491  42.198  1.00  0.00     0.198 A 
ATOM     70  C   UNL A   1      49.081  31.453  40.386  1.00  0.00     0.198 A 
ATOM     71  F   UNL A   1      47.955  32.398  38.551  1.00  0.00    -0.203 F 
ATOM     72  F   UNL A   1      47.795  29.898  43.399  1.00  0.00    -0.200 F 
ATOM     73  C   UNL A   1      49.047  30.815  41.618  1.00  0.00     0.200 A 
ATOM     74  F   UNL A   1      50.256  31.749  39.815  1.00  0.00    -0.200 F 
ATOM     75  F   UNL A   1      50.190  30.513  42.247  1.00  0.00    -0.200 F 
ENDBRANCH  42  65
ENDBRANCH  16  17
ENDBRANCH   9  11
ENDBRANCH   8   9
ENDBRANCH   7   8
ENDBRANCH   6   7
ENDBRANCH   5   6
ENDBRANCH   4   5
ENDBRANCH   3   4
ENDBRANCH   2   3
ENDBRANCH   1   2
BRANCH   1  76
ATOM     76  C   UNL A   1      33.086  29.276  26.033  1.00  0.00     0.188 C 
BRANCH  76  77
ATOM     77  O   UNL A   1      32.111  29.456  25.024  1.00  0.00    -0.376 OA
BRANCH  77  78
ATOM     78  C   UNL A   1      32.019  28.504  23.983  1.00  0.00     0.202 C 
BRANCH  78  79
ATOM     79  C   UNL A   1      32.658  27.106  24.109  1.00  0.00     0.261 C 
BRANCH  79  80
ATOM     80  O   UNL A   1      32.107  26.058  23.287  1.00  0.00    -0.459 OA
BRANCH  80  81
ATOM     81  C   UNL A   1      32.967  25.452  22.410  1.00  0.00     0.365 C 
ATOM     82  O   UNL A   1      33.691  26.071  21.650  1.00  0.00    -0.245 OA
BRANCH  81  83
ATOM     83  C   UNL A   1      32.962  23.878  22.558  1.00  0.00     0.295 C 
ATOM     84  C   UNL A   1      34.428  23.430  22.412  1.00  0.00     0.087 C 
ATOM     85  N   UNL A   1      32.554  23.465  23.950  1.00  0.00    -0.320 N 
ATOM     86  C   UNL A   1      34.833  23.007  23.820  1.00  0.00     0.054 C 
ATOM     87  C   UNL A   1      33.777  23.610  24.730  1.00  0.00     0.188 C 
ATOM     88  H   UNL A   1      31.801  24.066  24.285  1.00  0.00     0.349 HD
ATOM     89  C   UNL A   1      36.213  23.379  24.329  1.00  0.00     0.010 C 
ATOM     90  C   UNL A   1      33.841  23.120  26.168  1.00  0.00     0.065 C 
ATOM     91  C   UNL A   1      36.374  22.854  25.763  1.00  0.00     0.001 C 
ATOM     92  C   UNL A   1      35.258  23.297  26.723  1.00  0.00     0.006 C 
BRANCH  85  93
ATOM     93  C   UNL A   1      31.785  22.218  24.136  1.00  0.00     0.265 C 
BRANCH  93  94
ATOM     94  C   UNL A   1      32.248  20.810  23.694  1.00  0.00     0.093 C 
BRANCH  94  95
ATOM     95  C   UNL A   1      32.812  19.793  24.710  1.00  0.00     0.123 C 
ATOM     96  C   UNL A   1      34.236  19.283  24.503  1.00  0.00     0.034 C 
ATOM     97  O   UNL A   1      31.999  18.636  24.886  1.00  0.00    -0.378 OA
ATOM     98  C   UNL A   1      34.177  17.804  24.847  1.00  0.00     0.031 C 
ATOM     99  C   UNL A   1      32.812  17.615  25.462  1.00  0.00     0.160 C 
ENDBRANCH  94  95
ENDBRANCH  93  94
ENDBRANCH  85  93
ENDBRANCH  81  83
ENDBRANCH  80  81
ENDBRANCH  79  80
ENDBRANCH  78  79
ENDBRANCH  77  78
ENDBRANCH  76  77
ENDBRANCH   1  76
TORSDOF 23
ENDMDL
