MODEL 1
REMARK VINA RESULT:     -10.1      0.000      0.000
REMARK SMILES O=C(OCCOCCOCCOCCOC(=O)c1ccc(-c2c3nc(c(-c4c(F)c(F)c(F)c(F)c4F)c4ccc([nH]4)c(-c4c(F)c(F)c(F)c(F)c4F)c4nc(c(-c5c(F)c(F)c(F)c(F)c5F)c5ccc2[nH]5)C=C4)C=C3)cc1)C1=Cc2cc(C(F)(F)F)ccc2O[C@@H]1C(F)(F)F
REMARK SMILES IDX 10 1 9 2 8 3 7 4 6 5 5 6 4 7 3 8 2 9 1 10 81 11 82 12 94 13
REMARK SMILES IDX 83 14 93 15 84 16 92 17 85 18 91 19 90 20 95 21 96 22 97 23
REMARK SMILES IDX 98 24 86 25 87 26 88 27 89 28 11 29 12 30 13 31 14 32 15 33
REMARK SMILES IDX 16 34 17 35 18 36 19 37 80 38 20 39 79 40 21 41 22 42 23 43
REMARK SMILES IDX 73 44 24 45 78 46 72 47 74 48 25 49 77 50 71 51 70 52 26 54
REMARK SMILES IDX 58 55 38 56 57 57 39 58 42 59 56 60 75 61 40 62 41 63 55 65
REMARK SMILES IDX 76 66 43 67 27 68 28 69 36 70 29 71 30 72 34 73 37 74 31 75
REMARK SMILES IDX 32 76 35 77 33 78 59 79 60 80 68 81 61 82 62 83 66 84 69 85
REMARK SMILES IDX 63 86 64 87 67 88 65 89 44 90 45 91 53 92 46 93 47 94 51 95
REMARK SMILES IDX 54 96 48 97 49 98 52 99 50 100
REMARK H PARENT 74 53 42 64
REMARK Flexibility Score: inf
ROOT
ATOM      1  C   UNL A   1      41.902  21.759  26.180  1.00  0.00     0.188 C 
ENDROOT
BRANCH   1   2
ATOM      2  O   UNL A   1      40.968  22.719  26.656  1.00  0.00    -0.377 OA
BRANCH   2   3
ATOM      3  C   UNL A   1      39.662  22.228  26.927  1.00  0.00     0.188 C 
BRANCH   3   4
ATOM      4  C   UNL A   1      39.075  21.460  25.750  1.00  0.00     0.188 C 
BRANCH   4   5
ATOM      5  O   UNL A   1      37.666  21.574  25.647  1.00  0.00    -0.376 OA
BRANCH   5   6
ATOM      6  C   UNL A   1      37.113  22.721  25.020  1.00  0.00     0.202 C 
BRANCH   6   7
ATOM      7  C   UNL A   1      36.332  22.474  23.733  1.00  0.00     0.261 C 
BRANCH   7   8
ATOM      8  O   UNL A   1      35.782  23.686  23.192  1.00  0.00    -0.460 OA
BRANCH   8   9
ATOM      9  C   UNL A   1      34.432  23.750  23.125  1.00  0.00     0.338 C 
ATOM     10  O   UNL A   1      33.824  23.837  22.070  1.00  0.00    -0.246 OA
BRANCH   9  11
ATOM     11  C   UNL A   1      33.778  23.797  24.467  1.00  0.00     0.087 C 
ATOM     12  C   UNL A   1      33.990  24.981  25.073  1.00  0.00     0.027 C 
ATOM     13  C   UNL A   1      32.455  23.079  24.592  1.00  0.00     0.316 C 
ATOM     14  C   UNL A   1      32.803  25.842  25.134  1.00  0.00     0.018 A 
ATOM     15  O   UNL A   1      31.315  23.950  24.794  1.00  0.00    -0.475 OA
ATOM     16  C   UNL A   1      32.930  27.221  25.354  1.00  0.00     0.025 A 
ATOM     17  C   UNL A   1      31.547  25.296  24.870  1.00  0.00     0.128 A 
ATOM     18  C   UNL A   1      31.813  28.064  25.218  1.00  0.00     0.056 A 
ATOM     19  C   UNL A   1      30.456  26.133  24.652  1.00  0.00     0.048 A 
ATOM     20  C   UNL A   1      30.597  27.514  24.787  1.00  0.00     0.017 A 
BRANCH  13  21
ATOM     21  C   UNL A   1      32.509  21.939  25.611  1.00  0.00     0.430 C 
ATOM     22  F   UNL A   1      31.961  22.313  26.793  1.00  0.00    -0.167 F 
ATOM     23  F   UNL A   1      31.793  20.869  25.179  1.00  0.00    -0.167 F 
ATOM     24  F   UNL A   1      33.766  21.512  25.854  1.00  0.00    -0.167 F 
ENDBRANCH  13  21
BRANCH  18  25
ATOM     25  C   UNL A   1      31.863  29.519  25.618  1.00  0.00     0.416 C 
ATOM     26  F   UNL A   1      33.069  30.076  25.315  1.00  0.00    -0.166 F 
ATOM     27  F   UNL A   1      30.928  30.292  25.002  1.00  0.00    -0.166 F 
ATOM     28  F   UNL A   1      31.689  29.709  26.955  1.00  0.00    -0.166 F 
ENDBRANCH  18  25
ENDBRANCH   9  11
ENDBRANCH   8   9
ENDBRANCH   7   8
ENDBRANCH   6   7
ENDBRANCH   5   6
ENDBRANCH   4   5
ENDBRANCH   3   4
ENDBRANCH   2   3
ENDBRANCH   1   2
BRANCH   1  29
ATOM     29  C   UNL A   1      42.999  22.262  25.211  1.00  0.00     0.188 C 
BRANCH  29  30
ATOM     30  O   UNL A   1      44.106  21.472  24.791  1.00  0.00    -0.376 OA
BRANCH  30  31
ATOM     31  C   UNL A   1      45.395  21.749  25.300  1.00  0.00     0.202 C 
BRANCH  31  32
ATOM     32  C   UNL A   1      45.420  22.643  26.550  1.00  0.00     0.261 C 
BRANCH  32  33
ATOM     33  O   UNL A   1      46.107  23.897  26.376  1.00  0.00    -0.460 OA
BRANCH  33  34
ATOM     34  C   UNL A   1      45.386  24.902  25.800  1.00  0.00     0.338 C 
ATOM     35  O   UNL A   1      45.293  25.154  24.626  1.00  0.00    -0.246 OA
BRANCH  34  36
ATOM     36  C   UNL A   1      44.546  25.560  26.849  1.00  0.00     0.060 A 
ATOM     37  C   UNL A   1      44.728  26.935  27.066  1.00  0.00     0.016 A 
ATOM     38  C   UNL A   1      43.558  24.874  27.561  1.00  0.00     0.016 A 
ATOM     39  C   UNL A   1      43.945  27.620  28.003  1.00  0.00     0.010 A 
ATOM     40  C   UNL A   1      42.789  25.555  28.516  1.00  0.00     0.010 A 
ATOM     41  C   UNL A   1      43.001  26.925  28.767  1.00  0.00    -0.014 A 
BRANCH  41  42
ATOM     42  C   UNL A   1      42.446  27.536  30.005  1.00  0.00     0.031 A 
ATOM     43  C   UNL A   1      41.145  28.284  29.877  1.00  0.00     0.074 A 
ATOM     44  C   UNL A   1      43.056  27.456  31.203  1.00  0.00     0.049 A 
ATOM     45  N   UNL A   1      40.513  29.023  30.751  1.00  0.00    -0.248 NA
ATOM     46  C   UNL A   1      40.470  28.187  28.571  1.00  0.00     0.031 C 
ATOM     47  C   UNL A   1      44.281  26.715  31.486  1.00  0.00     0.029 A 
ATOM     48  N   UNL A   1      42.726  28.033  32.408  1.00  0.00    -0.354 N 
ATOM     49  C   UNL A   1      39.387  29.500  30.093  1.00  0.00     0.074 A 
ATOM     50  C   UNL A   1      39.424  28.979  28.745  1.00  0.00     0.031 C 
ATOM     51  C   UNL A   1      44.618  26.907  32.775  1.00  0.00     0.029 A 
ATOM     52  C   UNL A   1      43.657  27.820  33.396  1.00  0.00     0.049 A 
ATOM     53  H   UNL A   1      41.900  28.550  32.549  1.00  0.00     0.167 HD
ATOM     54  C   UNL A   1      38.408  30.303  30.567  1.00  0.00     0.037 A 
ATOM     55  C   UNL A   1      43.743  28.339  34.640  1.00  0.00     0.037 A 
ATOM     56  C   UNL A   1      38.361  30.813  31.910  1.00  0.00     0.049 A 
ATOM     57  C   UNL A   1      42.681  29.302  35.122  1.00  0.00     0.074 A 
ATOM     58  C   UNL A   1      37.388  31.599  32.498  1.00  0.00     0.029 A 
ATOM     59  N   UNL A   1      39.337  30.595  32.870  1.00  0.00    -0.354 N 
ATOM     60  N   UNL A   1      41.603  29.723  34.506  1.00  0.00    -0.248 NA
ATOM     61  C   UNL A   1      42.853  29.869  36.469  1.00  0.00     0.031 C 
ATOM     62  C   UNL A   1      37.808  31.916  33.793  1.00  0.00     0.029 A 
ATOM     63  C   UNL A   1      39.010  31.270  34.033  1.00  0.00     0.049 A 
ATOM     64  H   UNL A   1      40.142  30.043  32.743  1.00  0.00     0.167 HD
ATOM     65  C   UNL A   1      40.958  30.576  35.397  1.00  0.00     0.074 A 
ATOM     66  C   UNL A   1      41.757  30.603  36.601  1.00  0.00     0.031 C 
ATOM     67  C   UNL A   1      39.809  31.277  35.231  1.00  0.00     0.037 A 
BRANCH  54  68
ATOM     68  C   UNL A   1      37.328  30.723  29.615  1.00  0.00     0.064 A 
ATOM     69  C   UNL A   1      36.302  29.850  29.223  1.00  0.00     0.173 A 
ATOM     70  C   UNL A   1      37.300  32.035  29.121  1.00  0.00     0.173 A 
ATOM     71  F   UNL A   1      36.295  28.580  29.653  1.00  0.00    -0.203 F 
ATOM     72  C   UNL A   1      35.299  30.272  28.354  1.00  0.00     0.198 A 
ATOM     73  C   UNL A   1      36.278  32.462  28.279  1.00  0.00     0.198 A 
ATOM     74  F   UNL A   1      38.258  32.909  29.466  1.00  0.00    -0.203 F 
ATOM     75  F   UNL A   1      34.354  29.410  27.956  1.00  0.00    -0.200 F 
ATOM     76  C   UNL A   1      35.282  31.580  27.891  1.00  0.00     0.200 A 
ATOM     77  F   UNL A   1      36.257  33.731  27.844  1.00  0.00    -0.200 F 
ATOM     78  F   UNL A   1      34.308  31.988  27.066  1.00  0.00    -0.200 F 
ENDBRANCH  54  68
BRANCH  55  79
ATOM     79  C   UNL A   1      44.906  28.013  35.516  1.00  0.00     0.064 A 
ATOM     80  C   UNL A   1      46.083  28.776  35.482  1.00  0.00     0.173 A 
ATOM     81  C   UNL A   1      44.887  26.893  36.362  1.00  0.00     0.173 A 
ATOM     82  F   UNL A   1      46.168  29.837  34.665  1.00  0.00    -0.203 F 
ATOM     83  C   UNL A   1      47.198  28.419  36.239  1.00  0.00     0.198 A 
ATOM     84  C   UNL A   1      45.991  26.557  37.144  1.00  0.00     0.198 A 
ATOM     85  F   UNL A   1      43.793  26.120  36.428  1.00  0.00    -0.203 F 
ATOM     86  F   UNL A   1      48.328  29.132  36.140  1.00  0.00    -0.200 F 
ATOM     87  C   UNL A   1      47.149  27.314  37.073  1.00  0.00     0.200 A 
ATOM     88  F   UNL A   1      45.933  25.493  37.957  1.00  0.00    -0.200 F 
ATOM     89  F   UNL A   1      48.222  26.970  37.800  1.00  0.00    -0.200 F 
ENDBRANCH  55  79
BRANCH  67  90
ATOM     90  C   UNL A   1      39.318  32.107  36.383  1.00  0.00     0.064 A 
ATOM     91  C   UNL A   1      39.805  33.400  36.620  1.00  0.00     0.173 A 
ATOM     92  C   UNL A   1      38.288  31.631  37.211  1.00  0.00     0.173 A 
ATOM     93  F   UNL A   1      40.796  33.898  35.865  1.00  0.00    -0.203 F 
ATOM     94  C   UNL A   1      39.290  34.181  37.653  1.00  0.00     0.198 A 
ATOM     95  C   UNL A   1      37.755  32.427  38.221  1.00  0.00     0.198 A 
ATOM     96  F   UNL A   1      37.780  30.406  37.021  1.00  0.00    -0.203 F 
ATOM     97  F   UNL A   1      39.796  35.401  37.884  1.00  0.00    -0.200 F 
ATOM     98  C   UNL A   1      38.259  33.698  38.445  1.00  0.00     0.200 A 
ATOM     99  F   UNL A   1      36.745  31.966  38.972  1.00  0.00    -0.200 F 
ATOM    100  F   UNL A   1      37.753  34.458  39.425  1.00  0.00    -0.200 F 
ENDBRANCH  67  90
ENDBRANCH  41  42
ENDBRANCH  34  36
ENDBRANCH  33  34
ENDBRANCH  32  33
ENDBRANCH  31  32
ENDBRANCH  30  31
ENDBRANCH  29  30
ENDBRANCH   1  29
TORSDOF 22
ENDMDL
MODEL 2
REMARK VINA RESULT:      -9.7      7.178     13.939
REMARK SMILES O=C(OCCOCCOCCOCCOC(=O)c1ccc(-c2c3nc(c(-c4c(F)c(F)c(F)c(F)c4F)c4ccc([nH]4)c(-c4c(F)c(F)c(F)c(F)c4F)c4nc(c(-c5c(F)c(F)c(F)c(F)c5F)c5ccc2[nH]5)C=C4)C=C3)cc1)C1=Cc2cc(C(F)(F)F)ccc2O[C@@H]1C(F)(F)F
REMARK SMILES IDX 10 1 9 2 8 3 7 4 6 5 5 6 4 7 3 8 2 9 1 10 81 11 82 12 94 13
REMARK SMILES IDX 83 14 93 15 84 16 92 17 85 18 91 19 90 20 95 21 96 22 97 23
REMARK SMILES IDX 98 24 86 25 87 26 88 27 89 28 11 29 12 30 13 31 14 32 15 33
REMARK SMILES IDX 16 34 17 35 18 36 19 37 80 38 20 39 79 40 21 41 22 42 23 43
REMARK SMILES IDX 73 44 24 45 78 46 72 47 74 48 25 49 77 50 71 51 70 52 26 54
REMARK SMILES IDX 58 55 38 56 57 57 39 58 42 59 56 60 75 61 40 62 41 63 55 65
REMARK SMILES IDX 76 66 43 67 27 68 28 69 36 70 29 71 30 72 34 73 37 74 31 75
REMARK SMILES IDX 32 76 35 77 33 78 59 79 60 80 68 81 61 82 62 83 66 84 69 85
REMARK SMILES IDX 63 86 64 87 67 88 65 89 44 90 45 91 53 92 46 93 47 94 51 95
REMARK SMILES IDX 54 96 48 97 49 98 52 99 50 100
REMARK H PARENT 74 53 42 64
REMARK Flexibility Score: inf
ROOT
ATOM      1  C   UNL A   1      50.160  21.968  36.322  1.00  0.00     0.188 C 
ENDROOT
BRANCH   1   2
ATOM      2  O   UNL A   1      51.125  21.182  37.009  1.00  0.00    -0.377 OA
BRANCH   2   3
ATOM      3  C   UNL A   1      50.611  20.302  38.000  1.00  0.00     0.188 C 
BRANCH   3   4
ATOM      4  C   UNL A   1      49.298  19.657  37.578  1.00  0.00     0.188 C 
BRANCH   4   5
ATOM      5  O   UNL A   1      48.200  20.020  38.397  1.00  0.00    -0.376 OA
BRANCH   5   6
ATOM      6  C   UNL A   1      47.009  19.252  38.333  1.00  0.00     0.202 C 
BRANCH   6   7
ATOM      7  C   UNL A   1      46.376  18.876  39.669  1.00  0.00     0.261 C 
BRANCH   7   8
ATOM      8  O   UNL A   1      46.130  17.464  39.774  1.00  0.00    -0.460 OA
BRANCH   8   9
ATOM      9  C   UNL A   1      46.039  16.967  41.030  1.00  0.00     0.338 C 
ATOM     10  O   UNL A   1      46.899  16.256  41.525  1.00  0.00    -0.246 OA
BRANCH   9  11
ATOM     11  C   UNL A   1      44.747  17.298  41.701  1.00  0.00     0.087 C 
ATOM     12  C   UNL A   1      43.755  16.491  41.279  1.00  0.00     0.027 C 
ATOM     13  C   UNL A   1      44.836  17.740  43.142  1.00  0.00     0.316 C 
ATOM     14  C   UNL A   1      43.324  15.503  42.275  1.00  0.00     0.018 A 
ATOM     15  O   UNL A   1      44.273  16.805  44.094  1.00  0.00    -0.475 OA
ATOM     16  C   UNL A   1      42.613  14.358  41.886  1.00  0.00     0.025 A 
ATOM     17  C   UNL A   1      43.713  15.657  43.605  1.00  0.00     0.128 A 
ATOM     18  C   UNL A   1      42.375  13.327  42.810  1.00  0.00     0.056 A 
ATOM     19  C   UNL A   1      43.554  14.605  44.504  1.00  0.00     0.048 A 
ATOM     20  C   UNL A   1      42.923  13.430  44.098  1.00  0.00     0.017 A 
BRANCH  13  21
ATOM     21  C   UNL A   1      44.317  19.166  43.344  1.00  0.00     0.430 C 
ATOM     22  F   UNL A   1      45.339  20.054  43.409  1.00  0.00    -0.167 F 
ATOM     23  F   UNL A   1      43.541  19.551  42.298  1.00  0.00    -0.167 F 
ATOM     24  F   UNL A   1      43.579  19.301  44.466  1.00  0.00    -0.167 F 
ENDBRANCH  13  21
BRANCH  18  25
ATOM     25  C   UNL A   1      41.466  12.165  42.487  1.00  0.00     0.416 C 
ATOM     26  F   UNL A   1      40.563  12.494  41.522  1.00  0.00    -0.166 F 
ATOM     27  F   UNL A   1      42.121  11.064  42.029  1.00  0.00    -0.166 F 
ATOM     28  F   UNL A   1      40.734  11.750  43.558  1.00  0.00    -0.166 F 
ENDBRANCH  18  25
ENDBRANCH   9  11
ENDBRANCH   8   9
ENDBRANCH   7   8
ENDBRANCH   6   7
ENDBRANCH   5   6
ENDBRANCH   4   5
ENDBRANCH   3   4
ENDBRANCH   2   3
ENDBRANCH   1   2
BRANCH   1  29
ATOM     29  C   UNL A   1      50.394  22.210  34.811  1.00  0.00     0.188 C 
BRANCH  29  30
ATOM     30  O   UNL A   1      49.403  22.729  33.931  1.00  0.00    -0.376 OA
BRANCH  30  31
ATOM     31  C   UNL A   1      48.170  23.179  34.455  1.00  0.00     0.202 C 
BRANCH  31  32
ATOM     32  C   UNL A   1      47.975  24.703  34.433  1.00  0.00     0.261 C 
BRANCH  32  33
ATOM     33  O   UNL A   1      47.947  25.323  35.733  1.00  0.00    -0.460 OA
BRANCH  33  34
ATOM     34  C   UNL A   1      46.782  25.201  36.432  1.00  0.00     0.338 C 
ATOM     35  O   UNL A   1      46.613  24.618  37.472  1.00  0.00    -0.246 OA
BRANCH  34  36
ATOM     36  C   UNL A   1      45.746  26.081  35.807  1.00  0.00     0.060 A 
ATOM     37  C   UNL A   1      44.460  25.548  35.622  1.00  0.00     0.016 A 
ATOM     38  C   UNL A   1      45.996  27.414  35.467  1.00  0.00     0.016 A 
ATOM     39  C   UNL A   1      43.433  26.332  35.082  1.00  0.00     0.010 A 
ATOM     40  C   UNL A   1      44.973  28.192  34.904  1.00  0.00     0.010 A 
ATOM     41  C   UNL A   1      43.695  27.646  34.678  1.00  0.00    -0.014 A 
BRANCH  41  42
ATOM     42  C   UNL A   1      42.750  28.349  33.769  1.00  0.00     0.031 A 
ATOM     43  C   UNL A   1      41.819  29.356  34.394  1.00  0.00     0.074 A 
ATOM     44  C   UNL A   1      42.690  28.116  32.444  1.00  0.00     0.049 A 
ATOM     45  N   UNL A   1      40.812  30.004  33.871  1.00  0.00    -0.248 NA
ATOM     46  C   UNL A   1      42.059  29.662  35.815  1.00  0.00     0.031 C 
ATOM     47  C   UNL A   1      43.568  27.221  31.698  1.00  0.00     0.029 A 
ATOM     48  N   UNL A   1      41.825  28.610  31.494  1.00  0.00    -0.354 N 
ATOM     49  C   UNL A   1      40.284  30.770  34.902  1.00  0.00     0.074 A 
ATOM     50  C   UNL A   1      41.071  30.500  36.084  1.00  0.00     0.031 C 
ATOM     51  C   UNL A   1      43.178  27.203  30.409  1.00  0.00     0.029 A 
ATOM     52  C   UNL A   1      41.996  28.051  30.249  1.00  0.00     0.049 A 
ATOM     53  H   UNL A   1      41.148  29.297  31.688  1.00  0.00     0.167 HD
ATOM     54  C   UNL A   1      39.235  31.623  34.870  1.00  0.00     0.037 A 
ATOM     55  C   UNL A   1      41.255  28.179  29.127  1.00  0.00     0.037 A 
ATOM     56  C   UNL A   1      38.458  31.903  33.694  1.00  0.00     0.049 A 
ATOM     57  C   UNL A   1      40.035  29.074  29.136  1.00  0.00     0.074 A 
ATOM     58  C   UNL A   1      37.402  32.784  33.551  1.00  0.00     0.029 A 
ATOM     59  N   UNL A   1      38.647  31.297  32.461  1.00  0.00    -0.354 N 
ATOM     60  N   UNL A   1      39.560  29.819  30.105  1.00  0.00    -0.248 NA
ATOM     61  C   UNL A   1      39.242  29.138  27.898  1.00  0.00     0.031 C 
ATOM     62  C   UNL A   1      36.907  32.661  32.250  1.00  0.00     0.029 A 
ATOM     63  C   UNL A   1      37.697  31.753  31.564  1.00  0.00     0.049 A 
ATOM     64  H   UNL A   1      39.351  30.641  32.256  1.00  0.00     0.167 HD
ATOM     65  C   UNL A   1      38.438  30.458  29.587  1.00  0.00     0.074 A 
ATOM     66  C   UNL A   1      38.309  30.025  28.213  1.00  0.00     0.031 C 
ATOM     67  C   UNL A   1      37.589  31.323  30.194  1.00  0.00     0.037 A 
BRANCH  54  68
ATOM     68  C   UNL A   1      38.831  32.281  36.156  1.00  0.00     0.064 A 
ATOM     69  C   UNL A   1      38.069  31.612  37.126  1.00  0.00     0.173 A 
ATOM     70  C   UNL A   1      39.251  33.590  36.436  1.00  0.00     0.173 A 
ATOM     71  F   UNL A   1      37.628  30.367  36.898  1.00  0.00    -0.203 F 
ATOM     72  C   UNL A   1      37.726  32.240  38.321  1.00  0.00     0.198 A 
ATOM     73  C   UNL A   1      38.934  34.201  37.645  1.00  0.00     0.198 A 
ATOM     74  F   UNL A   1      39.982  34.272  35.540  1.00  0.00    -0.203 F 
ATOM     75  F   UNL A   1      36.961  31.600  39.215  1.00  0.00    -0.200 F 
ATOM     76  C   UNL A   1      38.168  33.528  38.583  1.00  0.00     0.200 A 
ATOM     77  F   UNL A   1      39.373  35.442  37.900  1.00  0.00    -0.200 F 
ATOM     78  F   UNL A   1      37.848  34.125  39.741  1.00  0.00    -0.200 F 
ENDBRANCH  54  68
BRANCH  55  79
ATOM     79  C   UNL A   1      41.600  27.402  27.902  1.00  0.00     0.064 A 
ATOM     80  C   UNL A   1      41.081  26.117  27.682  1.00  0.00     0.173 A 
ATOM     81  C   UNL A   1      42.504  27.905  26.953  1.00  0.00     0.173 A 
ATOM     82  F   UNL A   1      40.239  25.574  28.574  1.00  0.00    -0.203 F 
ATOM     83  C   UNL A   1      41.471  25.360  26.578  1.00  0.00     0.198 A 
ATOM     84  C   UNL A   1      42.867  27.159  25.833  1.00  0.00     0.198 A 
ATOM     85  F   UNL A   1      43.040  29.123  27.115  1.00  0.00    -0.203 F 
ATOM     86  F   UNL A   1      41.006  24.112  26.427  1.00  0.00    -0.200 F 
ATOM     87  C   UNL A   1      42.358  25.883  25.652  1.00  0.00     0.200 A 
ATOM     88  F   UNL A   1      43.717  27.676  24.934  1.00  0.00    -0.200 F 
ATOM     89  F   UNL A   1      42.734  25.154  24.591  1.00  0.00    -0.200 F 
ENDBRANCH  55  79
BRANCH  67  90
ATOM     90  C   UNL A   1      36.463  31.893  29.379  1.00  0.00     0.064 A 
ATOM     91  C   UNL A   1      35.376  31.106  28.971  1.00  0.00     0.173 A 
ATOM     92  C   UNL A   1      36.432  33.263  29.073  1.00  0.00     0.173 A 
ATOM     93  F   UNL A   1      35.362  29.789  29.228  1.00  0.00    -0.203 F 
ATOM     94  C   UNL A   1      34.309  31.666  28.273  1.00  0.00     0.198 A 
ATOM     95  C   UNL A   1      35.348  33.825  28.404  1.00  0.00     0.198 A 
ATOM     96  F   UNL A   1      37.441  34.062  29.449  1.00  0.00    -0.203 F 
ATOM     97  F   UNL A   1      33.298  30.887  27.861  1.00  0.00    -0.200 F 
ATOM     98  C   UNL A   1      34.290  33.026  28.000  1.00  0.00     0.200 A 
ATOM     99  F   UNL A   1      35.323  35.142  28.158  1.00  0.00    -0.200 F 
ATOM    100  F   UNL A   1      33.253  33.565  27.346  1.00  0.00    -0.200 F 
ENDBRANCH  67  90
ENDBRANCH  41  42
ENDBRANCH  34  36
ENDBRANCH  33  34
ENDBRANCH  32  33
ENDBRANCH  31  32
ENDBRANCH  30  31
ENDBRANCH  29  30
ENDBRANCH   1  29
TORSDOF 22
ENDMDL
MODEL 3
REMARK VINA RESULT:      -9.7      4.453      6.433
REMARK SMILES O=C(OCCOCCOCCOCCOC(=O)c1ccc(-c2c3nc(c(-c4c(F)c(F)c(F)c(F)c4F)c4ccc([nH]4)c(-c4c(F)c(F)c(F)c(F)c4F)c4nc(c(-c5c(F)c(F)c(F)c(F)c5F)c5ccc2[nH]5)C=C4)C=C3)cc1)C1=Cc2cc(C(F)(F)F)ccc2O[C@@H]1C(F)(F)F
REMARK SMILES IDX 10 1 9 2 8 3 7 4 6 5 5 6 4 7 3 8 2 9 1 10 81 11 82 12 94 13
REMARK SMILES IDX 83 14 93 15 84 16 92 17 85 18 91 19 90 20 95 21 96 22 97 23
REMARK SMILES IDX 98 24 86 25 87 26 88 27 89 28 11 29 12 30 13 31 14 32 15 33
REMARK SMILES IDX 16 34 17 35 18 36 19 37 80 38 20 39 79 40 21 41 22 42 23 43
REMARK SMILES IDX 73 44 24 45 78 46 72 47 74 48 25 49 77 50 71 51 70 52 26 54
REMARK SMILES IDX 58 55 38 56 57 57 39 58 42 59 56 60 75 61 40 62 41 63 55 65
REMARK SMILES IDX 76 66 43 67 27 68 28 69 36 70 29 71 30 72 34 73 37 74 31 75
REMARK SMILES IDX 32 76 35 77 33 78 59 79 60 80 68 81 61 82 62 83 66 84 69 85
REMARK SMILES IDX 63 86 64 87 67 88 65 89 44 90 45 91 53 92 46 93 47 94 51 95
REMARK SMILES IDX 54 96 48 97 49 98 52 99 50 100
REMARK H PARENT 74 53 42 64
REMARK Flexibility Score: inf
ROOT
ATOM      1  C   UNL A   1      42.258  19.396  25.907  1.00  0.00     0.188 C 
ENDROOT
BRANCH   1   2
ATOM      2  O   UNL A   1      42.110  20.388  26.914  1.00  0.00    -0.377 OA
BRANCH   2   3
ATOM      3  C   UNL A   1      40.890  21.118  26.884  1.00  0.00     0.188 C 
BRANCH   3   4
ATOM      4  C   UNL A   1      41.072  22.570  27.303  1.00  0.00     0.188 C 
BRANCH   4   5
ATOM      5  O   UNL A   1      39.854  23.223  27.619  1.00  0.00    -0.376 OA
BRANCH   5   6
ATOM      6  C   UNL A   1      39.109  23.832  26.577  1.00  0.00     0.202 C 
BRANCH   6   7
ATOM      7  C   UNL A   1      37.956  23.012  26.005  1.00  0.00     0.261 C 
BRANCH   7   8
ATOM      8  O   UNL A   1      37.253  23.715  24.968  1.00  0.00    -0.460 OA
BRANCH   8   9
ATOM      9  C   UNL A   1      35.950  23.987  25.211  1.00  0.00     0.338 C 
ATOM     10  O   UNL A   1      35.560  24.479  26.258  1.00  0.00    -0.246 OA
BRANCH   9  11
ATOM     11  C   UNL A   1      35.040  23.539  24.115  1.00  0.00     0.087 C 
ATOM     12  C   UNL A   1      35.289  22.264  23.763  1.00  0.00     0.027 C 
ATOM     13  C   UNL A   1      33.630  24.080  24.152  1.00  0.00     0.316 C 
ATOM     14  C   UNL A   1      34.255  21.313  24.189  1.00  0.00     0.018 A 
ATOM     15  O   UNL A   1      32.614  23.088  24.437  1.00  0.00    -0.475 OA
ATOM     16  C   UNL A   1      34.533  19.941  24.266  1.00  0.00     0.025 A 
ATOM     17  C   UNL A   1      33.018  21.794  24.616  1.00  0.00     0.128 A 
ATOM     18  C   UNL A   1      33.606  19.065  24.857  1.00  0.00     0.056 A 
ATOM     19  C   UNL A   1      32.132  20.946  25.277  1.00  0.00     0.048 A 
ATOM     20  C   UNL A   1      32.442  19.596  25.432  1.00  0.00     0.017 A 
BRANCH  13  21
ATOM     21  C   UNL A   1      33.299  24.921  22.918  1.00  0.00     0.430 C 
ATOM     22  F   UNL A   1      32.048  25.436  22.999  1.00  0.00    -0.167 F 
ATOM     23  F   UNL A   1      34.143  25.980  22.814  1.00  0.00    -0.167 F 
ATOM     24  F   UNL A   1      33.386  24.221  21.768  1.00  0.00    -0.167 F 
ENDBRANCH  13  21
BRANCH  18  25
ATOM     25  C   UNL A   1      33.783  17.566  24.800  1.00  0.00     0.416 C 
ATOM     26  F   UNL A   1      33.163  17.034  23.710  1.00  0.00    -0.166 F 
ATOM     27  F   UNL A   1      35.081  17.166  24.726  1.00  0.00    -0.166 F 
ATOM     28  F   UNL A   1      33.252  16.928  25.880  1.00  0.00    -0.166 F 
ENDBRANCH  18  25
ENDBRANCH   9  11
ENDBRANCH   8   9
ENDBRANCH   7   8
ENDBRANCH   6   7
ENDBRANCH   5   6
ENDBRANCH   4   5
ENDBRANCH   3   4
ENDBRANCH   2   3
ENDBRANCH   1   2
BRANCH   1  29
ATOM     29  C   UNL A   1      43.474  18.444  26.029  1.00  0.00     0.188 C 
BRANCH  29  30
ATOM     30  O   UNL A   1      44.474  18.307  25.025  1.00  0.00    -0.376 OA
BRANCH  30  31
ATOM     31  C   UNL A   1      45.831  18.520  25.357  1.00  0.00     0.202 C 
BRANCH  31  32
ATOM     32  C   UNL A   1      46.440  19.814  24.794  1.00  0.00     0.261 C 
BRANCH  32  33
ATOM     33  O   UNL A   1      46.027  21.015  25.472  1.00  0.00    -0.460 OA
BRANCH  33  34
ATOM     34  C   UNL A   1      45.102  21.782  24.826  1.00  0.00     0.338 C 
ATOM     35  O   UNL A   1      44.450  21.480  23.860  1.00  0.00    -0.246 OA
BRANCH  34  36
ATOM     36  C   UNL A   1      44.860  23.026  25.622  1.00  0.00     0.060 A 
ATOM     37  C   UNL A   1      44.598  24.212  24.919  1.00  0.00     0.016 A 
ATOM     38  C   UNL A   1      44.824  23.030  27.020  1.00  0.00     0.016 A 
ATOM     39  C   UNL A   1      44.321  25.402  25.603  1.00  0.00     0.010 A 
ATOM     40  C   UNL A   1      44.570  24.226  27.706  1.00  0.00     0.010 A 
ATOM     41  C   UNL A   1      44.351  25.427  27.002  1.00  0.00    -0.014 A 
BRANCH  41  42
ATOM     42  C   UNL A   1      44.443  26.724  27.724  1.00  0.00     0.031 A 
ATOM     43  C   UNL A   1      43.146  27.385  28.115  1.00  0.00     0.074 A 
ATOM     44  C   UNL A   1      45.613  27.319  28.023  1.00  0.00     0.049 A 
ATOM     45  N   UNL A   1      42.929  28.571  28.620  1.00  0.00    -0.248 NA
ATOM     46  C   UNL A   1      41.925  26.593  27.891  1.00  0.00     0.031 C 
ATOM     47  C   UNL A   1      46.938  26.768  27.764  1.00  0.00     0.029 A 
ATOM     48  N   UNL A   1      45.865  28.544  28.598  1.00  0.00    -0.354 N 
ATOM     49  C   UNL A   1      41.550  28.676  28.748  1.00  0.00     0.074 A 
ATOM     50  C   UNL A   1      40.978  27.442  28.258  1.00  0.00     0.031 C 
ATOM     51  C   UNL A   1      47.867  27.664  28.149  1.00  0.00     0.029 A 
ATOM     52  C   UNL A   1      47.199  28.870  28.641  1.00  0.00     0.049 A 
ATOM     53  H   UNL A   1      45.155  29.132  28.945  1.00  0.00     0.167 HD
ATOM     54  C   UNL A   1      40.821  29.709  29.229  1.00  0.00     0.037 A 
ATOM     55  C   UNL A   1      47.804  30.025  28.995  1.00  0.00     0.037 A 
ATOM     56  C   UNL A   1      41.387  30.932  29.729  1.00  0.00     0.049 A 
ATOM     57  C   UNL A   1      46.965  31.198  29.452  1.00  0.00     0.074 A 
ATOM     58  C   UNL A   1      40.734  32.020  30.277  1.00  0.00     0.029 A 
ATOM     59  N   UNL A   1      42.740  31.231  29.730  1.00  0.00    -0.354 N 
ATOM     60  N   UNL A   1      45.664  31.279  29.599  1.00  0.00    -0.248 NA
ATOM     61  C   UNL A   1      47.677  32.443  29.781  1.00  0.00     0.031 C 
ATOM     62  C   UNL A   1      41.685  33.007  30.546  1.00  0.00     0.029 A 
ATOM     63  C   UNL A   1      42.937  32.507  30.228  1.00  0.00     0.049 A 
ATOM     64  H   UNL A   1      43.454  30.627  29.422  1.00  0.00     0.167 HD
ATOM     65  C   UNL A   1      45.409  32.566  30.063  1.00  0.00     0.074 A 
ATOM     66  C   UNL A   1      46.688  33.227  30.187  1.00  0.00     0.031 C 
ATOM     67  C   UNL A   1      44.220  33.149  30.358  1.00  0.00     0.037 A 
BRANCH  54  68
ATOM     68  C   UNL A   1      39.327  29.584  29.195  1.00  0.00     0.064 A 
ATOM     69  C   UNL A   1      38.568  29.415  30.362  1.00  0.00     0.173 A 
ATOM     70  C   UNL A   1      38.644  29.677  27.973  1.00  0.00     0.173 A 
ATOM     71  F   UNL A   1      39.176  29.301  31.552  1.00  0.00    -0.203 F 
ATOM     72  C   UNL A   1      37.180  29.323  30.304  1.00  0.00     0.198 A 
ATOM     73  C   UNL A   1      37.255  29.619  27.923  1.00  0.00     0.198 A 
ATOM     74  F   UNL A   1      39.324  29.839  26.827  1.00  0.00    -0.203 F 
ATOM     75  F   UNL A   1      36.477  29.118  31.425  1.00  0.00    -0.200 F 
ATOM     76  C   UNL A   1      36.524  29.436  29.086  1.00  0.00     0.200 A 
ATOM     77  F   UNL A   1      36.623  29.740  26.746  1.00  0.00    -0.200 F 
ATOM     78  F   UNL A   1      35.187  29.361  29.034  1.00  0.00    -0.200 F 
ENDBRANCH  54  68
BRANCH  55  79
ATOM     79  C   UNL A   1      49.285  30.167  28.885  1.00  0.00     0.064 A 
ATOM     80  C   UNL A   1      50.137  29.761  29.924  1.00  0.00     0.173 A 
ATOM     81  C   UNL A   1      49.875  30.768  27.763  1.00  0.00     0.173 A 
ATOM     82  F   UNL A   1      49.623  29.212  31.034  1.00  0.00    -0.203 F 
ATOM     83  C   UNL A   1      51.513  29.972  29.853  1.00  0.00     0.198 A 
ATOM     84  C   UNL A   1      51.256  30.948  27.680  1.00  0.00     0.198 A 
ATOM     85  F   UNL A   1      49.111  31.186  26.744  1.00  0.00    -0.203 F 
ATOM     86  F   UNL A   1      52.295  29.629  30.886  1.00  0.00    -0.200 F 
ATOM     87  C   UNL A   1      52.072  30.560  28.730  1.00  0.00     0.200 A 
ATOM     88  F   UNL A   1      51.791  31.507  26.585  1.00  0.00    -0.200 F 
ATOM     89  F   UNL A   1      53.395  30.764  28.663  1.00  0.00    -0.200 F 
ENDBRANCH  55  79
BRANCH  67  90
ATOM     90  C   UNL A   1      44.237  34.558  30.878  1.00  0.00     0.064 A 
ATOM     91  C   UNL A   1      44.107  35.661  30.020  1.00  0.00     0.173 A 
ATOM     92  C   UNL A   1      44.302  34.804  32.258  1.00  0.00     0.173 A 
ATOM     93  F   UNL A   1      44.052  35.481  28.692  1.00  0.00    -0.203 F 
ATOM     94  C   UNL A   1      44.058  36.958  30.526  1.00  0.00     0.198 A 
ATOM     95  C   UNL A   1      44.220  36.100  32.761  1.00  0.00     0.198 A 
ATOM     96  F   UNL A   1      44.416  33.785  33.122  1.00  0.00    -0.203 F 
ATOM     97  F   UNL A   1      43.970  37.999  29.686  1.00  0.00    -0.200 F 
ATOM     98  C   UNL A   1      44.103  37.176  31.895  1.00  0.00     0.200 A 
ATOM     99  F   UNL A   1      44.243  36.307  34.085  1.00  0.00    -0.200 F 
ATOM    100  F   UNL A   1      44.035  38.423  32.379  1.00  0.00    -0.200 F 
ENDBRANCH  67  90
ENDBRANCH  41  42
ENDBRANCH  34  36
ENDBRANCH  33  34
ENDBRANCH  32  33
ENDBRANCH  31  32
ENDBRANCH  30  31
ENDBRANCH  29  30
ENDBRANCH   1  29
TORSDOF 22
ENDMDL
