MODEL 1
REMARK VINA RESULT:     -10.8      0.000      0.000
REMARK SMILES Cc1cccc(OC2(C(=O)OCCOCCOCCOCCOC(=O)c3ccc(-c4c5nc(c(-c6c(F)c(F)c(F)c(F)c6F)c6ccc([nH]6)c(-c6c(F)c(F)c(F)c(F)c6F)c6nc(c(-c7c(F)c(F)c(F)c(F)c7F)c7ccc4[nH]7)C=C6)C=C5)cc3)CCN(C(=O)c3cnc[nH]c3=O)CC2)c1
REMARK SMILES IDX 17 1 16 2 15 3 14 4 13 5 12 6 11 7 9 8 10 9 8 10 89 11
REMARK SMILES IDX 102 12 90 13 101 14 91 15 92 16 93 17 7 18 6 19 1 20 2 21
REMARK SMILES IDX 3 22 103 23 4 24 5 25 94 26 95 27 99 28 96 29 98 30 100 31
REMARK SMILES IDX 97 32 18 34 19 35 20 36 21 37 22 38 23 39 24 40 25 41 26 42
REMARK SMILES IDX 27 43 88 44 28 45 87 46 29 47 30 48 31 49 81 50 32 51 86 52
REMARK SMILES IDX 80 53 82 54 33 55 85 56 79 57 78 58 34 60 66 61 46 62 65 63
REMARK SMILES IDX 47 64 50 65 64 66 83 67 48 68 49 69 63 71 84 72 51 73 35 74
REMARK SMILES IDX 36 75 44 76 37 77 38 78 42 79 45 80 39 81 40 82 43 83 41 84
REMARK SMILES IDX 67 85 68 86 76 87 69 88 70 89 74 90 77 91 71 92 72 93 75 94
REMARK SMILES IDX 73 95 52 96 53 97 61 98 54 99 55 100 59 101 62 102 56 103
REMARK SMILES IDX 57 104 60 105 58 106
REMARK H PARENT 98 33 82 59 50 70
REMARK Flexibility Score: inf
ROOT
ATOM      1  O   UNL A   1      37.801  29.205  28.792  1.00  0.00    -0.377 OA
ENDROOT
BRANCH   1   2
ATOM      2  C   UNL A   1      39.152  28.855  28.574  1.00  0.00     0.188 C 
BRANCH   2   3
ATOM      3  C   UNL A   1      39.747  27.614  29.378  1.00  0.00     0.188 C 
BRANCH   3   4
ATOM      4  O   UNL A   1      39.348  26.175  29.109  1.00  0.00    -0.376 OA
BRANCH   4   5
ATOM      5  C   UNL A   1      39.601  25.226  27.852  1.00  0.00     0.202 C 
BRANCH   5   6
ATOM      6  C   UNL A   1      38.691  24.157  26.643  1.00  0.00     0.261 C 
BRANCH   6   7
ATOM      7  O   UNL A   1      36.946  23.982  26.059  1.00  0.00    -0.460 OA
BRANCH   7   8
ATOM      8  C   UNL A   1      35.506  23.461  26.095  1.00  0.00     0.350 C 
ATOM      9  O   UNL A   1      35.316  22.510  26.875  1.00  0.00    -0.247 OA
BRANCH   8  10
ATOM     10  C   UNL A   1      34.049  23.935  25.093  1.00  0.00     0.209 C 
ATOM     11  C   UNL A   1      32.525  23.702  25.502  1.00  0.00     0.082 C 
ATOM     12  C   UNL A   1      34.214  25.452  24.601  1.00  0.00     0.082 C 
ATOM     13  C   UNL A   1      31.415  24.472  24.800  1.00  0.00     0.124 C 
ATOM     14  C   UNL A   1      32.975  26.103  23.922  1.00  0.00     0.124 C 
ATOM     15  N   UNL A   1      31.759  25.863  24.678  1.00  0.00    -0.338 N 
ATOM     16  C   UNL A   1      30.911  26.802  25.238  1.00  0.00     0.261 C 
ATOM     17  O   UNL A   1      30.391  26.672  26.345  1.00  0.00    -0.269 OA
BRANCH  10  18
ATOM     18  O   UNL A   1      34.201  23.267  23.759  1.00  0.00    -0.475 OA
BRANCH  18  19
ATOM     19  C   UNL A   1      33.537  22.093  23.545  1.00  0.00     0.121 A 
ATOM     20  C   UNL A   1      33.441  18.591  25.003  1.00  0.00     0.044 C 
ATOM     21  C   UNL A   1      33.073  19.774  24.156  1.00  0.00    -0.047 A 
ATOM     22  C   UNL A   1      32.151  19.700  23.117  1.00  0.00     0.003 A 
ATOM     23  C   UNL A   1      33.655  21.012  24.423  1.00  0.00     0.050 A 
ATOM     24  C   UNL A   1      31.895  20.827  22.328  1.00  0.00     0.004 A 
ATOM     25  C   UNL A   1      32.609  22.014  22.522  1.00  0.00     0.046 A 
ENDBRANCH  18  19
ENDBRANCH  10  18
BRANCH  16  26
ATOM     26  C   UNL A   1      30.454  27.901  24.366  1.00  0.00     0.123 A 
ATOM     27  C   UNL A   1      29.777  27.641  23.237  1.00  0.00     0.132 A 
ATOM     28  C   UNL A   1      30.969  29.274  24.528  1.00  0.00     0.263 A 
ATOM     29  N   UNL A   1      29.433  28.572  22.283  1.00  0.00    -0.246 NA
ATOM     30  N   UNL A   1      30.642  30.145  23.528  1.00  0.00    -0.312 N 
ATOM     31  O   UNL A   1      31.670  29.627  25.475  1.00  0.00    -0.269 OA
ATOM     32  C   UNL A   1      29.887  29.766  22.457  1.00  0.00     0.199 A 
ATOM     33  H   UNL A   1      30.960  31.076  23.581  1.00  0.00     0.171 HD
ENDBRANCH  16  26
ENDBRANCH   8  10
ENDBRANCH   7   8
ENDBRANCH   6   7
ENDBRANCH   5   6
ENDBRANCH   4   5
ENDBRANCH   3   4
ENDBRANCH   2   3
ENDBRANCH   1   2
BRANCH   1  34
ATOM     34  C   UNL A   1      37.227  30.043  27.804  1.00  0.00     0.188 C 
BRANCH  34  35
ATOM     35  C   UNL A   1      35.797  29.714  27.337  1.00  0.00     0.188 C 
BRANCH  35  36
ATOM     36  O   UNL A   1      34.760  30.392  28.052  1.00  0.00    -0.376 OA
BRANCH  36  37
ATOM     37  C   UNL A   1      34.575  31.751  27.618  1.00  0.00     0.202 C 
BRANCH  37  38
ATOM     38  C   UNL A   1      33.638  32.566  28.529  1.00  0.00     0.261 C 
BRANCH  38  39
ATOM     39  O   UNL A   1      34.046  32.471  29.906  1.00  0.00    -0.460 OA
BRANCH  39  40
ATOM     40  C   UNL A   1      34.855  33.476  30.323  1.00  0.00     0.338 C 
ATOM     41  O   UNL A   1      34.544  34.654  30.391  1.00  0.00    -0.246 OA
BRANCH  40  42
ATOM     42  C   UNL A   1      36.245  32.951  30.431  1.00  0.00     0.060 A 
ATOM     43  C   UNL A   1      36.455  31.712  31.012  1.00  0.00     0.016 A 
ATOM     44  C   UNL A   1      37.343  33.797  30.231  1.00  0.00     0.016 A 
ATOM     45  C   UNL A   1      37.720  31.429  31.539  1.00  0.00     0.010 A 
ATOM     46  C   UNL A   1      38.528  33.595  30.942  1.00  0.00     0.010 A 
ATOM     47  C   UNL A   1      38.704  32.442  31.708  1.00  0.00    -0.014 A 
BRANCH  47  48
ATOM     48  C   UNL A   1      40.033  32.293  32.543  1.00  0.00     0.031 A 
ATOM     49  C   UNL A   1      39.313  33.170  33.927  1.00  0.00     0.074 A 
ATOM     50  C   UNL A   1      41.572  31.899  32.190  1.00  0.00     0.049 A 
ATOM     51  N   UNL A   1      39.825  34.237  34.497  1.00  0.00    -0.248 NA
ATOM     52  C   UNL A   1      37.933  33.036  34.457  1.00  0.00     0.031 C 
ATOM     53  C   UNL A   1      43.011  31.848  33.072  1.00  0.00     0.029 A 
ATOM     54  N   UNL A   1      42.435  31.776  30.983  1.00  0.00    -0.354 N 
ATOM     55  C   UNL A   1      39.247  34.447  35.701  1.00  0.00     0.074 A 
ATOM     56  C   UNL A   1      37.928  33.900  35.493  1.00  0.00     0.031 C 
ATOM     57  C   UNL A   1      44.158  31.694  32.424  1.00  0.00     0.029 A 
ATOM     58  C   UNL A   1      43.828  32.086  31.131  1.00  0.00     0.049 A 
ATOM     59  H   UNL A   1      42.063  31.493  30.117  1.00  0.00     0.167 HD
ATOM     60  C   UNL A   1      39.994  34.842  36.786  1.00  0.00     0.037 A 
ATOM     61  C   UNL A   1      44.553  33.097  30.553  1.00  0.00     0.037 A 
ATOM     62  C   UNL A   1      41.479  34.782  36.564  1.00  0.00     0.049 A 
ATOM     63  C   UNL A   1      45.066  34.132  31.617  1.00  0.00     0.074 A 
ATOM     64  C   UNL A   1      42.409  33.831  36.976  1.00  0.00     0.029 A 
ATOM     65  N   UNL A   1      42.193  35.587  35.649  1.00  0.00    -0.354 N 
ATOM     66  N   UNL A   1      44.528  34.293  32.808  1.00  0.00    -0.248 NA
ATOM     67  C   UNL A   1      46.225  35.003  31.479  1.00  0.00     0.031 C 
ATOM     68  C   UNL A   1      43.632  34.010  36.272  1.00  0.00     0.029 A 
ATOM     69  C   UNL A   1      43.515  35.114  35.441  1.00  0.00     0.049 A 
ATOM     70  H   UNL A   1      41.819  36.382  35.207  1.00  0.00     0.167 HD
ATOM     71  C   UNL A   1      45.090  35.329  33.516  1.00  0.00     0.074 A 
ATOM     72  C   UNL A   1      46.230  35.656  32.664  1.00  0.00     0.031 C 
ATOM     73  C   UNL A   1      44.575  35.853  34.700  1.00  0.00     0.037 A 
BRANCH  60  74
ATOM     74  C   UNL A   1      39.319  34.795  38.157  1.00  0.00     0.064 A 
ATOM     75  C   UNL A   1      39.123  35.932  38.967  1.00  0.00     0.173 A 
ATOM     76  C   UNL A   1      38.915  33.580  38.753  1.00  0.00     0.173 A 
ATOM     77  F   UNL A   1      39.263  37.172  38.486  1.00  0.00    -0.203 F 
ATOM     78  C   UNL A   1      38.754  35.837  40.316  1.00  0.00     0.198 A 
ATOM     79  C   UNL A   1      38.591  33.477  40.111  1.00  0.00     0.198 A 
ATOM     80  F   UNL A   1      38.826  32.458  38.020  1.00  0.00    -0.203 F 
ATOM     81  F   UNL A   1      38.620  36.952  41.050  1.00  0.00    -0.200 F 
ATOM     82  C   UNL A   1      38.540  34.606  40.901  1.00  0.00     0.200 A 
ATOM     83  F   UNL A   1      38.345  32.275  40.651  1.00  0.00    -0.200 F 
ATOM     84  F   UNL A   1      38.254  34.513  42.208  1.00  0.00    -0.200 F 
ENDBRANCH  60  74
BRANCH  61  85
ATOM     85  C   UNL A   1      44.259  33.305  29.109  1.00  0.00     0.064 A 
ATOM     86  C   UNL A   1      43.340  34.331  28.780  1.00  0.00     0.173 A 
ATOM     87  C   UNL A   1      45.028  32.794  28.061  1.00  0.00     0.173 A 
ATOM     88  F   UNL A   1      42.506  34.804  29.719  1.00  0.00    -0.203 F 
ATOM     89  C   UNL A   1      43.322  34.933  27.524  1.00  0.00     0.198 A 
ATOM     90  C   UNL A   1      45.024  33.415  26.804  1.00  0.00     0.198 A 
ATOM     91  F   UNL A   1      45.871  31.774  28.274  1.00  0.00    -0.203 F 
ATOM     92  F   UNL A   1      42.495  35.960  27.283  1.00  0.00    -0.200 F 
ATOM     93  C   UNL A   1      44.202  34.506  26.550  1.00  0.00     0.200 A 
ATOM     94  F   UNL A   1      45.872  32.996  25.852  1.00  0.00    -0.200 F 
ATOM     95  F   UNL A   1      44.268  35.146  25.373  1.00  0.00    -0.200 F 
ENDBRANCH  61  85
BRANCH  73  96
ATOM     96  C   UNL A   1      45.133  37.087  35.420  1.00  0.00     0.064 A 
ATOM     97  C   UNL A   1      44.554  38.364  35.375  1.00  0.00     0.173 A 
ATOM     98  C   UNL A   1      46.255  36.981  36.292  1.00  0.00     0.173 A 
ATOM     99  F   UNL A   1      43.411  38.589  34.714  1.00  0.00    -0.203 F 
ATOM    100  C   UNL A   1      45.091  39.456  36.070  1.00  0.00     0.198 A 
ATOM    101  C   UNL A   1      46.742  38.053  37.041  1.00  0.00     0.198 A 
ATOM    102  F   UNL A   1      46.914  35.830  36.471  1.00  0.00    -0.203 F 
ATOM    103  F   UNL A   1      44.527  40.665  35.936  1.00  0.00    -0.200 F 
ATOM    104  C   UNL A   1      46.174  39.299  36.911  1.00  0.00     0.200 A 
ATOM    105  F   UNL A   1      47.758  37.863  37.895  1.00  0.00    -0.200 F 
ATOM    106  F   UNL A   1      46.649  40.336  37.614  1.00  0.00    -0.200 F 
ENDBRANCH  73  96
ENDBRANCH  47  48
ENDBRANCH  40  42
ENDBRANCH  39  40
ENDBRANCH  38  39
ENDBRANCH  37  38
ENDBRANCH  36  37
ENDBRANCH  35  36
ENDBRANCH  34  35
ENDBRANCH   1  34
TORSDOF 23
ENDMDL
MODEL 2
REMARK VINA RESULT:     -10.7      2.712      3.783
REMARK SMILES Cc1cccc(OC2(C(=O)OCCOCCOCCOCCOC(=O)c3ccc(-c4c5nc(c(-c6c(F)c(F)c(F)c(F)c6F)c6ccc([nH]6)c(-c6c(F)c(F)c(F)c(F)c6F)c6nc(c(-c7c(F)c(F)c(F)c(F)c7F)c7ccc4[nH]7)C=C6)C=C5)cc3)CCN(C(=O)c3cnc[nH]c3=O)CC2)c1
REMARK SMILES IDX 17 1 16 2 15 3 14 4 13 5 12 6 11 7 9 8 10 9 8 10 89 11
REMARK SMILES IDX 102 12 90 13 101 14 91 15 92 16 93 17 7 18 6 19 1 20 2 21
REMARK SMILES IDX 3 22 103 23 4 24 5 25 94 26 95 27 99 28 96 29 98 30 100 31
REMARK SMILES IDX 97 32 18 34 19 35 20 36 21 37 22 38 23 39 24 40 25 41 26 42
REMARK SMILES IDX 27 43 88 44 28 45 87 46 29 47 30 48 31 49 81 50 32 51 86 52
REMARK SMILES IDX 80 53 82 54 33 55 85 56 79 57 78 58 34 60 66 61 46 62 65 63
REMARK SMILES IDX 47 64 50 65 64 66 83 67 48 68 49 69 63 71 84 72 51 73 35 74
REMARK SMILES IDX 36 75 44 76 37 77 38 78 42 79 45 80 39 81 40 82 43 83 41 84
REMARK SMILES IDX 67 85 68 86 76 87 69 88 70 89 74 90 77 91 71 92 72 93 75 94
REMARK SMILES IDX 73 95 52 96 53 97 61 98 54 99 55 100 59 101 62 102 56 103
REMARK SMILES IDX 57 104 60 105 58 106
REMARK H PARENT 98 33 82 59 50 70
REMARK Flexibility Score: inf
ROOT
ATOM      1  O   UNL A   1      37.155  29.689  27.994  1.00  0.00    -0.377 OA
ENDROOT
BRANCH   1   2
ATOM      2  C   UNL A   1      37.977  28.981  28.899  1.00  0.00     0.188 C 
BRANCH   2   3
ATOM      3  C   UNL A   1      39.101  28.022  28.300  1.00  0.00     0.188 C 
BRANCH   3   4
ATOM      4  O   UNL A   1      39.073  26.511  28.443  1.00  0.00    -0.376 OA
BRANCH   4   5
ATOM      5  C   UNL A   1      39.343  25.345  27.389  1.00  0.00     0.202 C 
BRANCH   5   6
ATOM      6  C   UNL A   1      38.444  24.158  26.287  1.00  0.00     0.261 C 
BRANCH   6   7
ATOM      7  O   UNL A   1      36.819  23.279  26.309  1.00  0.00    -0.460 OA
BRANCH   7   8
ATOM      8  C   UNL A   1      35.299  23.153  26.457  1.00  0.00     0.350 C 
ATOM      9  O   UNL A   1      34.925  22.524  27.464  1.00  0.00    -0.247 OA
BRANCH   8  10
ATOM     10  C   UNL A   1      33.951  23.680  25.336  1.00  0.00     0.209 C 
ATOM     11  C   UNL A   1      32.393  23.465  25.592  1.00  0.00     0.082 C 
ATOM     12  C   UNL A   1      34.187  25.205  24.902  1.00  0.00     0.082 C 
ATOM     13  C   UNL A   1      31.367  24.273  24.809  1.00  0.00     0.124 C 
ATOM     14  C   UNL A   1      33.028  25.896  24.126  1.00  0.00     0.124 C 
ATOM     15  N   UNL A   1      31.743  25.660  24.758  1.00  0.00    -0.338 N 
ATOM     16  C   UNL A   1      30.861  26.600  25.259  1.00  0.00     0.261 C 
ATOM     17  O   UNL A   1      30.235  26.452  26.309  1.00  0.00    -0.269 OA
BRANCH  10  18
ATOM     18  O   UNL A   1      34.219  23.042  24.004  1.00  0.00    -0.475 OA
BRANCH  18  19
ATOM     19  C   UNL A   1      33.556  21.889  23.695  1.00  0.00     0.121 A 
ATOM     20  C   UNL A   1      33.402  18.301  24.918  1.00  0.00     0.044 C 
ATOM     21  C   UNL A   1      33.063  19.539  24.139  1.00  0.00    -0.047 A 
ATOM     22  C   UNL A   1      32.171  19.538  23.073  1.00  0.00     0.003 A 
ATOM     23  C   UNL A   1      33.644  20.753  24.503  1.00  0.00     0.050 A 
ATOM     24  C   UNL A   1      31.943  20.717  22.352  1.00  0.00     0.004 A 
ATOM     25  C   UNL A   1      32.656  21.884  22.644  1.00  0.00     0.046 A 
ENDBRANCH  18  19
ENDBRANCH  10  18
BRANCH  16  26
ATOM     26  C   UNL A   1      30.507  27.728  24.378  1.00  0.00     0.123 A 
ATOM     27  C   UNL A   1      29.868  27.514  23.218  1.00  0.00     0.132 A 
ATOM     28  C   UNL A   1      31.090  29.070  24.576  1.00  0.00     0.263 A 
ATOM     29  N   UNL A   1      29.620  28.470  22.257  1.00  0.00    -0.246 NA
ATOM     30  N   UNL A   1      30.858  29.964  23.569  1.00  0.00    -0.312 N 
ATOM     31  O   UNL A   1      31.767  29.376  25.556  1.00  0.00    -0.269 OA
ATOM     32  C   UNL A   1      30.132  29.635  22.463  1.00  0.00     0.199 A 
ATOM     33  H   UNL A   1      31.225  30.874  23.645  1.00  0.00     0.171 HD
ENDBRANCH  16  26
ENDBRANCH   8  10
ENDBRANCH   7   8
ENDBRANCH   6   7
ENDBRANCH   5   6
ENDBRANCH   4   5
ENDBRANCH   3   4
ENDBRANCH   2   3
ENDBRANCH   1   2
BRANCH   1  34
ATOM     34  C   UNL A   1      35.777  29.362  28.048  1.00  0.00     0.188 C 
BRANCH  34  35
ATOM     35  C   UNL A   1      34.785  30.361  27.422  1.00  0.00     0.188 C 
BRANCH  35  36
ATOM     36  O   UNL A   1      34.153  31.244  28.354  1.00  0.00    -0.376 OA
BRANCH  36  37
ATOM     37  C   UNL A   1      34.197  32.621  27.943  1.00  0.00     0.202 C 
BRANCH  37  38
ATOM     38  C   UNL A   1      34.169  33.616  29.118  1.00  0.00     0.261 C 
BRANCH  38  39
ATOM     39  O   UNL A   1      34.225  32.926  30.380  1.00  0.00    -0.460 OA
BRANCH  39  40
ATOM     40  C   UNL A   1      35.218  33.343  31.205  1.00  0.00     0.338 C 
ATOM     41  O   UNL A   1      35.362  34.480  31.620  1.00  0.00    -0.246 OA
BRANCH  40  42
ATOM     42  C   UNL A   1      36.235  32.259  31.305  1.00  0.00     0.060 A 
ATOM     43  C   UNL A   1      36.008  31.196  32.162  1.00  0.00     0.016 A 
ATOM     44  C   UNL A   1      37.523  32.441  30.784  1.00  0.00     0.016 A 
ATOM     45  C   UNL A   1      37.107  30.457  32.614  1.00  0.00     0.010 A 
ATOM     46  C   UNL A   1      38.624  31.843  31.401  1.00  0.00     0.010 A 
ATOM     47  C   UNL A   1      38.442  30.906  32.417  1.00  0.00    -0.014 A 
BRANCH  47  48
ATOM     48  C   UNL A   1      39.718  30.309  33.124  1.00  0.00     0.031 A 
ATOM     49  C   UNL A   1      39.887  31.769  34.146  1.00  0.00     0.074 A 
ATOM     50  C   UNL A   1      40.742  29.085  32.804  1.00  0.00     0.049 A 
ATOM     51  N   UNL A   1      40.966  32.513  34.234  1.00  0.00    -0.248 NA
ATOM     52  C   UNL A   1      38.800  32.532  34.810  1.00  0.00     0.031 C 
ATOM     53  C   UNL A   1      42.169  28.523  33.508  1.00  0.00     0.029 A 
ATOM     54  N   UNL A   1      41.091  28.205  31.655  1.00  0.00    -0.354 N 
ATOM     55  C   UNL A   1      40.897  33.311  35.322  1.00  0.00     0.074 A 
ATOM     56  C   UNL A   1      39.473  33.510  35.451  1.00  0.00     0.031 C 
ATOM     57  C   UNL A   1      42.894  27.619  32.862  1.00  0.00     0.029 A 
ATOM     58  C   UNL A   1      42.451  27.761  31.551  1.00  0.00     0.049 A 
ATOM     59  H   UNL A   1      40.415  27.940  30.991  1.00  0.00     0.167 HD
ATOM     60  C   UNL A   1      42.000  33.527  36.113  1.00  0.00     0.037 A 
ATOM     61  C   UNL A   1      43.378  28.037  30.578  1.00  0.00     0.037 A 
ATOM     62  C   UNL A   1      43.169  32.636  35.796  1.00  0.00     0.049 A 
ATOM     63  C   UNL A   1      44.575  28.887  31.135  1.00  0.00     0.074 A 
ATOM     64  C   UNL A   1      43.623  31.490  36.443  1.00  0.00     0.029 A 
ATOM     65  N   UNL A   1      43.900  32.661  34.588  1.00  0.00    -0.354 N 
ATOM     66  N   UNL A   1      44.514  29.621  32.226  1.00  0.00    -0.248 NA
ATOM     67  C   UNL A   1      45.922  28.941  30.581  1.00  0.00     0.031 C 
ATOM     68  C   UNL A   1      44.551  30.800  35.616  1.00  0.00     0.029 A 
ATOM     69  C   UNL A   1      44.742  31.527  34.451  1.00  0.00     0.049 A 
ATOM     70  H   UNL A   1      43.835  33.380  33.920  1.00  0.00     0.167 HD
ATOM     71  C   UNL A   1      45.658  30.351  32.448  1.00  0.00     0.074 A 
ATOM     72  C   UNL A   1      46.545  29.783  31.436  1.00  0.00     0.031 C 
ATOM     73  C   UNL A   1      45.783  31.363  33.396  1.00  0.00     0.037 A 
BRANCH  60  74
ATOM     74  C   UNL A   1      41.775  34.215  37.460  1.00  0.00     0.064 A 
ATOM     75  C   UNL A   1      41.658  33.517  38.680  1.00  0.00     0.173 A 
ATOM     76  C   UNL A   1      41.581  35.609  37.567  1.00  0.00     0.173 A 
ATOM     77  F   UNL A   1      42.006  32.231  38.792  1.00  0.00    -0.203 F 
ATOM     78  C   UNL A   1      41.189  34.128  39.851  1.00  0.00     0.198 A 
ATOM     79  C   UNL A   1      41.069  36.214  38.722  1.00  0.00     0.198 A 
ATOM     80  F   UNL A   1      41.888  36.421  36.542  1.00  0.00    -0.203 F 
ATOM     81  F   UNL A   1      41.061  33.406  40.974  1.00  0.00    -0.200 F 
ATOM     82  C   UNL A   1      40.844  35.464  39.857  1.00  0.00     0.200 A 
ATOM     83  F   UNL A   1      40.779  37.523  38.719  1.00  0.00    -0.200 F 
ATOM     84  F   UNL A   1      40.331  36.031  40.959  1.00  0.00    -0.200 F 
ENDBRANCH  60  74
BRANCH  61  85
ATOM     85  C   UNL A   1      42.841  27.970  29.192  1.00  0.00     0.064 A 
ATOM     86  C   UNL A   1      42.841  29.171  28.443  1.00  0.00     0.173 A 
ATOM     87  C   UNL A   1      42.628  26.788  28.479  1.00  0.00     0.173 A 
ATOM     88  F   UNL A   1      42.948  30.351  29.074  1.00  0.00    -0.203 F 
ATOM     89  C   UNL A   1      42.815  29.175  27.050  1.00  0.00     0.198 A 
ATOM     90  C   UNL A   1      42.624  26.791  27.077  1.00  0.00     0.198 A 
ATOM     91  F   UNL A   1      42.544  25.615  29.122  1.00  0.00    -0.203 F 
ATOM     92  F   UNL A   1      42.905  30.332  26.378  1.00  0.00    -0.200 F 
ATOM     93  C   UNL A   1      42.756  27.977  26.366  1.00  0.00     0.200 A 
ATOM     94  F   UNL A   1      42.558  25.629  26.410  1.00  0.00    -0.200 F 
ATOM     95  F   UNL A   1      42.838  27.960  25.027  1.00  0.00    -0.200 F 
ENDBRANCH  61  85
BRANCH  73  96
ATOM     96  C   UNL A   1      47.018  32.258  33.558  1.00  0.00     0.064 A 
ATOM     97  C   UNL A   1      47.102  33.586  33.115  1.00  0.00     0.173 A 
ATOM     98  C   UNL A   1      48.158  31.808  34.285  1.00  0.00     0.173 A 
ATOM     99  F   UNL A   1      46.058  34.198  32.541  1.00  0.00    -0.203 F 
ATOM    100  C   UNL A   1      48.248  34.369  33.305  1.00  0.00     0.198 A 
ATOM    101  C   UNL A   1      49.268  32.615  34.538  1.00  0.00     0.198 A 
ATOM    102  F   UNL A   1      48.236  30.574  34.798  1.00  0.00    -0.203 F 
ATOM    103  F   UNL A   1      48.289  35.611  32.803  1.00  0.00    -0.200 F 
ATOM    104  C   UNL A   1      49.323  33.891  34.027  1.00  0.00     0.200 A 
ATOM    105  F   UNL A   1      50.273  32.148  35.291  1.00  0.00    -0.200 F 
ATOM    106  F   UNL A   1      50.393  34.664  34.252  1.00  0.00    -0.200 F 
ENDBRANCH  73  96
ENDBRANCH  47  48
ENDBRANCH  40  42
ENDBRANCH  39  40
ENDBRANCH  38  39
ENDBRANCH  37  38
ENDBRANCH  36  37
ENDBRANCH  35  36
ENDBRANCH  34  35
ENDBRANCH   1  34
TORSDOF 23
ENDMDL
MODEL 3
REMARK VINA RESULT:     -10.5      5.776     10.981
REMARK SMILES Cc1cccc(OC2(C(=O)OCCOCCOCCOCCOC(=O)c3ccc(-c4c5nc(c(-c6c(F)c(F)c(F)c(F)c6F)c6ccc([nH]6)c(-c6c(F)c(F)c(F)c(F)c6F)c6nc(c(-c7c(F)c(F)c(F)c(F)c7F)c7ccc4[nH]7)C=C6)C=C5)cc3)CCN(C(=O)c3cnc[nH]c3=O)CC2)c1
REMARK SMILES IDX 17 1 16 2 15 3 14 4 13 5 12 6 11 7 9 8 10 9 8 10 89 11
REMARK SMILES IDX 102 12 90 13 101 14 91 15 92 16 93 17 7 18 6 19 1 20 2 21
REMARK SMILES IDX 3 22 103 23 4 24 5 25 94 26 95 27 99 28 96 29 98 30 100 31
REMARK SMILES IDX 97 32 18 34 19 35 20 36 21 37 22 38 23 39 24 40 25 41 26 42
REMARK SMILES IDX 27 43 88 44 28 45 87 46 29 47 30 48 31 49 81 50 32 51 86 52
REMARK SMILES IDX 80 53 82 54 33 55 85 56 79 57 78 58 34 60 66 61 46 62 65 63
REMARK SMILES IDX 47 64 50 65 64 66 83 67 48 68 49 69 63 71 84 72 51 73 35 74
REMARK SMILES IDX 36 75 44 76 37 77 38 78 42 79 45 80 39 81 40 82 43 83 41 84
REMARK SMILES IDX 67 85 68 86 76 87 69 88 70 89 74 90 77 91 71 92 72 93 75 94
REMARK SMILES IDX 73 95 52 96 53 97 61 98 54 99 55 100 59 101 62 102 56 103
REMARK SMILES IDX 57 104 60 105 58 106
REMARK H PARENT 98 33 82 59 50 70
REMARK Flexibility Score: inf
ROOT
ATOM      1  O   UNL A   1      37.097  31.837  29.677  1.00  0.00    -0.377 OA
ENDROOT
BRANCH   1   2
ATOM      2  C   UNL A   1      36.813  30.456  29.591  1.00  0.00     0.188 C 
BRANCH   2   3
ATOM      3  C   UNL A   1      36.241  29.891  28.214  1.00  0.00     0.188 C 
BRANCH   3   4
ATOM      4  O   UNL A   1      34.832  30.161  27.721  1.00  0.00    -0.376 OA
BRANCH   4   5
ATOM      5  C   UNL A   1      33.743  29.204  27.057  1.00  0.00     0.202 C 
BRANCH   5   6
ATOM      6  C   UNL A   1      31.967  28.701  27.224  1.00  0.00     0.261 C 
BRANCH   6   7
ATOM      7  O   UNL A   1      30.973  27.175  26.913  1.00  0.00    -0.460 OA
BRANCH   7   8
ATOM      8  C   UNL A   1      30.683  25.793  26.319  1.00  0.00     0.350 C 
ATOM      9  O   UNL A   1      29.601  25.290  26.676  1.00  0.00    -0.247 OA
BRANCH   8  10
ATOM     10  C   UNL A   1      31.719  24.714  25.264  1.00  0.00     0.209 C 
ATOM     11  C   UNL A   1      33.295  24.517  25.401  1.00  0.00     0.082 C 
ATOM     12  C   UNL A   1      31.037  23.267  25.151  1.00  0.00     0.082 C 
ATOM     13  C   UNL A   1      33.980  23.325  24.746  1.00  0.00     0.124 C 
ATOM     14  C   UNL A   1      31.882  22.149  24.475  1.00  0.00     0.124 C 
ATOM     15  N   UNL A   1      33.239  22.117  24.988  1.00  0.00    -0.338 N 
ATOM     16  C   UNL A   1      33.879  21.069  25.625  1.00  0.00     0.261 C 
ATOM     17  O   UNL A   1      34.622  21.215  26.594  1.00  0.00    -0.269 OA
BRANCH  10  18
ATOM     18  O   UNL A   1      31.503  25.155  23.846  1.00  0.00    -0.475 OA
BRANCH  18  19
ATOM     19  C   UNL A   1      31.354  26.490  23.600  1.00  0.00     0.121 A 
ATOM     20  C   UNL A   1      28.566  28.911  22.729  1.00  0.00     0.044 C 
ATOM     21  C   UNL A   1      29.932  28.412  23.102  1.00  0.00    -0.047 A 
ATOM     22  C   UNL A   1      31.054  29.231  23.126  1.00  0.00     0.003 A 
ATOM     23  C   UNL A   1      30.093  27.075  23.464  1.00  0.00     0.050 A 
ATOM     24  C   UNL A   1      32.309  28.689  23.427  1.00  0.00     0.004 A 
ATOM     25  C   UNL A   1      32.464  27.315  23.635  1.00  0.00     0.046 A 
ENDBRANCH  18  19
ENDBRANCH  10  18
BRANCH  16  26
ATOM     26  C   UNL A   1      33.824  19.749  24.969  1.00  0.00     0.123 A 
ATOM     27  C   UNL A   1      32.662  19.087  24.861  1.00  0.00     0.132 A 
ATOM     28  C   UNL A   1      35.053  18.982  24.684  1.00  0.00     0.263 A 
ATOM     29  N   UNL A   1      32.521  17.796  24.404  1.00  0.00    -0.246 NA
ATOM     30  N   UNL A   1      34.858  17.690  24.283  1.00  0.00    -0.312 N 
ATOM     31  O   UNL A   1      36.185  19.442  24.819  1.00  0.00    -0.269 OA
ATOM     32  C   UNL A   1      33.611  17.154  24.151  1.00  0.00     0.199 A 
ATOM     33  H   UNL A   1      35.641  17.129  24.081  1.00  0.00     0.171 HD
ENDBRANCH  16  26
ENDBRANCH   8  10
ENDBRANCH   7   8
ENDBRANCH   6   7
ENDBRANCH   5   6
ENDBRANCH   4   5
ENDBRANCH   3   4
ENDBRANCH   2   3
ENDBRANCH   1   2
BRANCH   1  34
ATOM     34  C   UNL A   1      36.038  32.642  30.168  1.00  0.00     0.188 C 
BRANCH  34  35
ATOM     35  C   UNL A   1      36.289  33.431  31.466  1.00  0.00     0.188 C 
BRANCH  35  36
ATOM     36  O   UNL A   1      37.669  33.626  31.793  1.00  0.00    -0.376 OA
BRANCH  36  37
ATOM     37  C   UNL A   1      37.925  33.564  33.207  1.00  0.00     0.202 C 
BRANCH  37  38
ATOM     38  C   UNL A   1      38.667  32.287  33.642  1.00  0.00     0.261 C 
BRANCH  38  39
ATOM     39  O   UNL A   1      38.850  31.391  32.529  1.00  0.00    -0.460 OA
BRANCH  39  40
ATOM     40  C   UNL A   1      39.305  30.159  32.869  1.00  0.00     0.338 C 
ATOM     41  O   UNL A   1      38.702  29.344  33.546  1.00  0.00    -0.246 OA
BRANCH  40  42
ATOM     42  C   UNL A   1      40.747  30.071  32.505  1.00  0.00     0.060 A 
ATOM     43  C   UNL A   1      41.120  30.227  31.182  1.00  0.00     0.016 A 
ATOM     44  C   UNL A   1      41.679  29.549  33.412  1.00  0.00     0.016 A 
ATOM     45  C   UNL A   1      42.345  29.691  30.767  1.00  0.00     0.010 A 
ATOM     46  C   UNL A   1      42.788  28.836  32.952  1.00  0.00     0.010 A 
ATOM     47  C   UNL A   1      43.089  28.801  31.590  1.00  0.00    -0.014 A 
BRANCH  47  48
ATOM     48  C   UNL A   1      44.314  27.929  31.116  1.00  0.00     0.031 A 
ATOM     49  C   UNL A   1      45.287  29.396  30.791  1.00  0.00     0.074 A 
ATOM     50  C   UNL A   1      44.517  26.374  30.681  1.00  0.00     0.049 A 
ATOM     51  N   UNL A   1      45.864  29.685  29.647  1.00  0.00    -0.248 NA
ATOM     52  C   UNL A   1      45.362  30.627  31.618  1.00  0.00     0.031 C 
ATOM     53  C   UNL A   1      45.810  25.477  30.070  1.00  0.00     0.029 A 
ATOM     54  N   UNL A   1      43.670  25.214  30.291  1.00  0.00    -0.354 N 
ATOM     55  C   UNL A   1      46.789  30.655  29.822  1.00  0.00     0.074 A 
ATOM     56  C   UNL A   1      46.237  31.392  30.933  1.00  0.00     0.031 C 
ATOM     57  C   UNL A   1      45.584  24.258  29.601  1.00  0.00     0.029 A 
ATOM     58  C   UNL A   1      44.217  24.284  29.345  1.00  0.00     0.049 A 
ATOM     59  H   UNL A   1      42.769  25.091  30.667  1.00  0.00     0.167 HD
ATOM     60  C   UNL A   1      48.002  30.601  29.177  1.00  0.00     0.037 A 
ATOM     61  C   UNL A   1      43.788  23.990  28.075  1.00  0.00     0.037 A 
ATOM     62  C   UNL A   1      48.273  29.294  28.485  1.00  0.00     0.049 A 
ATOM     63  C   UNL A   1      44.833  24.428  26.988  1.00  0.00     0.074 A 
ATOM     64  C   UNL A   1      49.066  28.219  28.879  1.00  0.00     0.029 A 
ATOM     65  N   UNL A   1      47.547  28.799  27.380  1.00  0.00    -0.354 N 
ATOM     66  N   UNL A   1      45.764  25.337  27.185  1.00  0.00    -0.248 NA
ATOM     67  C   UNL A   1      44.973  23.862  25.653  1.00  0.00     0.031 C 
ATOM     68  C   UNL A   1      48.772  27.080  28.081  1.00  0.00     0.029 A 
ATOM     69  C   UNL A   1      47.826  27.431  27.129  1.00  0.00     0.049 A 
ATOM     70  H   UNL A   1      46.920  29.338  26.847  1.00  0.00     0.167 HD
ATOM     71  C   UNL A   1      46.491  25.617  26.051  1.00  0.00     0.074 A 
ATOM     72  C   UNL A   1      46.014  24.567  25.155  1.00  0.00     0.031 C 
ATOM     73  C   UNL A   1      47.381  26.680  25.920  1.00  0.00     0.037 A 
BRANCH  60  74
ATOM     74  C   UNL A   1      49.083  31.582  29.632  1.00  0.00     0.064 A 
ATOM     75  C   UNL A   1      49.339  32.811  28.990  1.00  0.00     0.173 A 
ATOM     76  C   UNL A   1      49.969  31.283  30.690  1.00  0.00     0.173 A 
ATOM     77  F   UNL A   1      48.484  33.336  28.108  1.00  0.00    -0.203 F 
ATOM     78  C   UNL A   1      50.493  33.564  29.246  1.00  0.00     0.198 A 
ATOM     79  C   UNL A   1      51.145  32.009  30.918  1.00  0.00     0.198 A 
ATOM     80  F   UNL A   1      49.707  30.271  31.534  1.00  0.00    -0.203 F 
ATOM     81  F   UNL A   1      50.705  34.707  28.577  1.00  0.00    -0.200 F 
ATOM     82  C   UNL A   1      51.422  33.136  30.172  1.00  0.00     0.200 A 
ATOM     83  F   UNL A   1      52.015  31.598  31.852  1.00  0.00    -0.200 F 
ATOM     84  F   UNL A   1      52.557  33.821  30.368  1.00  0.00    -0.200 F 
ENDBRANCH  60  74
BRANCH  61  85
ATOM     85  C   UNL A   1      42.311  23.848  27.952  1.00  0.00     0.064 A 
ATOM     86  C   UNL A   1      41.585  24.996  27.552  1.00  0.00     0.173 A 
ATOM     87  C   UNL A   1      41.633  22.629  27.898  1.00  0.00     0.173 A 
ATOM     88  F   UNL A   1      42.144  26.211  27.664  1.00  0.00    -0.203 F 
ATOM     89  C   UNL A   1      40.326  24.907  26.963  1.00  0.00     0.198 A 
ATOM     90  C   UNL A   1      40.375  22.537  27.286  1.00  0.00     0.198 A 
ATOM     91  F   UNL A   1      42.225  21.505  28.326  1.00  0.00    -0.203 F 
ATOM     92  F   UNL A   1      39.711  26.012  26.519  1.00  0.00    -0.200 F 
ATOM     93  C   UNL A   1      39.742  23.668  26.785  1.00  0.00     0.200 A 
ATOM     94  F   UNL A   1      39.802  21.336  27.120  1.00  0.00    -0.200 F 
ATOM     95  F   UNL A   1      38.580  23.559  26.125  1.00  0.00    -0.200 F 
ENDBRANCH  61  85
BRANCH  73  96
ATOM     96  C   UNL A   1      48.095  27.063  24.618  1.00  0.00     0.064 A 
ATOM     97  C   UNL A   1      49.414  26.707  24.300  1.00  0.00     0.173 A 
ATOM     98  C   UNL A   1      47.400  27.737  23.573  1.00  0.00     0.173 A 
ATOM     99  F   UNL A   1      50.150  25.948  25.121  1.00  0.00    -0.203 F 
ATOM    100  C   UNL A   1      50.015  27.064  23.085  1.00  0.00     0.198 A 
ATOM    101  C   UNL A   1      47.977  28.025  22.335  1.00  0.00     0.198 A 
ATOM    102  F   UNL A   1      46.126  28.129  23.699  1.00  0.00    -0.203 F 
ATOM    103  F   UNL A   1      51.300  26.749  22.868  1.00  0.00    -0.200 F 
ATOM    104  C   UNL A   1      49.295  27.708  22.099  1.00  0.00     0.200 A 
ATOM    105  F   UNL A   1      47.241  28.598  21.373  1.00  0.00    -0.200 F 
ATOM    106  F   UNL A   1      49.860  27.998  20.920  1.00  0.00    -0.200 F 
ENDBRANCH  73  96
ENDBRANCH  47  48
ENDBRANCH  40  42
ENDBRANCH  39  40
ENDBRANCH  38  39
ENDBRANCH  37  38
ENDBRANCH  36  37
ENDBRANCH  35  36
ENDBRANCH  34  35
ENDBRANCH   1  34
TORSDOF 23
ENDMDL
