MODEL 1
REMARK VINA RESULT:     -10.1      0.000      0.000
REMARK SMILES Cc1cnc(C)c(N2CCC[C@@](CC3CC3)(C(=O)OCCOCCOCCOCCOC(=O)c3ccc(-c4c5nc(c(-c6c(F)c(F)c(F)c(F)c6F)c6ccc([nH]6)c(-c6c(F)c(F)c(F)c(F)c6F)c6nc(c(-c7c(F)c(F)c(F)c(F)c7F)c7ccc4[nH]7)C=C6)C=C5)cc3)C2)n1
REMARK SMILES IDX 25 1 24 2 23 3 22 4 21 5 20 6 19 7 17 8 18 9 12 10 8 11 9 12
REMARK SMILES IDX 97 13 10 14 11 15 7 16 1 17 2 18 3 19 98 20 4 21 5 22 6 23
REMARK SMILES IDX 13 24 14 25 15 26 16 27 26 28 27 29 28 30 29 31 30 32 31 33
REMARK SMILES IDX 32 34 33 35 34 36 35 37 96 38 36 39 95 40 37 41 38 42 39 43
REMARK SMILES IDX 89 44 40 45 94 46 88 47 90 48 41 49 93 50 87 51 86 52 42 54
REMARK SMILES IDX 74 55 54 56 73 57 55 58 58 59 72 60 91 61 56 62 57 63 71 65
REMARK SMILES IDX 92 66 59 67 43 68 44 69 52 70 45 71 46 72 50 73 53 74 47 75
REMARK SMILES IDX 48 76 51 77 49 78 75 79 76 80 84 81 77 82 78 83 82 84 85 85
REMARK SMILES IDX 79 86 80 87 83 88 81 89 60 90 61 91 69 92 62 93 63 94 67 95
REMARK SMILES IDX 70 96 64 97 65 98 68 99 66 100
REMARK H PARENT 90 53 58 64
REMARK Flexibility Score: inf
ROOT
ATOM      1  O   UNL A   1      33.166  31.488  27.609  1.00  0.00    -0.377 OA
ENDROOT
BRANCH   1   2
ATOM      2  C   UNL A   1      31.899  31.323  26.996  1.00  0.00     0.188 C 
BRANCH   2   3
ATOM      3  C   UNL A   1      31.796  30.467  25.728  1.00  0.00     0.188 C 
BRANCH   3   4
ATOM      4  O   UNL A   1      32.202  29.122  25.805  1.00  0.00    -0.376 OA
BRANCH   4   5
ATOM      5  C   UNL A   1      31.276  28.054  25.723  1.00  0.00     0.202 C 
BRANCH   5   6
ATOM      6  C   UNL A   1      31.061  26.959  26.782  1.00  0.00     0.261 C 
BRANCH   6   7
ATOM      7  O   UNL A   1      32.043  25.916  26.892  1.00  0.00    -0.463 OA
BRANCH   7   8
ATOM      8  C   UNL A   1      31.594  24.695  26.532  1.00  0.00     0.313 C 
ATOM      9  O   UNL A   1      31.020  23.953  27.331  1.00  0.00    -0.252 OA
BRANCH   8  10
ATOM     10  C   UNL A   1      31.877  24.243  25.091  1.00  0.00     0.086 C 
ATOM     11  N   UNL A   1      32.808  22.149  24.136  1.00  0.00    -0.354 N 
ATOM     12  C   UNL A   1      31.752  21.892  23.181  1.00  0.00     0.118 C 
ATOM     13  C   UNL A   1      32.415  22.803  25.371  1.00  0.00     0.137 C 
ATOM     14  C   UNL A   1      31.190  23.254  22.773  1.00  0.00     0.023 C 
ATOM     15  C   UNL A   1      30.780  24.121  23.988  1.00  0.00     0.022 C 
BRANCH  11  16
ATOM     16  C   UNL A   1      33.815  21.205  24.289  1.00  0.00     0.150 A 
ATOM     17  C   UNL A   1      34.150  17.559  24.702  1.00  0.00     0.068 C 
ATOM     18  C   UNL A   1      34.473  19.020  24.648  1.00  0.00     0.058 A 
ATOM     19  C   UNL A   1      35.747  19.459  24.982  1.00  0.00     0.135 A 
ATOM     20  N   UNL A   1      33.490  19.889  24.297  1.00  0.00    -0.233 NA
ATOM     21  N   UNL A   1      36.104  20.759  24.959  1.00  0.00    -0.256 NA
ATOM     22  C   UNL A   1      35.120  21.628  24.604  1.00  0.00     0.080 A 
ATOM     23  C   UNL A   1      35.457  23.086  24.720  1.00  0.00     0.071 C 
ENDBRANCH  11  16
BRANCH  10  24
ATOM     24  C   UNL A   1      33.007  25.187  24.608  1.00  0.00     0.024 C 
BRANCH  24  25
ATOM     25  C   UNL A   1      32.725  26.108  23.435  1.00  0.00    -0.010 C 
ATOM     26  C   UNL A   1      33.529  27.318  22.993  1.00  0.00     0.004 C 
ATOM     27  C   UNL A   1      33.582  26.057  22.190  1.00  0.00     0.004 C 
ENDBRANCH  24  25
ENDBRANCH  10  24
ENDBRANCH   8  10
ENDBRANCH   7   8
ENDBRANCH   6   7
ENDBRANCH   5   6
ENDBRANCH   4   5
ENDBRANCH   3   4
ENDBRANCH   2   3
ENDBRANCH   1   2
BRANCH   1  28
ATOM     28  C   UNL A   1      33.612  32.782  27.995  1.00  0.00     0.188 C 
BRANCH  28  29
ATOM     29  C   UNL A   1      32.705  34.013  27.814  1.00  0.00     0.188 C 
BRANCH  29  30
ATOM     30  O   UNL A   1      32.747  34.944  28.876  1.00  0.00    -0.376 OA
BRANCH  30  31
ATOM     31  C   UNL A   1      33.970  35.143  29.569  1.00  0.00     0.202 C 
BRANCH  31  32
ATOM     32  C   UNL A   1      34.204  34.379  30.882  1.00  0.00     0.261 C 
BRANCH  32  33
ATOM     33  O   UNL A   1      35.415  33.608  30.977  1.00  0.00    -0.460 OA
BRANCH  33  34
ATOM     34  C   UNL A   1      35.379  32.429  31.626  1.00  0.00     0.338 C 
ATOM     35  O   UNL A   1      34.512  32.020  32.382  1.00  0.00    -0.246 OA
BRANCH  34  36
ATOM     36  C   UNL A   1      36.493  31.606  31.116  1.00  0.00     0.060 A 
ATOM     37  C   UNL A   1      37.286  30.891  32.024  1.00  0.00     0.016 A 
ATOM     38  C   UNL A   1      36.757  31.550  29.747  1.00  0.00     0.016 A 
ATOM     39  C   UNL A   1      38.369  30.141  31.565  1.00  0.00     0.010 A 
ATOM     40  C   UNL A   1      37.856  30.818  29.291  1.00  0.00     0.010 A 
ATOM     41  C   UNL A   1      38.686  30.141  30.201  1.00  0.00    -0.014 A 
BRANCH  41  42
ATOM     42  C   UNL A   1      39.991  29.600  29.752  1.00  0.00     0.031 A 
ATOM     43  C   UNL A   1      41.175  30.526  29.727  1.00  0.00     0.074 A 
ATOM     44  C   UNL A   1      40.128  28.317  29.385  1.00  0.00     0.049 A 
ATOM     45  N   UNL A   1      42.395  30.311  29.306  1.00  0.00    -0.248 NA
ATOM     46  C   UNL A   1      40.945  31.885  30.241  1.00  0.00     0.031 C 
ATOM     47  C   UNL A   1      39.066  27.315  29.405  1.00  0.00     0.029 A 
ATOM     48  N   UNL A   1      41.223  27.642  28.903  1.00  0.00    -0.354 N 
ATOM     49  C   UNL A   1      43.073  31.507  29.497  1.00  0.00     0.074 A 
ATOM     50  C   UNL A   1      42.121  32.454  30.035  1.00  0.00     0.031 C 
ATOM     51  C   UNL A   1      39.554  26.157  28.929  1.00  0.00     0.029 A 
ATOM     52  C   UNL A   1      40.950  26.348  28.537  1.00  0.00     0.049 A 
ATOM     53  H   UNL A   1      42.117  28.048  28.828  1.00  0.00     0.167 HD
ATOM     54  C   UNL A   1      44.375  31.788  29.252  1.00  0.00     0.037 A 
ATOM     55  C   UNL A   1      41.729  25.438  27.921  1.00  0.00     0.037 A 
ATOM     56  C   UNL A   1      45.313  30.843  28.703  1.00  0.00     0.049 A 
ATOM     57  C   UNL A   1      43.155  25.793  27.582  1.00  0.00     0.074 A 
ATOM     58  C   UNL A   1      46.659  31.018  28.434  1.00  0.00     0.029 A 
ATOM     59  N   UNL A   1      44.995  29.547  28.322  1.00  0.00    -0.354 N 
ATOM     60  N   UNL A   1      43.803  26.914  27.790  1.00  0.00    -0.248 NA
ATOM     61  C   UNL A   1      43.959  24.752  26.926  1.00  0.00     0.031 C 
ATOM     62  C   UNL A   1      47.138  29.853  27.826  1.00  0.00     0.029 A 
ATOM     63  C   UNL A   1      46.110  28.923  27.784  1.00  0.00     0.049 A 
ATOM     64  H   UNL A   1      44.108  29.131  28.420  1.00  0.00     0.167 HD
ATOM     65  C   UNL A   1      45.091  26.709  27.314  1.00  0.00     0.074 A 
ATOM     66  C   UNL A   1      45.139  25.348  26.820  1.00  0.00     0.031 C 
ATOM     67  C   UNL A   1      46.141  27.569  27.289  1.00  0.00     0.037 A 
BRANCH  54  68
ATOM     68  C   UNL A   1      44.842  33.188  29.534  1.00  0.00     0.064 A 
ATOM     69  C   UNL A   1      45.392  33.554  30.774  1.00  0.00     0.173 A 
ATOM     70  C   UNL A   1      44.729  34.184  28.551  1.00  0.00     0.173 A 
ATOM     71  F   UNL A   1      45.511  32.646  31.754  1.00  0.00    -0.203 F 
ATOM     72  C   UNL A   1      45.768  34.870  31.031  1.00  0.00     0.198 A 
ATOM     73  C   UNL A   1      45.141  35.491  28.800  1.00  0.00     0.198 A 
ATOM     74  F   UNL A   1      44.216  33.891  27.347  1.00  0.00    -0.203 F 
ATOM     75  F   UNL A   1      46.222  35.209  32.246  1.00  0.00    -0.200 F 
ATOM     76  C   UNL A   1      45.647  35.835  30.044  1.00  0.00     0.200 A 
ATOM     77  F   UNL A   1      45.038  36.418  27.839  1.00  0.00    -0.200 F 
ATOM     78  F   UNL A   1      46.006  37.103  30.294  1.00  0.00    -0.200 F 
ENDBRANCH  54  68
BRANCH  55  79
ATOM     79  C   UNL A   1      41.161  24.113  27.559  1.00  0.00     0.064 A 
ATOM     80  C   UNL A   1      40.119  23.992  26.631  1.00  0.00     0.173 A 
ATOM     81  C   UNL A   1      41.660  22.932  28.135  1.00  0.00     0.173 A 
ATOM     82  F   UNL A   1      39.590  25.091  26.073  1.00  0.00    -0.203 F 
ATOM     83  C   UNL A   1      39.592  22.746  26.297  1.00  0.00     0.198 A 
ATOM     84  C   UNL A   1      41.154  21.686  27.777  1.00  0.00     0.198 A 
ATOM     85  F   UNL A   1      42.655  22.992  29.032  1.00  0.00    -0.203 F 
ATOM     86  F   UNL A   1      38.568  22.663  25.436  1.00  0.00    -0.200 F 
ATOM     87  C   UNL A   1      40.116  21.594  26.863  1.00  0.00     0.200 A 
ATOM     88  F   UNL A   1      41.674  20.574  28.316  1.00  0.00    -0.200 F 
ATOM     89  F   UNL A   1      39.618  20.394  26.531  1.00  0.00    -0.200 F 
ENDBRANCH  55  79
BRANCH  67  90
ATOM     90  C   UNL A   1      47.443  27.058  26.735  1.00  0.00     0.064 A 
ATOM     91  C   UNL A   1      48.387  26.407  27.543  1.00  0.00     0.173 A 
ATOM     92  C   UNL A   1      47.727  27.178  25.365  1.00  0.00     0.173 A 
ATOM     93  F   UNL A   1      48.172  26.275  28.861  1.00  0.00    -0.203 F 
ATOM     94  C   UNL A   1      49.577  25.920  27.006  1.00  0.00     0.198 A 
ATOM     95  C   UNL A   1      48.902  26.660  24.826  1.00  0.00     0.198 A 
ATOM     96  F   UNL A   1      46.856  27.784  24.544  1.00  0.00    -0.203 F 
ATOM     97  F   UNL A   1      50.487  25.348  27.807  1.00  0.00    -0.200 F 
ATOM     98  C   UNL A   1      49.829  26.039  25.648  1.00  0.00     0.200 A 
ATOM     99  F   UNL A   1      49.133  26.759  23.510  1.00  0.00    -0.200 F 
ATOM    100  F   UNL A   1      50.970  25.561  25.131  1.00  0.00    -0.200 F 
ENDBRANCH  67  90
ENDBRANCH  41  42
ENDBRANCH  34  36
ENDBRANCH  33  34
ENDBRANCH  32  33
ENDBRANCH  31  32
ENDBRANCH  30  31
ENDBRANCH  29  30
ENDBRANCH  28  29
ENDBRANCH   1  28
TORSDOF 23
ENDMDL
MODEL 2
REMARK VINA RESULT:     -10.1      2.154      7.891
REMARK SMILES Cc1cnc(C)c(N2CCC[C@@](CC3CC3)(C(=O)OCCOCCOCCOCCOC(=O)c3ccc(-c4c5nc(c(-c6c(F)c(F)c(F)c(F)c6F)c6ccc([nH]6)c(-c6c(F)c(F)c(F)c(F)c6F)c6nc(c(-c7c(F)c(F)c(F)c(F)c7F)c7ccc4[nH]7)C=C6)C=C5)cc3)C2)n1
REMARK SMILES IDX 25 1 24 2 23 3 22 4 21 5 20 6 19 7 17 8 18 9 12 10 8 11 9 12
REMARK SMILES IDX 97 13 10 14 11 15 7 16 1 17 2 18 3 19 98 20 4 21 5 22 6 23
REMARK SMILES IDX 13 24 14 25 15 26 16 27 26 28 27 29 28 30 29 31 30 32 31 33
REMARK SMILES IDX 32 34 33 35 34 36 35 37 96 38 36 39 95 40 37 41 38 42 39 43
REMARK SMILES IDX 89 44 40 45 94 46 88 47 90 48 41 49 93 50 87 51 86 52 42 54
REMARK SMILES IDX 74 55 54 56 73 57 55 58 58 59 72 60 91 61 56 62 57 63 71 65
REMARK SMILES IDX 92 66 59 67 43 68 44 69 52 70 45 71 46 72 50 73 53 74 47 75
REMARK SMILES IDX 48 76 51 77 49 78 75 79 76 80 84 81 77 82 78 83 82 84 85 85
REMARK SMILES IDX 79 86 80 87 83 88 81 89 60 90 61 91 69 92 62 93 63 94 67 95
REMARK SMILES IDX 70 96 64 97 65 98 68 99 66 100
REMARK H PARENT 90 53 58 64
REMARK Flexibility Score: inf
ROOT
ATOM      1  O   UNL A   1      34.339  34.330  27.918  1.00  0.00    -0.377 OA
ENDROOT
BRANCH   1   2
ATOM      2  C   UNL A   1      33.596  33.175  28.263  1.00  0.00     0.188 C 
BRANCH   2   3
ATOM      3  C   UNL A   1      33.826  31.883  27.470  1.00  0.00     0.188 C 
BRANCH   3   4
ATOM      4  O   UNL A   1      34.421  30.796  28.137  1.00  0.00    -0.376 OA
BRANCH   4   5
ATOM      5  C   UNL A   1      34.328  29.472  27.643  1.00  0.00     0.202 C 
BRANCH   5   6
ATOM      6  C   UNL A   1      33.909  29.063  26.221  1.00  0.00     0.261 C 
BRANCH   6   7
ATOM      7  O   UNL A   1      32.877  28.075  26.072  1.00  0.00    -0.463 OA
BRANCH   7   8
ATOM      8  C   UNL A   1      33.312  26.889  25.595  1.00  0.00     0.313 C 
ATOM      9  O   UNL A   1      34.410  26.427  25.908  1.00  0.00    -0.252 OA
BRANCH   8  10
ATOM     10  C   UNL A   1      32.399  26.161  24.597  1.00  0.00     0.086 C 
ATOM     11  N   UNL A   1      30.734  26.967  22.941  1.00  0.00    -0.354 N 
ATOM     12  C   UNL A   1      31.251  26.255  21.793  1.00  0.00     0.118 C 
ATOM     13  C   UNL A   1      31.709  27.392  23.928  1.00  0.00     0.137 C 
ATOM     14  C   UNL A   1      31.896  24.974  22.325  1.00  0.00     0.023 C 
ATOM     15  C   UNL A   1      32.926  25.245  23.448  1.00  0.00     0.022 C 
BRANCH  11  16
ATOM     16  C   UNL A   1      29.684  27.857  22.759  1.00  0.00     0.150 A 
ATOM     17  C   UNL A   1      29.154  31.298  21.552  1.00  0.00     0.068 C 
ATOM     18  C   UNL A   1      28.920  29.958  22.179  1.00  0.00     0.058 A 
ATOM     19  C   UNL A   1      27.706  29.686  22.795  1.00  0.00     0.135 A 
ATOM     20  N   UNL A   1      29.925  29.046  22.155  1.00  0.00    -0.233 NA
ATOM     21  N   UNL A   1      27.430  28.504  23.382  1.00  0.00    -0.256 NA
ATOM     22  C   UNL A   1      28.436  27.590  23.354  1.00  0.00     0.080 A 
ATOM     23  C   UNL A   1      28.202  26.328  24.133  1.00  0.00     0.071 C 
ENDBRANCH  11  16
BRANCH  10  24
ATOM     24  C   UNL A   1      31.409  25.370  25.489  1.00  0.00     0.024 C 
BRANCH  24  25
ATOM     25  C   UNL A   1      31.708  23.911  25.781  1.00  0.00    -0.010 C 
ATOM     26  C   UNL A   1      31.809  23.240  27.139  1.00  0.00     0.004 C 
ATOM     27  C   UNL A   1      30.618  22.983  26.271  1.00  0.00     0.004 C 
ENDBRANCH  24  25
ENDBRANCH  10  24
ENDBRANCH   8  10
ENDBRANCH   7   8
ENDBRANCH   6   7
ENDBRANCH   5   6
ENDBRANCH   4   5
ENDBRANCH   3   4
ENDBRANCH   2   3
ENDBRANCH   1   2
BRANCH   1  28
ATOM     28  C   UNL A   1      34.111  35.559  28.598  1.00  0.00     0.188 C 
BRANCH  28  29
ATOM     29  C   UNL A   1      33.231  35.607  29.861  1.00  0.00     0.188 C 
BRANCH  29  30
ATOM     30  O   UNL A   1      33.807  36.280  30.962  1.00  0.00    -0.376 OA
BRANCH  30  31
ATOM     31  C   UNL A   1      33.766  35.666  32.241  1.00  0.00     0.202 C 
BRANCH  31  32
ATOM     32  C   UNL A   1      35.032  34.968  32.763  1.00  0.00     0.261 C 
BRANCH  32  33
ATOM     33  O   UNL A   1      35.750  34.143  31.828  1.00  0.00    -0.460 OA
BRANCH  33  34
ATOM     34  C   UNL A   1      35.427  32.839  31.738  1.00  0.00     0.338 C 
ATOM     35  O   UNL A   1      34.334  32.328  31.919  1.00  0.00    -0.246 OA
BRANCH  34  36
ATOM     36  C   UNL A   1      36.597  32.128  31.187  1.00  0.00     0.060 A 
ATOM     37  C   UNL A   1      37.436  31.415  32.054  1.00  0.00     0.016 A 
ATOM     38  C   UNL A   1      36.866  32.173  29.818  1.00  0.00     0.016 A 
ATOM     39  C   UNL A   1      38.569  30.772  31.557  1.00  0.00     0.010 A 
ATOM     40  C   UNL A   1      38.013  31.548  29.325  1.00  0.00     0.010 A 
ATOM     41  C   UNL A   1      38.887  30.875  30.198  1.00  0.00    -0.014 A 
BRANCH  41  42
ATOM     42  C   UNL A   1      40.227  30.455  29.724  1.00  0.00     0.031 A 
ATOM     43  C   UNL A   1      40.379  29.074  29.152  1.00  0.00     0.074 A 
ATOM     44  C   UNL A   1      41.284  31.280  29.789  1.00  0.00     0.049 A 
ATOM     45  N   UNL A   1      41.456  28.452  28.743  1.00  0.00    -0.248 NA
ATOM     46  C   UNL A   1      39.145  28.283  29.033  1.00  0.00     0.031 C 
ATOM     47  C   UNL A   1      41.253  32.653  30.286  1.00  0.00     0.029 A 
ATOM     48  N   UNL A   1      42.598  31.070  29.451  1.00  0.00    -0.354 N 
ATOM     49  C   UNL A   1      41.030  27.198  28.328  1.00  0.00     0.074 A 
ATOM     50  C   UNL A   1      39.605  27.133  28.569  1.00  0.00     0.031 C 
ATOM     51  C   UNL A   1      42.498  33.156  30.245  1.00  0.00     0.029 A 
ATOM     52  C   UNL A   1      43.416  32.128  29.757  1.00  0.00     0.049 A 
ATOM     53  H   UNL A   1      42.921  30.241  29.030  1.00  0.00     0.167 HD
ATOM     54  C   UNL A   1      41.760  26.194  27.787  1.00  0.00     0.037 A 
ATOM     55  C   UNL A   1      44.758  32.236  29.684  1.00  0.00     0.037 A 
ATOM     56  C   UNL A   1      43.181  26.263  27.564  1.00  0.00     0.049 A 
ATOM     57  C   UNL A   1      45.566  31.079  29.154  1.00  0.00     0.074 A 
ATOM     58  C   UNL A   1      44.014  25.310  27.004  1.00  0.00     0.029 A 
ATOM     59  N   UNL A   1      43.982  27.343  27.907  1.00  0.00    -0.354 N 
ATOM     60  N   UNL A   1      45.158  29.906  28.734  1.00  0.00    -0.248 NA
ATOM     61  C   UNL A   1      47.022  31.265  29.084  1.00  0.00     0.031 C 
ATOM     62  C   UNL A   1      45.329  25.786  27.073  1.00  0.00     0.029 A 
ATOM     63  C   UNL A   1      45.307  27.066  27.607  1.00  0.00     0.049 A 
ATOM     64  H   UNL A   1      43.658  28.183  28.305  1.00  0.00     0.167 HD
ATOM     65  C   UNL A   1      46.298  29.223  28.330  1.00  0.00     0.074 A 
ATOM     66  C   UNL A   1      47.415  30.121  28.540  1.00  0.00     0.031 C 
ATOM     67  C   UNL A   1      46.411  27.967  27.829  1.00  0.00     0.037 A 
BRANCH  54  68
ATOM     68  C   UNL A   1      41.035  24.922  27.447  1.00  0.00     0.064 A 
ATOM     69  C   UNL A   1      40.060  24.868  26.438  1.00  0.00     0.173 A 
ATOM     70  C   UNL A   1      41.315  23.739  28.148  1.00  0.00     0.173 A 
ATOM     71  F   UNL A   1      39.743  25.973  25.745  1.00  0.00    -0.203 F 
ATOM     72  C   UNL A   1      39.363  23.691  26.176  1.00  0.00     0.198 A 
ATOM     73  C   UNL A   1      40.642  22.555  27.857  1.00  0.00     0.198 A 
ATOM     74  F   UNL A   1      42.240  23.730  29.119  1.00  0.00    -0.203 F 
ATOM     75  F   UNL A   1      38.386  23.684  25.258  1.00  0.00    -0.200 F 
ATOM     76  C   UNL A   1      39.657  22.536  26.882  1.00  0.00     0.200 A 
ATOM     77  F   UNL A   1      40.940  21.435  28.530  1.00  0.00    -0.200 F 
ATOM     78  F   UNL A   1      38.983  21.404  26.631  1.00  0.00    -0.200 F 
ENDBRANCH  54  68
BRANCH  55  79
ATOM     79  C   UNL A   1      45.418  33.482  30.157  1.00  0.00     0.064 A 
ATOM     80  C   UNL A   1      45.639  34.564  29.295  1.00  0.00     0.173 A 
ATOM     81  C   UNL A   1      45.833  33.617  31.492  1.00  0.00     0.173 A 
ATOM     82  F   UNL A   1      45.284  34.474  28.005  1.00  0.00    -0.203 F 
ATOM     83  C   UNL A   1      46.259  35.728  29.745  1.00  0.00     0.198 A 
ATOM     84  C   UNL A   1      46.424  34.793  31.948  1.00  0.00     0.198 A 
ATOM     85  F   UNL A   1      45.648  32.610  32.357  1.00  0.00    -0.203 F 
ATOM     86  F   UNL A   1      46.494  36.733  28.890  1.00  0.00    -0.200 F 
ATOM     87  C   UNL A   1      46.641  35.846  31.073  1.00  0.00     0.200 A 
ATOM     88  F   UNL A   1      46.777  34.906  33.236  1.00  0.00    -0.200 F 
ATOM     89  F   UNL A   1      47.224  36.971  31.509  1.00  0.00    -0.200 F 
ENDBRANCH  55  79
BRANCH  67  90
ATOM     90  C   UNL A   1      47.786  27.494  27.444  1.00  0.00     0.064 A 
ATOM     91  C   UNL A   1      48.599  26.779  28.336  1.00  0.00     0.173 A 
ATOM     92  C   UNL A   1      48.276  27.716  26.148  1.00  0.00     0.173 A 
ATOM     93  F   UNL A   1      48.185  26.549  29.592  1.00  0.00    -0.203 F 
ATOM     94  C   UNL A   1      49.861  26.330  27.954  1.00  0.00     0.198 A 
ATOM     95  C   UNL A   1      49.523  27.235  25.758  1.00  0.00     0.198 A 
ATOM     96  F   UNL A   1      47.537  28.386  25.251  1.00  0.00    -0.203 F 
ATOM     97  F   UNL A   1      50.642  25.695  28.839  1.00  0.00    -0.200 F 
ATOM     98  C   UNL A   1      50.318  26.550  26.663  1.00  0.00     0.200 A 
ATOM     99  F   UNL A   1      49.954  27.433  24.504  1.00  0.00    -0.200 F 
ATOM    100  F   UNL A   1      51.528  26.108  26.294  1.00  0.00    -0.200 F 
ENDBRANCH  67  90
ENDBRANCH  41  42
ENDBRANCH  34  36
ENDBRANCH  33  34
ENDBRANCH  32  33
ENDBRANCH  31  32
ENDBRANCH  30  31
ENDBRANCH  29  30
ENDBRANCH  28  29
ENDBRANCH   1  28
TORSDOF 23
ENDMDL
MODEL 3
REMARK VINA RESULT:      -9.7      5.029      9.207
REMARK SMILES Cc1cnc(C)c(N2CCC[C@@](CC3CC3)(C(=O)OCCOCCOCCOCCOC(=O)c3ccc(-c4c5nc(c(-c6c(F)c(F)c(F)c(F)c6F)c6ccc([nH]6)c(-c6c(F)c(F)c(F)c(F)c6F)c6nc(c(-c7c(F)c(F)c(F)c(F)c7F)c7ccc4[nH]7)C=C6)C=C5)cc3)C2)n1
REMARK SMILES IDX 25 1 24 2 23 3 22 4 21 5 20 6 19 7 17 8 18 9 12 10 8 11 9 12
REMARK SMILES IDX 97 13 10 14 11 15 7 16 1 17 2 18 3 19 98 20 4 21 5 22 6 23
REMARK SMILES IDX 13 24 14 25 15 26 16 27 26 28 27 29 28 30 29 31 30 32 31 33
REMARK SMILES IDX 32 34 33 35 34 36 35 37 96 38 36 39 95 40 37 41 38 42 39 43
REMARK SMILES IDX 89 44 40 45 94 46 88 47 90 48 41 49 93 50 87 51 86 52 42 54
REMARK SMILES IDX 74 55 54 56 73 57 55 58 58 59 72 60 91 61 56 62 57 63 71 65
REMARK SMILES IDX 92 66 59 67 43 68 44 69 52 70 45 71 46 72 50 73 53 74 47 75
REMARK SMILES IDX 48 76 51 77 49 78 75 79 76 80 84 81 77 82 78 83 82 84 85 85
REMARK SMILES IDX 79 86 80 87 83 88 81 89 60 90 61 91 69 92 62 93 63 94 67 95
REMARK SMILES IDX 70 96 64 97 65 98 68 99 66 100
REMARK H PARENT 90 53 58 64
REMARK Flexibility Score: inf
ROOT
ATOM      1  O   UNL A   1      40.753  23.271  27.709  1.00  0.00    -0.377 OA
ENDROOT
BRANCH   1   2
ATOM      2  C   UNL A   1      40.807  21.856  27.740  1.00  0.00     0.188 C 
BRANCH   2   3
ATOM      3  C   UNL A   1      40.771  21.086  26.414  1.00  0.00     0.188 C 
BRANCH   3   4
ATOM      4  O   UNL A   1      39.695  21.327  25.539  1.00  0.00    -0.376 OA
BRANCH   4   5
ATOM      5  C   UNL A   1      38.387  21.591  26.015  1.00  0.00     0.202 C 
BRANCH   5   6
ATOM      6  C   UNL A   1      37.470  22.734  25.552  1.00  0.00     0.261 C 
BRANCH   6   7
ATOM      7  O   UNL A   1      36.049  22.558  25.669  1.00  0.00    -0.463 OA
BRANCH   7   8
ATOM      8  C   UNL A   1      35.332  23.680  25.444  1.00  0.00     0.313 C 
ATOM      9  O   UNL A   1      35.829  24.801  25.557  1.00  0.00    -0.252 OA
BRANCH   8  10
ATOM     10  C   UNL A   1      33.848  23.501  25.091  1.00  0.00     0.086 C 
ATOM     11  N   UNL A   1      32.379  21.504  24.950  1.00  0.00    -0.354 N 
ATOM     12  C   UNL A   1      31.315  21.993  25.800  1.00  0.00     0.118 C 
ATOM     13  C   UNL A   1      33.721  21.955  25.274  1.00  0.00     0.137 C 
ATOM     14  C   UNL A   1      31.295  23.514  25.645  1.00  0.00     0.023 C 
ATOM     15  C   UNL A   1      32.680  24.160  25.891  1.00  0.00     0.022 C 
BRANCH  11  16
ATOM     16  C   UNL A   1      32.316  20.198  24.484  1.00  0.00     0.150 A 
ATOM     17  C   UNL A   1      33.007  16.790  25.704  1.00  0.00     0.068 C 
ATOM     18  C   UNL A   1      32.693  17.941  24.798  1.00  0.00     0.058 A 
ATOM     19  C   UNL A   1      32.566  17.730  23.432  1.00  0.00     0.135 A 
ATOM     20  N   UNL A   1      32.571  19.179  25.341  1.00  0.00    -0.233 NA
ATOM     21  N   UNL A   1      32.289  18.720  22.560  1.00  0.00    -0.256 NA
ATOM     22  C   UNL A   1      32.163  19.960  23.105  1.00  0.00     0.080 A 
ATOM     23  C   UNL A   1      32.006  21.093  22.134  1.00  0.00     0.071 C 
ENDBRANCH  11  16
BRANCH  10  24
ATOM     24  C   UNL A   1      33.757  23.906  23.598  1.00  0.00     0.024 C 
BRANCH  24  25
ATOM     25  C   UNL A   1      33.178  25.266  23.253  1.00  0.00    -0.010 C 
ATOM     26  C   UNL A   1      33.425  26.087  22.000  1.00  0.00     0.004 C 
ATOM     27  C   UNL A   1      32.108  25.403  22.192  1.00  0.00     0.004 C 
ENDBRANCH  24  25
ENDBRANCH  10  24
ENDBRANCH   8  10
ENDBRANCH   7   8
ENDBRANCH   6   7
ENDBRANCH   5   6
ENDBRANCH   4   5
ENDBRANCH   3   4
ENDBRANCH   2   3
ENDBRANCH   1   2
BRANCH   1  28
ATOM     28  C   UNL A   1      41.909  24.025  27.365  1.00  0.00     0.188 C 
BRANCH  28  29
ATOM     29  C   UNL A   1      43.262  23.743  28.044  1.00  0.00     0.188 C 
BRANCH  29  30
ATOM     30  O   UNL A   1      44.336  23.511  27.155  1.00  0.00    -0.376 OA
BRANCH  30  31
ATOM     31  C   UNL A   1      44.058  23.017  25.854  1.00  0.00     0.202 C 
BRANCH  31  32
ATOM     32  C   UNL A   1      44.557  23.817  24.640  1.00  0.00     0.261 C 
BRANCH  32  33
ATOM     33  O   UNL A   1      44.465  25.250  24.726  1.00  0.00    -0.460 OA
BRANCH  33  34
ATOM     34  C   UNL A   1      45.572  25.949  25.042  1.00  0.00     0.338 C 
ATOM     35  O   UNL A   1      46.680  25.859  24.539  1.00  0.00    -0.246 OA
BRANCH  34  36
ATOM     36  C   UNL A   1      45.175  27.004  25.995  1.00  0.00     0.060 A 
ATOM     37  C   UNL A   1      46.166  27.678  26.722  1.00  0.00     0.016 A 
ATOM     38  C   UNL A   1      43.827  27.321  26.172  1.00  0.00     0.016 A 
ATOM     39  C   UNL A   1      45.808  28.649  27.656  1.00  0.00     0.010 A 
ATOM     40  C   UNL A   1      43.469  28.276  27.125  1.00  0.00     0.010 A 
ATOM     41  C   UNL A   1      44.455  28.918  27.895  1.00  0.00    -0.014 A 
BRANCH  41  42
ATOM     42  C   UNL A   1      44.065  29.718  29.080  1.00  0.00     0.031 A 
ATOM     43  C   UNL A   1      44.018  31.214  28.946  1.00  0.00     0.074 A 
ATOM     44  C   UNL A   1      43.748  29.134  30.246  1.00  0.00     0.049 A 
ATOM     45  N   UNL A   1      43.780  32.128  29.852  1.00  0.00    -0.248 NA
ATOM     46  C   UNL A   1      44.285  31.752  27.603  1.00  0.00     0.031 C 
ATOM     47  C   UNL A   1      43.717  27.694  30.488  1.00  0.00     0.029 A 
ATOM     48  N   UNL A   1      43.409  29.689  31.456  1.00  0.00    -0.354 N 
ATOM     49  C   UNL A   1      43.878  33.345  29.192  1.00  0.00     0.074 A 
ATOM     50  C   UNL A   1      44.233  33.056  27.819  1.00  0.00     0.031 C 
ATOM     51  C   UNL A   1      43.405  27.478  31.777  1.00  0.00     0.029 A 
ATOM     52  C   UNL A   1      43.250  28.763  32.456  1.00  0.00     0.049 A 
ATOM     53  H   UNL A   1      43.292  30.657  31.592  1.00  0.00     0.167 HD
ATOM     54  C   UNL A   1      43.681  34.591  29.684  1.00  0.00     0.037 A 
ATOM     55  C   UNL A   1      43.043  28.939  33.776  1.00  0.00     0.037 A 
ATOM     56  C   UNL A   1      43.341  34.870  31.055  1.00  0.00     0.049 A 
ATOM     57  C   UNL A   1      42.905  30.337  34.323  1.00  0.00     0.074 A 
ATOM     58  C   UNL A   1      43.101  36.094  31.653  1.00  0.00     0.029 A 
ATOM     59  N   UNL A   1      43.211  33.908  32.047  1.00  0.00    -0.354 N 
ATOM     60  N   UNL A   1      42.968  31.485  33.692  1.00  0.00    -0.248 NA
ATOM     61  C   UNL A   1      42.663  30.463  35.768  1.00  0.00     0.031 C 
ATOM     62  C   UNL A   1      42.894  35.879  33.020  1.00  0.00     0.029 A 
ATOM     63  C   UNL A   1      42.931  34.514  33.262  1.00  0.00     0.049 A 
ATOM     64  H   UNL A   1      43.303  32.938  31.908  1.00  0.00     0.167 HD
ATOM     65  C   UNL A   1      42.752  32.465  34.652  1.00  0.00     0.074 A 
ATOM     66  C   UNL A   1      42.539  31.776  35.908  1.00  0.00     0.031 C 
ATOM     67  C   UNL A   1      42.729  33.815  34.507  1.00  0.00     0.037 A 
BRANCH  54  68
ATOM     68  C   UNL A   1      43.877  35.743  28.739  1.00  0.00     0.064 A 
ATOM     69  C   UNL A   1      45.146  36.289  28.486  1.00  0.00     0.173 A 
ATOM     70  C   UNL A   1      42.777  36.316  28.083  1.00  0.00     0.173 A 
ATOM     71  F   UNL A   1      46.232  35.789  29.096  1.00  0.00    -0.203 F 
ATOM     72  C   UNL A   1      45.298  37.392  27.648  1.00  0.00     0.198 A 
ATOM     73  C   UNL A   1      42.938  37.394  27.216  1.00  0.00     0.198 A 
ATOM     74  F   UNL A   1      41.542  35.833  28.283  1.00  0.00    -0.203 F 
ATOM     75  F   UNL A   1      46.510  37.940  27.479  1.00  0.00    -0.200 F 
ATOM     76  C   UNL A   1      44.196  37.940  27.011  1.00  0.00     0.200 A 
ATOM     77  F   UNL A   1      41.873  37.912  26.590  1.00  0.00    -0.200 F 
ATOM     78  F   UNL A   1      44.343  39.003  26.207  1.00  0.00    -0.200 F 
ENDBRANCH  54  68
BRANCH  55  79
ATOM     79  C   UNL A   1      42.983  27.754  34.672  1.00  0.00     0.064 A 
ATOM     80  C   UNL A   1      41.808  27.007  34.819  1.00  0.00     0.173 A 
ATOM     81  C   UNL A   1      44.113  27.339  35.395  1.00  0.00     0.173 A 
ATOM     82  F   UNL A   1      40.694  27.378  34.170  1.00  0.00    -0.203 F 
ATOM     83  C   UNL A   1      41.760  25.898  35.661  1.00  0.00     0.198 A 
ATOM     84  C   UNL A   1      44.073  26.212  36.212  1.00  0.00     0.198 A 
ATOM     85  F   UNL A   1      45.264  28.022  35.293  1.00  0.00    -0.203 F 
ATOM     86  F   UNL A   1      40.611  25.224  35.814  1.00  0.00    -0.200 F 
ATOM     87  C   UNL A   1      42.895  25.495  36.348  1.00  0.00     0.200 A 
ATOM     88  F   UNL A   1      45.177  25.819  36.862  1.00  0.00    -0.200 F 
ATOM     89  F   UNL A   1      42.852  24.419  37.147  1.00  0.00    -0.200 F 
ENDBRANCH  55  79
BRANCH  67  90
ATOM     90  C   UNL A   1      42.438  34.639  35.731  1.00  0.00     0.064 A 
ATOM     91  C   UNL A   1      43.460  35.107  36.570  1.00  0.00     0.173 A 
ATOM     92  C   UNL A   1      41.119  35.008  36.041  1.00  0.00     0.173 A 
ATOM     93  F   UNL A   1      44.738  34.774  36.327  1.00  0.00    -0.203 F 
ATOM     94  C   UNL A   1      43.172  35.888  37.686  1.00  0.00     0.198 A 
ATOM     95  C   UNL A   1      40.837  35.819  37.138  1.00  0.00     0.198 A 
ATOM     96  F   UNL A   1      40.102  34.597  35.268  1.00  0.00    -0.203 F 
ATOM     97  F   UNL A   1      44.161  36.280  38.502  1.00  0.00    -0.200 F 
ATOM     98  C   UNL A   1      41.863  36.251  37.964  1.00  0.00     0.200 A 
ATOM     99  F   UNL A   1      39.573  36.183  37.392  1.00  0.00    -0.200 F 
ATOM    100  F   UNL A   1      41.588  37.012  39.032  1.00  0.00    -0.200 F 
ENDBRANCH  67  90
ENDBRANCH  41  42
ENDBRANCH  34  36
ENDBRANCH  33  34
ENDBRANCH  32  33
ENDBRANCH  31  32
ENDBRANCH  30  31
ENDBRANCH  29  30
ENDBRANCH  28  29
ENDBRANCH   1  28
TORSDOF 23
ENDMDL
