MODEL 1
REMARK VINA RESULT:      -9.9      0.000      0.000
REMARK SMILES C[C@@H]([C@H]1CC=CS1)n1nccc1NC(=O)CC1(CC(=O)OCCOCCOCCOCCOC(=O)c2ccc(-c3c4nc(c(-c5c(F)c(F)c(F)c(F)c5F)c5ccc([nH]5)c(-c5c(F)c(F)c(F)c(F)c5F)c5nc(c(-c6c(F)c(F)c(F)c(F)c6F)c6ccc3[nH]6)C=C5)C=C4)cc2)CCCCC1
REMARK SMILES IDX 25 1 24 2 23 3 22 4 21 5 19 6 20 7 18 8 17 9 99 10 103 11
REMARK SMILES IDX 100 12 102 13 101 14 16 15 14 16 13 17 15 19 12 20 8 21 9 22
REMARK SMILES IDX 10 23 11 24 2 25 1 26 3 27 4 28 7 29 5 30 6 31 26 32 27 33
REMARK SMILES IDX 28 34 29 35 30 36 31 37 32 38 33 39 34 40 35 41 36 42 37 43
REMARK SMILES IDX 98 44 38 45 97 46 39 47 40 48 41 49 91 50 42 51 96 52 90 53
REMARK SMILES IDX 92 54 43 55 95 56 89 57 88 58 44 60 76 61 56 62 75 63 57 64
REMARK SMILES IDX 60 65 74 66 93 67 58 68 59 69 73 71 94 72 61 73 45 74 46 75
REMARK SMILES IDX 54 76 47 77 48 78 52 79 55 80 49 81 50 82 53 83 51 84 77 85
REMARK SMILES IDX 78 86 86 87 79 88 80 89 84 90 87 91 81 92 82 93 85 94 83 95
REMARK SMILES IDX 62 96 63 97 71 98 64 99 65 100 69 101 72 102 66 103 67 104
REMARK SMILES IDX 70 105 68 106
REMARK H PARENT 13 18 92 59 60 70
REMARK Flexibility Score: inf
ROOT
ATOM      1  C   UNL A   1      39.821  21.459  25.981  1.00  0.00     0.188 C 
ENDROOT
BRANCH   1   2
ATOM      2  O   UNL A   1      39.575  22.721  26.584  1.00  0.00    -0.376 OA
BRANCH   2   3
ATOM      3  C   UNL A   1      38.296  23.312  26.345  1.00  0.00     0.202 C 
BRANCH   3   4
ATOM      4  C   UNL A   1      37.344  22.554  25.398  1.00  0.00     0.261 C 
BRANCH   4   5
ATOM      5  O   UNL A   1      36.247  21.910  26.099  1.00  0.00    -0.463 OA
BRANCH   5   6
ATOM      6  C   UNL A   1      35.185  22.677  26.435  1.00  0.00     0.306 C 
ATOM      7  O   UNL A   1      34.679  22.694  27.553  1.00  0.00    -0.252 OA
BRANCH   6   8
ATOM      8  C   UNL A   1      34.775  23.693  25.365  1.00  0.00     0.130 C 
BRANCH   8   9
ATOM      9  C   UNL A   1      33.297  24.070  25.006  1.00  0.00    -0.010 C 
ATOM     10  C   UNL A   1      32.417  22.789  25.073  1.00  0.00     0.008 C 
ATOM     11  C   UNL A   1      33.127  24.670  23.581  1.00  0.00     0.008 C 
ATOM     12  C   UNL A   1      32.600  21.793  23.935  1.00  0.00     0.001 C 
ATOM     13  C   UNL A   1      33.330  23.666  22.445  1.00  0.00     0.001 C 
ATOM     14  C   UNL A   1      32.399  22.470  22.589  1.00  0.00     0.000 C 
BRANCH   9  15
ATOM     15  C   UNL A   1      32.679  25.115  26.012  1.00  0.00     0.108 C 
BRANCH  15  16
ATOM     16  C   UNL A   1      31.253  25.614  25.836  1.00  0.00     0.226 C 
ATOM     17  N   UNL A   1      30.853  26.980  25.812  1.00  0.00    -0.311 N 
ATOM     18  H   UNL A   1      29.915  27.143  25.560  1.00  0.00     0.171 HD
ATOM     19  O   UNL A   1      30.302  24.862  25.679  1.00  0.00    -0.275 OA
BRANCH  17  20
ATOM     20  C   UNL A   1      31.592  28.102  26.092  1.00  0.00     0.131 A 
ATOM     21  N   UNL A   1      31.900  29.112  25.202  1.00  0.00    -0.246 N 
ATOM     22  N   UNL A   1      32.820  29.964  25.704  1.00  0.00    -0.179 NA
ATOM     23  C   UNL A   1      32.920  29.611  26.986  1.00  0.00     0.137 A 
ATOM     24  C   UNL A   1      32.134  28.487  27.295  1.00  0.00     0.068 A 
BRANCH  21  25
ATOM     25  C   UNL A   1      31.266  29.389  23.914  1.00  0.00     0.120 C 
ATOM     26  C   UNL A   1      31.687  28.362  22.847  1.00  0.00     0.034 C 
BRANCH  25  27
ATOM     27  C   UNL A   1      29.731  29.543  23.923  1.00  0.00     0.079 C 
ATOM     28  C   UNL A   1      29.170  30.907  23.491  1.00  0.00     0.045 C 
ATOM     29  S   UNL A   1      28.791  28.302  22.937  1.00  0.00    -0.128 SA
ATOM     30  C   UNL A   1      27.779  30.668  22.983  1.00  0.00    -0.019 C 
ATOM     31  C   UNL A   1      27.485  29.404  22.668  1.00  0.00     0.037 C 
ENDBRANCH  25  27
ENDBRANCH  21  25
ENDBRANCH  17  20
ENDBRANCH  15  16
ENDBRANCH   9  15
ENDBRANCH   8   9
ENDBRANCH   6   8
ENDBRANCH   5   6
ENDBRANCH   4   5
ENDBRANCH   3   4
ENDBRANCH   2   3
ENDBRANCH   1   2
BRANCH   1  32
ATOM     32  C   UNL A   1      40.805  20.560  26.721  1.00  0.00     0.188 C 
BRANCH  32  33
ATOM     33  O   UNL A   1      41.603  19.742  25.878  1.00  0.00    -0.377 OA
BRANCH  33  34
ATOM     34  C   UNL A   1      42.631  18.926  26.439  1.00  0.00     0.188 C 
BRANCH  34  35
ATOM     35  C   UNL A   1      43.761  18.464  25.520  1.00  0.00     0.188 C 
BRANCH  35  36
ATOM     36  O   UNL A   1      44.972  19.236  25.498  1.00  0.00    -0.376 OA
BRANCH  36  37
ATOM     37  C   UNL A   1      45.083  20.367  24.640  1.00  0.00     0.202 C 
BRANCH  37  38
ATOM     38  C   UNL A   1      44.772  21.688  25.306  1.00  0.00     0.261 C 
BRANCH  38  39
ATOM     39  O   UNL A   1      45.987  22.320  25.679  1.00  0.00    -0.460 OA
BRANCH  39  40
ATOM     40  C   UNL A   1      46.361  23.309  24.851  1.00  0.00     0.338 C 
ATOM     41  O   UNL A   1      46.799  23.210  23.706  1.00  0.00    -0.246 OA
BRANCH  40  42
ATOM     42  C   UNL A   1      46.423  24.547  25.615  1.00  0.00     0.060 A 
ATOM     43  C   UNL A   1      46.731  24.397  26.968  1.00  0.00     0.016 A 
ATOM     44  C   UNL A   1      45.762  25.675  25.102  1.00  0.00     0.016 A 
ATOM     45  C   UNL A   1      46.141  25.261  27.850  1.00  0.00     0.010 A 
ATOM     46  C   UNL A   1      45.141  26.512  25.987  1.00  0.00     0.010 A 
ATOM     47  C   UNL A   1      45.286  26.248  27.346  1.00  0.00    -0.014 A 
BRANCH  47  48
ATOM     48  C   UNL A   1      44.702  27.160  28.295  1.00  0.00     0.031 A 
ATOM     49  C   UNL A   1      45.603  28.304  28.528  1.00  0.00     0.074 A 
ATOM     50  C   UNL A   1      43.458  27.005  28.778  1.00  0.00     0.049 A 
ATOM     51  N   UNL A   1      46.226  28.596  29.616  1.00  0.00    -0.248 NA
ATOM     52  C   UNL A   1      46.038  29.091  27.357  1.00  0.00     0.031 C 
ATOM     53  C   UNL A   1      42.452  26.044  28.314  1.00  0.00     0.029 A 
ATOM     54  N   UNL A   1      42.781  27.751  29.694  1.00  0.00    -0.354 N 
ATOM     55  C   UNL A   1      46.917  29.767  29.327  1.00  0.00     0.074 A 
ATOM     56  C   UNL A   1      46.971  29.873  27.897  1.00  0.00     0.031 C 
ATOM     57  C   UNL A   1      41.241  26.420  28.777  1.00  0.00     0.029 A 
ATOM     58  C   UNL A   1      41.406  27.564  29.658  1.00  0.00     0.049 A 
ATOM     59  H   UNL A   1      43.226  28.364  30.324  1.00  0.00     0.167 HD
ATOM     60  C   UNL A   1      47.006  30.728  30.281  1.00  0.00     0.037 A 
ATOM     61  C   UNL A   1      40.477  28.354  30.249  1.00  0.00     0.037 A 
ATOM     62  C   UNL A   1      46.757  30.167  31.584  1.00  0.00     0.049 A 
ATOM     63  C   UNL A   1      41.155  29.130  31.317  1.00  0.00     0.074 A 
ATOM     64  C   UNL A   1      47.444  29.391  32.490  1.00  0.00     0.029 A 
ATOM     65  N   UNL A   1      45.430  30.098  31.913  1.00  0.00    -0.354 N 
ATOM     66  N   UNL A   1      41.631  28.594  32.407  1.00  0.00    -0.248 NA
ATOM     67  C   UNL A   1      41.617  30.489  31.038  1.00  0.00     0.031 C 
ATOM     68  C   UNL A   1      46.465  28.789  33.335  1.00  0.00     0.029 A 
ATOM     69  C   UNL A   1      45.202  29.227  32.942  1.00  0.00     0.049 A 
ATOM     70  H   UNL A   1      44.723  30.613  31.461  1.00  0.00     0.167 HD
ATOM     71  C   UNL A   1      42.744  29.355  32.703  1.00  0.00     0.074 A 
ATOM     72  C   UNL A   1      42.581  30.594  31.957  1.00  0.00     0.031 C 
ATOM     73  C   UNL A   1      43.859  28.779  33.232  1.00  0.00     0.037 A 
BRANCH  60  74
ATOM     74  C   UNL A   1      46.746  32.199  30.014  1.00  0.00     0.064 A 
ATOM     75  C   UNL A   1      45.510  32.556  29.439  1.00  0.00     0.173 A 
ATOM     76  C   UNL A   1      47.739  33.205  29.978  1.00  0.00     0.173 A 
ATOM     77  F   UNL A   1      44.495  31.679  29.407  1.00  0.00    -0.203 F 
ATOM     78  C   UNL A   1      45.318  33.784  28.801  1.00  0.00     0.198 A 
ATOM     79  C   UNL A   1      47.528  34.446  29.383  1.00  0.00     0.198 A 
ATOM     80  F   UNL A   1      48.989  33.008  30.409  1.00  0.00    -0.203 F 
ATOM     81  F   UNL A   1      44.168  34.024  28.157  1.00  0.00    -0.200 F 
ATOM     82  C   UNL A   1      46.330  34.724  28.765  1.00  0.00     0.200 A 
ATOM     83  F   UNL A   1      48.532  35.334  29.342  1.00  0.00    -0.200 F 
ATOM     84  F   UNL A   1      46.172  35.875  28.099  1.00  0.00    -0.200 F 
ENDBRANCH  60  74
BRANCH  61  85
ATOM     85  C   UNL A   1      39.096  28.661  29.804  1.00  0.00     0.064 A 
ATOM     86  C   UNL A   1      38.056  28.797  30.739  1.00  0.00     0.173 A 
ATOM     87  C   UNL A   1      38.814  29.088  28.491  1.00  0.00     0.173 A 
ATOM     88  F   UNL A   1      38.250  28.450  32.020  1.00  0.00    -0.203 F 
ATOM     89  C   UNL A   1      36.826  29.364  30.393  1.00  0.00     0.198 A 
ATOM     90  C   UNL A   1      37.581  29.639  28.143  1.00  0.00     0.198 A 
ATOM     91  F   UNL A   1      39.757  29.069  27.539  1.00  0.00    -0.203 F 
ATOM     92  F   UNL A   1      35.888  29.547  31.332  1.00  0.00    -0.200 F 
ATOM     93  C   UNL A   1      36.593  29.794  29.098  1.00  0.00     0.200 A 
ATOM     94  F   UNL A   1      37.380  30.078  26.893  1.00  0.00    -0.200 F 
ATOM     95  F   UNL A   1      35.439  30.397  28.780  1.00  0.00    -0.200 F 
ENDBRANCH  61  85
BRANCH  73  96
ATOM     96  C   UNL A   1      43.681  27.528  34.028  1.00  0.00     0.064 A 
ATOM     97  C   UNL A   1      43.779  26.229  33.508  1.00  0.00     0.173 A 
ATOM     98  C   UNL A   1      43.465  27.663  35.407  1.00  0.00     0.173 A 
ATOM     99  F   UNL A   1      44.061  26.023  32.213  1.00  0.00    -0.203 F 
ATOM    100  C   UNL A   1      43.626  25.115  34.332  1.00  0.00     0.198 A 
ATOM    101  C   UNL A   1      43.355  26.551  36.234  1.00  0.00     0.198 A 
ATOM    102  F   UNL A   1      43.399  28.885  35.961  1.00  0.00    -0.203 F 
ATOM    103  F   UNL A   1      43.699  23.881  33.814  1.00  0.00    -0.200 F 
ATOM    104  C   UNL A   1      43.422  25.277  35.695  1.00  0.00     0.200 A 
ATOM    105  F   UNL A   1      43.200  26.717  37.554  1.00  0.00    -0.200 F 
ATOM    106  F   UNL A   1      43.312  24.206  36.492  1.00  0.00    -0.200 F 
ENDBRANCH  73  96
ENDBRANCH  47  48
ENDBRANCH  40  42
ENDBRANCH  39  40
ENDBRANCH  38  39
ENDBRANCH  37  38
ENDBRANCH  36  37
ENDBRANCH  35  36
ENDBRANCH  34  35
ENDBRANCH  33  34
ENDBRANCH  32  33
ENDBRANCH   1  32
TORSDOF 26
ENDMDL
MODEL 2
REMARK VINA RESULT:      -9.8      2.708      6.654
REMARK SMILES C[C@@H]([C@H]1CC=CS1)n1nccc1NC(=O)CC1(CC(=O)OCCOCCOCCOCCOC(=O)c2ccc(-c3c4nc(c(-c5c(F)c(F)c(F)c(F)c5F)c5ccc([nH]5)c(-c5c(F)c(F)c(F)c(F)c5F)c5nc(c(-c6c(F)c(F)c(F)c(F)c6F)c6ccc3[nH]6)C=C5)C=C4)cc2)CCCCC1
REMARK SMILES IDX 25 1 24 2 23 3 22 4 21 5 19 6 20 7 18 8 17 9 99 10 103 11
REMARK SMILES IDX 100 12 102 13 101 14 16 15 14 16 13 17 15 19 12 20 8 21 9 22
REMARK SMILES IDX 10 23 11 24 2 25 1 26 3 27 4 28 7 29 5 30 6 31 26 32 27 33
REMARK SMILES IDX 28 34 29 35 30 36 31 37 32 38 33 39 34 40 35 41 36 42 37 43
REMARK SMILES IDX 98 44 38 45 97 46 39 47 40 48 41 49 91 50 42 51 96 52 90 53
REMARK SMILES IDX 92 54 43 55 95 56 89 57 88 58 44 60 76 61 56 62 75 63 57 64
REMARK SMILES IDX 60 65 74 66 93 67 58 68 59 69 73 71 94 72 61 73 45 74 46 75
REMARK SMILES IDX 54 76 47 77 48 78 52 79 55 80 49 81 50 82 53 83 51 84 77 85
REMARK SMILES IDX 78 86 86 87 79 88 80 89 84 90 87 91 81 92 82 93 85 94 83 95
REMARK SMILES IDX 62 96 63 97 71 98 64 99 65 100 69 101 72 102 66 103 67 104
REMARK SMILES IDX 70 105 68 106
REMARK H PARENT 13 18 92 59 60 70
REMARK Flexibility Score: inf
ROOT
ATOM      1  C   UNL A   1      41.356  19.875  26.114  1.00  0.00     0.188 C 
ENDROOT
BRANCH   1   2
ATOM      2  O   UNL A   1      40.696  20.221  27.323  1.00  0.00    -0.376 OA
BRANCH   2   3
ATOM      3  C   UNL A   1      40.463  21.613  27.555  1.00  0.00     0.202 C 
BRANCH   3   4
ATOM      4  C   UNL A   1      39.869  22.424  26.386  1.00  0.00     0.261 C 
BRANCH   4   5
ATOM      5  O   UNL A   1      38.699  21.794  25.800  1.00  0.00    -0.463 OA
BRANCH   5   6
ATOM      6  C   UNL A   1      37.610  22.569  25.594  1.00  0.00     0.306 C 
ATOM      7  O   UNL A   1      37.565  23.769  25.849  1.00  0.00    -0.252 OA
BRANCH   6   8
ATOM      8  C   UNL A   1      36.481  21.882  24.819  1.00  0.00     0.130 C 
BRANCH   8   9
ATOM      9  C   UNL A   1      34.991  22.364  24.789  1.00  0.00    -0.010 C 
ATOM     10  C   UNL A   1      34.545  22.722  26.236  1.00  0.00     0.008 C 
ATOM     11  C   UNL A   1      33.994  21.298  24.252  1.00  0.00     0.008 C 
ATOM     12  C   UNL A   1      34.304  21.543  27.172  1.00  0.00     0.001 C 
ATOM     13  C   UNL A   1      33.772  20.111  25.190  1.00  0.00     0.001 C 
ATOM     14  C   UNL A   1      33.307  20.570  26.565  1.00  0.00     0.000 C 
BRANCH   9  15
ATOM     15  C   UNL A   1      34.792  23.654  23.906  1.00  0.00     0.108 C 
BRANCH  15  16
ATOM     16  C   UNL A   1      33.624  23.761  22.937  1.00  0.00     0.226 C 
ATOM     17  N   UNL A   1      32.273  24.028  23.297  1.00  0.00    -0.311 N 
ATOM     18  H   UNL A   1      31.659  24.195  22.546  1.00  0.00     0.171 HD
ATOM     19  O   UNL A   1      33.753  23.636  21.728  1.00  0.00    -0.275 OA
BRANCH  17  20
ATOM     20  C   UNL A   1      31.708  24.087  24.547  1.00  0.00     0.131 A 
ATOM     21  N   UNL A   1      31.710  25.184  25.386  1.00  0.00    -0.246 N 
ATOM     22  N   UNL A   1      31.275  24.870  26.626  1.00  0.00    -0.179 NA
ATOM     23  C   UNL A   1      30.795  23.633  26.496  1.00  0.00     0.137 A 
ATOM     24  C   UNL A   1      30.992  23.116  25.203  1.00  0.00     0.068 A 
BRANCH  21  25
ATOM     25  C   UNL A   1      31.999  26.574  25.036  1.00  0.00     0.120 C 
ATOM     26  C   UNL A   1      30.722  27.326  24.620  1.00  0.00     0.034 C 
BRANCH  25  27
ATOM     27  C   UNL A   1      32.782  27.397  26.080  1.00  0.00     0.079 C 
ATOM     28  C   UNL A   1      34.014  28.161  25.574  1.00  0.00     0.045 C 
ATOM     29  S   UNL A   1      31.802  28.636  27.028  1.00  0.00    -0.128 SA
ATOM     30  C   UNL A   1      34.230  29.314  26.510  1.00  0.00    -0.019 C 
ATOM     31  C   UNL A   1      33.187  29.642  27.277  1.00  0.00     0.037 C 
ENDBRANCH  25  27
ENDBRANCH  21  25
ENDBRANCH  17  20
ENDBRANCH  15  16
ENDBRANCH   9  15
ENDBRANCH   8   9
ENDBRANCH   6   8
ENDBRANCH   5   6
ENDBRANCH   4   5
ENDBRANCH   3   4
ENDBRANCH   2   3
ENDBRANCH   1   2
BRANCH   1  32
ATOM     32  C   UNL A   1      42.557  18.947  26.265  1.00  0.00     0.188 C 
BRANCH  32  33
ATOM     33  O   UNL A   1      43.752  19.430  25.669  1.00  0.00    -0.377 OA
BRANCH  33  34
ATOM     34  C   UNL A   1      44.076  20.818  25.745  1.00  0.00     0.188 C 
BRANCH  34  35
ATOM     35  C   UNL A   1      44.861  21.434  24.587  1.00  0.00     0.188 C 
BRANCH  35  36
ATOM     36  O   UNL A   1      44.350  22.634  23.988  1.00  0.00    -0.376 OA
BRANCH  36  37
ATOM     37  C   UNL A   1      43.310  23.366  24.631  1.00  0.00     0.202 C 
BRANCH  37  38
ATOM     38  C   UNL A   1      43.752  24.685  25.224  1.00  0.00     0.261 C 
BRANCH  38  39
ATOM     39  O   UNL A   1      43.930  24.531  26.624  1.00  0.00    -0.460 OA
BRANCH  39  40
ATOM     40  C   UNL A   1      45.170  24.824  27.049  1.00  0.00     0.338 C 
ATOM     41  O   UNL A   1      46.227  24.284  26.727  1.00  0.00    -0.246 OA
BRANCH  40  42
ATOM     42  C   UNL A   1      45.062  25.733  28.181  1.00  0.00     0.060 A 
ATOM     43  C   UNL A   1      43.802  25.795  28.777  1.00  0.00     0.016 A 
ATOM     44  C   UNL A   1      46.015  26.757  28.301  1.00  0.00     0.016 A 
ATOM     45  C   UNL A   1      43.397  27.003  29.277  1.00  0.00     0.010 A 
ATOM     46  C   UNL A   1      45.595  27.973  28.763  1.00  0.00     0.010 A 
ATOM     47  C   UNL A   1      44.272  28.091  29.179  1.00  0.00    -0.014 A 
BRANCH  47  48
ATOM     48  C   UNL A   1      43.831  29.343  29.738  1.00  0.00     0.031 A 
ATOM     49  C   UNL A   1      43.840  29.278  31.211  1.00  0.00     0.074 A 
ATOM     50  C   UNL A   1      43.574  30.424  28.983  1.00  0.00     0.049 A 
ATOM     51  N   UNL A   1      42.822  29.314  32.000  1.00  0.00    -0.248 NA
ATOM     52  C   UNL A   1      45.103  28.908  31.878  1.00  0.00     0.031 C 
ATOM     53  C   UNL A   1      43.860  30.581  27.553  1.00  0.00     0.029 A 
ATOM     54  N   UNL A   1      43.123  31.655  29.350  1.00  0.00    -0.354 N 
ATOM     55  C   UNL A   1      43.361  29.244  33.278  1.00  0.00     0.074 A 
ATOM     56  C   UNL A   1      44.700  28.747  33.137  1.00  0.00     0.031 C 
ATOM     57  C   UNL A   1      43.799  31.892  27.235  1.00  0.00     0.029 A 
ATOM     58  C   UNL A   1      43.356  32.640  28.400  1.00  0.00     0.049 A 
ATOM     59  H   UNL A   1      42.672  31.829  30.208  1.00  0.00     0.167 HD
ATOM     60  C   UNL A   1      42.802  29.988  34.267  1.00  0.00     0.037 A 
ATOM     61  C   UNL A   1      43.267  33.978  28.599  1.00  0.00     0.037 A 
ATOM     62  C   UNL A   1      41.459  30.370  33.910  1.00  0.00     0.049 A 
ATOM     63  C   UNL A   1      42.426  34.204  29.800  1.00  0.00     0.074 A 
ATOM     64  C   UNL A   1      40.226  29.760  33.852  1.00  0.00     0.029 A 
ATOM     65  N   UNL A   1      41.390  31.504  33.148  1.00  0.00    -0.354 N 
ATOM     66  N   UNL A   1      41.147  33.946  29.844  1.00  0.00    -0.248 NA
ATOM     67  C   UNL A   1      43.065  34.411  31.098  1.00  0.00     0.031 C 
ATOM     68  C   UNL A   1      39.431  30.538  32.959  1.00  0.00     0.029 A 
ATOM     69  C   UNL A   1      40.187  31.618  32.508  1.00  0.00     0.049 A 
ATOM     70  H   UNL A   1      42.120  32.160  33.068  1.00  0.00     0.167 HD
ATOM     71  C   UNL A   1      40.926  33.546  31.146  1.00  0.00     0.074 A 
ATOM     72  C   UNL A   1      42.072  34.024  31.904  1.00  0.00     0.031 C 
ATOM     73  C   UNL A   1      40.024  32.563  31.427  1.00  0.00     0.037 A 
BRANCH  60  74
ATOM     74  C   UNL A   1      43.608  30.829  35.240  1.00  0.00     0.064 A 
ATOM     75  C   UNL A   1      43.371  30.651  36.618  1.00  0.00     0.173 A 
ATOM     76  C   UNL A   1      44.328  31.997  34.899  1.00  0.00     0.173 A 
ATOM     77  F   UNL A   1      42.689  29.583  37.059  1.00  0.00    -0.203 F 
ATOM     78  C   UNL A   1      43.744  31.610  37.562  1.00  0.00     0.198 A 
ATOM     79  C   UNL A   1      44.740  32.927  35.850  1.00  0.00     0.198 A 
ATOM     80  F   UNL A   1      44.571  32.358  33.635  1.00  0.00    -0.203 F 
ATOM     81  F   UNL A   1      43.381  31.456  38.843  1.00  0.00    -0.200 F 
ATOM     82  C   UNL A   1      44.420  32.752  37.176  1.00  0.00     0.200 A 
ATOM     83  F   UNL A   1      45.375  34.039  35.448  1.00  0.00    -0.200 F 
ATOM     84  F   UNL A   1      44.722  33.703  38.069  1.00  0.00    -0.200 F 
ENDBRANCH  60  74
BRANCH  61  85
ATOM     85  C   UNL A   1      44.048  35.067  27.964  1.00  0.00     0.064 A 
ATOM     86  C   UNL A   1      43.399  36.153  27.354  1.00  0.00     0.173 A 
ATOM     87  C   UNL A   1      45.435  35.207  28.172  1.00  0.00     0.173 A 
ATOM     88  F   UNL A   1      42.073  36.119  27.152  1.00  0.00    -0.203 F 
ATOM     89  C   UNL A   1      44.084  37.323  27.011  1.00  0.00     0.198 A 
ATOM     90  C   UNL A   1      46.122  36.368  27.815  1.00  0.00     0.198 A 
ATOM     91  F   UNL A   1      46.139  34.263  28.810  1.00  0.00    -0.203 F 
ATOM     92  F   UNL A   1      43.413  38.365  26.502  1.00  0.00    -0.200 F 
ATOM     93  C   UNL A   1      45.443  37.433  27.252  1.00  0.00     0.200 A 
ATOM     94  F   UNL A   1      47.431  36.472  28.081  1.00  0.00    -0.200 F 
ATOM     95  F   UNL A   1      46.089  38.576  26.985  1.00  0.00    -0.200 F 
ENDBRANCH  61  85
BRANCH  73  96
ATOM     96  C   UNL A   1      38.894  32.366  30.471  1.00  0.00     0.064 A 
ATOM     97  C   UNL A   1      38.817  31.332  29.526  1.00  0.00     0.173 A 
ATOM     98  C   UNL A   1      37.801  33.240  30.571  1.00  0.00     0.173 A 
ATOM     99  F   UNL A   1      39.789  30.413  29.427  1.00  0.00    -0.203 F 
ATOM    100  C   UNL A   1      37.708  31.208  28.691  1.00  0.00     0.198 A 
ATOM    101  C   UNL A   1      36.679  33.089  29.766  1.00  0.00     0.198 A 
ATOM    102  F   UNL A   1      37.811  34.225  31.484  1.00  0.00    -0.203 F 
ATOM    103  F   UNL A   1      37.662  30.228  27.777  1.00  0.00    -0.200 F 
ATOM    104  C   UNL A   1      36.637  32.081  28.817  1.00  0.00     0.200 A 
ATOM    105  F   UNL A   1      35.632  33.910  29.923  1.00  0.00    -0.200 F 
ATOM    106  F   UNL A   1      35.555  31.938  28.039  1.00  0.00    -0.200 F 
ENDBRANCH  73  96
ENDBRANCH  47  48
ENDBRANCH  40  42
ENDBRANCH  39  40
ENDBRANCH  38  39
ENDBRANCH  37  38
ENDBRANCH  36  37
ENDBRANCH  35  36
ENDBRANCH  34  35
ENDBRANCH  33  34
ENDBRANCH  32  33
ENDBRANCH   1  32
TORSDOF 26
ENDMDL
MODEL 3
REMARK VINA RESULT:      -9.7      2.390      6.360
REMARK SMILES C[C@@H]([C@H]1CC=CS1)n1nccc1NC(=O)CC1(CC(=O)OCCOCCOCCOCCOC(=O)c2ccc(-c3c4nc(c(-c5c(F)c(F)c(F)c(F)c5F)c5ccc([nH]5)c(-c5c(F)c(F)c(F)c(F)c5F)c5nc(c(-c6c(F)c(F)c(F)c(F)c6F)c6ccc3[nH]6)C=C5)C=C4)cc2)CCCCC1
REMARK SMILES IDX 25 1 24 2 23 3 22 4 21 5 19 6 20 7 18 8 17 9 99 10 103 11
REMARK SMILES IDX 100 12 102 13 101 14 16 15 14 16 13 17 15 19 12 20 8 21 9 22
REMARK SMILES IDX 10 23 11 24 2 25 1 26 3 27 4 28 7 29 5 30 6 31 26 32 27 33
REMARK SMILES IDX 28 34 29 35 30 36 31 37 32 38 33 39 34 40 35 41 36 42 37 43
REMARK SMILES IDX 98 44 38 45 97 46 39 47 40 48 41 49 91 50 42 51 96 52 90 53
REMARK SMILES IDX 92 54 43 55 95 56 89 57 88 58 44 60 76 61 56 62 75 63 57 64
REMARK SMILES IDX 60 65 74 66 93 67 58 68 59 69 73 71 94 72 61 73 45 74 46 75
REMARK SMILES IDX 54 76 47 77 48 78 52 79 55 80 49 81 50 82 53 83 51 84 77 85
REMARK SMILES IDX 78 86 86 87 79 88 80 89 84 90 87 91 81 92 82 93 85 94 83 95
REMARK SMILES IDX 62 96 63 97 71 98 64 99 65 100 69 101 72 102 66 103 67 104
REMARK SMILES IDX 70 105 68 106
REMARK H PARENT 13 18 92 59 60 70
REMARK Flexibility Score: inf
ROOT
ATOM      1  C   UNL A   1      41.792  19.683  26.087  1.00  0.00     0.188 C 
ENDROOT
BRANCH   1   2
ATOM      2  O   UNL A   1      41.150  20.069  27.293  1.00  0.00    -0.376 OA
BRANCH   2   3
ATOM      3  C   UNL A   1      40.703  21.424  27.382  1.00  0.00     0.202 C 
BRANCH   3   4
ATOM      4  C   UNL A   1      40.064  22.031  26.117  1.00  0.00     0.261 C 
BRANCH   4   5
ATOM      5  O   UNL A   1      38.747  21.488  25.834  1.00  0.00    -0.463 OA
BRANCH   5   6
ATOM      6  C   UNL A   1      37.746  22.368  25.600  1.00  0.00     0.306 C 
ATOM      7  O   UNL A   1      37.833  23.574  25.808  1.00  0.00    -0.252 OA
BRANCH   6   8
ATOM      8  C   UNL A   1      36.546  21.777  24.855  1.00  0.00     0.130 C 
BRANCH   8   9
ATOM      9  C   UNL A   1      35.105  22.392  24.845  1.00  0.00    -0.010 C 
ATOM     10  C   UNL A   1      34.735  22.839  26.288  1.00  0.00     0.008 C 
ATOM     11  C   UNL A   1      34.000  21.404  24.373  1.00  0.00     0.008 C 
ATOM     12  C   UNL A   1      34.415  21.722  27.273  1.00  0.00     0.001 C 
ATOM     13  C   UNL A   1      33.699  20.276  25.360  1.00  0.00     0.001 C 
ATOM     14  C   UNL A   1      33.317  20.824  26.729  1.00  0.00     0.000 C 
BRANCH   9  15
ATOM     15  C   UNL A   1      34.999  23.663  23.919  1.00  0.00     0.108 C 
BRANCH  15  16
ATOM     16  C   UNL A   1      33.844  23.818  22.941  1.00  0.00     0.226 C 
ATOM     17  N   UNL A   1      32.521  24.216  23.281  1.00  0.00    -0.311 N 
ATOM     18  H   UNL A   1      31.923  24.395  22.520  1.00  0.00     0.171 HD
ATOM     19  O   UNL A   1      33.962  23.621  21.740  1.00  0.00    -0.275 OA
BRANCH  17  20
ATOM     20  C   UNL A   1      31.962  24.386  24.523  1.00  0.00     0.131 A 
ATOM     21  N   UNL A   1      32.183  25.453  25.372  1.00  0.00    -0.246 N 
ATOM     22  N   UNL A   1      31.673  25.232  26.603  1.00  0.00    -0.179 NA
ATOM     23  C   UNL A   1      30.945  24.125  26.456  1.00  0.00     0.137 A 
ATOM     24  C   UNL A   1      31.047  23.584  25.162  1.00  0.00     0.068 A 
BRANCH  21  25
ATOM     25  C   UNL A   1      32.763  26.753  25.037  1.00  0.00     0.120 C 
ATOM     26  C   UNL A   1      32.368  27.197  23.618  1.00  0.00     0.034 C 
BRANCH  25  27
ATOM     27  C   UNL A   1      32.508  27.897  26.040  1.00  0.00     0.079 C 
ATOM     28  C   UNL A   1      33.743  28.508  26.720  1.00  0.00     0.045 C 
ATOM     29  S   UNL A   1      31.552  29.335  25.395  1.00  0.00    -0.128 SA
ATOM     30  C   UNL A   1      33.377  29.907  27.118  1.00  0.00    -0.019 C 
ATOM     31  C   UNL A   1      32.303  30.422  26.512  1.00  0.00     0.037 C 
ENDBRANCH  25  27
ENDBRANCH  21  25
ENDBRANCH  17  20
ENDBRANCH  15  16
ENDBRANCH   9  15
ENDBRANCH   8   9
ENDBRANCH   6   8
ENDBRANCH   5   6
ENDBRANCH   4   5
ENDBRANCH   3   4
ENDBRANCH   2   3
ENDBRANCH   1   2
BRANCH   1  32
ATOM     32  C   UNL A   1      42.615  18.402  26.163  1.00  0.00     0.188 C 
BRANCH  32  33
ATOM     33  O   UNL A   1      43.787  18.408  25.361  1.00  0.00    -0.377 OA
BRANCH  33  34
ATOM     34  C   UNL A   1      44.739  19.463  25.497  1.00  0.00     0.188 C 
BRANCH  34  35
ATOM     35  C   UNL A   1      45.293  20.096  24.221  1.00  0.00     0.188 C 
BRANCH  35  36
ATOM     36  O   UNL A   1      44.636  21.264  23.706  1.00  0.00    -0.376 OA
BRANCH  36  37
ATOM     37  C   UNL A   1      43.997  22.174  24.596  1.00  0.00     0.202 C 
BRANCH  37  38
ATOM     38  C   UNL A   1      44.824  23.391  24.941  1.00  0.00     0.261 C 
BRANCH  38  39
ATOM     39  O   UNL A   1      45.084  23.399  26.337  1.00  0.00    -0.460 OA
BRANCH  39  40
ATOM     40  C   UNL A   1      46.242  23.992  26.671  1.00  0.00     0.338 C 
ATOM     41  O   UNL A   1      47.365  23.758  26.229  1.00  0.00    -0.246 OA
BRANCH  40  42
ATOM     42  C   UNL A   1      46.014  24.803  27.859  1.00  0.00     0.060 A 
ATOM     43  C   UNL A   1      44.717  24.757  28.372  1.00  0.00     0.016 A 
ATOM     44  C   UNL A   1      46.901  25.860  28.118  1.00  0.00     0.016 A 
ATOM     45  C   UNL A   1      44.217  25.901  28.933  1.00  0.00     0.010 A 
ATOM     46  C   UNL A   1      46.388  27.014  28.642  1.00  0.00     0.010 A 
ATOM     47  C   UNL A   1      45.037  27.034  28.976  1.00  0.00    -0.014 A 
BRANCH  47  48
ATOM     48  C   UNL A   1      44.494  28.215  29.597  1.00  0.00     0.031 A 
ATOM     49  C   UNL A   1      44.457  28.053  31.062  1.00  0.00     0.074 A 
ATOM     50  C   UNL A   1      44.192  29.325  28.903  1.00  0.00     0.049 A 
ATOM     51  N   UNL A   1      43.413  27.971  31.811  1.00  0.00    -0.248 NA
ATOM     52  C   UNL A   1      45.719  27.721  31.752  1.00  0.00     0.031 C 
ATOM     53  C   UNL A   1      44.517  29.595  27.499  1.00  0.00     0.029 A 
ATOM     54  N   UNL A   1      43.648  30.498  29.331  1.00  0.00    -0.354 N 
ATOM     55  C   UNL A   1      43.911  27.851  33.103  1.00  0.00     0.074 A 
ATOM     56  C   UNL A   1      45.284  27.451  32.982  1.00  0.00     0.031 C 
ATOM     57  C   UNL A   1      44.379  30.918  27.263  1.00  0.00     0.029 A 
ATOM     58  C   UNL A   1      43.848  31.557  28.456  1.00  0.00     0.049 A 
ATOM     59  H   UNL A   1      43.158  30.585  30.180  1.00  0.00     0.167 HD
ATOM     60  C   UNL A   1      43.271  28.490  34.114  1.00  0.00     0.037 A 
ATOM     61  C   UNL A   1      43.664  32.870  28.737  1.00  0.00     0.037 A 
ATOM     62  C   UNL A   1      41.919  28.808  33.732  1.00  0.00     0.049 A 
ATOM     63  C   UNL A   1      42.769  32.961  29.916  1.00  0.00     0.074 A 
ATOM     64  C   UNL A   1      40.731  28.126  33.587  1.00  0.00     0.029 A 
ATOM     65  N   UNL A   1      41.800  29.984  33.041  1.00  0.00    -0.354 N 
ATOM     66  N   UNL A   1      41.509  32.620  29.895  1.00  0.00    -0.248 NA
ATOM     67  C   UNL A   1      43.348  33.122  31.249  1.00  0.00     0.031 C 
ATOM     68  C   UNL A   1      39.917  28.909  32.716  1.00  0.00     0.029 A 
ATOM     69  C   UNL A   1      40.615  30.063  32.364  1.00  0.00     0.049 A 
ATOM     70  H   UNL A   1      42.487  30.689  33.033  1.00  0.00     0.167 HD
ATOM     71  C   UNL A   1      41.270  32.120  31.159  1.00  0.00     0.074 A 
ATOM     72  C   UNL A   1      42.356  32.619  31.990  1.00  0.00     0.031 C 
ATOM     73  C   UNL A   1      40.427  31.066  31.341  1.00  0.00     0.037 A 
BRANCH  60  74
ATOM     74  C   UNL A   1      43.985  29.314  35.170  1.00  0.00     0.064 A 
ATOM     75  C   UNL A   1      44.874  30.317  34.733  1.00  0.00     0.173 A 
ATOM     76  C   UNL A   1      44.100  28.960  36.534  1.00  0.00     0.173 A 
ATOM     77  F   UNL A   1      44.864  30.726  33.456  1.00  0.00    -0.203 F 
ATOM     78  C   UNL A   1      45.855  30.852  35.571  1.00  0.00     0.198 A 
ATOM     79  C   UNL A   1      45.048  29.532  37.379  1.00  0.00     0.198 A 
ATOM     80  F   UNL A   1      43.388  27.976  37.093  1.00  0.00    -0.203 F 
ATOM     81  F   UNL A   1      46.759  31.706  35.073  1.00  0.00    -0.200 F 
ATOM     82  C   UNL A   1      45.948  30.452  36.891  1.00  0.00     0.200 A 
ATOM     83  F   UNL A   1      45.133  29.111  38.650  1.00  0.00    -0.200 F 
ATOM     84  F   UNL A   1      46.927  30.914  37.678  1.00  0.00    -0.200 F 
ENDBRANCH  60  74
BRANCH  61  85
ATOM     85  C   UNL A   1      44.393  34.047  28.204  1.00  0.00     0.064 A 
ATOM     86  C   UNL A   1      43.697  35.102  27.591  1.00  0.00     0.173 A 
ATOM     87  C   UNL A   1      45.745  34.290  28.518  1.00  0.00     0.173 A 
ATOM     88  F   UNL A   1      42.396  34.970  27.291  1.00  0.00    -0.203 F 
ATOM     89  C   UNL A   1      44.303  36.338  27.345  1.00  0.00     0.198 A 
ATOM     90  C   UNL A   1      46.353  35.518  28.258  1.00  0.00     0.198 A 
ATOM     91  F   UNL A   1      46.480  33.379  29.169  1.00  0.00    -0.203 F 
ATOM     92  F   UNL A   1      43.583  37.344  26.829  1.00  0.00    -0.200 F 
ATOM     93  C   UNL A   1      45.628  36.548  27.689  1.00  0.00     0.200 A 
ATOM     94  F   UNL A   1      47.628  35.717  28.623  1.00  0.00    -0.200 F 
ATOM     95  F   UNL A   1      46.192  37.751  27.514  1.00  0.00    -0.200 F 
ENDBRANCH  61  85
BRANCH  73  96
ATOM     96  C   UNL A   1      39.345  30.861  30.332  1.00  0.00     0.064 A 
ATOM     97  C   UNL A   1      38.113  31.531  30.334  1.00  0.00     0.173 A 
ATOM     98  C   UNL A   1      39.608  29.982  29.270  1.00  0.00     0.173 A 
ATOM     99  F   UNL A   1      37.824  32.443  31.274  1.00  0.00    -0.203 F 
ATOM    100  C   UNL A   1      37.171  31.297  29.333  1.00  0.00     0.198 A 
ATOM    101  C   UNL A   1      38.684  29.782  28.252  1.00  0.00     0.198 A 
ATOM    102  F   UNL A   1      40.787  29.342  29.204  1.00  0.00    -0.203 F 
ATOM    103  F   UNL A   1      35.988  31.929  29.363  1.00  0.00    -0.200 F 
ATOM    104  C   UNL A   1      37.460  30.429  28.290  1.00  0.00     0.200 A 
ATOM    105  F   UNL A   1      38.988  28.975  27.227  1.00  0.00    -0.200 F 
ATOM    106  F   UNL A   1      36.568  30.233  27.309  1.00  0.00    -0.200 F 
ENDBRANCH  73  96
ENDBRANCH  47  48
ENDBRANCH  40  42
ENDBRANCH  39  40
ENDBRANCH  38  39
ENDBRANCH  37  38
ENDBRANCH  36  37
ENDBRANCH  35  36
ENDBRANCH  34  35
ENDBRANCH  33  34
ENDBRANCH  32  33
ENDBRANCH   1  32
TORSDOF 26
ENDMDL
