MODEL 1
REMARK VINA RESULT:     -10.5      0.000      0.000
REMARK SMILES C[C@@](COc1ccccc1)(NC(=O)CN1CSCC1=O)C(=O)OCCOCCOCCOCCOC(=O)c1ccc(-c2c3nc(c(-c4c(F)c(F)c(F)c(F)c4F)c4ccc([nH]4)c(-c4c(F)c(F)c(F)c(F)c4F)c4nc(c(-c5c(F)c(F)c(F)c(F)c5F)c5ccc2[nH]5)C=C4)C=C3)cc1
REMARK SMILES IDX 28 1 27 2 26 3 25 4 24 5 23 6 21 7 22 8 2 9 1 10 3 11 4 12
REMARK SMILES IDX 5 13 6 14 10 15 7 16 9 17 8 18 11 19 12 20 13 22 14 23 15 24
REMARK SMILES IDX 16 25 19 26 17 27 18 28 20 29 29 30 30 31 31 32 32 33 33 34
REMARK SMILES IDX 34 35 35 36 36 37 37 38 38 39 39 40 100 41 40 42 99 43 41 44
REMARK SMILES IDX 42 45 43 46 93 47 44 48 98 49 92 50 94 51 45 52 97 53 91 54
REMARK SMILES IDX 90 55 46 57 78 58 58 59 77 60 59 61 62 62 76 63 95 64 60 65
REMARK SMILES IDX 61 66 75 68 96 69 63 70 47 71 48 72 56 73 49 74 50 75 54 76
REMARK SMILES IDX 57 77 51 78 52 79 55 80 53 81 79 82 80 83 88 84 81 85 82 86
REMARK SMILES IDX 86 87 89 88 83 89 84 90 87 91 85 92 64 93 65 94 73 95 66 96
REMARK SMILES IDX 67 97 71 98 74 99 68 100 69 101 72 102 70 103
REMARK H PARENT 11 21 94 56 62 67
REMARK Flexibility Score: inf
ROOT
ATOM      1  C   UNL A   1      33.946  31.061  27.270  1.00  0.00     0.188 C 
ENDROOT
BRANCH   1   2
ATOM      2  C   UNL A   1      34.114  29.461  27.372  1.00  0.00     0.188 C 
BRANCH   2   3
ATOM      3  O   UNL A   1      33.809  27.965  26.108  1.00  0.00    -0.376 OA
BRANCH   3   4
ATOM      4  C   UNL A   1      33.371  26.483  25.873  1.00  0.00     0.202 C 
BRANCH   4   5
ATOM      5  C   UNL A   1      32.155  25.782  26.593  1.00  0.00     0.261 C 
BRANCH   5   6
ATOM      6  O   UNL A   1      31.800  24.466  26.088  1.00  0.00    -0.461 OA
BRANCH   6   7
ATOM      7  C   UNL A   1      32.745  23.481  26.055  1.00  0.00     0.335 C 
ATOM      8  O   UNL A   1      33.533  23.277  26.973  1.00  0.00    -0.249 OA
BRANCH   7   9
ATOM      9  C   UNL A   1      32.605  22.523  24.828  1.00  0.00     0.169 C 
ATOM     10  C   UNL A   1      31.193  22.426  24.224  1.00  0.00     0.051 C 
BRANCH   9  11
ATOM     11  C   UNL A   1      33.033  21.135  25.436  1.00  0.00     0.269 C 
BRANCH  11  12
ATOM     12  O   UNL A   1      32.072  20.077  25.311  1.00  0.00    -0.491 OA
BRANCH  12  13
ATOM     13  C   UNL A   1      32.444  18.887  24.732  1.00  0.00     0.119 A 
ATOM     14  C   UNL A   1      32.806  17.890  25.641  1.00  0.00     0.046 A 
ATOM     15  C   UNL A   1      32.581  18.625  23.366  1.00  0.00     0.046 A 
ATOM     16  C   UNL A   1      33.362  16.685  25.202  1.00  0.00     0.004 A 
ATOM     17  C   UNL A   1      33.195  17.445  22.926  1.00  0.00     0.004 A 
ATOM     18  C   UNL A   1      33.591  16.477  23.845  1.00  0.00     0.000 A 
ENDBRANCH  12  13
ENDBRANCH  11  12
ENDBRANCH   9  11
BRANCH   9  19
ATOM     19  N   UNL A   1      33.444  22.936  23.695  1.00  0.00    -0.336 N 
ATOM     20  C   UNL A   1      33.055  23.541  22.536  1.00  0.00     0.240 C 
ATOM     21  H   UNL A   1      34.408  22.752  23.784  1.00  0.00     0.164 HD
ATOM     22  O   UNL A   1      33.850  23.425  21.592  1.00  0.00    -0.273 OA
BRANCH  20  23
ATOM     23  C   UNL A   1      31.855  24.529  22.391  1.00  0.00     0.220 C 
BRANCH  23  24
ATOM     24  N   UNL A   1      31.581  25.965  22.724  1.00  0.00    -0.323 N 
ATOM     25  C   UNL A   1      30.291  26.825  23.871  1.00  0.00     0.190 C 
ATOM     26  C   UNL A   1      32.982  27.005  22.220  1.00  0.00     0.233 C 
ATOM     27  S   UNL A   1      30.853  29.132  24.091  1.00  0.00    -0.130 SA
ATOM     28  C   UNL A   1      32.860  28.875  22.852  1.00  0.00     0.171 C 
ATOM     29  O   UNL A   1      33.996  26.516  21.695  1.00  0.00    -0.274 OA
ENDBRANCH  23  24
ENDBRANCH  20  23
ENDBRANCH   9  19
ENDBRANCH   7   9
ENDBRANCH   6   7
ENDBRANCH   5   6
ENDBRANCH   4   5
ENDBRANCH   3   4
ENDBRANCH   2   3
ENDBRANCH   1   2
BRANCH   1  30
ATOM     30  O   UNL A   1      34.522  31.626  28.428  1.00  0.00    -0.377 OA
BRANCH  30  31
ATOM     31  C   UNL A   1      35.050  32.934  28.247  1.00  0.00     0.188 C 
BRANCH  31  32
ATOM     32  C   UNL A   1      33.827  33.837  28.145  1.00  0.00     0.188 C 
BRANCH  32  33
ATOM     33  O   UNL A   1      33.993  35.214  28.492  1.00  0.00    -0.376 OA
BRANCH  33  34
ATOM     34  C   UNL A   1      32.826  35.951  28.832  1.00  0.00     0.202 C 
BRANCH  34  35
ATOM     35  C   UNL A   1      32.743  36.426  30.295  1.00  0.00     0.261 C 
BRANCH  35  36
ATOM     36  O   UNL A   1      32.474  35.388  31.252  1.00  0.00    -0.460 OA
BRANCH  36  37
ATOM     37  C   UNL A   1      33.299  35.379  32.327  1.00  0.00     0.338 C 
ATOM     38  O   UNL A   1      33.154  35.972  33.382  1.00  0.00    -0.246 OA
BRANCH  37  39
ATOM     39  C   UNL A   1      34.424  34.459  32.075  1.00  0.00     0.060 A 
ATOM     40  C   UNL A   1      34.420  33.195  32.685  1.00  0.00     0.016 A 
ATOM     41  C   UNL A   1      35.547  34.908  31.378  1.00  0.00     0.016 A 
ATOM     42  C   UNL A   1      35.563  32.399  32.654  1.00  0.00     0.010 A 
ATOM     43  C   UNL A   1      36.708  34.135  31.392  1.00  0.00     0.010 A 
ATOM     44  C   UNL A   1      36.735  32.913  32.088  1.00  0.00    -0.014 A 
BRANCH  44  45
ATOM     45  C   UNL A   1      38.048  32.390  32.534  1.00  0.00     0.031 A 
ATOM     46  C   UNL A   1      38.683  31.322  31.681  1.00  0.00     0.074 A 
ATOM     47  C   UNL A   1      38.638  32.808  33.665  1.00  0.00     0.049 A 
ATOM     48  N   UNL A   1      39.723  30.567  31.925  1.00  0.00    -0.248 NA
ATOM     49  C   UNL A   1      38.052  31.068  30.374  1.00  0.00     0.031 C 
ATOM     50  C   UNL A   1      38.157  33.884  34.526  1.00  0.00     0.029 A 
ATOM     51  N   UNL A   1      39.768  32.347  34.292  1.00  0.00    -0.354 N 
ATOM     52  C   UNL A   1      39.862  29.753  30.807  1.00  0.00     0.074 A 
ATOM     53  C   UNL A   1      38.802  30.093  29.888  1.00  0.00     0.031 C 
ATOM     54  C   UNL A   1      38.974  33.983  35.591  1.00  0.00     0.029 A 
ATOM     55  C   UNL A   1      40.003  32.946  35.505  1.00  0.00     0.049 A 
ATOM     56  H   UNL A   1      40.353  31.654  33.910  1.00  0.00     0.167 HD
ATOM     57  C   UNL A   1      40.787  28.795  30.571  1.00  0.00     0.037 A 
ATOM     58  C   UNL A   1      40.919  32.651  36.448  1.00  0.00     0.037 A 
ATOM     59  C   UNL A   1      41.812  28.430  31.506  1.00  0.00     0.049 A 
ATOM     60  C   UNL A   1      41.872  31.504  36.211  1.00  0.00     0.074 A 
ATOM     61  C   UNL A   1      42.765  27.435  31.400  1.00  0.00     0.029 A 
ATOM     62  N   UNL A   1      42.007  29.051  32.729  1.00  0.00    -0.354 N 
ATOM     63  N   UNL A   1      41.987  30.719  35.166  1.00  0.00    -0.248 NA
ATOM     64  C   UNL A   1      42.818  31.191  37.295  1.00  0.00     0.031 C 
ATOM     65  C   UNL A   1      43.518  27.432  32.578  1.00  0.00     0.029 A 
ATOM     66  C   UNL A   1      43.063  28.456  33.394  1.00  0.00     0.049 A 
ATOM     67  H   UNL A   1      41.473  29.804  33.073  1.00  0.00     0.167 HD
ATOM     68  C   UNL A   1      43.037  29.854  35.447  1.00  0.00     0.074 A 
ATOM     69  C   UNL A   1      43.526  30.206  36.762  1.00  0.00     0.031 C 
ATOM     70  C   UNL A   1      43.553  28.859  34.686  1.00  0.00     0.037 A 
BRANCH  57  71
ATOM     71  C   UNL A   1      40.691  28.056  29.271  1.00  0.00     0.064 A 
ATOM     72  C   UNL A   1      39.849  26.944  29.122  1.00  0.00     0.173 A 
ATOM     73  C   UNL A   1      41.450  28.462  28.165  1.00  0.00     0.173 A 
ATOM     74  F   UNL A   1      39.123  26.503  30.160  1.00  0.00    -0.203 F 
ATOM     75  C   UNL A   1      39.784  26.253  27.914  1.00  0.00     0.198 A 
ATOM     76  C   UNL A   1      41.365  27.784  26.952  1.00  0.00     0.198 A 
ATOM     77  F   UNL A   1      42.276  29.514  28.260  1.00  0.00    -0.203 F 
ATOM     78  F   UNL A   1      39.006  25.169  27.806  1.00  0.00    -0.200 F 
ATOM     79  C   UNL A   1      40.537  26.678  26.829  1.00  0.00     0.200 A 
ATOM     80  F   UNL A   1      42.090  28.198  25.903  1.00  0.00    -0.200 F 
ATOM     81  F   UNL A   1      40.472  26.014  25.666  1.00  0.00    -0.200 F 
ENDBRANCH  57  71
BRANCH  58  82
ATOM     82  C   UNL A   1      40.970  33.422  37.718  1.00  0.00     0.064 A 
ATOM     83  C   UNL A   1      40.033  33.197  38.736  1.00  0.00     0.173 A 
ATOM     84  C   UNL A   1      41.923  34.431  37.923  1.00  0.00     0.173 A 
ATOM     85  F   UNL A   1      39.082  32.265  38.576  1.00  0.00    -0.203 F 
ATOM     86  C   UNL A   1      40.034  33.964  39.899  1.00  0.00     0.198 A 
ATOM     87  C   UNL A   1      41.941  35.178  39.099  1.00  0.00     0.198 A 
ATOM     88  F   UNL A   1      42.838  34.695  36.977  1.00  0.00    -0.203 F 
ATOM     89  F   UNL A   1      39.093  33.764  40.833  1.00  0.00    -0.200 F 
ATOM     90  C   UNL A   1      40.990  34.951  40.082  1.00  0.00     0.200 A 
ATOM     91  F   UNL A   1      42.871  36.127  39.274  1.00  0.00    -0.200 F 
ATOM     92  F   UNL A   1      40.988  35.693  41.199  1.00  0.00    -0.200 F 
ENDBRANCH  58  82
BRANCH  70  93
ATOM     93  C   UNL A   1      44.751  28.129  35.214  1.00  0.00     0.064 A 
ATOM     94  C   UNL A   1      44.629  26.946  35.954  1.00  0.00     0.173 A 
ATOM     95  C   UNL A   1      46.042  28.582  34.897  1.00  0.00     0.173 A 
ATOM     96  F   UNL A   1      43.416  26.481  36.289  1.00  0.00    -0.203 F 
ATOM     97  C   UNL A   1      45.759  26.249  36.373  1.00  0.00     0.198 A 
ATOM     98  C   UNL A   1      47.167  27.869  35.295  1.00  0.00     0.198 A 
ATOM     99  F   UNL A   1      46.207  29.705  34.181  1.00  0.00    -0.203 F 
ATOM    100  F   UNL A   1      45.623  25.135  37.106  1.00  0.00    -0.200 F 
ATOM    101  C   UNL A   1      47.025  26.705  36.035  1.00  0.00     0.200 A 
ATOM    102  F   UNL A   1      48.389  28.303  34.955  1.00  0.00    -0.200 F 
ATOM    103  F   UNL A   1      48.111  26.023  36.425  1.00  0.00    -0.200 F 
ENDBRANCH  70  93
ENDBRANCH  44  45
ENDBRANCH  37  39
ENDBRANCH  36  37
ENDBRANCH  35  36
ENDBRANCH  34  35
ENDBRANCH  33  34
ENDBRANCH  32  33
ENDBRANCH  31  32
ENDBRANCH  30  31
ENDBRANCH   1  30
TORSDOF 26
ENDMDL
MODEL 2
REMARK VINA RESULT:     -10.0      5.159      6.915
REMARK SMILES C[C@@](COc1ccccc1)(NC(=O)CN1CSCC1=O)C(=O)OCCOCCOCCOCCOC(=O)c1ccc(-c2c3nc(c(-c4c(F)c(F)c(F)c(F)c4F)c4ccc([nH]4)c(-c4c(F)c(F)c(F)c(F)c4F)c4nc(c(-c5c(F)c(F)c(F)c(F)c5F)c5ccc2[nH]5)C=C4)C=C3)cc1
REMARK SMILES IDX 28 1 27 2 26 3 25 4 24 5 23 6 21 7 22 8 2 9 1 10 3 11 4 12
REMARK SMILES IDX 5 13 6 14 10 15 7 16 9 17 8 18 11 19 12 20 13 22 14 23 15 24
REMARK SMILES IDX 16 25 19 26 17 27 18 28 20 29 29 30 30 31 31 32 32 33 33 34
REMARK SMILES IDX 34 35 35 36 36 37 37 38 38 39 39 40 100 41 40 42 99 43 41 44
REMARK SMILES IDX 42 45 43 46 93 47 44 48 98 49 92 50 94 51 45 52 97 53 91 54
REMARK SMILES IDX 90 55 46 57 78 58 58 59 77 60 59 61 62 62 76 63 95 64 60 65
REMARK SMILES IDX 61 66 75 68 96 69 63 70 47 71 48 72 56 73 49 74 50 75 54 76
REMARK SMILES IDX 57 77 51 78 52 79 55 80 53 81 79 82 80 83 88 84 81 85 82 86
REMARK SMILES IDX 86 87 89 88 83 89 84 90 87 91 85 92 64 93 65 94 73 95 66 96
REMARK SMILES IDX 67 97 71 98 74 99 68 100 69 101 72 102 70 103
REMARK H PARENT 11 21 94 56 62 67
REMARK Flexibility Score: inf
ROOT
ATOM      1  C   UNL A   1      34.822  34.124  28.049  1.00  0.00     0.188 C 
ENDROOT
BRANCH   1   2
ATOM      2  C   UNL A   1      33.673  32.992  28.046  1.00  0.00     0.188 C 
BRANCH   2   3
ATOM      3  O   UNL A   1      33.660  31.051  27.644  1.00  0.00    -0.376 OA
BRANCH   3   4
ATOM      4  C   UNL A   1      33.057  29.859  26.831  1.00  0.00     0.202 C 
BRANCH   4   5
ATOM      5  C   UNL A   1      32.282  28.641  27.466  1.00  0.00     0.261 C 
BRANCH   5   6
ATOM      6  O   UNL A   1      32.621  27.334  26.930  1.00  0.00    -0.461 OA
BRANCH   6   7
ATOM      7  C   UNL A   1      31.654  26.581  26.328  1.00  0.00     0.335 C 
ATOM      8  O   UNL A   1      30.534  26.423  26.805  1.00  0.00    -0.249 OA
BRANCH   7   9
ATOM      9  C   UNL A   1      32.041  26.097  24.893  1.00  0.00     0.169 C 
ATOM     10  C   UNL A   1      30.870  25.606  24.024  1.00  0.00     0.051 C 
BRANCH   9  11
ATOM     11  C   UNL A   1      33.030  24.910  25.195  1.00  0.00     0.269 C 
BRANCH  11  12
ATOM     12  O   UNL A   1      34.395  25.123  24.807  1.00  0.00    -0.491 OA
BRANCH  12  13
ATOM     13  C   UNL A   1      35.227  24.044  24.630  1.00  0.00     0.119 A 
ATOM     14  C   UNL A   1      35.771  23.534  25.811  1.00  0.00     0.046 A 
ATOM     15  C   UNL A   1      35.639  23.492  23.413  1.00  0.00     0.046 A 
ATOM     16  C   UNL A   1      36.760  22.545  25.778  1.00  0.00     0.004 A 
ATOM     17  C   UNL A   1      36.672  22.547  23.374  1.00  0.00     0.004 A 
ATOM     18  C   UNL A   1      37.237  22.078  24.557  1.00  0.00     0.000 A 
ENDBRANCH  12  13
ENDBRANCH  11  12
ENDBRANCH   9  11
BRANCH   9  19
ATOM     19  N   UNL A   1      32.653  27.164  24.088  1.00  0.00    -0.336 N 
ATOM     20  C   UNL A   1      32.045  28.248  23.527  1.00  0.00     0.240 C 
ATOM     21  H   UNL A   1      33.623  27.085  23.936  1.00  0.00     0.164 HD
ATOM     22  O   UNL A   1      32.664  28.767  22.587  1.00  0.00    -0.273 OA
BRANCH  20  23
ATOM     23  C   UNL A   1      30.806  28.994  24.113  1.00  0.00     0.220 C 
BRANCH  23  24
ATOM     24  N   UNL A   1      30.084  30.281  23.845  1.00  0.00    -0.323 N 
ATOM     25  C   UNL A   1      30.123  32.012  24.697  1.00  0.00     0.190 C 
ATOM     26  C   UNL A   1      29.338  30.251  22.190  1.00  0.00     0.233 C 
ATOM     27  S   UNL A   1      28.936  33.578  23.345  1.00  0.00    -0.130 SA
ATOM     28  C   UNL A   1      28.593  31.991  21.614  1.00  0.00     0.171 C 
ATOM     29  O   UNL A   1      29.468  29.271  21.439  1.00  0.00    -0.274 OA
ENDBRANCH  23  24
ENDBRANCH  20  23
ENDBRANCH   9  19
ENDBRANCH   7   9
ENDBRANCH   6   7
ENDBRANCH   5   6
ENDBRANCH   4   5
ENDBRANCH   3   4
ENDBRANCH   2   3
ENDBRANCH   1   2
BRANCH   1  30
ATOM     30  O   UNL A   1      34.473  35.083  29.023  1.00  0.00    -0.377 OA
BRANCH  30  31
ATOM     31  C   UNL A   1      33.085  35.131  29.334  1.00  0.00     0.188 C 
BRANCH  31  32
ATOM     32  C   UNL A   1      32.956  36.248  30.363  1.00  0.00     0.188 C 
BRANCH  32  33
ATOM     33  O   UNL A   1      32.680  35.871  31.714  1.00  0.00    -0.376 OA
BRANCH  33  34
ATOM     34  C   UNL A   1      33.634  36.231  32.705  1.00  0.00     0.202 C 
BRANCH  34  35
ATOM     35  C   UNL A   1      34.515  35.081  33.225  1.00  0.00     0.261 C 
BRANCH  35  36
ATOM     36  O   UNL A   1      35.397  34.504  32.247  1.00  0.00    -0.460 OA
BRANCH  36  37
ATOM     37  C   UNL A   1      35.192  33.188  32.003  1.00  0.00     0.338 C 
ATOM     38  O   UNL A   1      34.132  32.587  32.001  1.00  0.00    -0.246 OA
BRANCH  37  39
ATOM     39  C   UNL A   1      36.475  32.547  31.656  1.00  0.00     0.060 A 
ATOM     40  C   UNL A   1      37.522  32.572  32.589  1.00  0.00     0.016 A 
ATOM     41  C   UNL A   1      36.689  32.075  30.360  1.00  0.00     0.016 A 
ATOM     42  C   UNL A   1      38.806  32.183  32.212  1.00  0.00     0.010 A 
ATOM     43  C   UNL A   1      37.984  31.737  29.966  1.00  0.00     0.010 A 
ATOM     44  C   UNL A   1      39.052  31.857  30.874  1.00  0.00    -0.014 A 
BRANCH  44  45
ATOM     45  C   UNL A   1      40.420  32.012  30.327  1.00  0.00     0.031 A 
ATOM     46  C   UNL A   1      41.290  30.780  30.302  1.00  0.00     0.074 A 
ATOM     47  C   UNL A   1      40.894  33.196  29.908  1.00  0.00     0.049 A 
ATOM     48  N   UNL A   1      42.568  30.665  30.053  1.00  0.00    -0.248 NA
ATOM     49  C   UNL A   1      40.622  29.502  30.608  1.00  0.00     0.031 C 
ATOM     50  C   UNL A   1      40.126  34.433  29.814  1.00  0.00     0.029 A 
ATOM     51  N   UNL A   1      42.158  33.547  29.505  1.00  0.00    -0.354 N 
ATOM     52  C   UNL A   1      42.851  29.310  30.177  1.00  0.00     0.074 A 
ATOM     53  C   UNL A   1      41.622  28.641  30.530  1.00  0.00     0.031 C 
ATOM     54  C   UNL A   1      40.943  35.420  29.406  1.00  0.00     0.029 A 
ATOM     55  C   UNL A   1      42.299  34.890  29.258  1.00  0.00     0.049 A 
ATOM     56  H   UNL A   1      42.891  32.899  29.401  1.00  0.00     0.167 HD
ATOM     57  C   UNL A   1      44.036  28.678  30.020  1.00  0.00     0.037 A 
ATOM     58  C   UNL A   1      43.410  35.604  28.989  1.00  0.00     0.037 A 
ATOM     59  C   UNL A   1      45.264  29.352  29.711  1.00  0.00     0.049 A 
ATOM     60  C   UNL A   1      44.741  34.894  28.929  1.00  0.00     0.074 A 
ATOM     61  C   UNL A   1      46.535  28.824  29.589  1.00  0.00     0.029 A 
ATOM     62  N   UNL A   1      45.368  30.716  29.484  1.00  0.00    -0.354 N 
ATOM     63  N   UNL A   1      45.011  33.618  29.070  1.00  0.00    -0.248 NA
ATOM     64  C   UNL A   1      45.928  35.728  28.684  1.00  0.00     0.031 C 
ATOM     65  C   UNL A   1      47.415  29.875  29.319  1.00  0.00     0.029 A 
ATOM     66  C   UNL A   1      46.684  31.049  29.228  1.00  0.00     0.049 A 
ATOM     67  H   UNL A   1      44.615  31.351  29.502  1.00  0.00     0.167 HD
ATOM     68  C   UNL A   1      46.383  33.492  28.890  1.00  0.00     0.074 A 
ATOM     69  C   UNL A   1      46.893  34.821  28.633  1.00  0.00     0.031 C 
ATOM     70  C   UNL A   1      47.153  32.377  28.932  1.00  0.00     0.037 A 
BRANCH  57  71
ATOM     71  C   UNL A   1      44.054  27.194  30.227  1.00  0.00     0.064 A 
ATOM     72  C   UNL A   1      44.369  26.633  31.474  1.00  0.00     0.173 A 
ATOM     73  C   UNL A   1      43.756  26.325  29.169  1.00  0.00     0.173 A 
ATOM     74  F   UNL A   1      44.686  27.424  32.509  1.00  0.00    -0.203 F 
ATOM     75  C   UNL A   1      44.401  25.252  31.648  1.00  0.00     0.198 A 
ATOM     76  C   UNL A   1      43.766  24.944  29.353  1.00  0.00     0.198 A 
ATOM     77  F   UNL A   1      43.457  26.812  27.956  1.00  0.00    -0.203 F 
ATOM     78  F   UNL A   1      44.745  24.736  32.836  1.00  0.00    -0.200 F 
ATOM     79  C   UNL A   1      44.093  24.409  30.590  1.00  0.00     0.200 A 
ATOM     80  F   UNL A   1      43.464  24.132  28.331  1.00  0.00    -0.200 F 
ATOM     81  F   UNL A   1      44.122  23.080  30.759  1.00  0.00    -0.200 F 
ENDBRANCH  57  71
BRANCH  58  82
ATOM     82  C   UNL A   1      43.331  37.075  28.789  1.00  0.00     0.064 A 
ATOM     83  C   UNL A   1      43.081  37.617  27.520  1.00  0.00     0.173 A 
ATOM     84  C   UNL A   1      43.549  37.969  29.847  1.00  0.00     0.173 A 
ATOM     85  F   UNL A   1      42.897  36.804  26.470  1.00  0.00    -0.203 F 
ATOM     86  C   UNL A   1      43.075  38.995  27.314  1.00  0.00     0.198 A 
ATOM     87  C   UNL A   1      43.514  39.347  29.645  1.00  0.00     0.198 A 
ATOM     88  F   UNL A   1      43.801  37.504  31.080  1.00  0.00    -0.203 F 
ATOM     89  F   UNL A   1      42.889  39.485  26.080  1.00  0.00    -0.200 F 
ATOM     90  C   UNL A   1      43.288  39.860  28.377  1.00  0.00     0.200 A 
ATOM     91  F   UNL A   1      43.714  40.180  30.677  1.00  0.00    -0.200 F 
ATOM     92  F   UNL A   1      43.287  41.185  28.178  1.00  0.00    -0.200 F 
ENDBRANCH  58  82
BRANCH  70  93
ATOM     93  C   UNL A   1      48.611  32.527  28.619  1.00  0.00     0.064 A 
ATOM     94  C   UNL A   1      49.583  32.566  29.627  1.00  0.00     0.173 A 
ATOM     95  C   UNL A   1      49.041  32.548  27.283  1.00  0.00     0.173 A 
ATOM     96  F   UNL A   1      49.219  32.559  30.918  1.00  0.00    -0.203 F 
ATOM     97  C   UNL A   1      50.937  32.634  29.309  1.00  0.00     0.198 A 
ATOM     98  C   UNL A   1      50.396  32.590  26.969  1.00  0.00     0.198 A 
ATOM     99  F   UNL A   1      48.147  32.503  26.284  1.00  0.00    -0.203 F 
ATOM    100  F   UNL A   1      51.852  32.700  30.286  1.00  0.00    -0.200 F 
ATOM    101  C   UNL A   1      51.342  32.636  27.981  1.00  0.00     0.200 A 
ATOM    102  F   UNL A   1      50.785  32.577  25.686  1.00  0.00    -0.200 F 
ATOM    103  F   UNL A   1      52.646  32.686  27.677  1.00  0.00    -0.200 F 
ENDBRANCH  70  93
ENDBRANCH  44  45
ENDBRANCH  37  39
ENDBRANCH  36  37
ENDBRANCH  35  36
ENDBRANCH  34  35
ENDBRANCH  33  34
ENDBRANCH  32  33
ENDBRANCH  31  32
ENDBRANCH  30  31
ENDBRANCH   1  30
TORSDOF 26
ENDMDL
MODEL 3
REMARK VINA RESULT:      -9.9      5.116      7.605
REMARK SMILES C[C@@](COc1ccccc1)(NC(=O)CN1CSCC1=O)C(=O)OCCOCCOCCOCCOC(=O)c1ccc(-c2c3nc(c(-c4c(F)c(F)c(F)c(F)c4F)c4ccc([nH]4)c(-c4c(F)c(F)c(F)c(F)c4F)c4nc(c(-c5c(F)c(F)c(F)c(F)c5F)c5ccc2[nH]5)C=C4)C=C3)cc1
REMARK SMILES IDX 28 1 27 2 26 3 25 4 24 5 23 6 21 7 22 8 2 9 1 10 3 11 4 12
REMARK SMILES IDX 5 13 6 14 10 15 7 16 9 17 8 18 11 19 12 20 13 22 14 23 15 24
REMARK SMILES IDX 16 25 19 26 17 27 18 28 20 29 29 30 30 31 31 32 32 33 33 34
REMARK SMILES IDX 34 35 35 36 36 37 37 38 38 39 39 40 100 41 40 42 99 43 41 44
REMARK SMILES IDX 42 45 43 46 93 47 44 48 98 49 92 50 94 51 45 52 97 53 91 54
REMARK SMILES IDX 90 55 46 57 78 58 58 59 77 60 59 61 62 62 76 63 95 64 60 65
REMARK SMILES IDX 61 66 75 68 96 69 63 70 47 71 48 72 56 73 49 74 50 75 54 76
REMARK SMILES IDX 57 77 51 78 52 79 55 80 53 81 79 82 80 83 88 84 81 85 82 86
REMARK SMILES IDX 86 87 89 88 83 89 84 90 87 91 85 92 64 93 65 94 73 95 66 96
REMARK SMILES IDX 67 97 71 98 74 99 68 100 69 101 72 102 70 103
REMARK H PARENT 11 21 94 56 62 67
REMARK Flexibility Score: inf
ROOT
ATOM      1  C   UNL A   1      35.187  34.121  28.321  1.00  0.00     0.188 C 
ENDROOT
BRANCH   1   2
ATOM      2  C   UNL A   1      34.169  32.871  28.314  1.00  0.00     0.188 C 
BRANCH   2   3
ATOM      3  O   UNL A   1      34.195  31.084  27.457  1.00  0.00    -0.376 OA
BRANCH   3   4
ATOM      4  C   UNL A   1      33.401  29.872  26.869  1.00  0.00     0.202 C 
BRANCH   4   5
ATOM      5  C   UNL A   1      33.992  28.423  26.672  1.00  0.00     0.261 C 
BRANCH   5   6
ATOM      6  O   UNL A   1      33.101  27.462  26.045  1.00  0.00    -0.461 OA
BRANCH   6   7
ATOM      7  C   UNL A   1      33.558  26.691  25.016  1.00  0.00     0.335 C 
ATOM      8  O   UNL A   1      34.500  25.913  25.129  1.00  0.00    -0.249 OA
BRANCH   7   9
ATOM      9  C   UNL A   1      32.656  26.751  23.741  1.00  0.00     0.169 C 
ATOM     10  C   UNL A   1      33.376  26.476  22.409  1.00  0.00     0.051 C 
BRANCH   9  11
ATOM     11  C   UNL A   1      32.123  28.232  23.777  1.00  0.00     0.269 C 
BRANCH  11  12
ATOM     12  O   UNL A   1      30.853  28.422  24.416  1.00  0.00    -0.491 OA
BRANCH  12  13
ATOM     13  C   UNL A   1      29.843  29.067  23.743  1.00  0.00     0.119 A 
ATOM     14  C   UNL A   1      29.856  30.458  23.878  1.00  0.00     0.046 A 
ATOM     15  C   UNL A   1      28.788  28.475  23.043  1.00  0.00     0.046 A 
ATOM     16  C   UNL A   1      28.802  31.236  23.389  1.00  0.00     0.004 A 
ATOM     17  C   UNL A   1      27.702  29.244  22.607  1.00  0.00     0.004 A 
ATOM     18  C   UNL A   1      27.707  30.625  22.785  1.00  0.00     0.000 A 
ENDBRANCH  12  13
ENDBRANCH  11  12
ENDBRANCH   9  11
BRANCH   9  19
ATOM     19  N   UNL A   1      31.578  25.753  23.769  1.00  0.00    -0.336 N 
ATOM     20  C   UNL A   1      31.615  24.460  23.335  1.00  0.00     0.240 C 
ATOM     21  H   UNL A   1      30.721  26.056  24.150  1.00  0.00     0.164 HD
ATOM     22  O   UNL A   1      30.509  23.956  23.093  1.00  0.00    -0.273 OA
BRANCH  20  23
ATOM     23  C   UNL A   1      32.874  23.537  23.353  1.00  0.00     0.220 C 
BRANCH  23  24
ATOM     24  N   UNL A   1      33.221  22.181  23.893  1.00  0.00    -0.323 N 
ATOM     25  C   UNL A   1      32.370  20.456  23.757  1.00  0.00     0.190 C 
ATOM     26  C   UNL A   1      34.950  22.150  24.446  1.00  0.00     0.233 C 
ATOM     27  S   UNL A   1      33.847  18.785  24.603  1.00  0.00    -0.130 SA
ATOM     28  C   UNL A   1      35.606  20.345  24.923  1.00  0.00     0.171 C 
ATOM     29  O   UNL A   1      35.682  23.146  24.342  1.00  0.00    -0.274 OA
ENDBRANCH  23  24
ENDBRANCH  20  23
ENDBRANCH   9  19
ENDBRANCH   7   9
ENDBRANCH   6   7
ENDBRANCH   5   6
ENDBRANCH   4   5
ENDBRANCH   3   4
ENDBRANCH   2   3
ENDBRANCH   1   2
BRANCH   1  30
ATOM     30  O   UNL A   1      34.552  35.186  28.995  1.00  0.00    -0.377 OA
BRANCH  30  31
ATOM     31  C   UNL A   1      33.152  35.014  29.182  1.00  0.00     0.188 C 
BRANCH  31  32
ATOM     32  C   UNL A   1      32.776  36.029  30.254  1.00  0.00     0.188 C 
BRANCH  32  33
ATOM     33  O   UNL A   1      32.557  35.538  31.579  1.00  0.00    -0.376 OA
BRANCH  33  34
ATOM     34  C   UNL A   1      33.487  35.920  32.584  1.00  0.00     0.202 C 
BRANCH  34  35
ATOM     35  C   UNL A   1      34.252  34.764  33.253  1.00  0.00     0.261 C 
BRANCH  35  36
ATOM     36  O   UNL A   1      35.353  34.244  32.488  1.00  0.00    -0.460 OA
BRANCH  36  37
ATOM     37  C   UNL A   1      35.183  32.979  32.035  1.00  0.00     0.338 C 
ATOM     38  O   UNL A   1      34.134  32.403  31.811  1.00  0.00    -0.246 OA
BRANCH  37  39
ATOM     39  C   UNL A   1      36.501  32.373  31.768  1.00  0.00     0.060 A 
ATOM     40  C   UNL A   1      37.542  32.574  32.687  1.00  0.00     0.016 A 
ATOM     41  C   UNL A   1      36.747  31.752  30.542  1.00  0.00     0.016 A 
ATOM     42  C   UNL A   1      38.848  32.213  32.358  1.00  0.00     0.010 A 
ATOM     43  C   UNL A   1      38.060  31.440  30.190  1.00  0.00     0.010 A 
ATOM     44  C   UNL A   1      39.117  31.733  31.072  1.00  0.00    -0.014 A 
BRANCH  44  45
ATOM     45  C   UNL A   1      40.476  31.894  30.506  1.00  0.00     0.031 A 
ATOM     46  C   UNL A   1      41.369  30.679  30.517  1.00  0.00     0.074 A 
ATOM     47  C   UNL A   1      40.923  33.071  30.039  1.00  0.00     0.049 A 
ATOM     48  N   UNL A   1      42.647  30.579  30.259  1.00  0.00    -0.248 NA
ATOM     49  C   UNL A   1      40.728  29.401  30.876  1.00  0.00     0.031 C 
ATOM     50  C   UNL A   1      40.130  34.289  29.908  1.00  0.00     0.029 A 
ATOM     51  N   UNL A   1      42.176  33.430  29.609  1.00  0.00    -0.354 N 
ATOM     52  C   UNL A   1      42.957  29.235  30.429  1.00  0.00     0.074 A 
ATOM     53  C   UNL A   1      41.744  28.556  30.820  1.00  0.00     0.031 C 
ATOM     54  C   UNL A   1      40.925  35.276  29.455  1.00  0.00     0.029 A 
ATOM     55  C   UNL A   1      42.288  34.766  29.313  1.00  0.00     0.049 A 
ATOM     56  H   UNL A   1      42.920  32.793  29.522  1.00  0.00     0.167 HD
ATOM     57  C   UNL A   1      44.152  28.620  30.283  1.00  0.00     0.037 A 
ATOM     58  C   UNL A   1      43.383  35.491  29.006  1.00  0.00     0.037 A 
ATOM     59  C   UNL A   1      45.364  29.306  29.937  1.00  0.00     0.049 A 
ATOM     60  C   UNL A   1      44.727  34.804  28.958  1.00  0.00     0.074 A 
ATOM     61  C   UNL A   1      46.644  28.797  29.821  1.00  0.00     0.029 A 
ATOM     62  N   UNL A   1      45.439  30.661  29.659  1.00  0.00    -0.354 N 
ATOM     63  N   UNL A   1      45.023  33.540  29.143  1.00  0.00    -0.248 NA
ATOM     64  C   UNL A   1      45.895  35.651  28.670  1.00  0.00     0.031 C 
ATOM     65  C   UNL A   1      47.501  29.854  29.504  1.00  0.00     0.029 A 
ATOM     66  C   UNL A   1      46.746  31.010  29.377  1.00  0.00     0.049 A 
ATOM     67  H   UNL A   1      44.675  31.282  29.661  1.00  0.00     0.167 HD
ATOM     68  C   UNL A   1      46.395  33.433  28.954  1.00  0.00     0.074 A 
ATOM     69  C   UNL A   1      46.877  34.761  28.642  1.00  0.00     0.031 C 
ATOM     70  C   UNL A   1      47.187  32.335  29.028  1.00  0.00     0.037 A 
BRANCH  57  71
ATOM     71  C   UNL A   1      44.201  27.145  30.544  1.00  0.00     0.064 A 
ATOM     72  C   UNL A   1      44.546  26.637  31.805  1.00  0.00     0.173 A 
ATOM     73  C   UNL A   1      43.901  26.232  29.524  1.00  0.00     0.173 A 
ATOM     74  F   UNL A   1      44.866  27.471  32.805  1.00  0.00    -0.203 F 
ATOM     75  C   UNL A   1      44.607  25.264  32.030  1.00  0.00     0.198 A 
ATOM     76  C   UNL A   1      43.939  24.860  29.759  1.00  0.00     0.198 A 
ATOM     77  F   UNL A   1      43.573  26.669  28.299  1.00  0.00    -0.203 F 
ATOM     78  F   UNL A   1      44.980  24.798  33.229  1.00  0.00    -0.200 F 
ATOM     79  C   UNL A   1      44.297  24.377  31.008  1.00  0.00     0.200 A 
ATOM     80  F   UNL A   1      43.635  24.006  28.772  1.00  0.00    -0.200 F 
ATOM     81  F   UNL A   1      44.353  23.056  31.226  1.00  0.00    -0.200 F 
ENDBRANCH  57  71
BRANCH  58  82
ATOM     82  C   UNL A   1      43.274  36.951  28.753  1.00  0.00     0.064 A 
ATOM     83  C   UNL A   1      43.573  37.881  29.757  1.00  0.00     0.173 A 
ATOM     84  C   UNL A   1      42.825  37.447  27.519  1.00  0.00     0.173 A 
ATOM     85  F   UNL A   1      43.976  37.457  30.964  1.00  0.00    -0.203 F 
ATOM     86  C   UNL A   1      43.406  39.249  29.546  1.00  0.00     0.198 A 
ATOM     87  C   UNL A   1      42.686  38.816  27.300  1.00  0.00     0.198 A 
ATOM     88  F   UNL A   1      42.516  36.600  26.526  1.00  0.00    -0.203 F 
ATOM     89  F   UNL A   1      43.647  40.113  30.543  1.00  0.00    -0.200 F 
ATOM     90  C   UNL A   1      42.967  39.716  28.317  1.00  0.00     0.200 A 
ATOM     91  F   UNL A   1      42.267  39.263  26.108  1.00  0.00    -0.200 F 
ATOM     92  F   UNL A   1      42.802  41.031  28.116  1.00  0.00    -0.200 F 
ENDBRANCH  58  82
BRANCH  70  93
ATOM     93  C   UNL A   1      48.638  32.501  28.695  1.00  0.00     0.064 A 
ATOM     94  C   UNL A   1      49.612  32.658  29.690  1.00  0.00     0.173 A 
ATOM     95  C   UNL A   1      49.064  32.417  27.359  1.00  0.00     0.173 A 
ATOM     96  F   UNL A   1      49.252  32.753  30.978  1.00  0.00    -0.203 F 
ATOM     97  C   UNL A   1      50.962  32.739  29.358  1.00  0.00     0.198 A 
ATOM     98  C   UNL A   1      50.415  32.472  27.035  1.00  0.00     0.198 A 
ATOM     99  F   UNL A   1      48.168  32.257  26.374  1.00  0.00    -0.203 F 
ATOM    100  F   UNL A   1      51.877  32.918  30.321  1.00  0.00    -0.200 F 
ATOM    101  C   UNL A   1      51.363  32.635  28.034  1.00  0.00     0.200 A 
ATOM    102  F   UNL A   1      50.801  32.358  25.756  1.00  0.00    -0.200 F 
ATOM    103  F   UNL A   1      52.664  32.698  27.719  1.00  0.00    -0.200 F 
ENDBRANCH  70  93
ENDBRANCH  44  45
ENDBRANCH  37  39
ENDBRANCH  36  37
ENDBRANCH  35  36
ENDBRANCH  34  35
ENDBRANCH  33  34
ENDBRANCH  32  33
ENDBRANCH  31  32
ENDBRANCH  30  31
ENDBRANCH   1  30
TORSDOF 26
ENDMDL
