MODEL 1
REMARK VINA RESULT:     -10.8      0.000      0.000
REMARK SMILES CC(C)(C)C(=O)Nc1ccc(C(=O)OCCOCCOCCOCCOC(=O)c2ccc(-c3c4nc(c(-c5c(F)c(F)c(F)c(F)c5F)c5ccc([nH]5)c(-c5c(F)c(F)c(F)c(F)c5F)c5nc(c(-c6c(F)c(F)c(F)c(F)c6F)c6ccc3[nH]6)C=C5)C=C4)cc2)cc1Br
REMARK SMILES IDX 20 1 19 2 18 3 17 4 16 5 15 6 14 7 12 8 13 9 11 10 8 11 9 12
REMARK SMILES IDX 93 13 10 14 92 15 94 16 7 17 5 18 6 19 2 21 1 22 3 23 4 24
REMARK SMILES IDX 21 25 22 26 23 27 24 28 25 29 26 30 27 31 28 32 29 33 30 34
REMARK SMILES IDX 91 35 31 36 90 37 32 38 33 39 34 40 84 41 35 42 89 43 83 44
REMARK SMILES IDX 85 45 36 46 88 47 82 48 81 49 37 51 69 52 49 53 68 54 50 55
REMARK SMILES IDX 53 56 67 57 86 58 51 59 52 60 66 62 87 63 54 64 38 65 39 66
REMARK SMILES IDX 47 67 40 68 41 69 45 70 48 71 42 72 43 73 46 74 44 75 70 76
REMARK SMILES IDX 71 77 79 78 72 79 73 80 77 81 80 82 74 83 75 84 78 85 76 86
REMARK SMILES IDX 55 87 56 88 64 89 57 90 58 91 62 92 65 93 59 94 60 95 63 96
REMARK SMILES IDX 61 97
REMARK H PARENT 7 20 85 50 53 61
REMARK Flexibility Score: inf
ROOT
ATOM      1  O   UNL A   1      43.467  18.198  25.963  1.00  0.00    -0.377 OA
ENDROOT
BRANCH   1   2
ATOM      2  C   UNL A   1      42.224  18.838  26.195  1.00  0.00     0.188 C 
BRANCH   2   3
ATOM      3  C   UNL A   1      42.234  19.881  27.330  1.00  0.00     0.188 C 
BRANCH   3   4
ATOM      4  O   UNL A   1      41.455  21.028  27.051  1.00  0.00    -0.376 OA
BRANCH   4   5
ATOM      5  C   UNL A   1      40.099  20.949  26.650  1.00  0.00     0.202 C 
BRANCH   5   6
ATOM      6  C   UNL A   1      39.360  22.008  25.813  1.00  0.00     0.261 C 
BRANCH   6   7
ATOM      7  O   UNL A   1      37.978  22.193  26.085  1.00  0.00    -0.460 OA
BRANCH   7   8
ATOM      8  C   UNL A   1      37.106  21.567  25.272  1.00  0.00     0.338 C 
ATOM      9  O   UNL A   1      37.190  20.431  24.840  1.00  0.00    -0.246 OA
BRANCH   8  10
ATOM     10  C   UNL A   1      35.909  22.430  25.137  1.00  0.00     0.061 A 
ATOM     11  C   UNL A   1      33.586  23.926  25.044  1.00  0.00     0.055 A 
ATOM     12  C   UNL A   1      34.421  24.040  26.156  1.00  0.00     0.028 A 
ATOM     13  C   UNL A   1      34.044  23.297  23.884  1.00  0.00     0.042 A 
ATOM     14  C   UNL A   1      35.584  23.274  26.206  1.00  0.00     0.018 A 
ATOM     15  C   UNL A   1      35.176  22.493  23.944  1.00  0.00     0.033 A 
ATOM     16  Br  UNL A   1      33.227  23.607  22.195  1.00  0.00    -0.049 Br
BRANCH  11  17
ATOM     17  N   UNL A   1      32.256  24.316  25.198  1.00  0.00    -0.325 N 
ATOM     18  C   UNL A   1      31.761  25.597  25.210  1.00  0.00     0.229 C 
ATOM     19  O   UNL A   1      30.529  25.686  25.298  1.00  0.00    -0.274 OA
ATOM     20  H   UNL A   1      31.598  23.592  25.311  1.00  0.00     0.169 HD
BRANCH  18  21
ATOM     21  C   UNL A   1      32.641  26.885  25.021  1.00  0.00     0.041 C 
ATOM     22  C   UNL A   1      31.685  28.103  25.041  1.00  0.00     0.021 C 
ATOM     23  C   UNL A   1      33.349  26.916  23.657  1.00  0.00     0.021 C 
ATOM     24  C   UNL A   1      33.652  27.141  26.143  1.00  0.00     0.021 C 
ENDBRANCH  18  21
ENDBRANCH  11  17
ENDBRANCH   8  10
ENDBRANCH   7   8
ENDBRANCH   6   7
ENDBRANCH   5   6
ENDBRANCH   4   5
ENDBRANCH   3   4
ENDBRANCH   2   3
ENDBRANCH   1   2
BRANCH   1  25
ATOM     25  C   UNL A   1      44.263  18.635  24.859  1.00  0.00     0.188 C 
BRANCH  25  26
ATOM     26  C   UNL A   1      45.521  19.527  25.027  1.00  0.00     0.188 C 
BRANCH  26  27
ATOM     27  O   UNL A   1      45.522  20.725  24.269  1.00  0.00    -0.376 OA
BRANCH  27  28
ATOM     28  C   UNL A   1      46.170  21.869  24.795  1.00  0.00     0.202 C 
BRANCH  28  29
ATOM     29  C   UNL A   1      45.770  23.232  24.214  1.00  0.00     0.261 C 
BRANCH  29  30
ATOM     30  O   UNL A   1      44.951  24.055  25.056  1.00  0.00    -0.460 OA
BRANCH  30  31
ATOM     31  C   UNL A   1      43.621  23.834  25.031  1.00  0.00     0.338 C 
ATOM     32  O   UNL A   1      43.033  22.907  24.498  1.00  0.00    -0.246 OA
BRANCH  31  33
ATOM     33  C   UNL A   1      42.991  24.821  25.929  1.00  0.00     0.060 A 
ATOM     34  C   UNL A   1      43.437  26.149  25.908  1.00  0.00     0.016 A 
ATOM     35  C   UNL A   1      41.955  24.433  26.780  1.00  0.00     0.016 A 
ATOM     36  C   UNL A   1      42.869  27.089  26.768  1.00  0.00     0.010 A 
ATOM     37  C   UNL A   1      41.401  25.369  27.656  1.00  0.00     0.010 A 
ATOM     38  C   UNL A   1      41.880  26.692  27.678  1.00  0.00    -0.014 A 
BRANCH  38  39
ATOM     39  C   UNL A   1      41.489  27.589  28.791  1.00  0.00     0.031 A 
ATOM     40  C   UNL A   1      42.285  27.521  30.066  1.00  0.00     0.074 A 
ATOM     41  C   UNL A   1      40.457  28.442  28.681  1.00  0.00     0.049 A 
ATOM     42  N   UNL A   1      42.084  28.125  31.209  1.00  0.00    -0.248 NA
ATOM     43  C   UNL A   1      43.465  26.642  30.048  1.00  0.00     0.031 C 
ATOM     44  C   UNL A   1      39.644  28.635  27.484  1.00  0.00     0.029 A 
ATOM     45  N   UNL A   1      39.908  29.295  29.606  1.00  0.00    -0.354 N 
ATOM     46  C   UNL A   1      43.102  27.689  32.047  1.00  0.00     0.074 A 
ATOM     47  C   UNL A   1      43.902  26.748  31.293  1.00  0.00     0.031 C 
ATOM     48  C   UNL A   1      38.684  29.538  27.753  1.00  0.00     0.029 A 
ATOM     49  C   UNL A   1      38.792  29.952  29.151  1.00  0.00     0.049 A 
ATOM     50  H   UNL A   1      40.280  29.424  30.509  1.00  0.00     0.167 HD
ATOM     51  C   UNL A   1      43.350  28.047  33.328  1.00  0.00     0.037 A 
ATOM     52  C   UNL A   1      37.940  30.768  29.803  1.00  0.00     0.037 A 
ATOM     53  C   UNL A   1      42.548  28.980  34.073  1.00  0.00     0.049 A 
ATOM     54  C   UNL A   1      38.187  31.086  31.259  1.00  0.00     0.074 A 
ATOM     55  C   UNL A   1      42.724  29.422  35.373  1.00  0.00     0.029 A 
ATOM     56  N   UNL A   1      41.409  29.605  33.587  1.00  0.00    -0.354 N 
ATOM     57  N   UNL A   1      39.162  30.690  32.040  1.00  0.00    -0.248 NA
ATOM     58  C   UNL A   1      37.212  31.963  31.921  1.00  0.00     0.031 C 
ATOM     59  C   UNL A   1      41.654  30.264  35.695  1.00  0.00     0.029 A 
ATOM     60  C   UNL A   1      40.853  30.406  34.573  1.00  0.00     0.049 A 
ATOM     61  H   UNL A   1      41.049  29.496  32.678  1.00  0.00     0.167 HD
ATOM     62  C   UNL A   1      38.942  31.300  33.270  1.00  0.00     0.074 A 
ATOM     63  C   UNL A   1      37.742  32.098  33.129  1.00  0.00     0.031 C 
ATOM     64  C   UNL A   1      39.668  31.210  34.412  1.00  0.00     0.037 A 
BRANCH  51  65
ATOM     65  C   UNL A   1      44.517  27.400  34.016  1.00  0.00     0.064 A 
ATOM     66  C   UNL A   1      44.393  26.182  34.701  1.00  0.00     0.173 A 
ATOM     67  C   UNL A   1      45.787  27.994  33.962  1.00  0.00     0.173 A 
ATOM     68  F   UNL A   1      43.198  25.579  34.796  1.00  0.00    -0.203 F 
ATOM     69  C   UNL A   1      45.489  25.600  35.332  1.00  0.00     0.198 A 
ATOM     70  C   UNL A   1      46.889  27.391  34.564  1.00  0.00     0.198 A 
ATOM     71  F   UNL A   1      45.964  29.157  33.317  1.00  0.00    -0.203 F 
ATOM     72  F   UNL A   1      45.335  24.465  36.028  1.00  0.00    -0.200 F 
ATOM     73  C   UNL A   1      46.737  26.199  35.256  1.00  0.00     0.200 A 
ATOM     74  F   UNL A   1      48.096  27.965  34.476  1.00  0.00    -0.200 F 
ATOM     75  F   UNL A   1      47.792  25.633  35.856  1.00  0.00    -0.200 F 
ENDBRANCH  51  65
BRANCH  52  76
ATOM     76  C   UNL A   1      36.758  31.333  29.097  1.00  0.00     0.064 A 
ATOM     77  C   UNL A   1      36.692  32.695  28.769  1.00  0.00     0.173 A 
ATOM     78  C   UNL A   1      35.657  30.530  28.761  1.00  0.00     0.173 A 
ATOM     79  F   UNL A   1      37.705  33.511  29.093  1.00  0.00    -0.203 F 
ATOM     80  C   UNL A   1      35.563  33.235  28.155  1.00  0.00     0.198 A 
ATOM     81  C   UNL A   1      34.544  31.064  28.116  1.00  0.00     0.198 A 
ATOM     82  F   UNL A   1      35.665  29.221  29.054  1.00  0.00    -0.203 F 
ATOM     83  F   UNL A   1      35.504  34.549  27.905  1.00  0.00    -0.200 F 
ATOM     84  C   UNL A   1      34.493  32.418  27.823  1.00  0.00     0.200 A 
ATOM     85  F   UNL A   1      33.517  30.269  27.786  1.00  0.00    -0.200 F 
ATOM     86  F   UNL A   1      33.409  32.937  27.231  1.00  0.00    -0.200 F 
ENDBRANCH  52  76
BRANCH  64  87
ATOM     87  C   UNL A   1      39.227  32.036  35.588  1.00  0.00     0.064 A 
ATOM     88  C   UNL A   1      38.395  31.519  36.591  1.00  0.00     0.173 A 
ATOM     89  C   UNL A   1      39.697  33.350  35.741  1.00  0.00     0.173 A 
ATOM     90  F   UNL A   1      37.907  30.273  36.488  1.00  0.00    -0.203 F 
ATOM     91  C   UNL A   1      38.030  32.293  37.689  1.00  0.00     0.198 A 
ATOM     92  C   UNL A   1      39.360  34.109  36.858  1.00  0.00     0.198 A 
ATOM     93  F   UNL A   1      40.504  33.893  34.817  1.00  0.00    -0.203 F 
ATOM     94  F   UNL A   1      37.196  31.793  38.611  1.00  0.00    -0.200 F 
ATOM     95  C   UNL A   1      38.521  33.582  37.828  1.00  0.00     0.200 A 
ATOM     96  F   UNL A   1      39.852  35.348  37.000  1.00  0.00    -0.200 F 
ATOM     97  F   UNL A   1      38.181  34.320  38.894  1.00  0.00    -0.200 F 
ENDBRANCH  64  87
ENDBRANCH  38  39
ENDBRANCH  31  33
ENDBRANCH  30  31
ENDBRANCH  29  30
ENDBRANCH  28  29
ENDBRANCH  27  28
ENDBRANCH  26  27
ENDBRANCH  25  26
ENDBRANCH   1  25
TORSDOF 22
ENDMDL
MODEL 2
REMARK VINA RESULT:     -10.4      3.896      9.433
REMARK SMILES CC(C)(C)C(=O)Nc1ccc(C(=O)OCCOCCOCCOCCOC(=O)c2ccc(-c3c4nc(c(-c5c(F)c(F)c(F)c(F)c5F)c5ccc([nH]5)c(-c5c(F)c(F)c(F)c(F)c5F)c5nc(c(-c6c(F)c(F)c(F)c(F)c6F)c6ccc3[nH]6)C=C5)C=C4)cc2)cc1Br
REMARK SMILES IDX 20 1 19 2 18 3 17 4 16 5 15 6 14 7 12 8 13 9 11 10 8 11 9 12
REMARK SMILES IDX 93 13 10 14 92 15 94 16 7 17 5 18 6 19 2 21 1 22 3 23 4 24
REMARK SMILES IDX 21 25 22 26 23 27 24 28 25 29 26 30 27 31 28 32 29 33 30 34
REMARK SMILES IDX 91 35 31 36 90 37 32 38 33 39 34 40 84 41 35 42 89 43 83 44
REMARK SMILES IDX 85 45 36 46 88 47 82 48 81 49 37 51 69 52 49 53 68 54 50 55
REMARK SMILES IDX 53 56 67 57 86 58 51 59 52 60 66 62 87 63 54 64 38 65 39 66
REMARK SMILES IDX 47 67 40 68 41 69 45 70 48 71 42 72 43 73 46 74 44 75 70 76
REMARK SMILES IDX 71 77 79 78 72 79 73 80 77 81 80 82 74 83 75 84 78 85 76 86
REMARK SMILES IDX 55 87 56 88 64 89 57 90 58 91 62 92 65 93 59 94 60 95 63 96
REMARK SMILES IDX 61 97
REMARK H PARENT 7 20 85 50 53 61
REMARK Flexibility Score: inf
ROOT
ATOM      1  O   UNL A   1      33.978  29.015  26.117  1.00  0.00    -0.377 OA
ENDROOT
BRANCH   1   2
ATOM      2  C   UNL A   1      33.053  27.952  26.270  1.00  0.00     0.188 C 
BRANCH   2   3
ATOM      3  C   UNL A   1      31.585  28.323  25.982  1.00  0.00     0.188 C 
BRANCH   3   4
ATOM      4  O   UNL A   1      31.434  29.266  24.940  1.00  0.00    -0.376 OA
BRANCH   4   5
ATOM      5  C   UNL A   1      30.944  28.915  23.659  1.00  0.00     0.202 C 
BRANCH   5   6
ATOM      6  C   UNL A   1      31.805  28.392  22.494  1.00  0.00     0.261 C 
BRANCH   6   7
ATOM      7  O   UNL A   1      31.671  27.018  22.162  1.00  0.00    -0.460 OA
BRANCH   7   8
ATOM      8  C   UNL A   1      32.800  26.285  22.130  1.00  0.00     0.338 C 
ATOM      9  O   UNL A   1      33.653  26.287  21.260  1.00  0.00    -0.246 OA
BRANCH   8  10
ATOM     10  C   UNL A   1      32.937  25.601  23.437  1.00  0.00     0.061 A 
ATOM     11  C   UNL A   1      33.314  24.178  25.777  1.00  0.00     0.055 A 
ATOM     12  C   UNL A   1      34.400  24.843  25.207  1.00  0.00     0.028 A 
ATOM     13  C   UNL A   1      32.016  24.453  25.343  1.00  0.00     0.042 A 
ATOM     14  C   UNL A   1      34.210  25.548  24.021  1.00  0.00     0.018 A 
ATOM     15  C   UNL A   1      31.825  25.113  24.135  1.00  0.00     0.033 A 
ATOM     16  Br  UNL A   1      30.500  24.054  26.420  1.00  0.00    -0.049 Br
BRANCH  11  17
ATOM     17  N   UNL A   1      33.593  23.138  26.664  1.00  0.00    -0.325 N 
ATOM     18  C   UNL A   1      33.714  21.802  26.368  1.00  0.00     0.229 C 
ATOM     19  O   UNL A   1      34.029  21.078  27.321  1.00  0.00    -0.274 OA
ATOM     20  H   UNL A   1      33.716  23.390  27.608  1.00  0.00     0.169 HD
BRANCH  18  21
ATOM     21  C   UNL A   1      33.578  21.202  24.922  1.00  0.00     0.041 C 
ATOM     22  C   UNL A   1      33.990  19.712  25.000  1.00  0.00     0.021 C 
ATOM     23  C   UNL A   1      34.541  21.863  23.922  1.00  0.00     0.021 C 
ATOM     24  C   UNL A   1      32.153  21.204  24.359  1.00  0.00     0.021 C 
ENDBRANCH  18  21
ENDBRANCH  11  17
ENDBRANCH   8  10
ENDBRANCH   7   8
ENDBRANCH   6   7
ENDBRANCH   5   6
ENDBRANCH   4   5
ENDBRANCH   3   4
ENDBRANCH   2   3
ENDBRANCH   1   2
BRANCH   1  25
ATOM     25  C   UNL A   1      34.301  29.807  27.261  1.00  0.00     0.188 C 
BRANCH  25  26
ATOM     26  C   UNL A   1      33.673  31.201  27.527  1.00  0.00     0.188 C 
BRANCH  26  27
ATOM     27  O   UNL A   1      32.301  31.324  27.193  1.00  0.00    -0.376 OA
BRANCH  27  28
ATOM     28  C   UNL A   1      31.774  32.609  26.915  1.00  0.00     0.202 C 
BRANCH  28  29
ATOM     29  C   UNL A   1      32.659  33.817  27.251  1.00  0.00     0.261 C 
BRANCH  29  30
ATOM     30  O   UNL A   1      32.246  34.602  28.379  1.00  0.00    -0.460 OA
BRANCH  30  31
ATOM     31  C   UNL A   1      33.161  35.430  28.923  1.00  0.00     0.338 C 
ATOM     32  O   UNL A   1      33.060  36.633  29.100  1.00  0.00    -0.246 OA
BRANCH  31  33
ATOM     33  C   UNL A   1      34.258  34.594  29.448  1.00  0.00     0.060 A 
ATOM     34  C   UNL A   1      34.028  33.787  30.570  1.00  0.00     0.016 A 
ATOM     35  C   UNL A   1      35.506  34.604  28.824  1.00  0.00     0.016 A 
ATOM     36  C   UNL A   1      35.062  33.010  31.093  1.00  0.00     0.010 A 
ATOM     37  C   UNL A   1      36.547  33.843  29.360  1.00  0.00     0.010 A 
ATOM     38  C   UNL A   1      36.339  33.070  30.518  1.00  0.00    -0.014 A 
BRANCH  38  39
ATOM     39  C   UNL A   1      37.505  32.501  31.233  1.00  0.00     0.031 A 
ATOM     40  C   UNL A   1      38.254  31.373  30.577  1.00  0.00     0.074 A 
ATOM     41  C   UNL A   1      37.892  32.966  32.432  1.00  0.00     0.049 A 
ATOM     42  N   UNL A   1      39.238  30.645  31.039  1.00  0.00    -0.248 NA
ATOM     43  C   UNL A   1      37.826  31.014  29.216  1.00  0.00     0.031 C 
ATOM     44  C   UNL A   1      37.280  34.084  33.145  1.00  0.00     0.029 A 
ATOM     45  N   UNL A   1      38.892  32.535  33.270  1.00  0.00    -0.354 N 
ATOM     46  C   UNL A   1      39.536  29.737  30.031  1.00  0.00     0.074 A 
ATOM     47  C   UNL A   1      38.610  29.983  28.947  1.00  0.00     0.031 C 
ATOM     48  C   UNL A   1      37.905  34.241  34.325  1.00  0.00     0.029 A 
ATOM     49  C   UNL A   1      38.932  33.209  34.466  1.00  0.00     0.049 A 
ATOM     50  H   UNL A   1      39.519  31.814  33.035  1.00  0.00     0.167 HD
ATOM     51  C   UNL A   1      40.499  28.786  30.012  1.00  0.00     0.037 A 
ATOM     52  C   UNL A   1      39.691  32.991  35.559  1.00  0.00     0.037 A 
ATOM     53  C   UNL A   1      41.413  28.543  31.095  1.00  0.00     0.049 A 
ATOM     54  C   UNL A   1      40.700  31.867  35.547  1.00  0.00     0.074 A 
ATOM     55  C   UNL A   1      42.436  27.613  31.169  1.00  0.00     0.029 A 
ATOM     56  N   UNL A   1      41.405  29.227  32.302  1.00  0.00    -0.354 N 
ATOM     57  N   UNL A   1      40.994  31.026  34.586  1.00  0.00    -0.248 NA
ATOM     58  C   UNL A   1      41.483  31.665  36.774  1.00  0.00     0.031 C 
ATOM     59  C   UNL A   1      43.004  27.691  32.444  1.00  0.00     0.029 A 
ATOM     60  C   UNL A   1      42.386  28.719  33.139  1.00  0.00     0.049 A 
ATOM     61  H   UNL A   1      40.794  29.964  32.530  1.00  0.00     0.167 HD
ATOM     62  C   UNL A   1      42.017  30.223  35.076  1.00  0.00     0.074 A 
ATOM     63  C   UNL A   1      42.300  30.684  36.419  1.00  0.00     0.031 C 
ATOM     64  C   UNL A   1      42.668  29.200  34.468  1.00  0.00     0.037 A 
BRANCH  51  65
ATOM     65  C   UNL A   1      40.588  27.914  28.793  1.00  0.00     0.064 A 
ATOM     66  C   UNL A   1      39.873  26.711  28.686  1.00  0.00     0.173 A 
ATOM     67  C   UNL A   1      41.379  28.305  27.702  1.00  0.00     0.173 A 
ATOM     68  F   UNL A   1      39.114  26.283  29.706  1.00  0.00    -0.203 F 
ATOM     69  C   UNL A   1      39.972  25.919  27.545  1.00  0.00     0.198 A 
ATOM     70  C   UNL A   1      41.448  27.527  26.549  1.00  0.00     0.198 A 
ATOM     71  F   UNL A   1      42.082  29.447  27.748  1.00  0.00    -0.203 F 
ATOM     72  F   UNL A   1      39.324  24.747  27.488  1.00  0.00    -0.200 F 
ATOM     73  C   UNL A   1      40.751  26.330  26.475  1.00  0.00     0.200 A 
ATOM     74  F   UNL A   1      42.190  27.935  25.510  1.00  0.00    -0.200 F 
ATOM     75  F   UNL A   1      40.837  25.571  25.375  1.00  0.00    -0.200 F 
ENDBRANCH  51  65
BRANCH  52  76
ATOM     76  C   UNL A   1      39.519  33.839  36.769  1.00  0.00     0.064 A 
ATOM     77  C   UNL A   1      40.181  35.069  36.892  1.00  0.00     0.173 A 
ATOM     78  C   UNL A   1      38.713  33.425  37.841  1.00  0.00     0.173 A 
ATOM     79  F   UNL A   1      40.985  35.497  35.908  1.00  0.00    -0.203 F 
ATOM     80  C   UNL A   1      40.062  35.840  38.047  1.00  0.00     0.198 A 
ATOM     81  C   UNL A   1      38.568  34.213  38.981  1.00  0.00     0.198 A 
ATOM     82  F   UNL A   1      38.059  32.256  37.778  1.00  0.00    -0.203 F 
ATOM     83  F   UNL A   1      40.750  36.983  38.160  1.00  0.00    -0.200 F 
ATOM     84  C   UNL A   1      39.251  35.415  39.088  1.00  0.00     0.200 A 
ATOM     85  F   UNL A   1      37.773  33.803  39.979  1.00  0.00    -0.200 F 
ATOM     86  F   UNL A   1      39.135  36.156  40.198  1.00  0.00    -0.200 F 
ENDBRANCH  52  76
BRANCH  64  87
ATOM     87  C   UNL A   1      43.790  28.539  35.220  1.00  0.00     0.064 A 
ATOM     88  C   UNL A   1      43.582  27.414  36.030  1.00  0.00     0.173 A 
ATOM     89  C   UNL A   1      45.105  29.008  35.077  1.00  0.00     0.173 A 
ATOM     90  F   UNL A   1      42.343  26.932  36.211  1.00  0.00    -0.203 F 
ATOM     91  C   UNL A   1      44.644  26.798  36.687  1.00  0.00     0.198 A 
ATOM     92  C   UNL A   1      46.170  28.369  35.706  1.00  0.00     0.198 A 
ATOM     93  F   UNL A   1      45.364  30.076  34.307  1.00  0.00    -0.203 F 
ATOM     94  F   UNL A   1      44.415  25.752  37.493  1.00  0.00    -0.200 F 
ATOM     95  C   UNL A   1      45.937  27.269  36.517  1.00  0.00     0.200 A 
ATOM     96  F   UNL A   1      47.421  28.814  35.524  1.00  0.00    -0.200 F 
ATOM     97  F   UNL A   1      46.960  26.665  37.138  1.00  0.00    -0.200 F 
ENDBRANCH  64  87
ENDBRANCH  38  39
ENDBRANCH  31  33
ENDBRANCH  30  31
ENDBRANCH  29  30
ENDBRANCH  28  29
ENDBRANCH  27  28
ENDBRANCH  26  27
ENDBRANCH  25  26
ENDBRANCH   1  25
TORSDOF 22
ENDMDL
MODEL 3
REMARK VINA RESULT:     -10.3      3.546      9.416
REMARK SMILES CC(C)(C)C(=O)Nc1ccc(C(=O)OCCOCCOCCOCCOC(=O)c2ccc(-c3c4nc(c(-c5c(F)c(F)c(F)c(F)c5F)c5ccc([nH]5)c(-c5c(F)c(F)c(F)c(F)c5F)c5nc(c(-c6c(F)c(F)c(F)c(F)c6F)c6ccc3[nH]6)C=C5)C=C4)cc2)cc1Br
REMARK SMILES IDX 20 1 19 2 18 3 17 4 16 5 15 6 14 7 12 8 13 9 11 10 8 11 9 12
REMARK SMILES IDX 93 13 10 14 92 15 94 16 7 17 5 18 6 19 2 21 1 22 3 23 4 24
REMARK SMILES IDX 21 25 22 26 23 27 24 28 25 29 26 30 27 31 28 32 29 33 30 34
REMARK SMILES IDX 91 35 31 36 90 37 32 38 33 39 34 40 84 41 35 42 89 43 83 44
REMARK SMILES IDX 85 45 36 46 88 47 82 48 81 49 37 51 69 52 49 53 68 54 50 55
REMARK SMILES IDX 53 56 67 57 86 58 51 59 52 60 66 62 87 63 54 64 38 65 39 66
REMARK SMILES IDX 47 67 40 68 41 69 45 70 48 71 42 72 43 73 46 74 44 75 70 76
REMARK SMILES IDX 71 77 79 78 72 79 73 80 77 81 80 82 74 83 75 84 78 85 76 86
REMARK SMILES IDX 55 87 56 88 64 89 57 90 58 91 62 92 65 93 59 94 60 95 63 96
REMARK SMILES IDX 61 97
REMARK H PARENT 7 20 85 50 53 61
REMARK Flexibility Score: inf
ROOT
ATOM      1  O   UNL A   1      33.471  28.724  25.788  1.00  0.00    -0.377 OA
ENDROOT
BRANCH   1   2
ATOM      2  C   UNL A   1      32.633  27.647  26.172  1.00  0.00     0.188 C 
BRANCH   2   3
ATOM      3  C   UNL A   1      31.129  27.878  25.927  1.00  0.00     0.188 C 
BRANCH   3   4
ATOM      4  O   UNL A   1      30.857  28.674  24.791  1.00  0.00    -0.376 OA
BRANCH   4   5
ATOM      5  C   UNL A   1      30.520  28.116  23.533  1.00  0.00     0.202 C 
BRANCH   5   6
ATOM      6  C   UNL A   1      31.510  27.865  22.382  1.00  0.00     0.261 C 
BRANCH   6   7
ATOM      7  O   UNL A   1      31.405  26.622  21.703  1.00  0.00    -0.460 OA
BRANCH   7   8
ATOM      8  C   UNL A   1      32.515  25.861  21.645  1.00  0.00     0.338 C 
ATOM      9  O   UNL A   1      33.278  25.746  20.702  1.00  0.00    -0.246 OA
BRANCH   8  10
ATOM     10  C   UNL A   1      32.770  25.324  23.002  1.00  0.00     0.061 A 
ATOM     11  C   UNL A   1      33.392  24.187  25.444  1.00  0.00     0.055 A 
ATOM     12  C   UNL A   1      34.346  24.979  24.803  1.00  0.00     0.028 A 
ATOM     13  C   UNL A   1      32.065  24.197  25.011  1.00  0.00     0.042 A 
ATOM     14  C   UNL A   1      34.035  25.538  23.566  1.00  0.00     0.018 A 
ATOM     15  C   UNL A   1      31.760  24.711  23.756  1.00  0.00     0.033 A 
ATOM     16  Br  UNL A   1      30.643  23.636  26.142  1.00  0.00    -0.049 Br
BRANCH  11  17
ATOM     17  N   UNL A   1      33.848  23.288  26.408  1.00  0.00    -0.325 N 
ATOM     18  C   UNL A   1      34.379  22.039  26.196  1.00  0.00     0.229 C 
ATOM     19  O   UNL A   1      34.772  21.454  27.214  1.00  0.00    -0.274 OA
ATOM     20  H   UNL A   1      33.781  23.582  27.346  1.00  0.00     0.169 HD
BRANCH  18  21
ATOM     21  C   UNL A   1      34.592  21.399  24.778  1.00  0.00     0.041 C 
ATOM     22  C   UNL A   1      35.117  19.959  24.995  1.00  0.00     0.021 C 
ATOM     23  C   UNL A   1      35.671  22.131  23.962  1.00  0.00     0.021 C 
ATOM     24  C   UNL A   1      33.316  21.249  23.944  1.00  0.00     0.021 C 
ENDBRANCH  18  21
ENDBRANCH  11  17
ENDBRANCH   8  10
ENDBRANCH   7   8
ENDBRANCH   6   7
ENDBRANCH   5   6
ENDBRANCH   4   5
ENDBRANCH   3   4
ENDBRANCH   2   3
ENDBRANCH   1   2
BRANCH   1  25
ATOM     25  C   UNL A   1      34.055  29.531  26.813  1.00  0.00     0.188 C 
BRANCH  25  26
ATOM     26  C   UNL A   1      33.465  30.898  27.248  1.00  0.00     0.188 C 
BRANCH  26  27
ATOM     27  O   UNL A   1      32.070  31.051  27.043  1.00  0.00    -0.376 OA
BRANCH  27  28
ATOM     28  C   UNL A   1      31.540  32.354  26.876  1.00  0.00     0.202 C 
BRANCH  28  29
ATOM     29  C   UNL A   1      32.511  33.532  27.036  1.00  0.00     0.261 C 
BRANCH  29  30
ATOM     30  O   UNL A   1      32.513  34.171  28.320  1.00  0.00    -0.460 OA
BRANCH  30  31
ATOM     31  C   UNL A   1      33.624  34.853  28.668  1.00  0.00     0.338 C 
ATOM     32  O   UNL A   1      33.745  36.062  28.790  1.00  0.00    -0.246 OA
BRANCH  31  33
ATOM     33  C   UNL A   1      34.645  33.864  29.063  1.00  0.00     0.060 A 
ATOM     34  C   UNL A   1      34.312  32.868  29.991  1.00  0.00     0.016 A 
ATOM     35  C   UNL A   1      35.924  33.919  28.508  1.00  0.00     0.016 A 
ATOM     36  C   UNL A   1      35.274  31.941  30.393  1.00  0.00     0.010 A 
ATOM     37  C   UNL A   1      36.893  33.004  28.927  1.00  0.00     0.010 A 
ATOM     38  C   UNL A   1      36.581  32.034  29.897  1.00  0.00    -0.014 A 
BRANCH  38  39
ATOM     39  C   UNL A   1      37.675  31.264  30.534  1.00  0.00     0.031 A 
ATOM     40  C   UNL A   1      38.017  31.574  31.966  1.00  0.00     0.074 A 
ATOM     41  C   UNL A   1      38.353  30.316  29.866  1.00  0.00     0.049 A 
ATOM     42  N   UNL A   1      38.989  31.114  32.711  1.00  0.00    -0.248 NA
ATOM     43  C   UNL A   1      37.143  32.544  32.646  1.00  0.00     0.031 C 
ATOM     44  C   UNL A   1      38.083  29.891  28.495  1.00  0.00     0.029 A 
ATOM     45  N   UNL A   1      39.424  29.549  30.254  1.00  0.00    -0.354 N 
ATOM     46  C   UNL A   1      38.851  31.747  33.939  1.00  0.00     0.074 A 
ATOM     47  C   UNL A   1      37.722  32.646  33.832  1.00  0.00     0.031 C 
ATOM     48  C   UNL A   1      38.980  28.951  28.147  1.00  0.00     0.029 A 
ATOM     49  C   UNL A   1      39.909  28.740  29.257  1.00  0.00     0.049 A 
ATOM     50  H   UNL A   1      39.806  29.577  31.161  1.00  0.00     0.167 HD
ATOM     51  C   UNL A   1      39.597  31.589  35.057  1.00  0.00     0.037 A 
ATOM     52  C   UNL A   1      40.999  27.947  29.238  1.00  0.00     0.037 A 
ATOM     53  C   UNL A   1      40.721  30.697  35.156  1.00  0.00     0.049 A 
ATOM     54  C   UNL A   1      41.867  27.852  30.469  1.00  0.00     0.074 A 
ATOM     55  C   UNL A   1      41.534  30.452  36.249  1.00  0.00     0.029 A 
ATOM     56  N   UNL A   1      41.200  29.913  34.116  1.00  0.00    -0.354 N 
ATOM     57  N   UNL A   1      41.721  28.434  31.635  1.00  0.00    -0.248 NA
ATOM     58  C   UNL A   1      43.053  26.988  30.380  1.00  0.00     0.031 C 
ATOM     59  C   UNL A   1      42.543  29.569  35.852  1.00  0.00     0.029 A 
ATOM     60  C   UNL A   1      42.316  29.207  34.534  1.00  0.00     0.049 A 
ATOM     61  H   UNL A   1      40.805  29.866  33.215  1.00  0.00     0.167 HD
ATOM     62  C   UNL A   1      42.769  27.979  32.426  1.00  0.00     0.074 A 
ATOM     63  C   UNL A   1      43.541  27.065  31.610  1.00  0.00     0.031 C 
ATOM     64  C   UNL A   1      43.064  28.286  33.715  1.00  0.00     0.037 A 
BRANCH  51  65
ATOM     65  C   UNL A   1      39.241  32.425  36.253  1.00  0.00     0.064 A 
ATOM     66  C   UNL A   1      39.790  33.699  36.458  1.00  0.00     0.173 A 
ATOM     67  C   UNL A   1      38.312  31.953  37.193  1.00  0.00     0.173 A 
ATOM     68  F   UNL A   1      40.695  34.192  35.598  1.00  0.00    -0.203 F 
ATOM     69  C   UNL A   1      39.445  34.456  37.574  1.00  0.00     0.198 A 
ATOM     70  C   UNL A   1      37.943  32.728  38.290  1.00  0.00     0.198 A 
ATOM     71  F   UNL A   1      37.753  30.742  37.044  1.00  0.00    -0.203 F 
ATOM     72  F   UNL A   1      40.024  35.648  37.778  1.00  0.00    -0.200 F 
ATOM     73  C   UNL A   1      38.517  33.975  38.484  1.00  0.00     0.200 A 
ATOM     74  F   UNL A   1      37.034  32.266  39.159  1.00  0.00    -0.200 F 
ATOM     75  F   UNL A   1      38.179  34.709  39.553  1.00  0.00    -0.200 F 
ENDBRANCH  51  65
BRANCH  52  76
ATOM     76  C   UNL A   1      41.350  27.190  28.006  1.00  0.00     0.064 A 
ATOM     77  C   UNL A   1      40.904  25.874  27.812  1.00  0.00     0.173 A 
ATOM     78  C   UNL A   1      42.162  27.753  27.010  1.00  0.00     0.173 A 
ATOM     79  F   UNL A   1      40.148  25.279  28.747  1.00  0.00    -0.203 F 
ATOM     80  C   UNL A   1      41.275  25.145  26.683  1.00  0.00     0.198 A 
ATOM     81  C   UNL A   1      42.504  27.035  25.866  1.00  0.00     0.198 A 
ATOM     82  F   UNL A   1      42.620  29.006  27.144  1.00  0.00    -0.203 F 
ATOM     83  F   UNL A   1      40.880  23.872  26.552  1.00  0.00    -0.200 F 
ATOM     84  C   UNL A   1      42.069  25.728  25.708  1.00  0.00     0.200 A 
ATOM     85  F   UNL A   1      43.262  27.607  24.920  1.00  0.00    -0.200 F 
ATOM     86  F   UNL A   1      42.424  25.028  24.622  1.00  0.00    -0.200 F 
ENDBRANCH  52  76
BRANCH  64  87
ATOM     87  C   UNL A   1      44.236  27.590  34.349  1.00  0.00     0.064 A 
ATOM     88  C   UNL A   1      45.519  28.157  34.365  1.00  0.00     0.173 A 
ATOM     89  C   UNL A   1      44.055  26.361  35.003  1.00  0.00     0.173 A 
ATOM     90  F   UNL A   1      45.749  29.324  33.744  1.00  0.00    -0.203 F 
ATOM     91  C   UNL A   1      46.580  27.509  34.991  1.00  0.00     0.198 A 
ATOM     92  C   UNL A   1      45.111  25.733  35.659  1.00  0.00     0.198 A 
ATOM     93  F   UNL A   1      42.847  25.778  35.027  1.00  0.00    -0.203 F 
ATOM     94  F   UNL A   1      47.807  28.047  34.954  1.00  0.00    -0.200 F 
ATOM     95  C   UNL A   1      46.374  26.304  35.646  1.00  0.00     0.200 A 
ATOM     96  F   UNL A   1      44.904  24.579  36.309  1.00  0.00    -0.200 F 
ATOM     97  F   UNL A   1      47.394  25.690  36.262  1.00  0.00    -0.200 F 
ENDBRANCH  64  87
ENDBRANCH  38  39
ENDBRANCH  31  33
ENDBRANCH  30  31
ENDBRANCH  29  30
ENDBRANCH  28  29
ENDBRANCH  27  28
ENDBRANCH  26  27
ENDBRANCH  25  26
ENDBRANCH   1  25
TORSDOF 22
ENDMDL
