MODEL 1
REMARK VINA RESULT:     -10.0      0.000      0.000
REMARK SMILES O=C(OCCOCCOCCOCCOC(=O)c1cccc(OCC(F)F)c1)c1ccc(-c2c3nc(c(-c4c(F)c(F)c(F)c(F)c4F)c4ccc([nH]4)c(-c4c(F)c(F)c(F)c(F)c4F)c4nc(c(-c5c(F)c(F)c(F)c(F)c5F)c5ccc2[nH]5)C=C4)C=C3)cc1
REMARK SMILES IDX 10 1 9 2 8 3 7 4 6 5 5 6 4 7 3 8 2 9 1 10 29 11 30 12 91 13
REMARK SMILES IDX 31 14 90 15 32 16 33 17 34 18 84 19 35 20 89 21 83 22 85 23
REMARK SMILES IDX 36 24 88 25 82 26 81 27 37 29 69 30 49 31 68 32 50 33 53 34
REMARK SMILES IDX 67 35 86 36 51 37 52 38 66 40 87 41 54 42 38 43 39 44 47 45
REMARK SMILES IDX 40 46 41 47 45 48 48 49 42 50 43 51 46 52 44 53 70 54 71 55
REMARK SMILES IDX 79 56 72 57 73 58 77 59 80 60 74 61 75 62 78 63 76 64 55 65
REMARK SMILES IDX 56 66 64 67 57 68 58 69 62 70 65 71 59 72 60 73 63 74 61 75
REMARK SMILES IDX 11 76 12 77 13 78 14 79 15 80 16 81 17 82 18 83 19 84 28 85
REMARK SMILES IDX 20 86 22 87 21 88 23 89 24 90 25 91 26 92 27 93
REMARK H PARENT 85 28 53 39
REMARK Flexibility Score: inf
ROOT
ATOM      1  C   UNL A   1      33.691  27.887  26.123  1.00  0.00     0.188 C 
ENDROOT
BRANCH   1   2
ATOM      2  O   UNL A   1      32.538  27.721  26.941  1.00  0.00    -0.377 OA
BRANCH   2   3
ATOM      3  C   UNL A   1      31.810  28.900  27.283  1.00  0.00     0.188 C 
BRANCH   3   4
ATOM      4  C   UNL A   1      32.420  30.213  26.790  1.00  0.00     0.188 C 
BRANCH   4   5
ATOM      5  O   UNL A   1      31.432  30.986  26.112  1.00  0.00    -0.376 OA
BRANCH   5   6
ATOM      6  C   UNL A   1      31.285  32.340  26.524  1.00  0.00     0.202 C 
BRANCH   6   7
ATOM      7  C   UNL A   1      32.496  32.922  27.250  1.00  0.00     0.261 C 
BRANCH   7   8
ATOM      8  O   UNL A   1      32.240  34.196  27.859  1.00  0.00    -0.460 OA
BRANCH   8   9
ATOM      9  C   UNL A   1      32.966  34.831  28.809  1.00  0.00     0.338 C 
ATOM     10  O   UNL A   1      32.636  35.972  29.130  1.00  0.00    -0.246 OA
BRANCH   9  11
ATOM     11  C   UNL A   1      34.143  34.235  29.512  1.00  0.00     0.060 A 
ATOM     12  C   UNL A   1      34.078  33.325  30.566  1.00  0.00     0.016 A 
ATOM     13  C   UNL A   1      35.411  34.523  28.978  1.00  0.00     0.016 A 
ATOM     14  C   UNL A   1      35.213  32.740  31.105  1.00  0.00     0.010 A 
ATOM     15  C   UNL A   1      36.562  33.917  29.491  1.00  0.00     0.010 A 
ATOM     16  C   UNL A   1      36.459  33.026  30.565  1.00  0.00    -0.014 A 
BRANCH  16  17
ATOM     17  C   UNL A   1      37.643  32.459  31.228  1.00  0.00     0.031 A 
ATOM     18  C   UNL A   1      38.414  31.411  30.494  1.00  0.00     0.074 A 
ATOM     19  C   UNL A   1      38.061  32.965  32.402  1.00  0.00     0.049 A 
ATOM     20  N   UNL A   1      39.407  30.674  30.905  1.00  0.00    -0.248 NA
ATOM     21  C   UNL A   1      38.019  31.167  29.095  1.00  0.00     0.031 C 
ATOM     22  C   UNL A   1      37.441  34.094  33.105  1.00  0.00     0.029 A 
ATOM     23  N   UNL A   1      39.109  32.610  33.206  1.00  0.00    -0.354 N 
ATOM     24  C   UNL A   1      39.720  29.846  29.835  1.00  0.00     0.074 A 
ATOM     25  C   UNL A   1      38.832  30.181  28.748  1.00  0.00     0.031 C 
ATOM     26  C   UNL A   1      38.121  34.332  34.238  1.00  0.00     0.029 A 
ATOM     27  C   UNL A   1      39.162  33.323  34.380  1.00  0.00     0.049 A 
ATOM     28  H   UNL A   1      39.763  31.912  32.967  1.00  0.00     0.167 HD
ATOM     29  C   UNL A   1      40.660  28.877  29.796  1.00  0.00     0.037 A 
ATOM     30  C   UNL A   1      39.928  33.121  35.469  1.00  0.00     0.037 A 
ATOM     31  C   UNL A   1      41.535  28.594  30.898  1.00  0.00     0.049 A 
ATOM     32  C   UNL A   1      40.896  31.966  35.433  1.00  0.00     0.074 A 
ATOM     33  C   UNL A   1      42.518  27.630  30.998  1.00  0.00     0.029 A 
ATOM     34  N   UNL A   1      41.521  29.289  32.102  1.00  0.00    -0.354 N 
ATOM     35  N   UNL A   1      41.166  31.146  34.444  1.00  0.00    -0.248 NA
ATOM     36  C   UNL A   1      41.643  31.686  36.665  1.00  0.00     0.031 C 
ATOM     37  C   UNL A   1      43.057  27.701  32.286  1.00  0.00     0.029 A 
ATOM     38  C   UNL A   1      42.450  28.746  32.969  1.00  0.00     0.049 A 
ATOM     39  H   UNL A   1      40.935  30.053  32.307  1.00  0.00     0.167 HD
ATOM     40  C   UNL A   1      42.115  30.259  34.928  1.00  0.00     0.074 A 
ATOM     41  C   UNL A   1      42.399  30.663  36.290  1.00  0.00     0.031 C 
ATOM     42  C   UNL A   1      42.695  29.196  34.316  1.00  0.00     0.037 A 
BRANCH  29  43
ATOM     43  C   UNL A   1      40.718  28.013  28.574  1.00  0.00     0.064 A 
ATOM     44  C   UNL A   1      41.480  28.351  27.448  1.00  0.00     0.173 A 
ATOM     45  C   UNL A   1      39.990  26.813  28.538  1.00  0.00     0.173 A 
ATOM     46  F   UNL A   1      42.166  29.503  27.418  1.00  0.00    -0.203 F 
ATOM     47  C   UNL A   1      41.502  27.526  26.326  1.00  0.00     0.198 A 
ATOM     48  C   UNL A   1      40.033  25.979  27.426  1.00  0.00     0.198 A 
ATOM     49  F   UNL A   1      39.233  26.451  29.585  1.00  0.00    -0.203 F 
ATOM     50  F   UNL A   1      42.203  27.888  25.242  1.00  0.00    -0.200 F 
ATOM     51  C   UNL A   1      40.786  26.337  26.319  1.00  0.00     0.200 A 
ATOM     52  F   UNL A   1      39.341  24.831  27.423  1.00  0.00    -0.200 F 
ATOM     53  F   UNL A   1      40.813  25.542  25.240  1.00  0.00    -0.200 F 
ENDBRANCH  29  43
BRANCH  30  54
ATOM     54  C   UNL A   1      39.738  33.939  36.702  1.00  0.00     0.064 A 
ATOM     55  C   UNL A   1      38.907  33.510  37.745  1.00  0.00     0.173 A 
ATOM     56  C   UNL A   1      40.344  35.198  36.838  1.00  0.00     0.173 A 
ATOM     57  F   UNL A   1      38.280  32.326  37.660  1.00  0.00    -0.203 F 
ATOM     58  C   UNL A   1      38.664  34.318  38.856  1.00  0.00     0.198 A 
ATOM     59  C   UNL A   1      40.134  35.989  37.966  1.00  0.00     0.198 A 
ATOM     60  F   UNL A   1      41.145  35.669  35.871  1.00  0.00    -0.203 F 
ATOM     61  F   UNL A   1      37.810  33.911  39.806  1.00  0.00    -0.200 F 
ATOM     62  C   UNL A   1      39.281  35.555  38.968  1.00  0.00     0.200 A 
ATOM     63  F   UNL A   1      40.744  37.177  38.073  1.00  0.00    -0.200 F 
ATOM     64  F   UNL A   1      39.042  36.334  40.031  1.00  0.00    -0.200 F 
ENDBRANCH  30  54
BRANCH  42  65
ATOM     65  C   UNL A   1      43.692  28.418  35.117  1.00  0.00     0.064 A 
ATOM     66  C   UNL A   1      43.300  27.325  35.902  1.00  0.00     0.173 A 
ATOM     67  C   UNL A   1      45.058  28.723  35.035  1.00  0.00     0.173 A 
ATOM     68  F   UNL A   1      42.002  27.009  36.021  1.00  0.00    -0.203 F 
ATOM     69  C   UNL A   1      44.243  26.571  36.592  1.00  0.00     0.198 A 
ATOM     70  C   UNL A   1      46.000  27.946  35.699  1.00  0.00     0.198 A 
ATOM     71  F   UNL A   1      45.478  29.755  34.288  1.00  0.00    -0.203 F 
ATOM     72  F   UNL A   1      43.847  25.555  37.368  1.00  0.00    -0.200 F 
ATOM     73  C   UNL A   1      45.592  26.875  36.481  1.00  0.00     0.200 A 
ATOM     74  F   UNL A   1      47.305  28.229  35.575  1.00  0.00    -0.200 F 
ATOM     75  F   UNL A   1      46.502  26.135  37.129  1.00  0.00    -0.200 F 
ENDBRANCH  42  65
ENDBRANCH  16  17
ENDBRANCH   9  11
ENDBRANCH   8   9
ENDBRANCH   7   8
ENDBRANCH   6   7
ENDBRANCH   5   6
ENDBRANCH   4   5
ENDBRANCH   3   4
ENDBRANCH   2   3
ENDBRANCH   1   2
BRANCH   1  76
ATOM     76  C   UNL A   1      33.565  27.638  24.603  1.00  0.00     0.188 C 
BRANCH  76  77
ATOM     77  O   UNL A   1      32.235  27.459  24.138  1.00  0.00    -0.376 OA
BRANCH  77  78
ATOM     78  C   UNL A   1      31.918  26.159  23.651  1.00  0.00     0.202 C 
BRANCH  78  79
ATOM     79  C   UNL A   1      31.251  25.190  24.638  1.00  0.00     0.261 C 
BRANCH  79  80
ATOM     80  O   UNL A   1      32.131  24.337  25.387  1.00  0.00    -0.460 OA
BRANCH  80  81
ATOM     81  C   UNL A   1      33.197  23.769  24.767  1.00  0.00     0.338 C 
ATOM     82  O   UNL A   1      34.345  24.115  24.822  1.00  0.00    -0.246 OA
BRANCH  81  83
ATOM     83  C   UNL A   1      32.695  22.486  24.195  1.00  0.00     0.063 A 
ATOM     84  C   UNL A   1      32.376  22.427  22.834  1.00  0.00     0.016 A 
ATOM     85  C   UNL A   1      32.708  21.320  24.973  1.00  0.00     0.062 A 
ATOM     86  C   UNL A   1      32.116  21.190  22.244  1.00  0.00     0.005 A 
ATOM     87  C   UNL A   1      32.408  20.088  24.394  1.00  0.00     0.120 A 
ATOM     88  C   UNL A   1      32.130  20.030  23.023  1.00  0.00     0.046 A 
BRANCH  87  89
ATOM     89  O   UNL A   1      32.379  18.880  25.034  1.00  0.00    -0.488 OA
BRANCH  89  90
ATOM     90  C   UNL A   1      32.621  17.698  24.264  1.00  0.00     0.302 C 
BRANCH  90  91
ATOM     91  C   UNL A   1      34.104  17.372  24.179  1.00  0.00     0.379 C 
ATOM     92  F   UNL A   1      34.447  17.037  22.910  1.00  0.00    -0.207 F 
ATOM     93  F   UNL A   1      34.826  18.482  24.485  1.00  0.00    -0.207 F 
ENDBRANCH  90  91
ENDBRANCH  89  90
ENDBRANCH  87  89
ENDBRANCH  81  83
ENDBRANCH  80  81
ENDBRANCH  79  80
ENDBRANCH  78  79
ENDBRANCH  77  78
ENDBRANCH  76  77
ENDBRANCH   1  76
TORSDOF 23
ENDMDL
MODEL 2
REMARK VINA RESULT:     -10.0      0.717      1.799
REMARK SMILES O=C(OCCOCCOCCOCCOC(=O)c1cccc(OCC(F)F)c1)c1ccc(-c2c3nc(c(-c4c(F)c(F)c(F)c(F)c4F)c4ccc([nH]4)c(-c4c(F)c(F)c(F)c(F)c4F)c4nc(c(-c5c(F)c(F)c(F)c(F)c5F)c5ccc2[nH]5)C=C4)C=C3)cc1
REMARK SMILES IDX 10 1 9 2 8 3 7 4 6 5 5 6 4 7 3 8 2 9 1 10 29 11 30 12 91 13
REMARK SMILES IDX 31 14 90 15 32 16 33 17 34 18 84 19 35 20 89 21 83 22 85 23
REMARK SMILES IDX 36 24 88 25 82 26 81 27 37 29 69 30 49 31 68 32 50 33 53 34
REMARK SMILES IDX 67 35 86 36 51 37 52 38 66 40 87 41 54 42 38 43 39 44 47 45
REMARK SMILES IDX 40 46 41 47 45 48 48 49 42 50 43 51 46 52 44 53 70 54 71 55
REMARK SMILES IDX 79 56 72 57 73 58 77 59 80 60 74 61 75 62 78 63 76 64 55 65
REMARK SMILES IDX 56 66 64 67 57 68 58 69 62 70 65 71 59 72 60 73 63 74 61 75
REMARK SMILES IDX 11 76 12 77 13 78 14 79 15 80 16 81 17 82 18 83 19 84 28 85
REMARK SMILES IDX 20 86 22 87 21 88 23 89 24 90 25 91 26 92 27 93
REMARK H PARENT 85 28 53 39
REMARK Flexibility Score: inf
ROOT
ATOM      1  C   UNL A   1      33.410  28.104  25.126  1.00  0.00     0.188 C 
ENDROOT
BRANCH   1   2
ATOM      2  O   UNL A   1      32.566  27.858  26.245  1.00  0.00    -0.377 OA
BRANCH   2   3
ATOM      3  C   UNL A   1      32.154  28.990  27.010  1.00  0.00     0.188 C 
BRANCH   3   4
ATOM      4  C   UNL A   1      32.560  30.350  26.438  1.00  0.00     0.188 C 
BRANCH   4   5
ATOM      5  O   UNL A   1      31.403  31.067  26.016  1.00  0.00    -0.376 OA
BRANCH   5   6
ATOM      6  C   UNL A   1      31.257  32.393  26.508  1.00  0.00     0.202 C 
BRANCH   6   7
ATOM      7  C   UNL A   1      32.479  32.940  27.244  1.00  0.00     0.261 C 
BRANCH   7   8
ATOM      8  O   UNL A   1      32.281  34.254  27.783  1.00  0.00    -0.460 OA
BRANCH   8   9
ATOM      9  C   UNL A   1      32.949  34.852  28.799  1.00  0.00     0.338 C 
ATOM     10  O   UNL A   1      32.570  35.961  29.173  1.00  0.00    -0.246 OA
BRANCH   9  11
ATOM     11  C   UNL A   1      34.115  34.249  29.514  1.00  0.00     0.060 A 
ATOM     12  C   UNL A   1      34.033  33.361  30.585  1.00  0.00     0.016 A 
ATOM     13  C   UNL A   1      35.387  34.505  28.976  1.00  0.00     0.016 A 
ATOM     14  C   UNL A   1      35.158  32.767  31.136  1.00  0.00     0.010 A 
ATOM     15  C   UNL A   1      36.528  33.889  29.501  1.00  0.00     0.010 A 
ATOM     16  C   UNL A   1      36.409  33.020  30.592  1.00  0.00    -0.014 A 
BRANCH  16  17
ATOM     17  C   UNL A   1      37.583  32.445  31.266  1.00  0.00     0.031 A 
ATOM     18  C   UNL A   1      38.349  31.386  30.543  1.00  0.00     0.074 A 
ATOM     19  C   UNL A   1      37.998  32.954  32.440  1.00  0.00     0.049 A 
ATOM     20  N   UNL A   1      39.331  30.641  30.965  1.00  0.00    -0.248 NA
ATOM     21  C   UNL A   1      37.960  31.138  29.142  1.00  0.00     0.031 C 
ATOM     22  C   UNL A   1      37.384  34.093  33.132  1.00  0.00     0.029 A 
ATOM     23  N   UNL A   1      39.037  32.593  33.253  1.00  0.00    -0.354 N 
ATOM     24  C   UNL A   1      39.643  29.804  29.902  1.00  0.00     0.074 A 
ATOM     25  C   UNL A   1      38.766  30.142  28.807  1.00  0.00     0.031 C 
ATOM     26  C   UNL A   1      38.059  34.331  34.268  1.00  0.00     0.029 A 
ATOM     27  C   UNL A   1      39.089  33.312  34.423  1.00  0.00     0.049 A 
ATOM     28  H   UNL A   1      39.685  31.888  33.022  1.00  0.00     0.167 HD
ATOM     29  C   UNL A   1      40.574  28.826  29.874  1.00  0.00     0.037 A 
ATOM     30  C   UNL A   1      39.845  33.110  35.519  1.00  0.00     0.037 A 
ATOM     31  C   UNL A   1      41.438  28.540  30.984  1.00  0.00     0.049 A 
ATOM     32  C   UNL A   1      40.802  31.945  35.495  1.00  0.00     0.074 A 
ATOM     33  C   UNL A   1      42.412  27.567  31.097  1.00  0.00     0.029 A 
ATOM     34  N   UNL A   1      41.423  29.242  32.185  1.00  0.00    -0.354 N 
ATOM     35  N   UNL A   1      41.071  31.117  34.513  1.00  0.00    -0.248 NA
ATOM     36  C   UNL A   1      41.538  31.665  36.734  1.00  0.00     0.031 C 
ATOM     37  C   UNL A   1      42.942  27.641  32.388  1.00  0.00     0.029 A 
ATOM     38  C   UNL A   1      42.341  28.695  33.061  1.00  0.00     0.049 A 
ATOM     39  H   UNL A   1      40.843  30.014  32.381  1.00  0.00     0.167 HD
ATOM     40  C   UNL A   1      42.008  30.224  35.008  1.00  0.00     0.074 A 
ATOM     41  C   UNL A   1      42.286  30.632  36.371  1.00  0.00     0.031 C 
ATOM     42  C   UNL A   1      42.581  29.151  34.407  1.00  0.00     0.037 A 
BRANCH  29  43
ATOM     43  C   UNL A   1      40.631  27.954  28.658  1.00  0.00     0.064 A 
ATOM     44  C   UNL A   1      39.915  26.754  28.557  1.00  0.00     0.173 A 
ATOM     45  C   UNL A   1      41.426  28.338  27.567  1.00  0.00     0.173 A 
ATOM     46  F   UNL A   1      39.167  26.325  29.585  1.00  0.00    -0.203 F 
ATOM     47  C   UNL A   1      40.000  25.965  27.412  1.00  0.00     0.198 A 
ATOM     48  C   UNL A   1      41.490  27.560  26.416  1.00  0.00     0.198 A 
ATOM     49  F   UNL A   1      42.144  29.471  27.619  1.00  0.00    -0.203 F 
ATOM     50  F   UNL A   1      39.341  24.799  27.352  1.00  0.00    -0.200 F 
ATOM     51  C   UNL A   1      40.781  26.372  26.340  1.00  0.00     0.200 A 
ATOM     52  F   UNL A   1      42.244  27.958  25.381  1.00  0.00    -0.200 F 
ATOM     53  F   UNL A   1      40.857  25.613  25.237  1.00  0.00    -0.200 F 
ENDBRANCH  29  43
BRANCH  30  54
ATOM     54  C   UNL A   1      39.655  33.936  36.745  1.00  0.00     0.064 A 
ATOM     55  C   UNL A   1      38.839  33.506  37.800  1.00  0.00     0.173 A 
ATOM     56  C   UNL A   1      40.245  35.205  36.864  1.00  0.00     0.173 A 
ATOM     57  F   UNL A   1      38.228  32.313  37.732  1.00  0.00    -0.203 F 
ATOM     58  C   UNL A   1      38.595  34.321  38.905  1.00  0.00     0.198 A 
ATOM     59  C   UNL A   1      40.033  36.004  37.986  1.00  0.00     0.198 A 
ATOM     60  F   UNL A   1      41.031  35.678  35.886  1.00  0.00    -0.203 F 
ATOM     61  F   UNL A   1      37.755  33.911  39.866  1.00  0.00    -0.200 F 
ATOM     62  C   UNL A   1      39.196  35.568  39.000  1.00  0.00     0.200 A 
ATOM     63  F   UNL A   1      40.628  37.201  38.077  1.00  0.00    -0.200 F 
ATOM     64  F   UNL A   1      38.955  36.353  40.058  1.00  0.00    -0.200 F 
ENDBRANCH  30  54
BRANCH  42  65
ATOM     65  C   UNL A   1      43.565  28.368  35.219  1.00  0.00     0.064 A 
ATOM     66  C   UNL A   1      44.933  28.670  35.194  1.00  0.00     0.173 A 
ATOM     67  C   UNL A   1      43.121  27.358  36.085  1.00  0.00     0.173 A 
ATOM     68  F   UNL A   1      45.402  29.616  34.368  1.00  0.00    -0.203 F 
ATOM     69  C   UNL A   1      45.828  27.975  36.001  1.00  0.00     0.198 A 
ATOM     70  C   UNL A   1      44.014  26.690  36.914  1.00  0.00     0.198 A 
ATOM     71  F   UNL A   1      41.819  27.043  36.148  1.00  0.00    -0.203 F 
ATOM     72  F   UNL A   1      47.137  28.250  35.935  1.00  0.00    -0.200 F 
ATOM     73  C   UNL A   1      45.367  26.995  36.867  1.00  0.00     0.200 A 
ATOM     74  F   UNL A   1      43.565  25.757  37.765  1.00  0.00    -0.200 F 
ATOM     75  F   UNL A   1      46.228  26.341  37.659  1.00  0.00    -0.200 F 
ENDBRANCH  42  65
ENDBRANCH  16  17
ENDBRANCH   9  11
ENDBRANCH   8   9
ENDBRANCH   7   8
ENDBRANCH   6   7
ENDBRANCH   5   6
ENDBRANCH   4   5
ENDBRANCH   3   4
ENDBRANCH   2   3
ENDBRANCH   1   2
BRANCH   1  76
ATOM     76  C   UNL A   1      33.474  27.049  23.998  1.00  0.00     0.188 C 
BRANCH  76  77
ATOM     77  O   UNL A   1      32.228  26.452  23.671  1.00  0.00    -0.376 OA
BRANCH  77  78
ATOM     78  C   UNL A   1      32.297  25.178  23.039  1.00  0.00     0.202 C 
BRANCH  78  79
ATOM     79  C   UNL A   1      31.047  24.290  23.125  1.00  0.00     0.261 C 
BRANCH  79  80
ATOM     80  O   UNL A   1      30.846  23.591  24.364  1.00  0.00    -0.460 OA
BRANCH  80  81
ATOM     81  C   UNL A   1      31.836  23.583  25.293  1.00  0.00     0.338 C 
ATOM     82  O   UNL A   1      31.963  24.320  26.233  1.00  0.00    -0.246 OA
BRANCH  81  83
ATOM     83  C   UNL A   1      32.605  22.328  25.055  1.00  0.00     0.063 A 
ATOM     84  C   UNL A   1      34.003  22.381  25.026  1.00  0.00     0.016 A 
ATOM     85  C   UNL A   1      31.941  21.093  25.032  1.00  0.00     0.062 A 
ATOM     86  C   UNL A   1      34.735  21.194  25.022  1.00  0.00     0.005 A 
ATOM     87  C   UNL A   1      32.671  19.906  24.986  1.00  0.00     0.120 A 
ATOM     88  C   UNL A   1      34.069  19.966  24.999  1.00  0.00     0.046 A 
BRANCH  87  89
ATOM     89  O   UNL A   1      32.153  18.641  24.954  1.00  0.00    -0.488 OA
BRANCH  89  90
ATOM     90  C   UNL A   1      33.041  17.539  25.170  1.00  0.00     0.302 C 
BRANCH  90  91
ATOM     91  C   UNL A   1      33.194  16.681  23.923  1.00  0.00     0.379 C 
ATOM     92  F   UNL A   1      34.128  17.207  23.093  1.00  0.00    -0.207 F 
ATOM     93  F   UNL A   1      33.653  15.452  24.279  1.00  0.00    -0.207 F 
ENDBRANCH  90  91
ENDBRANCH  89  90
ENDBRANCH  87  89
ENDBRANCH  81  83
ENDBRANCH  80  81
ENDBRANCH  79  80
ENDBRANCH  78  79
ENDBRANCH  77  78
ENDBRANCH  76  77
ENDBRANCH   1  76
TORSDOF 23
ENDMDL
MODEL 3
REMARK VINA RESULT:      -9.6      3.748      9.244
REMARK SMILES O=C(OCCOCCOCCOCCOC(=O)c1cccc(OCC(F)F)c1)c1ccc(-c2c3nc(c(-c4c(F)c(F)c(F)c(F)c4F)c4ccc([nH]4)c(-c4c(F)c(F)c(F)c(F)c4F)c4nc(c(-c5c(F)c(F)c(F)c(F)c5F)c5ccc2[nH]5)C=C4)C=C3)cc1
REMARK SMILES IDX 10 1 9 2 8 3 7 4 6 5 5 6 4 7 3 8 2 9 1 10 29 11 30 12 91 13
REMARK SMILES IDX 31 14 90 15 32 16 33 17 34 18 84 19 35 20 89 21 83 22 85 23
REMARK SMILES IDX 36 24 88 25 82 26 81 27 37 29 69 30 49 31 68 32 50 33 53 34
REMARK SMILES IDX 67 35 86 36 51 37 52 38 66 40 87 41 54 42 38 43 39 44 47 45
REMARK SMILES IDX 40 46 41 47 45 48 48 49 42 50 43 51 46 52 44 53 70 54 71 55
REMARK SMILES IDX 79 56 72 57 73 58 77 59 80 60 74 61 75 62 78 63 76 64 55 65
REMARK SMILES IDX 56 66 64 67 57 68 58 69 62 70 65 71 59 72 60 73 63 74 61 75
REMARK SMILES IDX 11 76 12 77 13 78 14 79 15 80 16 81 17 82 18 83 19 84 28 85
REMARK SMILES IDX 20 86 22 87 21 88 23 89 24 90 25 91 26 92 27 93
REMARK H PARENT 85 28 53 39
REMARK Flexibility Score: inf
ROOT
ATOM      1  C   UNL A   1      41.465  19.227  25.953  1.00  0.00     0.188 C 
ENDROOT
BRANCH   1   2
ATOM      2  O   UNL A   1      42.726  19.023  26.580  1.00  0.00    -0.377 OA
BRANCH   2   3
ATOM      3  C   UNL A   1      43.760  18.444  25.786  1.00  0.00     0.188 C 
BRANCH   3   4
ATOM      4  C   UNL A   1      44.370  19.366  24.729  1.00  0.00     0.188 C 
BRANCH   4   5
ATOM      5  O   UNL A   1      45.379  20.183  25.317  1.00  0.00    -0.376 OA
BRANCH   5   6
ATOM      6  C   UNL A   1      45.211  21.591  25.202  1.00  0.00     0.202 C 
BRANCH   6   7
ATOM      7  C   UNL A   1      43.873  22.029  24.608  1.00  0.00     0.261 C 
BRANCH   7   8
ATOM      8  O   UNL A   1      43.257  23.109  25.322  1.00  0.00    -0.460 OA
BRANCH   8   9
ATOM      9  C   UNL A   1      43.666  24.398  25.407  1.00  0.00     0.338 C 
ATOM     10  O   UNL A   1      44.426  24.827  24.539  1.00  0.00    -0.246 OA
BRANCH   9  11
ATOM     11  C   UNL A   1      43.248  25.349  26.481  1.00  0.00     0.060 A 
ATOM     12  C   UNL A   1      43.572  26.704  26.530  1.00  0.00     0.016 A 
ATOM     13  C   UNL A   1      42.352  24.858  27.446  1.00  0.00     0.016 A 
ATOM     14  C   UNL A   1      43.066  27.546  27.507  1.00  0.00     0.010 A 
ATOM     15  C   UNL A   1      41.809  25.703  28.419  1.00  0.00     0.010 A 
ATOM     16  C   UNL A   1      42.176  27.053  28.451  1.00  0.00    -0.014 A 
BRANCH  16  17
ATOM     17  C   UNL A   1      41.740  27.957  29.526  1.00  0.00     0.031 A 
ATOM     18  C   UNL A   1      42.574  28.018  30.764  1.00  0.00     0.074 A 
ATOM     19  C   UNL A   1      40.690  28.775  29.329  1.00  0.00     0.049 A 
ATOM     20  N   UNL A   1      42.341  28.631  31.890  1.00  0.00    -0.248 NA
ATOM     21  C   UNL A   1      43.859  27.295  30.723  1.00  0.00     0.031 C 
ATOM     22  C   UNL A   1      39.919  28.877  28.085  1.00  0.00     0.029 A 
ATOM     23  N   UNL A   1      40.096  29.684  30.162  1.00  0.00    -0.354 N 
ATOM     24  C   UNL A   1      43.421  28.326  32.706  1.00  0.00     0.074 A 
ATOM     25  C   UNL A   1      44.323  27.494  31.947  1.00  0.00     0.031 C 
ATOM     26  C   UNL A   1      38.952  29.795  28.242  1.00  0.00     0.029 A 
ATOM     27  C   UNL A   1      38.982  30.276  29.617  1.00  0.00     0.049 A 
ATOM     28  H   UNL A   1      40.435  29.894  31.063  1.00  0.00     0.167 HD
ATOM     29  C   UNL A   1      43.611  28.703  33.990  1.00  0.00     0.037 A 
ATOM     30  C   UNL A   1      38.059  31.062  30.202  1.00  0.00     0.037 A 
ATOM     31  C   UNL A   1      42.694  29.550  34.697  1.00  0.00     0.049 A 
ATOM     32  C   UNL A   1      38.245  31.380  31.664  1.00  0.00     0.074 A 
ATOM     33  C   UNL A   1      42.756  29.994  36.004  1.00  0.00     0.029 A 
ATOM     34  N   UNL A   1      41.536  30.081  34.141  1.00  0.00    -0.354 N 
ATOM     35  N   UNL A   1      39.238  31.057  32.460  1.00  0.00    -0.248 NA
ATOM     36  C   UNL A   1      37.175  32.142  32.320  1.00  0.00     0.031 C 
ATOM     37  C   UNL A   1      41.602  30.743  36.255  1.00  0.00     0.029 A 
ATOM     38  C   UNL A   1      40.851  30.814  35.091  1.00  0.00     0.049 A 
ATOM     39  H   UNL A   1      41.247  29.954  33.208  1.00  0.00     0.167 HD
ATOM     40  C   UNL A   1      38.919  31.579  33.704  1.00  0.00     0.074 A 
ATOM     41  C   UNL A   1      37.655  32.269  33.550  1.00  0.00     0.031 C 
ATOM     42  C   UNL A   1      39.595  31.489  34.877  1.00  0.00     0.037 A 
BRANCH  29  43
ATOM     43  C   UNL A   1      44.789  28.130  34.716  1.00  0.00     0.064 A 
ATOM     44  C   UNL A   1      44.746  26.884  35.356  1.00  0.00     0.173 A 
ATOM     45  C   UNL A   1      45.991  28.853  34.767  1.00  0.00     0.173 A 
ATOM     46  F   UNL A   1      43.611  26.169  35.365  1.00  0.00    -0.203 F 
ATOM     47  C   UNL A   1      45.860  26.387  36.029  1.00  0.00     0.198 A 
ATOM     48  C   UNL A   1      47.109  28.344  35.420  1.00  0.00     0.198 A 
ATOM     49  F   UNL A   1      46.080  30.058  34.183  1.00  0.00    -0.203 F 
ATOM     50  F   UNL A   1      45.786  25.213  36.671  1.00  0.00    -0.200 F 
ATOM     51  C   UNL A   1      47.042  27.113  36.054  1.00  0.00     0.200 A 
ATOM     52  F   UNL A   1      48.249  29.048  35.440  1.00  0.00    -0.200 F 
ATOM     53  F   UNL A   1      48.114  26.631  36.698  1.00  0.00    -0.200 F 
ENDBRANCH  29  43
BRANCH  30  54
ATOM     54  C   UNL A   1      36.843  31.500  29.459  1.00  0.00     0.064 A 
ATOM     55  C   UNL A   1      35.854  30.588  29.068  1.00  0.00     0.173 A 
ATOM     56  C   UNL A   1      36.671  32.840  29.075  1.00  0.00     0.173 A 
ATOM     57  F   UNL A   1      35.976  29.290  29.385  1.00  0.00    -0.203 F 
ATOM     58  C   UNL A   1      34.763  30.990  28.297  1.00  0.00     0.198 A 
ATOM     59  C   UNL A   1      35.561  33.249  28.339  1.00  0.00     0.198 A 
ATOM     60  F   UNL A   1      37.585  33.761  29.412  1.00  0.00    -0.203 F 
ATOM     61  F   UNL A   1      33.869  30.082  27.880  1.00  0.00    -0.200 F 
ATOM     62  C   UNL A   1      34.615  32.321  27.937  1.00  0.00     0.200 A 
ATOM     63  F   UNL A   1      35.417  34.539  28.006  1.00  0.00    -0.200 F 
ATOM     64  F   UNL A   1      33.570  32.705  27.190  1.00  0.00    -0.200 F 
ENDBRANCH  30  54
BRANCH  42  65
ATOM     65  C   UNL A   1      38.980  32.162  36.064  1.00  0.00     0.064 A 
ATOM     66  C   UNL A   1      38.168  31.454  36.961  1.00  0.00     0.173 A 
ATOM     67  C   UNL A   1      39.269  33.505  36.345  1.00  0.00     0.173 A 
ATOM     68  F   UNL A   1      37.852  30.173  36.721  1.00  0.00    -0.203 F 
ATOM     69  C   UNL A   1      37.653  32.075  38.094  1.00  0.00     0.198 A 
ATOM     70  C   UNL A   1      38.780  34.111  37.495  1.00  0.00     0.198 A 
ATOM     71  F   UNL A   1      40.049  34.217  35.518  1.00  0.00    -0.203 F 
ATOM     72  F   UNL A   1      36.847  31.394  38.919  1.00  0.00    -0.200 F 
ATOM     73  C   UNL A   1      37.968  33.398  38.366  1.00  0.00     0.200 A 
ATOM     74  F   UNL A   1      39.101  35.384  37.768  1.00  0.00    -0.200 F 
ATOM     75  F   UNL A   1      37.488  33.989  39.469  1.00  0.00    -0.200 F 
ENDBRANCH  42  65
ENDBRANCH  16  17
ENDBRANCH   9  11
ENDBRANCH   8   9
ENDBRANCH   7   8
ENDBRANCH   6   7
ENDBRANCH   5   6
ENDBRANCH   4   5
ENDBRANCH   3   4
ENDBRANCH   2   3
ENDBRANCH   1   2
BRANCH   1  76
ATOM     76  C   UNL A   1      40.493  20.266  26.560  1.00  0.00     0.188 C 
BRANCH  76  77
ATOM     77  O   UNL A   1      40.514  21.538  25.929  1.00  0.00    -0.376 OA
BRANCH  77  78
ATOM     78  C   UNL A   1      39.365  22.353  26.138  1.00  0.00     0.202 C 
BRANCH  78  79
ATOM     79  C   UNL A   1      37.995  21.675  25.985  1.00  0.00     0.261 C 
BRANCH  79  80
ATOM     80  O   UNL A   1      37.588  21.359  24.645  1.00  0.00    -0.460 OA
BRANCH  80  81
ATOM     81  C   UNL A   1      36.583  22.067  24.068  1.00  0.00     0.338 C 
ATOM     82  O   UNL A   1      36.660  22.821  23.137  1.00  0.00    -0.246 OA
BRANCH  81  83
ATOM     83  C   UNL A   1      35.322  21.540  24.666  1.00  0.00     0.063 A 
ATOM     84  C   UNL A   1      34.329  22.443  25.064  1.00  0.00     0.016 A 
ATOM     85  C   UNL A   1      35.071  20.161  24.670  1.00  0.00     0.062 A 
ATOM     86  C   UNL A   1      33.069  21.963  25.419  1.00  0.00     0.005 A 
ATOM     87  C   UNL A   1      33.825  19.676  25.065  1.00  0.00     0.120 A 
ATOM     88  C   UNL A   1      32.823  20.587  25.422  1.00  0.00     0.046 A 
BRANCH  87  89
ATOM     89  O   UNL A   1      33.449  18.363  25.121  1.00  0.00    -0.488 OA
BRANCH  89  90
ATOM     90  C   UNL A   1      32.283  17.959  24.396  1.00  0.00     0.302 C 
BRANCH  90  91
ATOM     91  C   UNL A   1      32.534  17.913  22.897  1.00  0.00     0.379 C 
ATOM     92  F   UNL A   1      32.509  19.162  22.370  1.00  0.00    -0.207 F 
ATOM     93  F   UNL A   1      33.784  17.431  22.667  1.00  0.00    -0.207 F 
ENDBRANCH  90  91
ENDBRANCH  89  90
ENDBRANCH  87  89
ENDBRANCH  81  83
ENDBRANCH  80  81
ENDBRANCH  79  80
ENDBRANCH  78  79
ENDBRANCH  77  78
ENDBRANCH  76  77
ENDBRANCH   1  76
TORSDOF 23
ENDMDL
