MODEL 1
REMARK VINA RESULT:     -10.8      0.000      0.000
REMARK SMILES Cc1cc(Cl)ccc1Oc1cc(C)c(N)c(C(=O)OCCOCCOCCOCCOC(=O)c2ccc(-c3c4nc(c(-c5c(F)c(F)c(F)c(F)c5F)c5ccc([nH]5)c(-c5c(F)c(F)c(F)c(F)c5F)c5nc(c(-c6c(F)c(F)c(F)c(F)c6F)c6ccc3[nH]6)C=C5)C=C4)cc2)c1
REMARK SMILES IDX 25 1 24 2 23 3 22 4 21 5 20 6 19 7 17 8 18 9 16 10 10 11
REMARK SMILES IDX 11 12 97 13 12 14 13 15 14 16 9 17 8 18 1 19 2 20 3 21 4 22
REMARK SMILES IDX 7 23 5 24 6 25 15 26 26 29 27 30 28 31 29 32 30 33 31 34
REMARK SMILES IDX 32 35 33 36 34 37 35 38 96 39 36 40 95 41 37 42 38 43 39 44
REMARK SMILES IDX 89 45 40 46 94 47 88 48 90 49 41 50 93 51 87 52 86 53 42 55
REMARK SMILES IDX 74 56 54 57 73 58 55 59 58 60 72 61 91 62 56 63 57 64 71 66
REMARK SMILES IDX 92 67 59 68 43 69 44 70 52 71 45 72 46 73 50 74 53 75 47 76
REMARK SMILES IDX 48 77 51 78 49 79 75 80 76 81 84 82 77 83 78 84 82 85 85 86
REMARK SMILES IDX 79 87 80 88 83 89 81 90 60 91 61 92 69 93 62 94 63 95 67 96
REMARK SMILES IDX 70 97 64 98 65 99 68 100 66 101
REMARK H PARENT 15 27 15 28 90 54 58 65
REMARK Flexibility Score: inf
ROOT
ATOM      1  O   UNL A   1      35.627  23.315  22.758  1.00  0.00    -0.377 OA
ENDROOT
BRANCH   1   2
ATOM      2  C   UNL A   1      34.401  23.609  23.419  1.00  0.00     0.188 C 
BRANCH   2   3
ATOM      3  C   UNL A   1      33.336  24.468  22.707  1.00  0.00     0.188 C 
BRANCH   3   4
ATOM      4  O   UNL A   1      33.820  25.713  22.226  1.00  0.00    -0.376 OA
BRANCH   4   5
ATOM      5  C   UNL A   1      32.900  26.570  21.576  1.00  0.00     0.202 C 
BRANCH   5   6
ATOM      6  C   UNL A   1      31.408  26.262  21.768  1.00  0.00     0.261 C 
BRANCH   6   7
ATOM      7  O   UNL A   1      30.615  27.331  22.305  1.00  0.00    -0.460 OA
BRANCH   7   8
ATOM      8  C   UNL A   1      29.900  27.067  23.424  1.00  0.00     0.340 C 
ATOM      9  O   UNL A   1      28.683  27.039  23.505  1.00  0.00    -0.246 OA
BRANCH   8  10
ATOM     10  C   UNL A   1      30.832  26.631  24.503  1.00  0.00     0.086 A 
ATOM     11  C   UNL A   1      31.592  24.897  26.020  1.00  0.00     0.128 A 
ATOM     12  C   UNL A   1      32.581  25.752  26.492  1.00  0.00     0.052 A 
ATOM     13  C   UNL A   1      30.761  25.314  24.982  1.00  0.00     0.065 A 
ATOM     14  C   UNL A   1      32.611  27.101  26.088  1.00  0.00    -0.024 A 
ATOM     15  C   UNL A   1      33.550  28.038  26.801  1.00  0.00     0.047 C 
ATOM     16  C   UNL A   1      31.721  27.560  25.091  1.00  0.00     0.049 A 
BRANCH  11  17
ATOM     17  O   UNL A   1      31.383  23.621  26.464  1.00  0.00    -0.457 OA
BRANCH  17  18
ATOM     18  C   UNL A   1      32.168  22.546  26.104  1.00  0.00     0.130 A 
ATOM     19  C   UNL A   1      34.010  22.601  27.930  1.00  0.00     0.048 C 
ATOM     20  C   UNL A   1      33.324  22.031  26.720  1.00  0.00    -0.007 A 
ATOM     21  C   UNL A   1      33.922  20.873  26.169  1.00  0.00     0.027 A 
ATOM     22  C   UNL A   1      33.348  20.201  25.092  1.00  0.00     0.041 A 
ATOM     23  C   UNL A   1      31.600  21.841  25.023  1.00  0.00     0.049 A 
ATOM     24  Cl  UNL A   1      34.081  18.767  24.488  1.00  0.00    -0.084 Cl
ATOM     25  C   UNL A   1      32.177  20.674  24.522  1.00  0.00     0.024 A 
ENDBRANCH  17  18
ENDBRANCH  11  17
BRANCH  16  26
ATOM     26  N   UNL A   1      31.594  28.930  24.848  1.00  0.00    -0.398 N 
ATOM     27  H   UNL A   1      31.849  29.302  23.973  1.00  0.00     0.156 HD
ATOM     28  H   UNL A   1      31.248  29.525  25.552  1.00  0.00     0.156 HD
ENDBRANCH  16  26
ENDBRANCH   8  10
ENDBRANCH   7   8
ENDBRANCH   6   7
ENDBRANCH   5   6
ENDBRANCH   4   5
ENDBRANCH   3   4
ENDBRANCH   2   3
ENDBRANCH   1   2
BRANCH   1  29
ATOM     29  C   UNL A   1      36.673  22.652  23.460  1.00  0.00     0.188 C 
BRANCH  29  30
ATOM     30  C   UNL A   1      36.863  22.843  24.984  1.00  0.00     0.188 C 
BRANCH  30  31
ATOM     31  O   UNL A   1      37.199  21.664  25.694  1.00  0.00    -0.376 OA
BRANCH  31  32
ATOM     32  C   UNL A   1      37.534  20.513  24.940  1.00  0.00     0.202 C 
BRANCH  32  33
ATOM     33  C   UNL A   1      38.839  19.802  25.322  1.00  0.00     0.261 C 
BRANCH  33  34
ATOM     34  O   UNL A   1      39.457  20.243  26.540  1.00  0.00    -0.460 OA
BRANCH  34  35
ATOM     35  C   UNL A   1      40.779  20.520  26.483  1.00  0.00     0.338 C 
ATOM     36  O   UNL A   1      41.650  19.853  25.963  1.00  0.00    -0.246 OA
BRANCH  35  37
ATOM     37  C   UNL A   1      40.976  21.889  27.001  1.00  0.00     0.060 A 
ATOM     38  C   UNL A   1      40.420  22.960  26.290  1.00  0.00     0.016 A 
ATOM     39  C   UNL A   1      41.711  22.116  28.167  1.00  0.00     0.016 A 
ATOM     40  C   UNL A   1      40.647  24.267  26.714  1.00  0.00     0.010 A 
ATOM     41  C   UNL A   1      41.952  23.428  28.582  1.00  0.00     0.010 A 
ATOM     42  C   UNL A   1      41.459  24.508  27.829  1.00  0.00    -0.014 A 
BRANCH  42  43
ATOM     43  C   UNL A   1      41.950  25.888  28.064  1.00  0.00     0.031 A 
ATOM     44  C   UNL A   1      43.289  26.279  27.503  1.00  0.00     0.074 A 
ATOM     45  C   UNL A   1      41.191  26.796  28.700  1.00  0.00     0.049 A 
ATOM     46  N   UNL A   1      43.893  27.440  27.517  1.00  0.00    -0.248 NA
ATOM     47  C   UNL A   1      44.052  25.211  26.836  1.00  0.00     0.031 C 
ATOM     48  C   UNL A   1      39.873  26.541  29.271  1.00  0.00     0.029 A 
ATOM     49  N   UNL A   1      41.428  28.121  28.967  1.00  0.00    -0.354 N 
ATOM     50  C   UNL A   1      45.105  27.240  26.867  1.00  0.00     0.074 A 
ATOM     51  C   UNL A   1      45.169  25.841  26.507  1.00  0.00     0.031 C 
ATOM     52  C   UNL A   1      39.414  27.676  29.826  1.00  0.00     0.029 A 
ATOM     53  C   UNL A   1      40.418  28.727  29.669  1.00  0.00     0.049 A 
ATOM     54  H   UNL A   1      42.245  28.592  28.683  1.00  0.00     0.167 HD
ATOM     55  C   UNL A   1      46.073  28.146  26.587  1.00  0.00     0.037 A 
ATOM     56  C   UNL A   1      40.321  29.987  30.139  1.00  0.00     0.037 A 
ATOM     57  C   UNL A   1      46.002  29.537  26.950  1.00  0.00     0.049 A 
ATOM     58  C   UNL A   1      41.425  30.971  29.847  1.00  0.00     0.074 A 
ATOM     59  C   UNL A   1      46.909  30.546  26.679  1.00  0.00     0.029 A 
ATOM     60  N   UNL A   1      44.972  30.112  27.681  1.00  0.00    -0.354 N 
ATOM     61  N   UNL A   1      42.542  30.791  29.185  1.00  0.00    -0.248 NA
ATOM     62  C   UNL A   1      41.243  32.338  30.353  1.00  0.00     0.031 C 
ATOM     63  C   UNL A   1      46.464  31.714  27.308  1.00  0.00     0.029 A 
ATOM     64  C   UNL A   1      45.239  31.454  27.903  1.00  0.00     0.049 A 
ATOM     65  H   UNL A   1      44.169  29.637  27.997  1.00  0.00     0.167 HD
ATOM     66  C   UNL A   1      43.183  32.025  29.169  1.00  0.00     0.074 A 
ATOM     67  C   UNL A   1      42.319  32.948  29.877  1.00  0.00     0.031 C 
ATOM     68  C   UNL A   1      44.373  32.363  28.613  1.00  0.00     0.037 A 
BRANCH  55  69
ATOM     69  C   UNL A   1      47.308  27.646  25.893  1.00  0.00     0.064 A 
ATOM     70  C   UNL A   1      48.405  27.130  26.601  1.00  0.00     0.173 A 
ATOM     71  C   UNL A   1      47.391  27.678  24.492  1.00  0.00     0.173 A 
ATOM     72  F   UNL A   1      48.387  27.088  27.942  1.00  0.00    -0.203 F 
ATOM     73  C   UNL A   1      49.553  26.704  25.935  1.00  0.00     0.198 A 
ATOM     74  C   UNL A   1      48.524  27.217  23.829  1.00  0.00     0.198 A 
ATOM     75  F   UNL A   1      46.371  28.156  23.765  1.00  0.00    -0.203 F 
ATOM     76  F   UNL A   1      50.612  26.277  26.635  1.00  0.00    -0.200 F 
ATOM     77  C   UNL A   1      49.609  26.742  24.551  1.00  0.00     0.200 A 
ATOM     78  F   UNL A   1      48.569  27.240  22.490  1.00  0.00    -0.200 F 
ATOM     79  F   UNL A   1      50.712  26.330  23.910  1.00  0.00    -0.200 F 
ENDBRANCH  55  69
BRANCH  56  80
ATOM     80  C   UNL A   1      39.129  30.381  30.935  1.00  0.00     0.064 A 
ATOM     81  C   UNL A   1      39.117  30.284  32.333  1.00  0.00     0.173 A 
ATOM     82  C   UNL A   1      37.977  30.878  30.307  1.00  0.00     0.173 A 
ATOM     83  F   UNL A   1      40.186  29.793  32.979  1.00  0.00    -0.203 F 
ATOM     84  C   UNL A   1      37.995  30.657  33.071  1.00  0.00     0.198 A 
ATOM     85  C   UNL A   1      36.867  31.279  31.047  1.00  0.00     0.198 A 
ATOM     86  F   UNL A   1      37.936  30.989  28.971  1.00  0.00    -0.203 F 
ATOM     87  F   UNL A   1      37.996  30.517  34.404  1.00  0.00    -0.200 F 
ATOM     88  C   UNL A   1      36.876  31.163  32.428  1.00  0.00     0.200 A 
ATOM     89  F   UNL A   1      35.793  31.781  30.423  1.00  0.00    -0.200 F 
ATOM     90  F   UNL A   1      35.802  31.534  33.140  1.00  0.00    -0.200 F 
ENDBRANCH  56  80
BRANCH  68  91
ATOM     91  C   UNL A   1      44.798  33.803  28.708  1.00  0.00     0.064 A 
ATOM     92  C   UNL A   1      45.617  34.271  29.748  1.00  0.00     0.173 A 
ATOM     93  C   UNL A   1      44.403  34.724  27.724  1.00  0.00     0.173 A 
ATOM     94  F   UNL A   1      46.016  33.437  30.720  1.00  0.00    -0.203 F 
ATOM     95  C   UNL A   1      45.990  35.611  29.818  1.00  0.00     0.198 A 
ATOM     96  C   UNL A   1      44.810  36.054  27.777  1.00  0.00     0.198 A 
ATOM     97  F   UNL A   1      43.629  34.330  26.701  1.00  0.00    -0.203 F 
ATOM     98  F   UNL A   1      46.721  36.046  30.855  1.00  0.00    -0.200 F 
ATOM     99  C   UNL A   1      45.593  36.499  28.830  1.00  0.00     0.200 A 
ATOM    100  F   UNL A   1      44.441  36.905  26.810  1.00  0.00    -0.200 F 
ATOM    101  F   UNL A   1      45.957  37.787  28.898  1.00  0.00    -0.200 F 
ENDBRANCH  68  91
ENDBRANCH  42  43
ENDBRANCH  35  37
ENDBRANCH  34  35
ENDBRANCH  33  34
ENDBRANCH  32  33
ENDBRANCH  31  32
ENDBRANCH  30  31
ENDBRANCH  29  30
ENDBRANCH   1  29
TORSDOF 23
ENDMDL
MODEL 2
REMARK VINA RESULT:     -10.1      1.721      7.307
REMARK SMILES Cc1cc(Cl)ccc1Oc1cc(C)c(N)c(C(=O)OCCOCCOCCOCCOC(=O)c2ccc(-c3c4nc(c(-c5c(F)c(F)c(F)c(F)c5F)c5ccc([nH]5)c(-c5c(F)c(F)c(F)c(F)c5F)c5nc(c(-c6c(F)c(F)c(F)c(F)c6F)c6ccc3[nH]6)C=C5)C=C4)cc2)c1
REMARK SMILES IDX 25 1 24 2 23 3 22 4 21 5 20 6 19 7 17 8 18 9 16 10 10 11
REMARK SMILES IDX 11 12 97 13 12 14 13 15 14 16 9 17 8 18 1 19 2 20 3 21 4 22
REMARK SMILES IDX 7 23 5 24 6 25 15 26 26 29 27 30 28 31 29 32 30 33 31 34
REMARK SMILES IDX 32 35 33 36 34 37 35 38 96 39 36 40 95 41 37 42 38 43 39 44
REMARK SMILES IDX 89 45 40 46 94 47 88 48 90 49 41 50 93 51 87 52 86 53 42 55
REMARK SMILES IDX 74 56 54 57 73 58 55 59 58 60 72 61 91 62 56 63 57 64 71 66
REMARK SMILES IDX 92 67 59 68 43 69 44 70 52 71 45 72 46 73 50 74 53 75 47 76
REMARK SMILES IDX 48 77 51 78 49 79 75 80 76 81 84 82 77 83 78 84 82 85 85 86
REMARK SMILES IDX 79 87 80 88 83 89 81 90 60 91 61 92 69 93 62 94 63 95 67 96
REMARK SMILES IDX 70 97 64 98 65 99 68 100 66 101
REMARK H PARENT 15 27 15 28 90 54 58 65
REMARK Flexibility Score: inf
ROOT
ATOM      1  O   UNL A   1      35.274  23.213  25.139  1.00  0.00    -0.377 OA
ENDROOT
BRANCH   1   2
ATOM      2  C   UNL A   1      35.155  24.471  24.486  1.00  0.00     0.188 C 
BRANCH   2   3
ATOM      3  C   UNL A   1      34.296  24.591  23.209  1.00  0.00     0.188 C 
BRANCH   3   4
ATOM      4  O   UNL A   1      33.382  25.678  23.223  1.00  0.00    -0.376 OA
BRANCH   4   5
ATOM      5  C   UNL A   1      33.124  26.337  21.998  1.00  0.00     0.202 C 
BRANCH   5   6
ATOM      6  C   UNL A   1      31.661  26.684  21.690  1.00  0.00     0.261 C 
BRANCH   6   7
ATOM      7  O   UNL A   1      31.259  28.026  22.003  1.00  0.00    -0.460 OA
BRANCH   7   8
ATOM      8  C   UNL A   1      30.246  28.178  22.887  1.00  0.00     0.340 C 
ATOM      9  O   UNL A   1      29.083  28.420  22.608  1.00  0.00    -0.246 OA
BRANCH   8  10
ATOM     10  C   UNL A   1      30.734  27.817  24.249  1.00  0.00     0.086 A 
ATOM     11  C   UNL A   1      30.870  26.195  26.048  1.00  0.00     0.128 A 
ATOM     12  C   UNL A   1      31.659  27.077  26.776  1.00  0.00     0.052 A 
ATOM     13  C   UNL A   1      30.462  26.539  24.760  1.00  0.00     0.065 A 
ATOM     14  C   UNL A   1      31.867  28.393  26.318  1.00  0.00    -0.024 A 
ATOM     15  C   UNL A   1      32.529  29.376  27.249  1.00  0.00     0.047 C 
ATOM     16  C   UNL A   1      31.391  28.782  25.046  1.00  0.00     0.049 A 
BRANCH  11  17
ATOM     17  O   UNL A   1      30.483  24.956  26.476  1.00  0.00    -0.457 OA
BRANCH  17  18
ATOM     18  C   UNL A   1      31.142  23.790  26.147  1.00  0.00     0.130 A 
ATOM     19  C   UNL A   1      30.651  23.606  23.605  1.00  0.00     0.048 C 
ATOM     20  C   UNL A   1      31.274  23.154  24.898  1.00  0.00    -0.007 A 
ATOM     21  C   UNL A   1      32.052  21.975  24.820  1.00  0.00     0.027 A 
ATOM     22  C   UNL A   1      32.744  21.487  25.927  1.00  0.00     0.041 A 
ATOM     23  C   UNL A   1      31.861  23.284  27.248  1.00  0.00     0.049 A 
ATOM     24  Cl  UNL A   1      33.721  20.081  25.775  1.00  0.00    -0.084 Cl
ATOM     25  C   UNL A   1      32.662  22.147  27.143  1.00  0.00     0.024 A 
ENDBRANCH  17  18
ENDBRANCH  11  17
BRANCH  16  26
ATOM     26  N   UNL A   1      31.396  30.132  24.683  1.00  0.00    -0.398 N 
ATOM     27  H   UNL A   1      30.605  30.530  24.253  1.00  0.00     0.156 HD
ATOM     28  H   UNL A   1      32.191  30.686  24.858  1.00  0.00     0.156 HD
ENDBRANCH  16  26
ENDBRANCH   8  10
ENDBRANCH   7   8
ENDBRANCH   6   7
ENDBRANCH   5   6
ENDBRANCH   4   5
ENDBRANCH   3   4
ENDBRANCH   2   3
ENDBRANCH   1   2
BRANCH   1  29
ATOM     29  C   UNL A   1      36.298  23.007  26.107  1.00  0.00     0.188 C 
BRANCH  29  30
ATOM     30  C   UNL A   1      37.770  23.372  25.805  1.00  0.00     0.188 C 
BRANCH  30  31
ATOM     31  O   UNL A   1      38.661  22.270  25.766  1.00  0.00    -0.376 OA
BRANCH  31  32
ATOM     32  C   UNL A   1      38.164  21.038  25.276  1.00  0.00     0.202 C 
BRANCH  32  33
ATOM     33  C   UNL A   1      39.049  19.806  25.505  1.00  0.00     0.261 C 
BRANCH  33  34
ATOM     34  O   UNL A   1      40.015  19.918  26.561  1.00  0.00    -0.460 OA
BRANCH  34  35
ATOM     35  C   UNL A   1      41.295  19.615  26.247  1.00  0.00     0.338 C 
ATOM     36  O   UNL A   1      41.708  18.585  25.755  1.00  0.00    -0.246 OA
BRANCH  35  37
ATOM     37  C   UNL A   1      42.105  20.837  26.424  1.00  0.00     0.060 A 
ATOM     38  C   UNL A   1      42.277  21.345  27.718  1.00  0.00     0.016 A 
ATOM     39  C   UNL A   1      42.679  21.482  25.325  1.00  0.00     0.016 A 
ATOM     40  C   UNL A   1      42.977  22.533  27.910  1.00  0.00     0.010 A 
ATOM     41  C   UNL A   1      43.366  22.683  25.517  1.00  0.00     0.010 A 
ATOM     42  C   UNL A   1      43.476  23.236  26.806  1.00  0.00    -0.014 A 
BRANCH  42  43
ATOM     43  C   UNL A   1      43.920  24.637  26.999  1.00  0.00     0.031 A 
ATOM     44  C   UNL A   1      42.910  25.655  27.449  1.00  0.00     0.074 A 
ATOM     45  C   UNL A   1      45.209  24.985  26.846  1.00  0.00     0.049 A 
ATOM     46  N   UNL A   1      43.075  26.918  27.752  1.00  0.00    -0.248 NA
ATOM     47  C   UNL A   1      41.521  25.183  27.574  1.00  0.00     0.031 C 
ATOM     48  C   UNL A   1      46.281  24.085  26.431  1.00  0.00     0.029 A 
ATOM     49  N   UNL A   1      45.831  26.194  27.029  1.00  0.00    -0.354 N 
ATOM     50  C   UNL A   1      41.814  27.389  28.097  1.00  0.00     0.074 A 
ATOM     51  C   UNL A   1      40.889  26.291  27.929  1.00  0.00     0.031 C 
ATOM     52  C   UNL A   1      47.433  24.775  26.386  1.00  0.00     0.029 A 
ATOM     53  C   UNL A   1      47.174  26.168  26.748  1.00  0.00     0.049 A 
ATOM     54  H   UNL A   1      45.359  27.004  27.332  1.00  0.00     0.167 HD
ATOM     55  C   UNL A   1      41.463  28.625  28.526  1.00  0.00     0.037 A 
ATOM     56  C   UNL A   1      48.086  27.160  26.772  1.00  0.00     0.037 A 
ATOM     57  C   UNL A   1      42.389  29.714  28.690  1.00  0.00     0.049 A 
ATOM     58  C   UNL A   1      47.667  28.538  27.218  1.00  0.00     0.074 A 
ATOM     59  C   UNL A   1      42.143  30.993  29.157  1.00  0.00     0.029 A 
ATOM     60  N   UNL A   1      43.740  29.657  28.375  1.00  0.00    -0.354 N 
ATOM     61  N   UNL A   1      46.486  28.963  27.596  1.00  0.00    -0.248 NA
ATOM     62  C   UNL A   1      48.715  29.567  27.259  1.00  0.00     0.031 C 
ATOM     63  C   UNL A   1      43.328  31.730  29.054  1.00  0.00     0.029 A 
ATOM     64  C   UNL A   1      44.333  30.890  28.601  1.00  0.00     0.049 A 
ATOM     65  H   UNL A   1      44.209  28.858  28.039  1.00  0.00     0.167 HD
ATOM     66  C   UNL A   1      46.652  30.298  27.946  1.00  0.00     0.074 A 
ATOM     67  C   UNL A   1      48.054  30.606  27.749  1.00  0.00     0.031 C 
ATOM     68  C   UNL A   1      45.730  31.185  28.397  1.00  0.00     0.037 A 
BRANCH  55  69
ATOM     69  C   UNL A   1      40.007  28.872  28.803  1.00  0.00     0.064 A 
ATOM     70  C   UNL A   1      39.444  28.682  30.075  1.00  0.00     0.173 A 
ATOM     71  C   UNL A   1      39.160  29.314  27.774  1.00  0.00     0.173 A 
ATOM     72  F   UNL A   1      40.204  28.247  31.092  1.00  0.00    -0.203 F 
ATOM     73  C   UNL A   1      38.084  28.885  30.297  1.00  0.00     0.198 A 
ATOM     74  C   UNL A   1      37.808  29.552  28.008  1.00  0.00     0.198 A 
ATOM     75  F   UNL A   1      39.643  29.516  26.540  1.00  0.00    -0.203 F 
ATOM     76  F   UNL A   1      37.559  28.634  31.503  1.00  0.00    -0.200 F 
ATOM     77  C   UNL A   1      37.269  29.326  29.265  1.00  0.00     0.200 A 
ATOM     78  F   UNL A   1      37.026  29.993  27.014  1.00  0.00    -0.200 F 
ATOM     79  F   UNL A   1      35.961  29.524  29.480  1.00  0.00    -0.200 F 
ENDBRANCH  55  69
BRANCH  56  80
ATOM     80  C   UNL A   1      49.485  26.878  26.357  1.00  0.00     0.064 A 
ATOM     81  C   UNL A   1      49.886  26.977  25.018  1.00  0.00     0.173 A 
ATOM     82  C   UNL A   1      50.455  26.513  27.302  1.00  0.00     0.173 A 
ATOM     83  F   UNL A   1      48.991  27.299  24.072  1.00  0.00    -0.203 F 
ATOM     84  C   UNL A   1      51.201  26.711  24.639  1.00  0.00     0.198 A 
ATOM     85  C   UNL A   1      51.776  26.277  26.927  1.00  0.00     0.198 A 
ATOM     86  F   UNL A   1      50.123  26.402  28.597  1.00  0.00    -0.203 F 
ATOM     87  F   UNL A   1      51.549  26.775  23.346  1.00  0.00    -0.200 F 
ATOM     88  C   UNL A   1      52.146  26.371  25.595  1.00  0.00     0.200 A 
ATOM     89  F   UNL A   1      52.689  25.963  27.856  1.00  0.00    -0.200 F 
ATOM     90  F   UNL A   1      53.414  26.129  25.231  1.00  0.00    -0.200 F 
ENDBRANCH  56  80
BRANCH  68  91
ATOM     91  C   UNL A   1      46.211  32.566  28.750  1.00  0.00     0.064 A 
ATOM     92  C   UNL A   1      46.225  33.612  27.813  1.00  0.00     0.173 A 
ATOM     93  C   UNL A   1      46.636  32.855  30.057  1.00  0.00     0.173 A 
ATOM     94  F   UNL A   1      45.839  33.390  26.548  1.00  0.00    -0.203 F 
ATOM     95  C   UNL A   1      46.683  34.880  28.163  1.00  0.00     0.198 A 
ATOM     96  C   UNL A   1      47.057  34.133  30.412  1.00  0.00     0.198 A 
ATOM     97  F   UNL A   1      46.632  31.896  30.996  1.00  0.00    -0.203 F 
ATOM     98  F   UNL A   1      46.746  35.846  27.235  1.00  0.00    -0.200 F 
ATOM     99  C   UNL A   1      47.092  35.142  29.462  1.00  0.00     0.200 A 
ATOM    100  F   UNL A   1      47.432  34.387  31.673  1.00  0.00    -0.200 F 
ATOM    101  F   UNL A   1      47.528  36.363  29.797  1.00  0.00    -0.200 F 
ENDBRANCH  68  91
ENDBRANCH  42  43
ENDBRANCH  35  37
ENDBRANCH  34  35
ENDBRANCH  33  34
ENDBRANCH  32  33
ENDBRANCH  31  32
ENDBRANCH  30  31
ENDBRANCH  29  30
ENDBRANCH   1  29
TORSDOF 23
ENDMDL
MODEL 3
REMARK VINA RESULT:     -10.1      2.531      8.143
REMARK SMILES Cc1cc(Cl)ccc1Oc1cc(C)c(N)c(C(=O)OCCOCCOCCOCCOC(=O)c2ccc(-c3c4nc(c(-c5c(F)c(F)c(F)c(F)c5F)c5ccc([nH]5)c(-c5c(F)c(F)c(F)c(F)c5F)c5nc(c(-c6c(F)c(F)c(F)c(F)c6F)c6ccc3[nH]6)C=C5)C=C4)cc2)c1
REMARK SMILES IDX 25 1 24 2 23 3 22 4 21 5 20 6 19 7 17 8 18 9 16 10 10 11
REMARK SMILES IDX 11 12 97 13 12 14 13 15 14 16 9 17 8 18 1 19 2 20 3 21 4 22
REMARK SMILES IDX 7 23 5 24 6 25 15 26 26 29 27 30 28 31 29 32 30 33 31 34
REMARK SMILES IDX 32 35 33 36 34 37 35 38 96 39 36 40 95 41 37 42 38 43 39 44
REMARK SMILES IDX 89 45 40 46 94 47 88 48 90 49 41 50 93 51 87 52 86 53 42 55
REMARK SMILES IDX 74 56 54 57 73 58 55 59 58 60 72 61 91 62 56 63 57 64 71 66
REMARK SMILES IDX 92 67 59 68 43 69 44 70 52 71 45 72 46 73 50 74 53 75 47 76
REMARK SMILES IDX 48 77 51 78 49 79 75 80 76 81 84 82 77 83 78 84 82 85 85 86
REMARK SMILES IDX 79 87 80 88 83 89 81 90 60 91 61 92 69 93 62 94 63 95 67 96
REMARK SMILES IDX 70 97 64 98 65 99 68 100 66 101
REMARK H PARENT 15 27 15 28 90 54 58 65
REMARK Flexibility Score: inf
ROOT
ATOM      1  O   UNL A   1      34.916  19.920  24.816  1.00  0.00    -0.377 OA
ENDROOT
BRANCH   1   2
ATOM      2  C   UNL A   1      33.502  19.826  24.947  1.00  0.00     0.188 C 
BRANCH   2   3
ATOM      3  C   UNL A   1      32.592  20.417  23.848  1.00  0.00     0.188 C 
BRANCH   3   4
ATOM      4  O   UNL A   1      31.941  21.623  24.219  1.00  0.00    -0.376 OA
BRANCH   4   5
ATOM      5  C   UNL A   1      31.790  21.892  25.600  1.00  0.00     0.202 C 
BRANCH   5   6
ATOM      6  C   UNL A   1      30.835  23.030  25.987  1.00  0.00     0.261 C 
BRANCH   6   7
ATOM      7  O   UNL A   1      31.451  24.199  26.546  1.00  0.00    -0.460 OA
BRANCH   7   8
ATOM      8  C   UNL A   1      32.501  24.725  25.874  1.00  0.00     0.340 C 
ATOM      9  O   UNL A   1      33.679  24.571  26.154  1.00  0.00    -0.246 OA
BRANCH   8  10
ATOM     10  C   UNL A   1      32.004  25.370  24.625  1.00  0.00     0.086 A 
ATOM     11  C   UNL A   1      30.355  26.763  23.518  1.00  0.00     0.128 A 
ATOM     12  C   UNL A   1      31.056  26.634  22.325  1.00  0.00     0.052 A 
ATOM     13  C   UNL A   1      30.863  26.185  24.680  1.00  0.00     0.065 A 
ATOM     14  C   UNL A   1      32.149  25.751  22.232  1.00  0.00    -0.024 A 
ATOM     15  C   UNL A   1      32.725  25.472  20.868  1.00  0.00     0.047 C 
ATOM     16  C   UNL A   1      32.629  25.096  23.387  1.00  0.00     0.049 A 
BRANCH  11  17
ATOM     17  O   UNL A   1      29.195  27.470  23.672  1.00  0.00    -0.457 OA
BRANCH  17  18
ATOM     18  C   UNL A   1      29.049  28.792  23.308  1.00  0.00     0.130 A 
ATOM     19  C   UNL A   1      30.912  29.933  24.708  1.00  0.00     0.048 C 
ATOM     20  C   UNL A   1      29.787  29.921  23.710  1.00  0.00    -0.007 A 
ATOM     21  C   UNL A   1      29.459  31.176  23.146  1.00  0.00     0.027 A 
ATOM     22  C   UNL A   1      28.486  31.296  22.155  1.00  0.00     0.041 A 
ATOM     23  C   UNL A   1      28.078  28.937  22.296  1.00  0.00     0.049 A 
ATOM     24  Cl  UNL A   1      28.157  32.834  21.459  1.00  0.00    -0.084 Cl
ATOM     25  C   UNL A   1      27.801  30.175  21.717  1.00  0.00     0.024 A 
ENDBRANCH  17  18
ENDBRANCH  11  17
BRANCH  16  26
ATOM     26  N   UNL A   1      33.559  24.060  23.265  1.00  0.00    -0.398 N 
ATOM     27  H   UNL A   1      33.363  23.174  23.648  1.00  0.00     0.156 HD
ATOM     28  H   UNL A   1      34.410  24.214  22.797  1.00  0.00     0.156 HD
ENDBRANCH  16  26
ENDBRANCH   8  10
ENDBRANCH   7   8
ENDBRANCH   6   7
ENDBRANCH   5   6
ENDBRANCH   4   5
ENDBRANCH   3   4
ENDBRANCH   2   3
ENDBRANCH   1   2
BRANCH   1  29
ATOM     29  C   UNL A   1      35.593  21.100  25.235  1.00  0.00     0.188 C 
BRANCH  29  30
ATOM     30  C   UNL A   1      37.068  21.358  24.848  1.00  0.00     0.188 C 
BRANCH  30  31
ATOM     31  O   UNL A   1      37.819  22.078  25.811  1.00  0.00    -0.376 OA
BRANCH  31  32
ATOM     32  C   UNL A   1      39.182  21.734  25.976  1.00  0.00     0.202 C 
BRANCH  32  33
ATOM     33  C   UNL A   1      39.546  20.259  25.764  1.00  0.00     0.261 C 
BRANCH  33  34
ATOM     34  O   UNL A   1      40.467  19.700  26.712  1.00  0.00    -0.460 OA
BRANCH  34  35
ATOM     35  C   UNL A   1      41.733  19.499  26.282  1.00  0.00     0.338 C 
ATOM     36  O   UNL A   1      42.159  18.546  25.663  1.00  0.00    -0.246 OA
BRANCH  35  37
ATOM     37  C   UNL A   1      42.494  20.742  26.524  1.00  0.00     0.060 A 
ATOM     38  C   UNL A   1      42.381  21.364  27.774  1.00  0.00     0.016 A 
ATOM     39  C   UNL A   1      43.301  21.294  25.526  1.00  0.00     0.016 A 
ATOM     40  C   UNL A   1      43.031  22.573  28.009  1.00  0.00     0.010 A 
ATOM     41  C   UNL A   1      43.938  22.516  25.757  1.00  0.00     0.010 A 
ATOM     42  C   UNL A   1      43.767  23.181  26.984  1.00  0.00    -0.014 A 
BRANCH  42  43
ATOM     43  C   UNL A   1      44.169  24.599  27.145  1.00  0.00     0.031 A 
ATOM     44  C   UNL A   1      43.138  25.589  27.612  1.00  0.00     0.074 A 
ATOM     45  C   UNL A   1      45.440  24.987  26.950  1.00  0.00     0.049 A 
ATOM     46  N   UNL A   1      43.269  26.861  27.893  1.00  0.00    -0.248 NA
ATOM     47  C   UNL A   1      41.770  25.072  27.783  1.00  0.00     0.031 C 
ATOM     48  C   UNL A   1      46.529  24.118  26.516  1.00  0.00     0.029 A 
ATOM     49  N   UNL A   1      46.026  26.219  27.098  1.00  0.00    -0.354 N 
ATOM     50  C   UNL A   1      42.003  27.294  28.268  1.00  0.00     0.074 A 
ATOM     51  C   UNL A   1      41.111  26.163  28.141  1.00  0.00     0.031 C 
ATOM     52  C   UNL A   1      47.656  24.845  26.428  1.00  0.00     0.029 A 
ATOM     53  C   UNL A   1      47.360  26.233  26.779  1.00  0.00     0.049 A 
ATOM     54  H   UNL A   1      45.536  27.017  27.404  1.00  0.00     0.167 HD
ATOM     55  C   UNL A   1      41.622  28.524  28.691  1.00  0.00     0.037 A 
ATOM     56  C   UNL A   1      48.238  27.256  26.762  1.00  0.00     0.037 A 
ATOM     57  C   UNL A   1      42.516  29.646  28.813  1.00  0.00     0.049 A 
ATOM     58  C   UNL A   1      47.786  28.625  27.202  1.00  0.00     0.074 A 
ATOM     59  C   UNL A   1      42.241  30.922  29.269  1.00  0.00     0.029 A 
ATOM     60  N   UNL A   1      43.858  29.629  28.459  1.00  0.00    -0.354 N 
ATOM     61  N   UNL A   1      46.602  29.016  27.609  1.00  0.00    -0.248 NA
ATOM     62  C   UNL A   1      48.799  29.689  27.198  1.00  0.00     0.031 C 
ATOM     63  C   UNL A   1      43.397  31.697  29.122  1.00  0.00     0.029 A 
ATOM     64  C   UNL A   1      44.415  30.884  28.651  1.00  0.00     0.049 A 
ATOM     65  H   UNL A   1      44.344  28.842  28.120  1.00  0.00     0.167 HD
ATOM     66  C   UNL A   1      46.733  30.361  27.937  1.00  0.00     0.074 A 
ATOM     67  C   UNL A   1      48.118  30.713  27.694  1.00  0.00     0.031 C 
ATOM     68  C   UNL A   1      45.795  31.223  28.402  1.00  0.00     0.037 A 
BRANCH  55  69
ATOM     69  C   UNL A   1      40.168  28.726  29.006  1.00  0.00     0.064 A 
ATOM     70  C   UNL A   1      39.641  28.491  30.286  1.00  0.00     0.173 A 
ATOM     71  C   UNL A   1      39.286  29.171  28.009  1.00  0.00     0.173 A 
ATOM     72  F   UNL A   1      40.435  28.051  31.275  1.00  0.00    -0.203 F 
ATOM     73  C   UNL A   1      38.281  28.653  30.543  1.00  0.00     0.198 A 
ATOM     74  C   UNL A   1      37.935  29.368  28.279  1.00  0.00     0.198 A 
ATOM     75  F   UNL A   1      39.735  29.415  26.769  1.00  0.00    -0.203 F 
ATOM     76  F   UNL A   1      37.791  28.359  31.755  1.00  0.00    -0.200 F 
ATOM     77  C   UNL A   1      37.431  29.097  29.543  1.00  0.00     0.200 A 
ATOM     78  F   UNL A   1      37.119  29.812  27.314  1.00  0.00    -0.200 F 
ATOM     79  F   UNL A   1      36.123  29.255  29.792  1.00  0.00    -0.200 F 
ENDBRANCH  55  69
BRANCH  56  80
ATOM     80  C   UNL A   1      49.633  27.014  26.311  1.00  0.00     0.064 A 
ATOM     81  C   UNL A   1      49.992  27.109  24.959  1.00  0.00     0.173 A 
ATOM     82  C   UNL A   1      50.642  26.695  27.232  1.00  0.00     0.173 A 
ATOM     83  F   UNL A   1      49.060  27.388  24.036  1.00  0.00    -0.203 F 
ATOM     84  C   UNL A   1      51.304  26.882  24.546  1.00  0.00     0.198 A 
ATOM     85  C   UNL A   1      51.958  26.498  26.822  1.00  0.00     0.198 A 
ATOM     86  F   UNL A   1      50.351  26.591  28.537  1.00  0.00    -0.203 F 
ATOM     87  F   UNL A   1      51.612  26.940  23.242  1.00  0.00    -0.200 F 
ATOM     88  C   UNL A   1      52.287  26.586  25.478  1.00  0.00     0.200 A 
ATOM     89  F   UNL A   1      52.908  26.227  27.727  1.00  0.00    -0.200 F 
ATOM     90  F   UNL A   1      53.551  26.381  25.080  1.00  0.00    -0.200 F 
ENDBRANCH  56  80
BRANCH  68  91
ATOM     91  C   UNL A   1      46.240  32.624  28.722  1.00  0.00     0.064 A 
ATOM     92  C   UNL A   1      46.228  33.647  27.761  1.00  0.00     0.173 A 
ATOM     93  C   UNL A   1      46.654  32.955  30.022  1.00  0.00     0.173 A 
ATOM     94  F   UNL A   1      45.850  33.385  26.501  1.00  0.00    -0.203 F 
ATOM     95  C   UNL A   1      46.652  34.935  28.080  1.00  0.00     0.198 A 
ATOM     96  C   UNL A   1      47.041  34.252  30.347  1.00  0.00     0.198 A 
ATOM     97  F   UNL A   1      46.674  32.020  30.984  1.00  0.00    -0.203 F 
ATOM     98  F   UNL A   1      46.691  35.880  27.129  1.00  0.00    -0.200 F 
ATOM     99  C   UNL A   1      47.051  35.238  29.373  1.00  0.00     0.200 A 
ATOM    100  F   UNL A   1      47.407  34.547  31.602  1.00  0.00    -0.200 F 
ATOM    101  F   UNL A   1      47.454  36.479  29.679  1.00  0.00    -0.200 F 
ENDBRANCH  68  91
ENDBRANCH  42  43
ENDBRANCH  35  37
ENDBRANCH  34  35
ENDBRANCH  33  34
ENDBRANCH  32  33
ENDBRANCH  31  32
ENDBRANCH  30  31
ENDBRANCH  29  30
ENDBRANCH   1  29
TORSDOF 23
ENDMDL
