MODEL 1
REMARK VINA RESULT:     -11.2      0.000      0.000
REMARK SMILES O=C(Cc1ccccc1-c1ccn(C(F)F)c(=O)c1)OCCOCCOCCOCCOC(=O)c1ccc(-c2c3nc(c(-c4c(F)c(F)c(F)c(F)c4F)c4ccc([nH]4)c(-c4c(F)c(F)c(F)c(F)c4F)c4nc(c(-c5c(F)c(F)c(F)c(F)c5F)c5ccc2[nH]5)C=C4)C=C3)cc1
REMARK SMILES IDX 25 1 24 2 23 3 22 4 21 5 20 6 2 7 1 8 3 9 4 10 5 11 9 12
REMARK SMILES IDX 6 13 8 14 7 15 10 16 11 17 19 18 12 19 17 20 13 21 18 22
REMARK SMILES IDX 14 23 15 24 16 25 26 26 27 27 28 28 29 29 30 30 31 31 32 32
REMARK SMILES IDX 33 33 34 34 35 35 36 36 97 37 37 38 96 39 38 40 39 41 40 42
REMARK SMILES IDX 90 43 41 44 95 45 89 46 91 47 42 48 94 49 88 50 87 51 43 53
REMARK SMILES IDX 75 54 55 55 74 56 56 57 59 58 73 59 92 60 57 61 58 62 72 64
REMARK SMILES IDX 93 65 60 66 44 67 45 68 53 69 46 70 47 71 51 72 54 73 48 74
REMARK SMILES IDX 49 75 52 76 50 77 76 78 77 79 85 80 78 81 79 82 83 83 86 84
REMARK SMILES IDX 80 85 81 86 84 87 82 88 61 89 62 90 70 91 63 92 64 93 68 94
REMARK SMILES IDX 71 95 65 96 66 97 69 98 67 99
REMARK H PARENT 91 52 59 63
REMARK Flexibility Score: inf
ROOT
ATOM      1  C   UNL A   1      33.261  29.007  23.607  1.00  0.00     0.188 C 
ENDROOT
BRANCH   1   2
ATOM      2  C   UNL A   1      34.103  28.445  22.438  1.00  0.00     0.188 C 
BRANCH   2   3
ATOM      3  O   UNL A   1      33.788  27.308  21.632  1.00  0.00    -0.376 OA
BRANCH   3   4
ATOM      4  C   UNL A   1      33.143  26.138  22.070  1.00  0.00     0.202 C 
BRANCH   4   5
ATOM      5  C   UNL A   1      33.853  25.334  23.149  1.00  0.00     0.261 C 
BRANCH   5   6
ATOM      6  O   UNL A   1      34.465  24.118  22.700  1.00  0.00    -0.463 OA
BRANCH   6   7
ATOM      7  C   UNL A   1      35.285  23.302  23.400  1.00  0.00     0.310 C 
ATOM      8  O   UNL A   1      36.370  22.991  22.908  1.00  0.00    -0.252 OA
BRANCH   7   9
ATOM      9  C   UNL A   1      34.870  22.761  24.740  1.00  0.00     0.158 C 
BRANCH   9  10
ATOM     10  C   UNL A   1      34.405  21.323  24.805  1.00  0.00    -0.029 A 
ATOM     11  C   UNL A   1      35.407  20.335  24.729  1.00  0.00     0.005 A 
ATOM     12  C   UNL A   1      33.040  20.937  24.903  1.00  0.00    -0.014 A 
ATOM     13  C   UNL A   1      35.072  18.987  24.695  1.00  0.00     0.000 A 
ATOM     14  C   UNL A   1      32.727  19.573  24.867  1.00  0.00     0.009 A 
ATOM     15  C   UNL A   1      33.735  18.607  24.762  1.00  0.00     0.001 A 
BRANCH  12  16
ATOM     16  C   UNL A   1      31.939  21.935  24.859  1.00  0.00    -0.011 A 
ATOM     17  C   UNL A   1      31.452  22.490  23.603  1.00  0.00     0.027 A 
ATOM     18  C   UNL A   1      31.537  22.502  26.010  1.00  0.00     0.080 A 
ATOM     19  C   UNL A   1      30.890  23.705  23.580  1.00  0.00     0.095 A 
ATOM     20  C   UNL A   1      30.754  23.777  25.995  1.00  0.00     0.255 A 
ATOM     21  N   UNL A   1      30.628  24.384  24.755  1.00  0.00    -0.258 N 
ATOM     22  O   UNL A   1      30.344  24.223  27.060  1.00  0.00    -0.269 OA
BRANCH  21  23
ATOM     23  C   UNL A   1      30.131  25.737  24.710  1.00  0.00     0.451 C 
ATOM     24  F   UNL A   1      31.156  26.623  24.753  1.00  0.00    -0.185 F 
ATOM     25  F   UNL A   1      29.409  25.989  23.592  1.00  0.00    -0.185 F 
ENDBRANCH  21  23
ENDBRANCH  12  16
ENDBRANCH   9  10
ENDBRANCH   7   9
ENDBRANCH   6   7
ENDBRANCH   5   6
ENDBRANCH   4   5
ENDBRANCH   3   4
ENDBRANCH   2   3
ENDBRANCH   1   2
BRANCH   1  26
ATOM     26  O   UNL A   1      33.625  28.709  24.949  1.00  0.00    -0.377 OA
BRANCH  26  27
ATOM     27  C   UNL A   1      32.792  29.221  25.969  1.00  0.00     0.188 C 
BRANCH  27  28
ATOM     28  C   UNL A   1      31.509  29.853  25.409  1.00  0.00     0.188 C 
BRANCH  28  29
ATOM     29  O   UNL A   1      31.332  31.197  25.820  1.00  0.00    -0.376 OA
BRANCH  29  30
ATOM     30  C   UNL A   1      32.160  31.643  26.898  1.00  0.00     0.202 C 
BRANCH  30  31
ATOM     31  C   UNL A   1      32.114  33.132  27.306  1.00  0.00     0.261 C 
BRANCH  31  32
ATOM     32  O   UNL A   1      33.388  33.778  27.510  1.00  0.00    -0.460 OA
BRANCH  32  33
ATOM     33  C   UNL A   1      33.863  33.852  28.767  1.00  0.00     0.338 C 
ATOM     34  O   UNL A   1      33.300  34.310  29.748  1.00  0.00    -0.246 OA
BRANCH  33  35
ATOM     35  C   UNL A   1      35.105  33.050  28.834  1.00  0.00     0.060 A 
ATOM     36  C   UNL A   1      34.995  31.678  29.105  1.00  0.00     0.016 A 
ATOM     37  C   UNL A   1      36.358  33.637  28.645  1.00  0.00     0.016 A 
ATOM     38  C   UNL A   1      36.139  30.902  29.262  1.00  0.00     0.010 A 
ATOM     39  C   UNL A   1      37.509  32.867  28.841  1.00  0.00     0.010 A 
ATOM     40  C   UNL A   1      37.397  31.515  29.212  1.00  0.00    -0.014 A 
BRANCH  40  41
ATOM     41  C   UNL A   1      38.519  30.834  29.901  1.00  0.00     0.031 A 
ATOM     42  C   UNL A   1      38.724  31.157  31.358  1.00  0.00     0.074 A 
ATOM     43  C   UNL A   1      39.271  29.901  29.293  1.00  0.00     0.049 A 
ATOM     44  N   UNL A   1      39.595  30.677  32.208  1.00  0.00    -0.248 NA
ATOM     45  C   UNL A   1      37.813  32.160  31.938  1.00  0.00     0.031 C 
ATOM     46  C   UNL A   1      39.126  29.466  27.908  1.00  0.00     0.029 A 
ATOM     47  N   UNL A   1      40.307  29.147  29.782  1.00  0.00    -0.354 N 
ATOM     48  C   UNL A   1      39.339  31.325  33.411  1.00  0.00     0.074 A 
ATOM     49  C   UNL A   1      38.259  32.254  33.179  1.00  0.00     0.031 C 
ATOM     50  C   UNL A   1      40.046  28.515  27.654  1.00  0.00     0.029 A 
ATOM     51  C   UNL A   1      40.853  28.297  28.853  1.00  0.00     0.049 A 
ATOM     52  H   UNL A   1      40.628  29.208  30.710  1.00  0.00     0.167 HD
ATOM     53  C   UNL A   1      39.943  31.153  34.610  1.00  0.00     0.037 A 
ATOM     54  C   UNL A   1      41.894  27.448  28.968  1.00  0.00     0.037 A 
ATOM     55  C   UNL A   1      41.018  30.226  34.837  1.00  0.00     0.049 A 
ATOM     56  C   UNL A   1      42.599  27.324  30.299  1.00  0.00     0.074 A 
ATOM     57  C   UNL A   1      41.700  29.967  36.011  1.00  0.00     0.029 A 
ATOM     58  N   UNL A   1      41.573  29.413  33.860  1.00  0.00    -0.354 N 
ATOM     59  N   UNL A   1      42.336  27.920  31.438  1.00  0.00    -0.248 NA
ATOM     60  C   UNL A   1      43.736  26.395  30.359  1.00  0.00     0.031 C 
ATOM     61  C   UNL A   1      42.706  29.037  35.731  1.00  0.00     0.029 A 
ATOM     62  C   UNL A   1      42.605  28.665  34.400  1.00  0.00     0.049 A 
ATOM     63  H   UNL A   1      41.276  29.372  32.922  1.00  0.00     0.167 HD
ATOM     64  C   UNL A   1      43.244  27.406  32.358  1.00  0.00     0.074 A 
ATOM     65  C   UNL A   1      44.057  26.444  31.643  1.00  0.00     0.031 C 
ATOM     66  C   UNL A   1      43.388  27.697  33.675  1.00  0.00     0.037 A 
BRANCH  53  67
ATOM     67  C   UNL A   1      39.481  32.017  35.745  1.00  0.00     0.064 A 
ATOM     68  C   UNL A   1      40.027  33.288  35.985  1.00  0.00     0.173 A 
ATOM     69  C   UNL A   1      38.471  31.565  36.609  1.00  0.00     0.173 A 
ATOM     70  F   UNL A   1      41.011  33.759  35.203  1.00  0.00    -0.203 F 
ATOM     71  C   UNL A   1      39.602  34.059  37.064  1.00  0.00     0.198 A 
ATOM     72  C   UNL A   1      38.025  32.353  37.666  1.00  0.00     0.198 A 
ATOM     73  F   UNL A   1      37.919  30.357  36.428  1.00  0.00    -0.203 F 
ATOM     74  F   UNL A   1      40.179  35.244  37.308  1.00  0.00    -0.200 F 
ATOM     75  C   UNL A   1      38.597  33.595  37.899  1.00  0.00     0.200 A 
ATOM     76  F   UNL A   1      37.046  31.907  38.465  1.00  0.00    -0.200 F 
ATOM     77  F   UNL A   1      38.185  34.340  38.934  1.00  0.00    -0.200 F 
ENDBRANCH  53  67
BRANCH  54  78
ATOM     78  C   UNL A   1      42.335  26.639  27.800  1.00  0.00     0.064 A 
ATOM     79  C   UNL A   1      43.321  27.110  26.921  1.00  0.00     0.173 A 
ATOM     80  C   UNL A   1      41.756  25.392  27.520  1.00  0.00     0.173 A 
ATOM     81  F   UNL A   1      43.888  28.307  27.133  1.00  0.00    -0.203 F 
ATOM     82  C   UNL A   1      43.691  26.379  25.794  1.00  0.00     0.198 A 
ATOM     83  C   UNL A   1      42.150  24.648  26.410  1.00  0.00     0.198 A 
ATOM     84  F   UNL A   1      40.809  24.894  28.328  1.00  0.00    -0.203 F 
ATOM     85  F   UNL A   1      44.598  26.879  24.943  1.00  0.00    -0.200 F 
ATOM     86  C   UNL A   1      43.110  25.146  25.542  1.00  0.00     0.200 A 
ATOM     87  F   UNL A   1      41.595  23.450  26.178  1.00  0.00    -0.200 F 
ATOM     88  F   UNL A   1      43.468  24.443  24.459  1.00  0.00    -0.200 F 
ENDBRANCH  54  78
BRANCH  66  89
ATOM     89  C   UNL A   1      44.414  26.916  34.448  1.00  0.00     0.064 A 
ATOM     90  C   UNL A   1      44.107  25.703  35.082  1.00  0.00     0.173 A 
ATOM     91  C   UNL A   1      45.737  27.380  34.525  1.00  0.00     0.173 A 
ATOM     92  F   UNL A   1      42.856  25.220  35.046  1.00  0.00    -0.203 F 
ATOM     93  C   UNL A   1      45.077  25.006  35.798  1.00  0.00     0.198 A 
ATOM     94  C   UNL A   1      46.712  26.661  35.211  1.00  0.00     0.198 A 
ATOM     95  F   UNL A   1      46.088  28.528  33.925  1.00  0.00    -0.203 F 
ATOM     96  F   UNL A   1      44.745  23.882  36.450  1.00  0.00    -0.200 F 
ATOM     97  C   UNL A   1      46.378  25.482  35.857  1.00  0.00     0.200 A 
ATOM     98  F   UNL A   1      47.973  27.114  35.249  1.00  0.00    -0.200 F 
ATOM     99  F   UNL A   1      47.310  24.807  36.545  1.00  0.00    -0.200 F 
ENDBRANCH  66  89
ENDBRANCH  40  41
ENDBRANCH  33  35
ENDBRANCH  32  33
ENDBRANCH  31  32
ENDBRANCH  30  31
ENDBRANCH  29  30
ENDBRANCH  28  29
ENDBRANCH  27  28
ENDBRANCH  26  27
ENDBRANCH   1  26
TORSDOF 23
ENDMDL
MODEL 2
REMARK VINA RESULT:     -10.7      1.902      2.875
REMARK SMILES O=C(Cc1ccccc1-c1ccn(C(F)F)c(=O)c1)OCCOCCOCCOCCOC(=O)c1ccc(-c2c3nc(c(-c4c(F)c(F)c(F)c(F)c4F)c4ccc([nH]4)c(-c4c(F)c(F)c(F)c(F)c4F)c4nc(c(-c5c(F)c(F)c(F)c(F)c5F)c5ccc2[nH]5)C=C4)C=C3)cc1
REMARK SMILES IDX 25 1 24 2 23 3 22 4 21 5 20 6 2 7 1 8 3 9 4 10 5 11 9 12
REMARK SMILES IDX 6 13 8 14 7 15 10 16 11 17 19 18 12 19 17 20 13 21 18 22
REMARK SMILES IDX 14 23 15 24 16 25 26 26 27 27 28 28 29 29 30 30 31 31 32 32
REMARK SMILES IDX 33 33 34 34 35 35 36 36 97 37 37 38 96 39 38 40 39 41 40 42
REMARK SMILES IDX 90 43 41 44 95 45 89 46 91 47 42 48 94 49 88 50 87 51 43 53
REMARK SMILES IDX 75 54 55 55 74 56 56 57 59 58 73 59 92 60 57 61 58 62 72 64
REMARK SMILES IDX 93 65 60 66 44 67 45 68 53 69 46 70 47 71 51 72 54 73 48 74
REMARK SMILES IDX 49 75 52 76 50 77 76 78 77 79 85 80 78 81 79 82 83 83 86 84
REMARK SMILES IDX 80 85 81 86 84 87 82 88 61 89 62 90 70 91 63 92 64 93 68 94
REMARK SMILES IDX 71 95 65 96 66 97 69 98 67 99
REMARK H PARENT 91 52 59 63
REMARK Flexibility Score: inf
ROOT
ATOM      1  C   UNL A   1      33.291  28.798  23.654  1.00  0.00     0.188 C 
ENDROOT
BRANCH   1   2
ATOM      2  C   UNL A   1      34.098  28.126  22.518  1.00  0.00     0.188 C 
BRANCH   2   3
ATOM      3  O   UNL A   1      33.650  27.075  21.662  1.00  0.00    -0.376 OA
BRANCH   3   4
ATOM      4  C   UNL A   1      32.315  26.676  21.472  1.00  0.00     0.202 C 
BRANCH   4   5
ATOM      5  C   UNL A   1      31.737  25.722  22.507  1.00  0.00     0.261 C 
BRANCH   5   6
ATOM      6  O   UNL A   1      31.986  24.332  22.261  1.00  0.00    -0.463 OA
BRANCH   6   7
ATOM      7  C   UNL A   1      33.181  23.700  22.248  1.00  0.00     0.310 C 
ATOM      8  O   UNL A   1      33.551  23.154  21.208  1.00  0.00    -0.252 OA
BRANCH   7   9
ATOM      9  C   UNL A   1      34.030  23.637  23.487  1.00  0.00     0.158 C 
BRANCH   9  10
ATOM     10  C   UNL A   1      33.331  23.408  24.809  1.00  0.00    -0.029 A 
ATOM     11  C   UNL A   1      33.035  24.557  25.570  1.00  0.00     0.005 A 
ATOM     12  C   UNL A   1      32.999  22.122  25.316  1.00  0.00    -0.014 A 
ATOM     13  C   UNL A   1      32.470  24.444  26.834  1.00  0.00     0.000 A 
ATOM     14  C   UNL A   1      32.430  22.033  26.593  1.00  0.00     0.009 A 
ATOM     15  C   UNL A   1      32.171  23.185  27.345  1.00  0.00     0.001 A 
BRANCH  12  16
ATOM     16  C   UNL A   1      33.401  20.875  24.613  1.00  0.00    -0.011 A 
ATOM     17  C   UNL A   1      32.453  20.095  23.828  1.00  0.00     0.027 A 
ATOM     18  C   UNL A   1      34.602  20.338  24.889  1.00  0.00     0.080 A 
ATOM     19  C   UNL A   1      32.642  18.780  23.663  1.00  0.00     0.095 A 
ATOM     20  C   UNL A   1      34.890  18.910  24.550  1.00  0.00     0.255 A 
ATOM     21  N   UNL A   1      33.805  18.173  24.101  1.00  0.00    -0.258 N 
ATOM     22  O   UNL A   1      36.020  18.478  24.750  1.00  0.00    -0.269 OA
BRANCH  21  23
ATOM     23  C   UNL A   1      33.945  16.741  24.020  1.00  0.00     0.451 C 
ATOM     24  F   UNL A   1      32.773  16.130  24.320  1.00  0.00    -0.185 F 
ATOM     25  F   UNL A   1      34.329  16.323  22.790  1.00  0.00    -0.185 F 
ENDBRANCH  21  23
ENDBRANCH  12  16
ENDBRANCH   9  10
ENDBRANCH   7   9
ENDBRANCH   6   7
ENDBRANCH   5   6
ENDBRANCH   4   5
ENDBRANCH   3   4
ENDBRANCH   2   3
ENDBRANCH   1   2
BRANCH   1  26
ATOM     26  O   UNL A   1      33.785  28.766  24.986  1.00  0.00    -0.377 OA
BRANCH  26  27
ATOM     27  C   UNL A   1      32.852  29.002  26.022  1.00  0.00     0.188 C 
BRANCH  27  28
ATOM     28  C   UNL A   1      31.532  29.582  25.494  1.00  0.00     0.188 C 
BRANCH  28  29
ATOM     29  O   UNL A   1      31.412  30.976  25.721  1.00  0.00    -0.376 OA
BRANCH  29  30
ATOM     30  C   UNL A   1      32.016  31.475  26.916  1.00  0.00     0.202 C 
BRANCH  30  31
ATOM     31  C   UNL A   1      32.013  32.999  27.173  1.00  0.00     0.261 C 
BRANCH  31  32
ATOM     32  O   UNL A   1      33.304  33.622  27.337  1.00  0.00    -0.460 OA
BRANCH  32  33
ATOM     33  C   UNL A   1      33.792  33.742  28.586  1.00  0.00     0.338 C 
ATOM     34  O   UNL A   1      33.230  34.214  29.560  1.00  0.00    -0.246 OA
BRANCH  33  35
ATOM     35  C   UNL A   1      35.052  32.970  28.660  1.00  0.00     0.060 A 
ATOM     36  C   UNL A   1      34.971  31.587  28.885  1.00  0.00     0.016 A 
ATOM     37  C   UNL A   1      36.294  33.594  28.522  1.00  0.00     0.016 A 
ATOM     38  C   UNL A   1      36.130  30.836  29.047  1.00  0.00     0.010 A 
ATOM     39  C   UNL A   1      37.459  32.847  28.723  1.00  0.00     0.010 A 
ATOM     40  C   UNL A   1      37.373  31.482  29.049  1.00  0.00    -0.014 A 
BRANCH  40  41
ATOM     41  C   UNL A   1      38.495  30.807  29.745  1.00  0.00     0.031 A 
ATOM     42  C   UNL A   1      38.688  31.131  31.204  1.00  0.00     0.074 A 
ATOM     43  C   UNL A   1      39.256  29.879  29.142  1.00  0.00     0.049 A 
ATOM     44  N   UNL A   1      39.556  30.656  32.059  1.00  0.00    -0.248 NA
ATOM     45  C   UNL A   1      37.767  32.128  31.777  1.00  0.00     0.031 C 
ATOM     46  C   UNL A   1      39.123  29.443  27.756  1.00  0.00     0.029 A 
ATOM     47  N   UNL A   1      40.293  29.131  29.637  1.00  0.00    -0.354 N 
ATOM     48  C   UNL A   1      39.289  31.303  33.261  1.00  0.00     0.074 A 
ATOM     49  C   UNL A   1      38.204  32.225  33.021  1.00  0.00     0.031 C 
ATOM     50  C   UNL A   1      40.050  28.498  27.508  1.00  0.00     0.029 A 
ATOM     51  C   UNL A   1      40.851  28.285  28.713  1.00  0.00     0.049 A 
ATOM     52  H   UNL A   1      40.608  29.194  30.568  1.00  0.00     0.167 HD
ATOM     53  C   UNL A   1      39.886  31.134  34.463  1.00  0.00     0.037 A 
ATOM     54  C   UNL A   1      41.896  27.442  28.834  1.00  0.00     0.037 A 
ATOM     55  C   UNL A   1      40.965  30.214  34.697  1.00  0.00     0.049 A 
ATOM     56  C   UNL A   1      42.593  27.322  30.169  1.00  0.00     0.074 A 
ATOM     57  C   UNL A   1      41.640  29.959  35.876  1.00  0.00     0.029 A 
ATOM     58  N   UNL A   1      41.531  29.404  33.723  1.00  0.00    -0.354 N 
ATOM     59  N   UNL A   1      42.319  27.916  31.307  1.00  0.00    -0.248 NA
ATOM     60  C   UNL A   1      43.735  26.400  30.237  1.00  0.00     0.031 C 
ATOM     61  C   UNL A   1      42.655  29.035  35.602  1.00  0.00     0.029 A 
ATOM     62  C   UNL A   1      42.564  28.663  34.270  1.00  0.00     0.049 A 
ATOM     63  H   UNL A   1      41.240  29.362  32.784  1.00  0.00     0.167 HD
ATOM     64  C   UNL A   1      43.224  27.408  32.232  1.00  0.00     0.074 A 
ATOM     65  C   UNL A   1      44.048  26.451  31.523  1.00  0.00     0.031 C 
ATOM     66  C   UNL A   1      43.358  27.699  33.551  1.00  0.00     0.037 A 
BRANCH  53  67
ATOM     67  C   UNL A   1      39.411  31.996  35.596  1.00  0.00     0.064 A 
ATOM     68  C   UNL A   1      39.875  33.308  35.779  1.00  0.00     0.173 A 
ATOM     69  C   UNL A   1      38.473  31.498  36.514  1.00  0.00     0.173 A 
ATOM     70  F   UNL A   1      40.790  33.824  34.944  1.00  0.00    -0.203 F 
ATOM     71  C   UNL A   1      39.441  34.077  36.856  1.00  0.00     0.198 A 
ATOM     72  C   UNL A   1      38.016  32.283  37.569  1.00  0.00     0.198 A 
ATOM     73  F   UNL A   1      38.001  30.250  36.387  1.00  0.00    -0.203 F 
ATOM     74  F   UNL A   1      39.943  35.306  37.045  1.00  0.00    -0.200 F 
ATOM     75  C   UNL A   1      38.507  33.567  37.745  1.00  0.00     0.200 A 
ATOM     76  F   UNL A   1      37.106  31.791  38.421  1.00  0.00    -0.200 F 
ATOM     77  F   UNL A   1      38.087  34.310  38.778  1.00  0.00    -0.200 F 
ENDBRANCH  53  67
BRANCH  54  78
ATOM     78  C   UNL A   1      42.350  26.635  27.669  1.00  0.00     0.064 A 
ATOM     79  C   UNL A   1      41.828  25.357  27.425  1.00  0.00     0.173 A 
ATOM     80  C   UNL A   1      43.339  27.112  26.796  1.00  0.00     0.173 A 
ATOM     81  F   UNL A   1      40.897  24.847  28.244  1.00  0.00    -0.203 F 
ATOM     82  C   UNL A   1      42.296  24.577  26.368  1.00  0.00     0.198 A 
ATOM     83  C   UNL A   1      43.783  26.344  25.722  1.00  0.00     0.198 A 
ATOM     84  F   UNL A   1      43.872  28.328  26.984  1.00  0.00    -0.203 F 
ATOM     85  F   UNL A   1      41.816  23.339  26.190  1.00  0.00    -0.200 F 
ATOM     86  C   UNL A   1      43.268  25.073  25.514  1.00  0.00     0.200 A 
ATOM     87  F   UNL A   1      44.713  26.833  24.891  1.00  0.00    -0.200 F 
ATOM     88  F   UNL A   1      43.716  24.324  24.498  1.00  0.00    -0.200 F 
ENDBRANCH  54  78
BRANCH  66  89
ATOM     89  C   UNL A   1      44.384  26.924  34.330  1.00  0.00     0.064 A 
ATOM     90  C   UNL A   1      44.088  25.695  34.936  1.00  0.00     0.173 A 
ATOM     91  C   UNL A   1      45.695  27.413  34.442  1.00  0.00     0.173 A 
ATOM     92  F   UNL A   1      42.848  25.188  34.867  1.00  0.00    -0.203 F 
ATOM     93  C   UNL A   1      45.057  25.004  35.660  1.00  0.00     0.198 A 
ATOM     94  C   UNL A   1      46.671  26.701  35.134  1.00  0.00     0.198 A 
ATOM     95  F   UNL A   1      46.036  28.577  33.869  1.00  0.00    -0.203 F 
ATOM     96  F   UNL A   1      44.734  23.863  36.285  1.00  0.00    -0.200 F 
ATOM     97  C   UNL A   1      46.347  25.504  35.753  1.00  0.00     0.200 A 
ATOM     98  F   UNL A   1      47.921  27.176  35.205  1.00  0.00    -0.200 F 
ATOM     99  F   UNL A   1      47.278  24.835  36.447  1.00  0.00    -0.200 F 
ENDBRANCH  66  89
ENDBRANCH  40  41
ENDBRANCH  33  35
ENDBRANCH  32  33
ENDBRANCH  31  32
ENDBRANCH  30  31
ENDBRANCH  29  30
ENDBRANCH  28  29
ENDBRANCH  27  28
ENDBRANCH  26  27
ENDBRANCH   1  26
TORSDOF 23
ENDMDL
MODEL 3
REMARK VINA RESULT:     -10.2      2.644      4.546
REMARK SMILES O=C(Cc1ccccc1-c1ccn(C(F)F)c(=O)c1)OCCOCCOCCOCCOC(=O)c1ccc(-c2c3nc(c(-c4c(F)c(F)c(F)c(F)c4F)c4ccc([nH]4)c(-c4c(F)c(F)c(F)c(F)c4F)c4nc(c(-c5c(F)c(F)c(F)c(F)c5F)c5ccc2[nH]5)C=C4)C=C3)cc1
REMARK SMILES IDX 25 1 24 2 23 3 22 4 21 5 20 6 2 7 1 8 3 9 4 10 5 11 9 12
REMARK SMILES IDX 6 13 8 14 7 15 10 16 11 17 19 18 12 19 17 20 13 21 18 22
REMARK SMILES IDX 14 23 15 24 16 25 26 26 27 27 28 28 29 29 30 30 31 31 32 32
REMARK SMILES IDX 33 33 34 34 35 35 36 36 97 37 37 38 96 39 38 40 39 41 40 42
REMARK SMILES IDX 90 43 41 44 95 45 89 46 91 47 42 48 94 49 88 50 87 51 43 53
REMARK SMILES IDX 75 54 55 55 74 56 56 57 59 58 73 59 92 60 57 61 58 62 72 64
REMARK SMILES IDX 93 65 60 66 44 67 45 68 53 69 46 70 47 71 51 72 54 73 48 74
REMARK SMILES IDX 49 75 52 76 50 77 76 78 77 79 85 80 78 81 79 82 83 83 86 84
REMARK SMILES IDX 80 85 81 86 84 87 82 88 61 89 62 90 70 91 63 92 64 93 68 94
REMARK SMILES IDX 71 95 65 96 66 97 69 98 67 99
REMARK H PARENT 91 52 59 63
REMARK Flexibility Score: inf
ROOT
ATOM      1  C   UNL A   1      33.603  28.710  27.466  1.00  0.00     0.188 C 
ENDROOT
BRANCH   1   2
ATOM      2  C   UNL A   1      32.863  27.813  26.447  1.00  0.00     0.188 C 
BRANCH   2   3
ATOM      3  O   UNL A   1      33.386  26.657  25.791  1.00  0.00    -0.376 OA
BRANCH   3   4
ATOM      4  C   UNL A   1      34.066  26.642  24.561  1.00  0.00     0.202 C 
BRANCH   4   5
ATOM      5  C   UNL A   1      34.515  25.281  24.049  1.00  0.00     0.261 C 
BRANCH   5   6
ATOM      6  O   UNL A   1      33.970  24.896  22.781  1.00  0.00    -0.463 OA
BRANCH   6   7
ATOM      7  C   UNL A   1      33.004  25.525  22.075  1.00  0.00     0.310 C 
ATOM      8  O   UNL A   1      33.330  26.409  21.283  1.00  0.00    -0.252 OA
BRANCH   7   9
ATOM      9  C   UNL A   1      31.555  25.174  22.274  1.00  0.00     0.158 C 
BRANCH   9  10
ATOM     10  C   UNL A   1      31.057  25.020  23.694  1.00  0.00    -0.029 A 
ATOM     11  C   UNL A   1      31.321  23.786  24.322  1.00  0.00     0.005 A 
ATOM     12  C   UNL A   1      30.327  26.023  24.389  1.00  0.00    -0.014 A 
ATOM     13  C   UNL A   1      30.830  23.519  25.594  1.00  0.00     0.000 A 
ATOM     14  C   UNL A   1      29.843  25.730  25.670  1.00  0.00     0.009 A 
ATOM     15  C   UNL A   1      30.091  24.488  26.265  1.00  0.00     0.001 A 
BRANCH  12  16
ATOM     16  C   UNL A   1      29.914  27.290  23.730  1.00  0.00    -0.011 A 
ATOM     17  C   UNL A   1      30.798  28.447  23.665  1.00  0.00     0.027 A 
ATOM     18  C   UNL A   1      28.624  27.447  23.385  1.00  0.00     0.080 A 
ATOM     19  C   UNL A   1      30.283  29.679  23.577  1.00  0.00     0.095 A 
ATOM     20  C   UNL A   1      28.072  28.810  23.113  1.00  0.00     0.255 A 
ATOM     21  N   UNL A   1      28.924  29.866  23.398  1.00  0.00    -0.258 N 
ATOM     22  O   UNL A   1      26.911  28.905  22.731  1.00  0.00    -0.269 OA
BRANCH  21  23
ATOM     23  C   UNL A   1      28.371  31.197  23.421  1.00  0.00     0.451 C 
ATOM     24  F   UNL A   1      27.264  31.239  24.202  1.00  0.00    -0.185 F 
ATOM     25  F   UNL A   1      29.246  32.117  23.891  1.00  0.00    -0.185 F 
ENDBRANCH  21  23
ENDBRANCH  12  16
ENDBRANCH   9  10
ENDBRANCH   7   9
ENDBRANCH   6   7
ENDBRANCH   5   6
ENDBRANCH   4   5
ENDBRANCH   3   4
ENDBRANCH   2   3
ENDBRANCH   1   2
BRANCH   1  26
ATOM     26  O   UNL A   1      34.486  29.724  27.006  1.00  0.00    -0.377 OA
BRANCH  26  27
ATOM     27  C   UNL A   1      35.467  30.183  27.914  1.00  0.00     0.188 C 
BRANCH  27  28
ATOM     28  C   UNL A   1      35.767  31.679  27.740  1.00  0.00     0.188 C 
BRANCH  28  29
ATOM     29  O   UNL A   1      34.622  32.495  27.919  1.00  0.00    -0.376 OA
BRANCH  29  30
ATOM     30  C   UNL A   1      34.463  33.083  29.212  1.00  0.00     0.202 C 
BRANCH  30  31
ATOM     31  C   UNL A   1      33.796  34.473  29.322  1.00  0.00     0.261 C 
BRANCH  31  32
ATOM     32  O   UNL A   1      32.792  34.621  30.347  1.00  0.00    -0.460 OA
BRANCH  32  33
ATOM     33  C   UNL A   1      33.057  35.450  31.374  1.00  0.00     0.338 C 
ATOM     34  O   UNL A   1      32.401  36.411  31.741  1.00  0.00    -0.246 OA
BRANCH  33  35
ATOM     35  C   UNL A   1      34.159  34.860  32.165  1.00  0.00     0.060 A 
ATOM     36  C   UNL A   1      35.373  35.559  32.238  1.00  0.00     0.016 A 
ATOM     37  C   UNL A   1      34.008  33.633  32.816  1.00  0.00     0.016 A 
ATOM     38  C   UNL A   1      36.463  35.002  32.899  1.00  0.00     0.010 A 
ATOM     39  C   UNL A   1      35.114  33.054  33.447  1.00  0.00     0.010 A 
ATOM     40  C   UNL A   1      36.357  33.711  33.431  1.00  0.00    -0.014 A 
BRANCH  40  41
ATOM     41  C   UNL A   1      37.611  32.943  33.622  1.00  0.00     0.031 A 
ATOM     42  C   UNL A   1      38.373  33.184  34.899  1.00  0.00     0.074 A 
ATOM     43  C   UNL A   1      38.015  32.005  32.749  1.00  0.00     0.049 A 
ATOM     44  N   UNL A   1      39.469  32.622  35.340  1.00  0.00    -0.248 NA
ATOM     45  C   UNL A   1      37.815  34.201  35.808  1.00  0.00     0.031 C 
ATOM     46  C   UNL A   1      37.329  31.644  31.513  1.00  0.00     0.029 A 
ATOM     47  N   UNL A   1      39.109  31.178  32.786  1.00  0.00    -0.354 N 
ATOM     48  C   UNL A   1      39.730  33.223  36.566  1.00  0.00     0.074 A 
ATOM     49  C   UNL A   1      38.703  34.214  36.787  1.00  0.00     0.031 C 
ATOM     50  C   UNL A   1      38.021  30.664  30.903  1.00  0.00     0.029 A 
ATOM     51  C   UNL A   1      39.208  30.349  31.698  1.00  0.00     0.049 A 
ATOM     52  H   UNL A   1      39.761  31.179  33.524  1.00  0.00     0.167 HD
ATOM     53  C   UNL A   1      40.730  32.964  37.439  1.00  0.00     0.037 A 
ATOM     54  C   UNL A   1      40.158  29.445  31.385  1.00  0.00     0.037 A 
ATOM     55  C   UNL A   1      41.749  31.976  37.215  1.00  0.00     0.049 A 
ATOM     56  C   UNL A   1      41.305  29.223  32.343  1.00  0.00     0.074 A 
ATOM     57  C   UNL A   1      42.808  31.628  38.034  1.00  0.00     0.029 A 
ATOM     58  N   UNL A   1      41.840  31.185  36.079  1.00  0.00    -0.354 N 
ATOM     59  N   UNL A   1      41.532  29.775  33.511  1.00  0.00    -0.248 NA
ATOM     60  C   UNL A   1      42.318  28.238  31.941  1.00  0.00     0.031 C 
ATOM     61  C   UNL A   1      43.572  30.664  37.367  1.00  0.00     0.029 A 
ATOM     62  C   UNL A   1      42.950  30.363  36.166  1.00  0.00     0.049 A 
ATOM     63  H   UNL A   1      41.208  31.204  35.325  1.00  0.00     0.167 HD
ATOM     64  C   UNL A   1      42.686  29.173  34.002  1.00  0.00     0.074 A 
ATOM     65  C   UNL A   1      43.105  28.209  33.006  1.00  0.00     0.031 C 
ATOM     66  C   UNL A   1      43.337  29.393  35.172  1.00  0.00     0.037 A 
BRANCH  53  67
ATOM     67  C   UNL A   1      40.789  33.794  38.687  1.00  0.00     0.064 A 
ATOM     68  C   UNL A   1      40.047  33.468  39.834  1.00  0.00     0.173 A 
ATOM     69  C   UNL A   1      41.603  34.936  38.737  1.00  0.00     0.173 A 
ATOM     70  F   UNL A   1      39.235  32.400  39.832  1.00  0.00    -0.203 F 
ATOM     71  C   UNL A   1      40.095  34.271  40.971  1.00  0.00     0.198 A 
ATOM     72  C   UNL A   1      41.674  35.717  39.887  1.00  0.00     0.198 A 
ATOM     73  F   UNL A   1      42.328  35.295  37.668  1.00  0.00    -0.203 F 
ATOM     74  F   UNL A   1      39.332  33.973  42.032  1.00  0.00    -0.200 F 
ATOM     75  C   UNL A   1      40.913  35.390  40.999  1.00  0.00     0.200 A 
ATOM     76  F   UNL A   1      42.474  36.792  39.916  1.00  0.00    -0.200 F 
ATOM     77  F   UNL A   1      40.962  36.159  42.095  1.00  0.00    -0.200 F 
ENDBRANCH  53  67
BRANCH  54  78
ATOM     78  C   UNL A   1      40.071  28.672  30.117  1.00  0.00     0.064 A 
ATOM     79  C   UNL A   1      39.441  27.421  30.072  1.00  0.00     0.173 A 
ATOM     80  C   UNL A   1      40.646  29.154  28.931  1.00  0.00     0.173 A 
ATOM     81  F   UNL A   1      38.896  26.905  31.184  1.00  0.00    -0.203 F 
ATOM     82  C   UNL A   1      39.412  26.670  28.897  1.00  0.00     0.198 A 
ATOM     83  C   UNL A   1      40.589  28.417  27.751  1.00  0.00     0.198 A 
ATOM     84  F   UNL A   1      41.262  30.346  28.919  1.00  0.00    -0.203 F 
ATOM     85  F   UNL A   1      38.848  25.454  28.897  1.00  0.00    -0.200 F 
ATOM     86  C   UNL A   1      39.980  27.171  27.737  1.00  0.00     0.200 A 
ATOM     87  F   UNL A   1      41.128  28.911  26.628  1.00  0.00    -0.200 F 
ATOM     88  F   UNL A   1      39.950  26.449  26.608  1.00  0.00    -0.200 F 
ENDBRANCH  54  78
BRANCH  66  89
ATOM     89  C   UNL A   1      44.528  28.527  35.475  1.00  0.00     0.064 A 
ATOM     90  C   UNL A   1      45.835  28.916  35.150  1.00  0.00     0.173 A 
ATOM     91  C   UNL A   1      44.352  27.298  36.132  1.00  0.00     0.173 A 
ATOM     92  F   UNL A   1      46.056  30.076  34.513  1.00  0.00    -0.203 F 
ATOM     93  C   UNL A   1      46.919  28.088  35.434  1.00  0.00     0.198 A 
ATOM     94  C   UNL A   1      45.442  26.491  36.448  1.00  0.00     0.198 A 
ATOM     95  F   UNL A   1      43.124  26.884  36.478  1.00  0.00    -0.203 F 
ATOM     96  F   UNL A   1      48.152  28.451  35.056  1.00  0.00    -0.200 F 
ATOM     97  C   UNL A   1      46.722  26.880  36.087  1.00  0.00     0.200 A 
ATOM     98  F   UNL A   1      45.250  25.334  37.097  1.00  0.00    -0.200 F 
ATOM     99  F   UNL A   1      47.766  26.088  36.363  1.00  0.00    -0.200 F 
ENDBRANCH  66  89
ENDBRANCH  40  41
ENDBRANCH  33  35
ENDBRANCH  32  33
ENDBRANCH  31  32
ENDBRANCH  30  31
ENDBRANCH  29  30
ENDBRANCH  28  29
ENDBRANCH  27  28
ENDBRANCH  26  27
ENDBRANCH   1  26
TORSDOF 23
ENDMDL
