MODEL 1
REMARK VINA RESULT:     -11.2      0.000      0.000
REMARK SMILES O=C(OCCOCCOCCOCCOC(=O)[C@@H](Cc1ccc(F)cc1)NC(=O)c1ccn(C2CCCC2)n1)c1ccc(-c2c3nc(c(-c4c(F)c(F)c(F)c(F)c4F)c4ccc([nH]4)c(-c4c(F)c(F)c(F)c(F)c4F)c4nc(c(-c5c(F)c(F)c(F)c(F)c5F)c5ccc2[nH]5)C=C4)C=C3)cc1
REMARK SMILES IDX 10 1 9 2 8 3 7 4 6 5 5 6 4 7 3 8 2 9 1 10 40 11 41 12 102 13
REMARK SMILES IDX 42 14 101 15 43 16 44 17 45 18 95 19 46 20 100 21 94 22
REMARK SMILES IDX 96 23 47 24 99 25 93 26 92 27 48 29 80 30 60 31 79 32 61 33
REMARK SMILES IDX 64 34 78 35 97 36 62 37 63 38 77 40 98 41 65 42 49 43 50 44
REMARK SMILES IDX 58 45 51 46 52 47 56 48 59 49 53 50 54 51 57 52 55 53 81 54
REMARK SMILES IDX 82 55 90 56 83 57 84 58 88 59 91 60 85 61 86 62 89 63 87 64
REMARK SMILES IDX 66 65 67 66 75 67 68 68 69 69 73 70 76 71 70 72 71 73 74 74
REMARK SMILES IDX 72 75 11 76 12 77 13 78 14 79 15 80 16 81 17 82 18 83 19 84
REMARK SMILES IDX 20 85 21 86 26 87 22 88 25 89 23 90 24 91 27 92 28 93 29 95
REMARK SMILES IDX 30 96 31 97 39 98 32 99 33 100 34 101 35 102 38 103 36 104
REMARK SMILES IDX 37 105
REMARK H PARENT 96 28 64 39 27 94
REMARK Flexibility Score: inf
ROOT
ATOM      1  C   UNL A   1      33.771  30.815  27.263  1.00  0.00     0.188 C 
ENDROOT
BRANCH   1   2
ATOM      2  O   UNL A   1      34.153  31.711  28.285  1.00  0.00    -0.377 OA
BRANCH   2   3
ATOM      3  C   UNL A   1      33.889  33.084  28.061  1.00  0.00     0.188 C 
BRANCH   3   4
ATOM      4  C   UNL A   1      34.921  34.069  28.635  1.00  0.00     0.188 C 
BRANCH   4   5
ATOM      5  O   UNL A   1      34.493  35.417  28.690  1.00  0.00    -0.376 OA
BRANCH   5   6
ATOM      6  C   UNL A   1      33.251  35.857  29.197  1.00  0.00     0.202 C 
BRANCH   6   7
ATOM      7  C   UNL A   1      33.053  36.621  30.520  1.00  0.00     0.261 C 
BRANCH   7   8
ATOM      8  O   UNL A   1      33.648  36.121  31.718  1.00  0.00    -0.460 OA
BRANCH   8   9
ATOM      9  C   UNL A   1      33.681  34.894  32.272  1.00  0.00     0.338 C 
ATOM     10  O   UNL A   1      32.652  34.435  32.762  1.00  0.00    -0.246 OA
BRANCH   9  11
ATOM     11  C   UNL A   1      34.938  34.137  32.461  1.00  0.00     0.060 A 
ATOM     12  C   UNL A   1      36.202  34.711  32.573  1.00  0.00     0.016 A 
ATOM     13  C   UNL A   1      34.811  32.733  32.476  1.00  0.00     0.016 A 
ATOM     14  C   UNL A   1      37.326  33.912  32.598  1.00  0.00     0.010 A 
ATOM     15  C   UNL A   1      35.935  31.925  32.481  1.00  0.00     0.010 A 
ATOM     16  C   UNL A   1      37.183  32.533  32.470  1.00  0.00    -0.014 A 
BRANCH  16  17
ATOM     17  C   UNL A   1      38.401  31.800  32.196  1.00  0.00     0.031 A 
ATOM     18  C   UNL A   1      39.326  31.608  33.339  1.00  0.00     0.074 A 
ATOM     19  C   UNL A   1      38.663  31.376  30.946  1.00  0.00     0.049 A 
ATOM     20  N   UNL A   1      40.542  32.031  33.465  1.00  0.00    -0.248 NA
ATOM     21  C   UNL A   1      38.793  30.930  34.528  1.00  0.00     0.031 C 
ATOM     22  C   UNL A   1      37.749  31.302  29.803  1.00  0.00     0.029 A 
ATOM     23  N   UNL A   1      39.807  30.827  30.465  1.00  0.00    -0.354 N 
ATOM     24  C   UNL A   1      40.989  31.541  34.688  1.00  0.00     0.074 A 
ATOM     25  C   UNL A   1      39.844  30.965  35.347  1.00  0.00     0.031 C 
ATOM     26  C   UNL A   1      38.304  30.529  28.845  1.00  0.00     0.029 A 
ATOM     27  C   UNL A   1      39.650  30.171  29.256  1.00  0.00     0.049 A 
ATOM     28  H   UNL A   1      40.671  30.890  30.933  1.00  0.00     0.167 HD
ATOM     29  C   UNL A   1      42.310  31.471  35.003  1.00  0.00     0.037 A 
ATOM     30  C   UNL A   1      40.536  29.311  28.704  1.00  0.00     0.037 A 
ATOM     31  C   UNL A   1      43.110  32.348  34.195  1.00  0.00     0.049 A 
ATOM     32  C   UNL A   1      41.862  29.581  29.317  1.00  0.00     0.074 A 
ATOM     33  C   UNL A   1      43.178  33.719  34.038  1.00  0.00     0.029 A 
ATOM     34  N   UNL A   1      43.801  31.818  33.137  1.00  0.00    -0.354 N 
ATOM     35  N   UNL A   1      42.554  30.670  29.119  1.00  0.00    -0.248 NA
ATOM     36  C   UNL A   1      42.234  28.814  30.498  1.00  0.00     0.031 C 
ATOM     37  C   UNL A   1      43.480  33.920  32.661  1.00  0.00     0.029 A 
ATOM     38  C   UNL A   1      43.610  32.661  32.072  1.00  0.00     0.049 A 
ATOM     39  H   UNL A   1      44.334  30.990  33.141  1.00  0.00     0.167 HD
ATOM     40  C   UNL A   1      43.153  30.938  30.341  1.00  0.00     0.074 A 
ATOM     41  C   UNL A   1      43.000  29.714  31.119  1.00  0.00     0.031 C 
ATOM     42  C   UNL A   1      43.469  32.214  30.707  1.00  0.00     0.037 A 
BRANCH  29  43
ATOM     43  C   UNL A   1      42.904  30.382  35.851  1.00  0.00     0.064 A 
ATOM     44  C   UNL A   1      42.980  29.041  35.419  1.00  0.00     0.173 A 
ATOM     45  C   UNL A   1      43.662  30.704  36.991  1.00  0.00     0.173 A 
ATOM     46  F   UNL A   1      42.412  28.637  34.274  1.00  0.00    -0.203 F 
ATOM     47  C   UNL A   1      43.737  28.084  36.089  1.00  0.00     0.198 A 
ATOM     48  C   UNL A   1      44.465  29.753  37.630  1.00  0.00     0.198 A 
ATOM     49  F   UNL A   1      43.697  31.961  37.456  1.00  0.00    -0.203 F 
ATOM     50  F   UNL A   1      43.778  26.829  35.621  1.00  0.00    -0.200 F 
ATOM     51  C   UNL A   1      44.499  28.445  37.181  1.00  0.00     0.200 A 
ATOM     52  F   UNL A   1      45.252  30.124  38.649  1.00  0.00    -0.200 F 
ATOM     53  F   UNL A   1      45.304  27.546  37.762  1.00  0.00    -0.200 F 
ENDBRANCH  29  43
BRANCH  30  54
ATOM     54  C   UNL A   1      40.221  28.052  27.987  1.00  0.00     0.064 A 
ATOM     55  C   UNL A   1      39.527  26.995  28.611  1.00  0.00     0.173 A 
ATOM     56  C   UNL A   1      40.836  27.756  26.761  1.00  0.00     0.173 A 
ATOM     57  F   UNL A   1      38.975  27.147  29.823  1.00  0.00    -0.203 F 
ATOM     58  C   UNL A   1      39.466  25.720  28.052  1.00  0.00     0.198 A 
ATOM     59  C   UNL A   1      40.787  26.472  26.209  1.00  0.00     0.198 A 
ATOM     60  F   UNL A   1      41.553  28.693  26.124  1.00  0.00    -0.203 F 
ATOM     61  F   UNL A   1      38.836  24.736  28.709  1.00  0.00    -0.200 F 
ATOM     62  C   UNL A   1      40.110  25.453  26.859  1.00  0.00     0.200 A 
ATOM     63  F   UNL A   1      41.447  26.209  25.073  1.00  0.00    -0.200 F 
ATOM     64  F   UNL A   1      40.116  24.209  26.362  1.00  0.00    -0.200 F 
ENDBRANCH  30  54
BRANCH  42  65
ATOM     65  C   UNL A   1      43.396  33.285  29.655  1.00  0.00     0.064 A 
ATOM     66  C   UNL A   1      44.578  33.662  29.001  1.00  0.00     0.173 A 
ATOM     67  C   UNL A   1      42.247  34.054  29.410  1.00  0.00     0.173 A 
ATOM     68  F   UNL A   1      45.721  33.002  29.247  1.00  0.00    -0.203 F 
ATOM     69  C   UNL A   1      44.609  34.756  28.142  1.00  0.00     0.198 A 
ATOM     70  C   UNL A   1      42.272  35.128  28.521  1.00  0.00     0.198 A 
ATOM     71  F   UNL A   1      41.109  33.826  30.078  1.00  0.00    -0.203 F 
ATOM     72  F   UNL A   1      45.767  35.131  27.582  1.00  0.00    -0.200 F 
ATOM     73  C   UNL A   1      43.456  35.483  27.895  1.00  0.00     0.200 A 
ATOM     74  F   UNL A   1      41.161  35.848  28.303  1.00  0.00    -0.200 F 
ATOM     75  F   UNL A   1      43.493  36.548  27.082  1.00  0.00    -0.200 F 
ENDBRANCH  42  65
ENDBRANCH  16  17
ENDBRANCH   9  11
ENDBRANCH   8   9
ENDBRANCH   7   8
ENDBRANCH   6   7
ENDBRANCH   5   6
ENDBRANCH   4   5
ENDBRANCH   3   4
ENDBRANCH   2   3
ENDBRANCH   1   2
BRANCH   1  76
ATOM     76  C   UNL A   1      32.277  30.833  26.899  1.00  0.00     0.188 C 
BRANCH  76  77
ATOM     77  O   UNL A   1      31.499  29.645  26.946  1.00  0.00    -0.376 OA
BRANCH  77  78
ATOM     78  C   UNL A   1      31.751  28.582  26.037  1.00  0.00     0.202 C 
BRANCH  78  79
ATOM     79  C   UNL A   1      31.981  28.898  24.549  1.00  0.00     0.261 C 
BRANCH  79  80
ATOM     80  O   UNL A   1      30.804  29.279  23.801  1.00  0.00    -0.462 OA
BRANCH  80  81
ATOM     81  C   UNL A   1      30.347  28.373  22.912  1.00  0.00     0.329 C 
ATOM     82  O   UNL A   1      29.614  28.665  21.969  1.00  0.00    -0.250 OA
BRANCH  81  83
ATOM     83  C   UNL A   1      30.871  26.928  23.090  1.00  0.00     0.197 C 
BRANCH  83  84
ATOM     84  C   UNL A   1      30.082  25.726  23.647  1.00  0.00     0.072 C 
BRANCH  84  85
ATOM     85  C   UNL A   1      30.748  24.650  24.458  1.00  0.00    -0.045 A 
ATOM     86  C   UNL A   1      31.032  23.410  23.850  1.00  0.00     0.007 A 
ATOM     87  C   UNL A   1      31.014  24.807  25.821  1.00  0.00     0.007 A 
ATOM     88  C   UNL A   1      31.616  22.372  24.574  1.00  0.00     0.039 A 
ATOM     89  C   UNL A   1      31.594  23.766  26.548  1.00  0.00     0.039 A 
ATOM     90  C   UNL A   1      31.896  22.564  25.919  1.00  0.00     0.123 A 
ATOM     91  F   UNL A   1      32.458  21.573  26.623  1.00  0.00    -0.207 F 
ENDBRANCH  84  85
ENDBRANCH  83  84
BRANCH  83  92
ATOM     92  N   UNL A   1      31.497  26.552  21.820  1.00  0.00    -0.337 N 
ATOM     93  C   UNL A   1      32.776  26.094  21.605  1.00  0.00     0.272 C 
ATOM     94  H   UNL A   1      30.931  26.638  21.019  1.00  0.00     0.164 HD
ATOM     95  O   UNL A   1      33.191  26.109  20.448  1.00  0.00    -0.267 OA
BRANCH  93  96
ATOM     96  C   UNL A   1      33.571  25.599  22.738  1.00  0.00     0.150 A 
ATOM     97  C   UNL A   1      33.854  26.219  23.990  1.00  0.00     0.056 A 
ATOM     98  N   UNL A   1      34.119  24.375  22.697  1.00  0.00    -0.167 NA
ATOM     99  C   UNL A   1      34.612  25.310  24.691  1.00  0.00     0.110 A 
ATOM    100  N   UNL A   1      34.712  24.213  23.888  1.00  0.00    -0.269 N 
BRANCH 100 101
ATOM    101  C   UNL A   1      35.298  22.933  24.219  1.00  0.00     0.107 C 
ATOM    102  C   UNL A   1      36.647  22.695  23.539  1.00  0.00     0.027 C 
ATOM    103  C   UNL A   1      35.618  22.762  25.703  1.00  0.00     0.027 C 
ATOM    104  C   UNL A   1      37.261  21.557  24.336  1.00  0.00     0.002 C 
ATOM    105  C   UNL A   1      36.713  21.698  25.756  1.00  0.00     0.002 C 
ENDBRANCH 100 101
ENDBRANCH  93  96
ENDBRANCH  83  92
ENDBRANCH  81  83
ENDBRANCH  80  81
ENDBRANCH  79  80
ENDBRANCH  78  79
ENDBRANCH  77  78
ENDBRANCH  76  77
ENDBRANCH   1  76
TORSDOF 25
ENDMDL
MODEL 2
REMARK VINA RESULT:     -11.0      3.331      8.896
REMARK SMILES O=C(OCCOCCOCCOCCOC(=O)[C@@H](Cc1ccc(F)cc1)NC(=O)c1ccn(C2CCCC2)n1)c1ccc(-c2c3nc(c(-c4c(F)c(F)c(F)c(F)c4F)c4ccc([nH]4)c(-c4c(F)c(F)c(F)c(F)c4F)c4nc(c(-c5c(F)c(F)c(F)c(F)c5F)c5ccc2[nH]5)C=C4)C=C3)cc1
REMARK SMILES IDX 10 1 9 2 8 3 7 4 6 5 5 6 4 7 3 8 2 9 1 10 40 11 41 12 102 13
REMARK SMILES IDX 42 14 101 15 43 16 44 17 45 18 95 19 46 20 100 21 94 22
REMARK SMILES IDX 96 23 47 24 99 25 93 26 92 27 48 29 80 30 60 31 79 32 61 33
REMARK SMILES IDX 64 34 78 35 97 36 62 37 63 38 77 40 98 41 65 42 49 43 50 44
REMARK SMILES IDX 58 45 51 46 52 47 56 48 59 49 53 50 54 51 57 52 55 53 81 54
REMARK SMILES IDX 82 55 90 56 83 57 84 58 88 59 91 60 85 61 86 62 89 63 87 64
REMARK SMILES IDX 66 65 67 66 75 67 68 68 69 69 73 70 76 71 70 72 71 73 74 74
REMARK SMILES IDX 72 75 11 76 12 77 13 78 14 79 15 80 16 81 17 82 18 83 19 84
REMARK SMILES IDX 20 85 21 86 26 87 22 88 25 89 23 90 24 91 27 92 28 93 29 95
REMARK SMILES IDX 30 96 31 97 39 98 32 99 33 100 34 101 35 102 38 103 36 104
REMARK SMILES IDX 37 105
REMARK H PARENT 96 28 64 39 27 94
REMARK Flexibility Score: inf
ROOT
ATOM      1  C   UNL A   1      35.646  20.042  24.994  1.00  0.00     0.188 C 
ENDROOT
BRANCH   1   2
ATOM      2  O   UNL A   1      36.960  20.517  25.201  1.00  0.00    -0.377 OA
BRANCH   2   3
ATOM      3  C   UNL A   1      38.014  19.713  24.705  1.00  0.00     0.188 C 
BRANCH   3   4
ATOM      4  C   UNL A   1      38.991  19.162  25.757  1.00  0.00     0.188 C 
BRANCH   4   5
ATOM      5  O   UNL A   1      40.355  19.196  25.380  1.00  0.00    -0.376 OA
BRANCH   5   6
ATOM      6  C   UNL A   1      41.439  19.396  26.264  1.00  0.00     0.202 C 
BRANCH   6   7
ATOM      7  C   UNL A   1      42.042  20.764  26.633  1.00  0.00     0.261 C 
BRANCH   7   8
ATOM      8  O   UNL A   1      41.296  21.666  27.452  1.00  0.00    -0.460 OA
BRANCH   8   9
ATOM      9  C   UNL A   1      40.432  22.656  27.159  1.00  0.00     0.338 C 
ATOM     10  O   UNL A   1      39.398  22.383  26.556  1.00  0.00    -0.246 OA
BRANCH   9  11
ATOM     11  C   UNL A   1      40.746  24.083  27.390  1.00  0.00     0.060 A 
ATOM     12  C   UNL A   1      41.685  24.552  28.305  1.00  0.00     0.016 A 
ATOM     13  C   UNL A   1      39.986  25.006  26.643  1.00  0.00     0.016 A 
ATOM     14  C   UNL A   1      41.798  25.905  28.550  1.00  0.00     0.010 A 
ATOM     15  C   UNL A   1      40.079  26.364  26.896  1.00  0.00     0.010 A 
ATOM     16  C   UNL A   1      40.937  26.787  27.903  1.00  0.00    -0.014 A 
BRANCH  16  17
ATOM     17  C   UNL A   1      40.905  28.134  28.434  1.00  0.00     0.031 A 
ATOM     18  C   UNL A   1      42.041  29.014  28.066  1.00  0.00     0.074 A 
ATOM     19  C   UNL A   1      39.906  28.510  29.252  1.00  0.00     0.049 A 
ATOM     20  N   UNL A   1      42.908  29.571  28.848  1.00  0.00    -0.248 NA
ATOM     21  C   UNL A   1      42.288  29.230  26.635  1.00  0.00     0.031 C 
ATOM     22  C   UNL A   1      38.634  27.826  29.503  1.00  0.00     0.029 A 
ATOM     23  N   UNL A   1      39.790  29.656  29.969  1.00  0.00    -0.354 N 
ATOM     24  C   UNL A   1      43.725  30.337  28.023  1.00  0.00     0.074 A 
ATOM     25  C   UNL A   1      43.370  30.007  26.665  1.00  0.00     0.031 C 
ATOM     26  C   UNL A   1      37.790  28.681  30.122  1.00  0.00     0.029 A 
ATOM     27  C   UNL A   1      38.506  29.909  30.420  1.00  0.00     0.049 A 
ATOM     28  H   UNL A   1      40.550  30.254  30.153  1.00  0.00     0.167 HD
ATOM     29  C   UNL A   1      44.514  31.335  28.506  1.00  0.00     0.037 A 
ATOM     30  C   UNL A   1      38.056  31.090  30.901  1.00  0.00     0.037 A 
ATOM     31  C   UNL A   1      44.766  31.196  29.913  1.00  0.00     0.049 A 
ATOM     32  C   UNL A   1      39.241  31.875  31.336  1.00  0.00     0.074 A 
ATOM     33  C   UNL A   1      45.413  30.254  30.688  1.00  0.00     0.029 A 
ATOM     34  N   UNL A   1      44.042  31.963  30.788  1.00  0.00    -0.354 N 
ATOM     35  N   UNL A   1      39.992  31.564  32.357  1.00  0.00    -0.248 NA
ATOM     36  C   UNL A   1      39.846  32.783  30.372  1.00  0.00     0.031 C 
ATOM     37  C   UNL A   1      44.672  30.201  31.903  1.00  0.00     0.029 A 
ATOM     38  C   UNL A   1      43.642  31.137  31.807  1.00  0.00     0.049 A 
ATOM     39  H   UNL A   1      43.847  32.925  30.702  1.00  0.00     0.167 HD
ATOM     40  C   UNL A   1      41.281  31.896  31.965  1.00  0.00     0.074 A 
ATOM     41  C   UNL A   1      41.117  32.729  30.779  1.00  0.00     0.031 C 
ATOM     42  C   UNL A   1      42.364  31.239  32.471  1.00  0.00     0.037 A 
BRANCH  29  43
ATOM     43  C   UNL A   1      44.811  32.598  27.748  1.00  0.00     0.064 A 
ATOM     44  C   UNL A   1      44.028  33.764  27.883  1.00  0.00     0.173 A 
ATOM     45  C   UNL A   1      46.044  32.757  27.091  1.00  0.00     0.173 A 
ATOM     46  F   UNL A   1      42.898  33.775  28.601  1.00  0.00    -0.203 F 
ATOM     47  C   UNL A   1      44.434  34.996  27.376  1.00  0.00     0.198 A 
ATOM     48  C   UNL A   1      46.473  34.006  26.630  1.00  0.00     0.198 A 
ATOM     49  F   UNL A   1      46.883  31.721  26.953  1.00  0.00    -0.203 F 
ATOM     50  F   UNL A   1      43.651  36.070  27.546  1.00  0.00    -0.200 F 
ATOM     51  C   UNL A   1      45.668  35.123  26.771  1.00  0.00     0.200 A 
ATOM     52  F   UNL A   1      47.698  34.136  26.103  1.00  0.00    -0.200 F 
ATOM     53  F   UNL A   1      46.098  36.328  26.374  1.00  0.00    -0.200 F 
ENDBRANCH  29  43
BRANCH  30  54
ATOM     54  C   UNL A   1      36.732  31.706  30.647  1.00  0.00     0.064 A 
ATOM     55  C   UNL A   1      36.354  32.154  29.364  1.00  0.00     0.173 A 
ATOM     56  C   UNL A   1      35.918  32.114  31.714  1.00  0.00     0.173 A 
ATOM     57  F   UNL A   1      37.108  31.891  28.287  1.00  0.00    -0.203 F 
ATOM     58  C   UNL A   1      35.243  32.972  29.165  1.00  0.00     0.198 A 
ATOM     59  C   UNL A   1      34.812  32.947  31.514  1.00  0.00     0.198 A 
ATOM     60  F   UNL A   1      36.232  31.768  32.971  1.00  0.00    -0.203 F 
ATOM     61  F   UNL A   1      34.956  33.412  27.932  1.00  0.00    -0.200 F 
ATOM     62  C   UNL A   1      34.482  33.382  30.241  1.00  0.00     0.200 A 
ATOM     63  F   UNL A   1      34.101  33.376  32.567  1.00  0.00    -0.200 F 
ATOM     64  F   UNL A   1      33.461  34.231  30.057  1.00  0.00    -0.200 F 
ENDBRANCH  30  54
BRANCH  42  65
ATOM     65  C   UNL A   1      42.149  30.334  33.651  1.00  0.00     0.064 A 
ATOM     66  C   UNL A   1      42.526  30.790  34.922  1.00  0.00     0.173 A 
ATOM     67  C   UNL A   1      41.752  28.991  33.537  1.00  0.00     0.173 A 
ATOM     68  F   UNL A   1      42.974  32.046  35.079  1.00  0.00    -0.203 F 
ATOM     69  C   UNL A   1      42.508  29.944  36.027  1.00  0.00     0.198 A 
ATOM     70  C   UNL A   1      41.700  28.155  34.651  1.00  0.00     0.198 A 
ATOM     71  F   UNL A   1      41.482  28.452  32.341  1.00  0.00    -0.203 F 
ATOM     72  F   UNL A   1      42.937  30.391  37.215  1.00  0.00    -0.200 F 
ATOM     73  C   UNL A   1      42.088  28.631  35.894  1.00  0.00     0.200 A 
ATOM     74  F   UNL A   1      41.319  26.876  34.516  1.00  0.00    -0.200 F 
ATOM     75  F   UNL A   1      42.090  27.813  36.956  1.00  0.00    -0.200 F 
ENDBRANCH  42  65
ENDBRANCH  16  17
ENDBRANCH   9  11
ENDBRANCH   8   9
ENDBRANCH   7   8
ENDBRANCH   6   7
ENDBRANCH   5   6
ENDBRANCH   4   5
ENDBRANCH   3   4
ENDBRANCH   2   3
ENDBRANCH   1   2
BRANCH   1  76
ATOM     76  C   UNL A   1      34.556  20.753  25.812  1.00  0.00     0.188 C 
BRANCH  76  77
ATOM     77  O   UNL A   1      33.207  20.305  25.778  1.00  0.00    -0.376 OA
BRANCH  77  78
ATOM     78  C   UNL A   1      32.227  21.026  25.044  1.00  0.00     0.202 C 
BRANCH  78  79
ATOM     79  C   UNL A   1      31.110  21.768  25.799  1.00  0.00     0.261 C 
BRANCH  79  80
ATOM     80  O   UNL A   1      31.484  23.037  26.381  1.00  0.00    -0.462 OA
BRANCH  80  81
ATOM     81  C   UNL A   1      30.658  24.073  26.127  1.00  0.00     0.329 C 
ATOM     82  O   UNL A   1      29.749  24.411  26.882  1.00  0.00    -0.250 OA
BRANCH  81  83
ATOM     83  C   UNL A   1      30.971  24.889  24.849  1.00  0.00     0.197 C 
BRANCH  83  84
ATOM     84  C   UNL A   1      31.909  24.471  23.699  1.00  0.00     0.072 C 
BRANCH  84  85
ATOM     85  C   UNL A   1      33.381  24.259  23.917  1.00  0.00    -0.045 A 
ATOM     86  C   UNL A   1      34.112  23.507  22.974  1.00  0.00     0.007 A 
ATOM     87  C   UNL A   1      34.031  24.707  25.070  1.00  0.00     0.007 A 
ATOM     88  C   UNL A   1      35.471  23.256  23.156  1.00  0.00     0.039 A 
ATOM     89  C   UNL A   1      35.391  24.450  25.254  1.00  0.00     0.039 A 
ATOM     90  C   UNL A   1      36.099  23.736  24.295  1.00  0.00     0.123 A 
ATOM     91  F   UNL A   1      37.405  23.499  24.478  1.00  0.00    -0.207 F 
ENDBRANCH  84  85
ENDBRANCH  83  84
BRANCH  83  92
ATOM     92  N   UNL A   1      29.680  25.310  24.297  1.00  0.00    -0.337 N 
ATOM     93  C   UNL A   1      29.285  26.574  23.926  1.00  0.00     0.272 C 
ATOM     94  H   UNL A   1      29.012  24.597  24.175  1.00  0.00     0.164 HD
ATOM     95  O   UNL A   1      28.082  26.759  23.757  1.00  0.00    -0.267 OA
BRANCH  93  96
ATOM     96  C   UNL A   1      30.295  27.623  23.733  1.00  0.00     0.150 A 
ATOM     97  C   UNL A   1      30.571  28.418  22.582  1.00  0.00     0.056 A 
ATOM     98  N   UNL A   1      31.099  27.986  24.743  1.00  0.00    -0.167 NA
ATOM     99  C   UNL A   1      31.590  29.265  22.950  1.00  0.00     0.110 A 
ATOM    100  N   UNL A   1      31.844  28.989  24.261  1.00  0.00    -0.269 N 
BRANCH 100 101
ATOM    101  C   UNL A   1      32.740  29.698  25.150  1.00  0.00     0.107 C 
ATOM    102  C   UNL A   1      32.010  30.461  26.256  1.00  0.00     0.027 C 
ATOM    103  C   UNL A   1      33.696  28.789  25.921  1.00  0.00     0.027 C 
ATOM    104  C   UNL A   1      33.095  30.741  27.281  1.00  0.00     0.002 C 
ATOM    105  C   UNL A   1      34.091  29.588  27.162  1.00  0.00     0.002 C 
ENDBRANCH 100 101
ENDBRANCH  93  96
ENDBRANCH  83  92
ENDBRANCH  81  83
ENDBRANCH  80  81
ENDBRANCH  79  80
ENDBRANCH  78  79
ENDBRANCH  77  78
ENDBRANCH  76  77
ENDBRANCH   1  76
TORSDOF 25
ENDMDL
MODEL 3
REMARK VINA RESULT:     -10.5      1.325      3.270
REMARK SMILES O=C(OCCOCCOCCOCCOC(=O)[C@@H](Cc1ccc(F)cc1)NC(=O)c1ccn(C2CCCC2)n1)c1ccc(-c2c3nc(c(-c4c(F)c(F)c(F)c(F)c4F)c4ccc([nH]4)c(-c4c(F)c(F)c(F)c(F)c4F)c4nc(c(-c5c(F)c(F)c(F)c(F)c5F)c5ccc2[nH]5)C=C4)C=C3)cc1
REMARK SMILES IDX 10 1 9 2 8 3 7 4 6 5 5 6 4 7 3 8 2 9 1 10 40 11 41 12 102 13
REMARK SMILES IDX 42 14 101 15 43 16 44 17 45 18 95 19 46 20 100 21 94 22
REMARK SMILES IDX 96 23 47 24 99 25 93 26 92 27 48 29 80 30 60 31 79 32 61 33
REMARK SMILES IDX 64 34 78 35 97 36 62 37 63 38 77 40 98 41 65 42 49 43 50 44
REMARK SMILES IDX 58 45 51 46 52 47 56 48 59 49 53 50 54 51 57 52 55 53 81 54
REMARK SMILES IDX 82 55 90 56 83 57 84 58 88 59 91 60 85 61 86 62 89 63 87 64
REMARK SMILES IDX 66 65 67 66 75 67 68 68 69 69 73 70 76 71 70 72 71 73 74 74
REMARK SMILES IDX 72 75 11 76 12 77 13 78 14 79 15 80 16 81 17 82 18 83 19 84
REMARK SMILES IDX 20 85 21 86 26 87 22 88 25 89 23 90 24 91 27 92 28 93 29 95
REMARK SMILES IDX 30 96 31 97 39 98 32 99 33 100 34 101 35 102 38 103 36 104
REMARK SMILES IDX 37 105
REMARK H PARENT 96 28 64 39 27 94
REMARK Flexibility Score: inf
ROOT
ATOM      1  C   UNL A   1      34.282  30.186  27.586  1.00  0.00     0.188 C 
ENDROOT
BRANCH   1   2
ATOM      2  O   UNL A   1      35.041  31.213  28.188  1.00  0.00    -0.377 OA
BRANCH   2   3
ATOM      3  C   UNL A   1      34.906  32.511  27.639  1.00  0.00     0.188 C 
BRANCH   3   4
ATOM      4  C   UNL A   1      34.824  33.664  28.654  1.00  0.00     0.188 C 
BRANCH   4   5
ATOM      5  O   UNL A   1      34.352  34.890  28.126  1.00  0.00    -0.376 OA
BRANCH   5   6
ATOM      6  C   UNL A   1      33.304  35.662  28.675  1.00  0.00     0.202 C 
BRANCH   6   7
ATOM      7  C   UNL A   1      33.173  36.052  30.159  1.00  0.00     0.261 C 
BRANCH   7   8
ATOM      8  O   UNL A   1      33.127  35.030  31.156  1.00  0.00    -0.460 OA
BRANCH   8   9
ATOM      9  C   UNL A   1      33.733  34.899  32.350  1.00  0.00     0.338 C 
ATOM     10  O   UNL A   1      33.328  35.567  33.299  1.00  0.00    -0.246 OA
BRANCH   9  11
ATOM     11  C   UNL A   1      34.967  34.105  32.536  1.00  0.00     0.060 A 
ATOM     12  C   UNL A   1      36.235  34.644  32.742  1.00  0.00     0.016 A 
ATOM     13  C   UNL A   1      34.815  32.707  32.447  1.00  0.00     0.016 A 
ATOM     14  C   UNL A   1      37.343  33.823  32.756  1.00  0.00     0.010 A 
ATOM     15  C   UNL A   1      35.924  31.877  32.441  1.00  0.00     0.010 A 
ATOM     16  C   UNL A   1      37.182  32.459  32.524  1.00  0.00    -0.014 A 
BRANCH  16  17
ATOM     17  C   UNL A   1      38.398  31.723  32.249  1.00  0.00     0.031 A 
ATOM     18  C   UNL A   1      39.310  31.505  33.398  1.00  0.00     0.074 A 
ATOM     19  C   UNL A   1      38.669  31.318  30.995  1.00  0.00     0.049 A 
ATOM     20  N   UNL A   1      40.528  31.917  33.542  1.00  0.00    -0.248 NA
ATOM     21  C   UNL A   1      38.761  30.810  34.570  1.00  0.00     0.031 C 
ATOM     22  C   UNL A   1      37.765  31.270  29.842  1.00  0.00     0.029 A 
ATOM     23  N   UNL A   1      39.813  30.769  30.516  1.00  0.00    -0.354 N 
ATOM     24  C   UNL A   1      40.959  31.403  34.761  1.00  0.00     0.074 A 
ATOM     25  C   UNL A   1      39.804  30.824  35.400  1.00  0.00     0.031 C 
ATOM     26  C   UNL A   1      38.324  30.509  28.876  1.00  0.00     0.029 A 
ATOM     27  C   UNL A   1      39.664  30.135  29.295  1.00  0.00     0.049 A 
ATOM     28  H   UNL A   1      40.673  30.818  30.993  1.00  0.00     0.167 HD
ATOM     29  C   UNL A   1      42.277  31.319  35.088  1.00  0.00     0.037 A 
ATOM     30  C   UNL A   1      40.549  29.278  28.736  1.00  0.00     0.037 A 
ATOM     31  C   UNL A   1      43.090  32.204  34.303  1.00  0.00     0.049 A 
ATOM     32  C   UNL A   1      41.871  29.529  29.366  1.00  0.00     0.074 A 
ATOM     33  C   UNL A   1      43.169  33.577  34.170  1.00  0.00     0.029 A 
ATOM     34  N   UNL A   1      43.788  31.688  33.242  1.00  0.00    -0.354 N 
ATOM     35  N   UNL A   1      42.572  30.616  29.193  1.00  0.00    -0.248 NA
ATOM     36  C   UNL A   1      42.226  28.739  30.537  1.00  0.00     0.031 C 
ATOM     37  C   UNL A   1      43.485  33.799  32.799  1.00  0.00     0.029 A 
ATOM     38  C   UNL A   1      43.613  32.550  32.190  1.00  0.00     0.049 A 
ATOM     39  H   UNL A   1      44.315  30.856  33.237  1.00  0.00     0.167 HD
ATOM     40  C   UNL A   1      43.161  30.860  30.425  1.00  0.00     0.074 A 
ATOM     41  C   UNL A   1      42.993  29.624  31.181  1.00  0.00     0.031 C 
ATOM     42  C   UNL A   1      43.482  32.127  30.816  1.00  0.00     0.037 A 
BRANCH  29  43
ATOM     43  C   UNL A   1      42.855  30.211  35.922  1.00  0.00     0.064 A 
ATOM     44  C   UNL A   1      42.815  28.859  35.521  1.00  0.00     0.173 A 
ATOM     45  C   UNL A   1      43.709  30.507  37.001  1.00  0.00     0.173 A 
ATOM     46  F   UNL A   1      42.146  28.469  34.428  1.00  0.00    -0.203 F 
ATOM     47  C   UNL A   1      43.552  27.869  36.165  1.00  0.00     0.198 A 
ATOM     48  C   UNL A   1      44.490  29.519  37.610  1.00  0.00     0.198 A 
ATOM     49  F   UNL A   1      43.856  31.769  37.429  1.00  0.00    -0.203 F 
ATOM     50  F   UNL A   1      43.479  26.604  35.728  1.00  0.00    -0.200 F 
ATOM     51  C   UNL A   1      44.409  28.202  37.193  1.00  0.00     0.200 A 
ATOM     52  F   UNL A   1      45.367  29.859  38.564  1.00  0.00    -0.200 F 
ATOM     53  F   UNL A   1      45.191  27.264  37.744  1.00  0.00    -0.200 F 
ENDBRANCH  29  43
BRANCH  30  54
ATOM     54  C   UNL A   1      40.233  28.034  27.995  1.00  0.00     0.064 A 
ATOM     55  C   UNL A   1      39.561  26.955  28.606  1.00  0.00     0.173 A 
ATOM     56  C   UNL A   1      40.827  27.774  26.750  1.00  0.00     0.173 A 
ATOM     57  F   UNL A   1      39.030  27.072  29.831  1.00  0.00    -0.203 F 
ATOM     58  C   UNL A   1      39.501  25.693  28.017  1.00  0.00     0.198 A 
ATOM     59  C   UNL A   1      40.779  26.503  26.168  1.00  0.00     0.198 A 
ATOM     60  F   UNL A   1      41.522  28.734  26.123  1.00  0.00    -0.203 F 
ATOM     61  F   UNL A   1      38.894  24.688  28.662  1.00  0.00    -0.200 F 
ATOM     62  C   UNL A   1      40.125  25.462  26.806  1.00  0.00     0.200 A 
ATOM     63  F   UNL A   1      41.420  26.275  25.014  1.00  0.00    -0.200 F 
ATOM     64  F   UNL A   1      40.133  24.230  26.279  1.00  0.00    -0.200 F 
ENDBRANCH  30  54
BRANCH  42  65
ATOM     65  C   UNL A   1      43.427  33.216  29.782  1.00  0.00     0.064 A 
ATOM     66  C   UNL A   1      44.625  33.637  29.188  1.00  0.00     0.173 A 
ATOM     67  C   UNL A   1      42.268  33.959  29.500  1.00  0.00     0.173 A 
ATOM     68  F   UNL A   1      45.774  33.003  29.473  1.00  0.00    -0.203 F 
ATOM     69  C   UNL A   1      44.664  34.748  28.352  1.00  0.00     0.198 A 
ATOM     70  C   UNL A   1      42.303  35.050  28.633  1.00  0.00     0.198 A 
ATOM     71  F   UNL A   1      41.109  33.688  30.112  1.00  0.00    -0.203 F 
ATOM     72  F   UNL A   1      45.836  35.165  27.852  1.00  0.00    -0.200 F 
ATOM     73  C   UNL A   1      43.504  35.449  28.067  1.00  0.00     0.200 A 
ATOM     74  F   UNL A   1      41.184  35.745  28.379  1.00  0.00    -0.200 F 
ATOM     75  F   UNL A   1      43.548  36.530  27.276  1.00  0.00    -0.200 F 
ENDBRANCH  42  65
ENDBRANCH  16  17
ENDBRANCH   9  11
ENDBRANCH   8   9
ENDBRANCH   7   8
ENDBRANCH   6   7
ENDBRANCH   5   6
ENDBRANCH   4   5
ENDBRANCH   3   4
ENDBRANCH   2   3
ENDBRANCH   1   2
BRANCH   1  76
ATOM     76  C   UNL A   1      32.826  30.554  27.256  1.00  0.00     0.188 C 
BRANCH  76  77
ATOM     77  O   UNL A   1      32.201  30.074  26.073  1.00  0.00    -0.376 OA
BRANCH  77  78
ATOM     78  C   UNL A   1      32.028  28.678  25.865  1.00  0.00     0.202 C 
BRANCH  78  79
ATOM     79  C   UNL A   1      31.754  27.763  27.071  1.00  0.00     0.261 C 
BRANCH  79  80
ATOM     80  O   UNL A   1      30.925  26.609  26.806  1.00  0.00    -0.462 OA
BRANCH  80  81
ATOM     81  C   UNL A   1      31.576  25.450  26.576  1.00  0.00     0.329 C 
ATOM     82  O   UNL A   1      31.404  24.435  27.248  1.00  0.00    -0.250 OA
BRANCH  81  83
ATOM     83  C   UNL A   1      32.509  25.434  25.341  1.00  0.00     0.197 C 
BRANCH  83  84
ATOM     84  C   UNL A   1      34.014  25.098  25.330  1.00  0.00     0.072 C 
BRANCH  84  85
ATOM     85  C   UNL A   1      34.507  23.679  25.292  1.00  0.00    -0.045 A 
ATOM     86  C   UNL A   1      35.651  23.371  24.527  1.00  0.00     0.007 A 
ATOM     87  C   UNL A   1      33.816  22.637  25.917  1.00  0.00     0.007 A 
ATOM     88  C   UNL A   1      36.121  22.062  24.436  1.00  0.00     0.039 A 
ATOM     89  C   UNL A   1      34.284  21.326  25.821  1.00  0.00     0.039 A 
ATOM     90  C   UNL A   1      35.433  21.051  25.089  1.00  0.00     0.123 A 
ATOM     91  F   UNL A   1      35.878  19.790  25.007  1.00  0.00    -0.207 F 
ENDBRANCH  84  85
ENDBRANCH  83  84
BRANCH  83  92
ATOM     92  N   UNL A   1      31.826  24.641  24.314  1.00  0.00    -0.337 N 
ATOM     93  C   UNL A   1      30.950  25.076  23.348  1.00  0.00     0.272 C 
ATOM     94  H   UNL A   1      32.020  23.676  24.316  1.00  0.00     0.164 HD
ATOM     95  O   UNL A   1      30.276  24.222  22.775  1.00  0.00    -0.267 OA
BRANCH  93  96
ATOM     96  C   UNL A   1      30.869  26.509  23.032  1.00  0.00     0.150 A 
ATOM     97  C   UNL A   1      31.776  27.332  22.303  1.00  0.00     0.056 A 
ATOM     98  N   UNL A   1      29.800  27.227  23.408  1.00  0.00    -0.167 NA
ATOM     99  C   UNL A   1      31.204  28.582  22.275  1.00  0.00     0.110 A 
ATOM    100  N   UNL A   1      30.009  28.457  22.919  1.00  0.00    -0.269 N 
BRANCH 100 101
ATOM    101  C   UNL A   1      28.970  29.455  23.044  1.00  0.00     0.107 C 
ATOM    102  C   UNL A   1      29.403  30.676  23.857  1.00  0.00     0.027 C 
ATOM    103  C   UNL A   1      28.526  30.059  21.712  1.00  0.00     0.027 C 
ATOM    104  C   UNL A   1      28.376  31.735  23.498  1.00  0.00     0.002 C 
ATOM    105  C   UNL A   1      27.931  31.420  22.070  1.00  0.00     0.002 C 
ENDBRANCH 100 101
ENDBRANCH  93  96
ENDBRANCH  83  92
ENDBRANCH  81  83
ENDBRANCH  80  81
ENDBRANCH  79  80
ENDBRANCH  78  79
ENDBRANCH  77  78
ENDBRANCH  76  77
ENDBRANCH   1  76
TORSDOF 25
ENDMDL
