MODEL 1
REMARK VINA RESULT:     -10.8      0.000      0.000
REMARK SMILES O=C(OCCOCCOCCOCCOC(=O)c1ccc(C[NH2+][C@H]2CCCNC2=O)nc1)c1ccc(-c2c3nc(c(-c4c(F)c(F)c(F)c(F)c4F)c4ccc([nH]4)c(-c4c(F)c(F)c(F)c(F)c4F)c4nc(c(-c5c(F)c(F)c(F)c(F)c5F)c5ccc2[nH]5)C=C4)C=C3)cc1
REMARK SMILES IDX 10 1 9 2 8 3 7 4 6 5 5 6 4 7 3 8 2 9 1 10 33 11 34 12 95 13
REMARK SMILES IDX 35 14 94 15 36 16 37 17 38 18 88 19 39 20 93 21 87 22 89 23
REMARK SMILES IDX 40 24 92 25 86 26 85 27 41 29 73 30 53 31 72 32 54 33 57 34
REMARK SMILES IDX 71 35 90 36 55 37 56 38 70 40 91 41 58 42 42 43 43 44 51 45
REMARK SMILES IDX 44 46 45 47 49 48 52 49 46 50 47 51 50 52 48 53 74 54 75 55
REMARK SMILES IDX 83 56 76 57 77 58 81 59 84 60 78 61 79 62 82 63 80 64 59 65
REMARK SMILES IDX 60 66 68 67 61 68 62 69 66 70 69 71 63 72 64 73 67 74 65 75
REMARK SMILES IDX 11 76 12 77 13 78 14 79 15 80 16 81 17 82 18 83 19 84 32 85
REMARK SMILES IDX 20 86 31 87 21 88 22 89 23 90 24 93 25 94 29 95 26 96 28 97
REMARK SMILES IDX 30 98 27 99
REMARK H PARENT 89 28 57 39 23 91 23 92 28 100
REMARK Flexibility Score: inf
ROOT
ATOM      1  C   UNL A   1      39.278  22.510  26.300  1.00  0.00     0.188 C 
ENDROOT
BRANCH   1   2
ATOM      2  O   UNL A   1      39.748  21.305  26.895  1.00  0.00    -0.377 OA
BRANCH   2   3
ATOM      3  C   UNL A   1      41.118  21.284  27.294  1.00  0.00     0.188 C 
BRANCH   3   4
ATOM      4  C   UNL A   1      41.975  20.208  26.629  1.00  0.00     0.188 C 
BRANCH   4   5
ATOM      5  O   UNL A   1      42.556  20.694  25.416  1.00  0.00    -0.376 OA
BRANCH   5   6
ATOM      6  C   UNL A   1      43.983  20.698  25.386  1.00  0.00     0.202 C 
BRANCH   6   7
ATOM      7  C   UNL A   1      44.623  22.048  25.044  1.00  0.00     0.261 C 
BRANCH   7   8
ATOM      8  O   UNL A   1      43.693  23.143  25.053  1.00  0.00    -0.460 OA
BRANCH   8   9
ATOM      9  C   UNL A   1      43.956  24.468  25.187  1.00  0.00     0.338 C 
ATOM     10  O   UNL A   1      44.858  24.960  24.512  1.00  0.00    -0.246 OA
BRANCH   9  11
ATOM     11  C   UNL A   1      43.187  25.379  26.088  1.00  0.00     0.060 A 
ATOM     12  C   UNL A   1      43.365  26.758  26.172  1.00  0.00     0.016 A 
ATOM     13  C   UNL A   1      42.171  24.803  26.870  1.00  0.00     0.016 A 
ATOM     14  C   UNL A   1      42.675  27.529  27.095  1.00  0.00     0.010 A 
ATOM     15  C   UNL A   1      41.431  25.578  27.770  1.00  0.00     0.010 A 
ATOM     16  C   UNL A   1      41.732  26.936  27.928  1.00  0.00    -0.014 A 
BRANCH  16  17
ATOM     17  C   UNL A   1      41.280  27.708  29.103  1.00  0.00     0.031 A 
ATOM     18  C   UNL A   1      42.158  27.689  30.321  1.00  0.00     0.074 A 
ATOM     19  C   UNL A   1      40.224  28.537  29.016  1.00  0.00     0.049 A 
ATOM     20  N   UNL A   1      41.975  28.237  31.491  1.00  0.00    -0.248 NA
ATOM     21  C   UNL A   1      43.430  26.954  30.196  1.00  0.00     0.031 C 
ATOM     22  C   UNL A   1      39.403  28.735  27.820  1.00  0.00     0.029 A 
ATOM     23  N   UNL A   1      39.693  29.403  29.934  1.00  0.00    -0.354 N 
ATOM     24  C   UNL A   1      43.076  27.864  32.253  1.00  0.00     0.074 A 
ATOM     25  C   UNL A   1      43.925  27.050  31.418  1.00  0.00     0.031 C 
ATOM     26  C   UNL A   1      38.498  29.697  28.066  1.00  0.00     0.029 A 
ATOM     27  C   UNL A   1      38.627  30.125  29.454  1.00  0.00     0.049 A 
ATOM     28  H   UNL A   1      40.040  29.498  30.850  1.00  0.00     0.167 HD
ATOM     29  C   UNL A   1      43.342  28.173  33.542  1.00  0.00     0.037 A 
ATOM     30  C   UNL A   1      37.836  31.011  30.088  1.00  0.00     0.037 A 
ATOM     31  C   UNL A   1      42.497  29.020  34.335  1.00  0.00     0.049 A 
ATOM     32  C   UNL A   1      38.118  31.294  31.541  1.00  0.00     0.074 A 
ATOM     33  C   UNL A   1      42.608  29.356  35.671  1.00  0.00     0.029 A 
ATOM     34  N   UNL A   1      41.380  29.681  33.841  1.00  0.00    -0.354 N 
ATOM     35  N   UNL A   1      39.097  30.851  32.296  1.00  0.00    -0.248 NA
ATOM     36  C   UNL A   1      37.177  32.181  32.236  1.00  0.00     0.031 C 
ATOM     37  C   UNL A   1      41.537  30.198  35.992  1.00  0.00     0.029 A 
ATOM     38  C   UNL A   1      40.788  30.423  34.847  1.00  0.00     0.049 A 
ATOM     39  H   UNL A   1      41.058  29.631  32.912  1.00  0.00     0.167 HD
ATOM     40  C   UNL A   1      38.902  31.416  33.548  1.00  0.00     0.074 A 
ATOM     41  C   UNL A   1      37.721  32.253  33.443  1.00  0.00     0.031 C 
ATOM     42  C   UNL A   1      39.623  31.257  34.686  1.00  0.00     0.037 A 
BRANCH  29  43
ATOM     43  C   UNL A   1      44.540  27.520  34.164  1.00  0.00     0.064 A 
ATOM     44  C   UNL A   1      44.486  26.238  34.732  1.00  0.00     0.173 A 
ATOM     45  C   UNL A   1      45.753  28.221  34.247  1.00  0.00     0.173 A 
ATOM     46  F   UNL A   1      43.340  25.540  34.714  1.00  0.00    -0.203 F 
ATOM     47  C   UNL A   1      45.589  25.700  35.393  1.00  0.00     0.198 A 
ATOM     48  C   UNL A   1      46.862  27.669  34.882  1.00  0.00     0.198 A 
ATOM     49  F   UNL A   1      45.857  29.454  33.729  1.00  0.00    -0.203 F 
ATOM     50  F   UNL A   1      45.492  24.504  35.991  1.00  0.00    -0.200 F 
ATOM     51  C   UNL A   1      46.775  26.414  35.465  1.00  0.00     0.200 A 
ATOM     52  F   UNL A   1      48.008  28.361  34.949  1.00  0.00    -0.200 F 
ATOM     53  F   UNL A   1      47.831  25.901  36.113  1.00  0.00    -0.200 F 
ENDBRANCH  29  43
BRANCH  30  54
ATOM     54  C   UNL A   1      36.698  31.654  29.377  1.00  0.00     0.064 A 
ATOM     55  C   UNL A   1      36.702  33.025  29.082  1.00  0.00     0.173 A 
ATOM     56  C   UNL A   1      35.570  30.913  28.987  1.00  0.00     0.173 A 
ATOM     57  F   UNL A   1      37.742  33.786  29.453  1.00  0.00    -0.203 F 
ATOM     58  C   UNL A   1      35.621  33.629  28.440  1.00  0.00     0.198 A 
ATOM     59  C   UNL A   1      34.505  31.512  28.317  1.00  0.00     0.198 A 
ATOM     60  F   UNL A   1      35.506  29.599  29.248  1.00  0.00    -0.203 F 
ATOM     61  F   UNL A   1      35.632  34.951  28.213  1.00  0.00    -0.200 F 
ATOM     62  C   UNL A   1      34.527  32.871  28.052  1.00  0.00     0.200 A 
ATOM     63  F   UNL A   1      33.456  30.771  27.932  1.00  0.00    -0.200 F 
ATOM     64  F   UNL A   1      33.490  33.452  27.432  1.00  0.00    -0.200 F 
ENDBRANCH  30  54
BRANCH  42  65
ATOM     65  C   UNL A   1      39.174  32.036  35.883  1.00  0.00     0.064 A 
ATOM     66  C   UNL A   1      39.598  33.355  36.102  1.00  0.00     0.173 A 
ATOM     67  C   UNL A   1      38.273  31.469  36.797  1.00  0.00     0.173 A 
ATOM     68  F   UNL A   1      40.470  33.931  35.261  1.00  0.00    -0.203 F 
ATOM     69  C   UNL A   1      39.153  34.070  37.209  1.00  0.00     0.198 A 
ATOM     70  C   UNL A   1      37.809  32.197  37.886  1.00  0.00     0.198 A 
ATOM     71  F   UNL A   1      37.835  30.212  36.621  1.00  0.00    -0.203 F 
ATOM     72  F   UNL A   1      39.605  35.313  37.426  1.00  0.00    -0.200 F 
ATOM     73  C   UNL A   1      38.255  33.493  38.095  1.00  0.00     0.200 A 
ATOM     74  F   UNL A   1      36.931  31.643  38.734  1.00  0.00    -0.200 F 
ATOM     75  F   UNL A   1      37.823  34.186  39.158  1.00  0.00    -0.200 F 
ENDBRANCH  42  65
ENDBRANCH  16  17
ENDBRANCH   9  11
ENDBRANCH   8   9
ENDBRANCH   7   8
ENDBRANCH   6   7
ENDBRANCH   5   6
ENDBRANCH   4   5
ENDBRANCH   3   4
ENDBRANCH   2   3
ENDBRANCH   1   2
BRANCH   1  76
ATOM     76  C   UNL A   1      37.842  22.542  25.735  1.00  0.00     0.188 C 
BRANCH  76  77
ATOM     77  O   UNL A   1      37.556  21.548  24.759  1.00  0.00    -0.376 OA
BRANCH  77  78
ATOM     78  C   UNL A   1      36.892  20.386  25.251  1.00  0.00     0.202 C 
BRANCH  78  79
ATOM     79  C   UNL A   1      35.432  20.233  24.801  1.00  0.00     0.261 C 
BRANCH  79  80
ATOM     80  O   UNL A   1      34.777  21.459  24.435  1.00  0.00    -0.460 OA
BRANCH  80  81
ATOM     81  C   UNL A   1      33.435  21.541  24.607  1.00  0.00     0.339 C 
ATOM     82  O   UNL A   1      32.750  20.856  25.327  1.00  0.00    -0.246 OA
BRANCH  81  83
ATOM     83  C   UNL A   1      32.989  22.784  23.937  1.00  0.00     0.078 A 
ATOM     84  C   UNL A   1      31.643  23.106  23.759  1.00  0.00     0.019 A 
ATOM     85  C   UNL A   1      33.942  23.571  23.305  1.00  0.00     0.127 A 
ATOM     86  C   UNL A   1      31.303  24.175  22.932  1.00  0.00     0.031 A 
ATOM     87  N   UNL A   1      33.637  24.618  22.497  1.00  0.00    -0.254 NA
ATOM     88  C   UNL A   1      32.318  24.899  22.303  1.00  0.00     0.094 A 
BRANCH  88  89
ATOM     89  C   UNL A   1      31.930  26.052  21.377  1.00  0.00     0.318 C 
BRANCH  89  90
ATOM     90  N   UNL A   1      31.894  27.348  22.056  1.00  0.00    -0.331 N 
ATOM     91  H   UNL A   1      32.090  28.068  21.362  1.00  0.00     0.347 HD
ATOM     92  H   UNL A   1      32.586  27.279  22.803  1.00  0.00     0.347 HD
BRANCH  90  93
ATOM     93  C   UNL A   1      30.628  27.707  22.732  1.00  0.00     0.272 C 
ATOM     94  C   UNL A   1      30.838  27.471  24.233  1.00  0.00     0.077 C 
ATOM     95  C   UNL A   1      30.164  29.154  22.455  1.00  0.00     0.278 C 
ATOM     96  C   UNL A   1      31.711  28.572  24.831  1.00  0.00     0.028 C 
ATOM     97  N   UNL A   1      30.506  30.133  23.345  1.00  0.00    -0.351 N 
ATOM     98  O   UNL A   1      29.561  29.469  21.427  1.00  0.00    -0.268 OA
ATOM     99  C   UNL A   1      31.000  29.906  24.681  1.00  0.00     0.116 C 
ATOM    100  H   UNL A   1      30.408  31.067  23.050  1.00  0.00     0.163 HD
ENDBRANCH  90  93
ENDBRANCH  89  90
ENDBRANCH  88  89
ENDBRANCH  81  83
ENDBRANCH  80  81
ENDBRANCH  79  80
ENDBRANCH  78  79
ENDBRANCH  77  78
ENDBRANCH  76  77
ENDBRANCH   1  76
TORSDOF 23
ENDMDL
MODEL 2
REMARK VINA RESULT:     -10.4      0.995      2.207
REMARK SMILES O=C(OCCOCCOCCOCCOC(=O)c1ccc(C[NH2+][C@H]2CCCNC2=O)nc1)c1ccc(-c2c3nc(c(-c4c(F)c(F)c(F)c(F)c4F)c4ccc([nH]4)c(-c4c(F)c(F)c(F)c(F)c4F)c4nc(c(-c5c(F)c(F)c(F)c(F)c5F)c5ccc2[nH]5)C=C4)C=C3)cc1
REMARK SMILES IDX 10 1 9 2 8 3 7 4 6 5 5 6 4 7 3 8 2 9 1 10 33 11 34 12 95 13
REMARK SMILES IDX 35 14 94 15 36 16 37 17 38 18 88 19 39 20 93 21 87 22 89 23
REMARK SMILES IDX 40 24 92 25 86 26 85 27 41 29 73 30 53 31 72 32 54 33 57 34
REMARK SMILES IDX 71 35 90 36 55 37 56 38 70 40 91 41 58 42 42 43 43 44 51 45
REMARK SMILES IDX 44 46 45 47 49 48 52 49 46 50 47 51 50 52 48 53 74 54 75 55
REMARK SMILES IDX 83 56 76 57 77 58 81 59 84 60 78 61 79 62 82 63 80 64 59 65
REMARK SMILES IDX 60 66 68 67 61 68 62 69 66 70 69 71 63 72 64 73 67 74 65 75
REMARK SMILES IDX 11 76 12 77 13 78 14 79 15 80 16 81 17 82 18 83 19 84 32 85
REMARK SMILES IDX 20 86 31 87 21 88 22 89 23 90 24 93 25 94 29 95 26 96 28 97
REMARK SMILES IDX 30 98 27 99
REMARK H PARENT 89 28 57 39 23 91 23 92 28 100
REMARK Flexibility Score: inf
ROOT
ATOM      1  C   UNL A   1      39.182  23.785  26.548  1.00  0.00     0.188 C 
ENDROOT
BRANCH   1   2
ATOM      2  O   UNL A   1      39.771  22.669  27.208  1.00  0.00    -0.377 OA
BRANCH   2   3
ATOM      3  C   UNL A   1      41.185  22.527  27.079  1.00  0.00     0.188 C 
BRANCH   3   4
ATOM      4  C   UNL A   1      41.646  21.435  26.115  1.00  0.00     0.188 C 
BRANCH   4   5
ATOM      5  O   UNL A   1      42.550  21.962  25.140  1.00  0.00    -0.376 OA
BRANCH   5   6
ATOM      6  C   UNL A   1      43.931  21.700  25.390  1.00  0.00     0.202 C 
BRANCH   6   7
ATOM      7  C   UNL A   1      44.841  22.933  25.370  1.00  0.00     0.261 C 
BRANCH   7   8
ATOM      8  O   UNL A   1      44.187  24.122  24.898  1.00  0.00    -0.460 OA
BRANCH   8   9
ATOM      9  C   UNL A   1      44.445  25.412  25.231  1.00  0.00     0.338 C 
ATOM     10  O   UNL A   1      45.419  25.967  24.725  1.00  0.00    -0.246 OA
BRANCH   9  11
ATOM     11  C   UNL A   1      43.591  26.216  26.158  1.00  0.00     0.060 A 
ATOM     12  C   UNL A   1      43.599  27.606  26.248  1.00  0.00     0.016 A 
ATOM     13  C   UNL A   1      42.674  25.514  26.957  1.00  0.00     0.016 A 
ATOM     14  C   UNL A   1      42.842  28.280  27.194  1.00  0.00     0.010 A 
ATOM     15  C   UNL A   1      41.865  26.186  27.881  1.00  0.00     0.010 A 
ATOM     16  C   UNL A   1      42.000  27.571  28.044  1.00  0.00    -0.014 A 
BRANCH  16  17
ATOM     17  C   UNL A   1      41.484  28.274  29.235  1.00  0.00     0.031 A 
ATOM     18  C   UNL A   1      42.345  28.271  30.465  1.00  0.00     0.074 A 
ATOM     19  C   UNL A   1      40.379  29.037  29.158  1.00  0.00     0.049 A 
ATOM     20  N   UNL A   1      42.113  28.769  31.649  1.00  0.00    -0.248 NA
ATOM     21  C   UNL A   1      43.663  27.623  30.337  1.00  0.00     0.031 C 
ATOM     22  C   UNL A   1      39.562  29.221  27.957  1.00  0.00     0.029 A 
ATOM     23  N   UNL A   1      39.781  29.837  30.095  1.00  0.00    -0.354 N 
ATOM     24  C   UNL A   1      43.225  28.442  32.415  1.00  0.00     0.074 A 
ATOM     25  C   UNL A   1      44.135  27.710  31.568  1.00  0.00     0.031 C 
ATOM     26  C   UNL A   1      38.594  30.115  28.219  1.00  0.00     0.029 A 
ATOM     27  C   UNL A   1      38.677  30.505  29.622  1.00  0.00     0.049 A 
ATOM     28  H   UNL A   1      40.109  29.925  31.018  1.00  0.00     0.167 HD
ATOM     29  C   UNL A   1      43.454  28.726  33.717  1.00  0.00     0.037 A 
ATOM     30  C   UNL A   1      37.824  31.318  30.271  1.00  0.00     0.037 A 
ATOM     31  C   UNL A   1      42.547  29.491  34.524  1.00  0.00     0.049 A 
ATOM     32  C   UNL A   1      38.068  31.572  31.736  1.00  0.00     0.074 A 
ATOM     33  C   UNL A   1      42.619  29.790  35.871  1.00  0.00     0.029 A 
ATOM     34  N   UNL A   1      41.396  30.096  34.034  1.00  0.00    -0.354 N 
ATOM     35  N   UNL A   1      39.063  31.168  32.492  1.00  0.00    -0.248 NA
ATOM     36  C   UNL A   1      37.064  32.375  32.445  1.00  0.00     0.031 C 
ATOM     37  C   UNL A   1      41.492  30.552  36.202  1.00  0.00     0.029 A 
ATOM     38  C   UNL A   1      40.744  30.766  35.053  1.00  0.00     0.049 A 
ATOM     39  H   UNL A   1      41.090  30.055  33.099  1.00  0.00     0.167 HD
ATOM     40  C   UNL A   1      38.816  31.679  33.758  1.00  0.00     0.074 A 
ATOM     41  C   UNL A   1      37.586  32.442  33.661  1.00  0.00     0.031 C 
ATOM     42  C   UNL A   1      39.531  31.529  34.901  1.00  0.00     0.037 A 
BRANCH  29  43
ATOM     43  C   UNL A   1      44.683  28.130  34.336  1.00  0.00     0.064 A 
ATOM     44  C   UNL A   1      45.915  28.802  34.357  1.00  0.00     0.173 A 
ATOM     45  C   UNL A   1      44.639  26.830  34.864  1.00  0.00     0.173 A 
ATOM     46  F   UNL A   1      46.021  30.032  33.831  1.00  0.00    -0.203 F 
ATOM     47  C   UNL A   1      47.062  28.181  34.848  1.00  0.00     0.198 A 
ATOM     48  C   UNL A   1      45.780  26.224  35.380  1.00  0.00     0.198 A 
ATOM     49  F   UNL A   1      43.489  26.139  34.861  1.00  0.00    -0.203 F 
ATOM     50  F   UNL A   1      48.241  28.815  34.790  1.00  0.00    -0.200 F 
ATOM     51  C   UNL A   1      46.993  26.895  35.361  1.00  0.00     0.200 A 
ATOM     52  F   UNL A   1      45.711  24.980  35.876  1.00  0.00    -0.200 F 
ATOM     53  F   UNL A   1      48.100  26.294  35.819  1.00  0.00    -0.200 F 
ENDBRANCH  29  43
BRANCH  30  54
ATOM     54  C   UNL A   1      36.656  31.911  29.563  1.00  0.00     0.064 A 
ATOM     55  C   UNL A   1      35.580  31.117  29.139  1.00  0.00     0.173 A 
ATOM     56  C   UNL A   1      36.595  33.285  29.282  1.00  0.00     0.173 A 
ATOM     57  F   UNL A   1      35.597  29.794  29.358  1.00  0.00    -0.203 F 
ATOM     58  C   UNL A   1      34.500  31.671  28.451  1.00  0.00     0.198 A 
ATOM     59  C   UNL A   1      35.500  33.843  28.624  1.00  0.00     0.198 A 
ATOM     60  F   UNL A   1      37.597  34.093  29.658  1.00  0.00    -0.203 F 
ATOM     61  F   UNL A   1      33.509  30.881  28.015  1.00  0.00    -0.200 F 
ATOM     62  C   UNL A   1      34.458  33.034  28.200  1.00  0.00     0.200 A 
ATOM     63  F   UNL A   1      35.459  35.164  28.396  1.00  0.00    -0.200 F 
ATOM     64  F   UNL A   1      33.418  33.566  27.542  1.00  0.00    -0.200 F 
ENDBRANCH  30  54
BRANCH  42  65
ATOM     65  C   UNL A   1      39.018  32.239  36.115  1.00  0.00     0.064 A 
ATOM     66  C   UNL A   1      38.177  31.602  37.039  1.00  0.00     0.173 A 
ATOM     67  C   UNL A   1      39.413  33.560  36.378  1.00  0.00     0.173 A 
ATOM     68  F   UNL A   1      37.764  30.345  36.820  1.00  0.00    -0.203 F 
ATOM     69  C   UNL A   1      37.729  32.273  38.172  1.00  0.00     0.198 A 
ATOM     70  C   UNL A   1      38.986  34.216  37.527  1.00  0.00     0.198 A 
ATOM     71  F   UNL A   1      40.224  34.204  35.525  1.00  0.00    -0.203 F 
ATOM     72  F   UNL A   1      36.889  31.663  39.020  1.00  0.00    -0.200 F 
ATOM     73  C   UNL A   1      38.139  33.576  38.418  1.00  0.00     0.200 A 
ATOM     74  F   UNL A   1      39.393  35.470  37.770  1.00  0.00    -0.200 F 
ATOM     75  F   UNL A   1      37.711  34.217  39.514  1.00  0.00    -0.200 F 
ENDBRANCH  42  65
ENDBRANCH  16  17
ENDBRANCH   9  11
ENDBRANCH   8   9
ENDBRANCH   7   8
ENDBRANCH   6   7
ENDBRANCH   5   6
ENDBRANCH   4   5
ENDBRANCH   3   4
ENDBRANCH   2   3
ENDBRANCH   1   2
BRANCH   1  76
ATOM     76  C   UNL A   1      37.758  23.635  25.974  1.00  0.00     0.188 C 
BRANCH  76  77
ATOM     77  O   UNL A   1      37.662  22.838  24.800  1.00  0.00    -0.376 OA
BRANCH  77  78
ATOM     78  C   UNL A   1      37.574  21.433  25.024  1.00  0.00     0.202 C 
BRANCH  78  79
ATOM     79  C   UNL A   1      36.152  20.856  24.989  1.00  0.00     0.261 C 
BRANCH  79  80
ATOM     80  O   UNL A   1      35.165  21.629  25.693  1.00  0.00    -0.460 OA
BRANCH  80  81
ATOM     81  C   UNL A   1      33.950  21.791  25.114  1.00  0.00     0.339 C 
ATOM     82  O   UNL A   1      32.954  21.141  25.318  1.00  0.00    -0.246 OA
BRANCH  81  83
ATOM     83  C   UNL A   1      33.997  23.066  24.363  1.00  0.00     0.078 A 
ATOM     84  C   UNL A   1      34.135  24.306  24.987  1.00  0.00     0.019 A 
ATOM     85  C   UNL A   1      33.716  23.041  23.004  1.00  0.00     0.127 A 
ATOM     86  C   UNL A   1      33.950  25.468  24.238  1.00  0.00     0.031 A 
ATOM     87  N   UNL A   1      33.535  24.158  22.252  1.00  0.00    -0.254 NA
ATOM     88  C   UNL A   1      33.636  25.362  22.882  1.00  0.00     0.094 A 
BRANCH  88  89
ATOM     89  C   UNL A   1      33.410  26.643  22.079  1.00  0.00     0.318 C 
BRANCH  89  90
ATOM     90  N   UNL A   1      32.004  27.048  22.028  1.00  0.00    -0.331 N 
ATOM     91  H   UNL A   1      31.458  26.236  21.741  1.00  0.00     0.347 HD
ATOM     92  H   UNL A   1      31.974  27.832  21.377  1.00  0.00     0.347 HD
BRANCH  90  93
ATOM     93  C   UNL A   1      31.416  27.562  23.285  1.00  0.00     0.272 C 
ATOM     94  C   UNL A   1      31.339  29.089  23.151  1.00  0.00     0.077 C 
ATOM     95  C   UNL A   1      30.032  26.962  23.616  1.00  0.00     0.278 C 
ATOM     96  C   UNL A   1      30.202  29.488  22.212  1.00  0.00     0.028 C 
ATOM     97  N   UNL A   1      28.913  27.642  23.227  1.00  0.00    -0.351 N 
ATOM     98  O   UNL A   1      29.902  25.859  24.151  1.00  0.00    -0.268 OA
ATOM     99  C   UNL A   1      28.884  29.021  22.804  1.00  0.00     0.116 C 
ATOM    100  H   UNL A   1      28.059  27.152  23.235  1.00  0.00     0.163 HD
ENDBRANCH  90  93
ENDBRANCH  89  90
ENDBRANCH  88  89
ENDBRANCH  81  83
ENDBRANCH  80  81
ENDBRANCH  79  80
ENDBRANCH  78  79
ENDBRANCH  77  78
ENDBRANCH  76  77
ENDBRANCH   1  76
TORSDOF 23
ENDMDL
MODEL 3
REMARK VINA RESULT:     -10.2      5.896     11.401
REMARK SMILES O=C(OCCOCCOCCOCCOC(=O)c1ccc(C[NH2+][C@H]2CCCNC2=O)nc1)c1ccc(-c2c3nc(c(-c4c(F)c(F)c(F)c(F)c4F)c4ccc([nH]4)c(-c4c(F)c(F)c(F)c(F)c4F)c4nc(c(-c5c(F)c(F)c(F)c(F)c5F)c5ccc2[nH]5)C=C4)C=C3)cc1
REMARK SMILES IDX 10 1 9 2 8 3 7 4 6 5 5 6 4 7 3 8 2 9 1 10 33 11 34 12 95 13
REMARK SMILES IDX 35 14 94 15 36 16 37 17 38 18 88 19 39 20 93 21 87 22 89 23
REMARK SMILES IDX 40 24 92 25 86 26 85 27 41 29 73 30 53 31 72 32 54 33 57 34
REMARK SMILES IDX 71 35 90 36 55 37 56 38 70 40 91 41 58 42 42 43 43 44 51 45
REMARK SMILES IDX 44 46 45 47 49 48 52 49 46 50 47 51 50 52 48 53 74 54 75 55
REMARK SMILES IDX 83 56 76 57 77 58 81 59 84 60 78 61 79 62 82 63 80 64 59 65
REMARK SMILES IDX 60 66 68 67 61 68 62 69 66 70 69 71 63 72 64 73 67 74 65 75
REMARK SMILES IDX 11 76 12 77 13 78 14 79 15 80 16 81 17 82 18 83 19 84 32 85
REMARK SMILES IDX 20 86 31 87 21 88 22 89 23 90 24 93 25 94 29 95 26 96 28 97
REMARK SMILES IDX 30 98 27 99
REMARK H PARENT 89 28 57 39 23 91 23 92 28 100
REMARK Flexibility Score: inf
ROOT
ATOM      1  C   UNL A   1      33.146  36.454  30.025  1.00  0.00     0.188 C 
ENDROOT
BRANCH   1   2
ATOM      2  O   UNL A   1      32.349  36.811  31.149  1.00  0.00    -0.377 OA
BRANCH   2   3
ATOM      3  C   UNL A   1      33.037  37.391  32.258  1.00  0.00     0.188 C 
BRANCH   3   4
ATOM      4  C   UNL A   1      34.432  36.830  32.527  1.00  0.00     0.188 C 
BRANCH   4   5
ATOM      5  O   UNL A   1      34.389  35.814  33.533  1.00  0.00    -0.376 OA
BRANCH   5   6
ATOM      6  C   UNL A   1      35.322  34.748  33.359  1.00  0.00     0.202 C 
BRANCH   6   7
ATOM      7  C   UNL A   1      34.797  33.357  33.728  1.00  0.00     0.261 C 
BRANCH   7   8
ATOM      8  O   UNL A   1      35.606  32.283  33.219  1.00  0.00    -0.460 OA
BRANCH   8   9
ATOM      9  C   UNL A   1      36.859  31.925  33.594  1.00  0.00     0.338 C 
ATOM     10  O   UNL A   1      37.212  32.140  34.752  1.00  0.00    -0.246 OA
BRANCH   9  11
ATOM     11  C   UNL A   1      37.835  31.249  32.685  1.00  0.00     0.060 A 
ATOM     12  C   UNL A   1      38.694  30.219  33.059  1.00  0.00     0.016 A 
ATOM     13  C   UNL A   1      37.843  31.650  31.339  1.00  0.00     0.016 A 
ATOM     14  C   UNL A   1      39.635  29.698  32.183  1.00  0.00     0.010 A 
ATOM     15  C   UNL A   1      38.753  31.097  30.430  1.00  0.00     0.010 A 
ATOM     16  C   UNL A   1      39.696  30.163  30.874  1.00  0.00    -0.014 A 
BRANCH  16  17
ATOM     17  C   UNL A   1      40.906  29.838  30.092  1.00  0.00     0.031 A 
ATOM     18  C   UNL A   1      40.942  28.506  29.398  1.00  0.00     0.074 A 
ATOM     19  C   UNL A   1      41.846  30.771  29.861  1.00  0.00     0.049 A 
ATOM     20  N   UNL A   1      41.893  27.958  28.692  1.00  0.00    -0.248 NA
ATOM     21  C   UNL A   1      39.727  27.679  29.510  1.00  0.00     0.031 C 
ATOM     22  C   UNL A   1      41.816  32.143  30.370  1.00  0.00     0.029 A 
ATOM     23  N   UNL A   1      42.985  30.721  29.101  1.00  0.00    -0.354 N 
ATOM     24  C   UNL A   1      41.412  26.706  28.329  1.00  0.00     0.074 A 
ATOM     25  C   UNL A   1      40.088  26.573  28.884  1.00  0.00     0.031 C 
ATOM     26  C   UNL A   1      42.865  32.818  29.871  1.00  0.00     0.029 A 
ATOM     27  C   UNL A   1      43.679  31.906  29.074  1.00  0.00     0.049 A 
ATOM     28  H   UNL A   1      43.278  29.913  28.622  1.00  0.00     0.167 HD
ATOM     29  C   UNL A   1      42.035  25.752  27.601  1.00  0.00     0.037 A 
ATOM     30  C   UNL A   1      44.854  32.199  28.486  1.00  0.00     0.037 A 
ATOM     31  C   UNL A   1      43.338  25.930  27.027  1.00  0.00     0.049 A 
ATOM     32  C   UNL A   1      45.556  31.102  27.729  1.00  0.00     0.074 A 
ATOM     33  C   UNL A   1      44.115  25.023  26.331  1.00  0.00     0.029 A 
ATOM     34  N   UNL A   1      44.051  27.121  27.077  1.00  0.00    -0.354 N 
ATOM     35  N   UNL A   1      45.151  29.877  27.481  1.00  0.00    -0.248 NA
ATOM     36  C   UNL A   1      46.884  31.416  27.189  1.00  0.00     0.031 C 
ATOM     37  C   UNL A   1      45.313  25.660  25.986  1.00  0.00     0.029 A 
ATOM     38  C   UNL A   1      45.262  26.974  26.427  1.00  0.00     0.049 A 
ATOM     39  H   UNL A   1      43.739  27.949  27.510  1.00  0.00     0.167 HD
ATOM     40  C   UNL A   1      46.163  29.281  26.743  1.00  0.00     0.074 A 
ATOM     41  C   UNL A   1      47.193  30.287  26.566  1.00  0.00     0.031 C 
ATOM     42  C   UNL A   1      46.246  28.015  26.261  1.00  0.00     0.037 A 
BRANCH  29  43
ATOM     43  C   UNL A   1      41.337  24.430  27.474  1.00  0.00     0.064 A 
ATOM     44  C   UNL A   1      41.789  23.277  28.132  1.00  0.00     0.173 A 
ATOM     45  C   UNL A   1      40.228  24.306  26.623  1.00  0.00     0.173 A 
ATOM     46  F   UNL A   1      42.868  23.333  28.928  1.00  0.00    -0.203 F 
ATOM     47  C   UNL A   1      41.179  22.042  27.914  1.00  0.00     0.198 A 
ATOM     48  C   UNL A   1      39.604  23.077  26.430  1.00  0.00     0.198 A 
ATOM     49  F   UNL A   1      39.761  25.375  25.961  1.00  0.00    -0.203 F 
ATOM     50  F   UNL A   1      41.673  20.941  28.498  1.00  0.00    -0.200 F 
ATOM     51  C   UNL A   1      40.087  21.944  27.066  1.00  0.00     0.200 A 
ATOM     52  F   UNL A   1      38.547  22.985  25.609  1.00  0.00    -0.200 F 
ATOM     53  F   UNL A   1      39.512  20.753  26.846  1.00  0.00    -0.200 F 
ENDBRANCH  29  43
BRANCH  30  54
ATOM     54  C   UNL A   1      45.450  33.556  28.619  1.00  0.00     0.064 A 
ATOM     55  C   UNL A   1      46.239  33.901  29.726  1.00  0.00     0.173 A 
ATOM     56  C   UNL A   1      45.231  34.547  27.648  1.00  0.00     0.173 A 
ATOM     57  F   UNL A   1      46.459  33.003  30.697  1.00  0.00    -0.203 F 
ATOM     58  C   UNL A   1      46.773  35.183  29.862  1.00  0.00     0.198 A 
ATOM     59  C   UNL A   1      45.793  35.817  27.769  1.00  0.00     0.198 A 
ATOM     60  F   UNL A   1      44.480  34.278  26.571  1.00  0.00    -0.203 F 
ATOM     61  F   UNL A   1      47.484  35.498  30.953  1.00  0.00    -0.200 F 
ATOM     62  C   UNL A   1      46.555  36.137  28.880  1.00  0.00     0.200 A 
ATOM     63  F   UNL A   1      45.590  36.731  26.809  1.00  0.00    -0.200 F 
ATOM     64  F   UNL A   1      47.072  37.367  29.009  1.00  0.00    -0.200 F 
ENDBRANCH  30  54
BRANCH  42  65
ATOM     65  C   UNL A   1      47.467  27.675  25.464  1.00  0.00     0.064 A 
ATOM     66  C   UNL A   1      48.644  27.225  26.079  1.00  0.00     0.173 A 
ATOM     67  C   UNL A   1      47.440  27.759  24.063  1.00  0.00     0.173 A 
ATOM     68  F   UNL A   1      48.717  27.143  27.416  1.00  0.00    -0.203 F 
ATOM     69  C   UNL A   1      49.761  26.893  25.318  1.00  0.00     0.198 A 
ATOM     70  C   UNL A   1      48.549  27.399  23.307  1.00  0.00     0.198 A 
ATOM     71  F   UNL A   1      46.332  28.177  23.433  1.00  0.00    -0.203 F 
ATOM     72  F   UNL A   1      50.891  26.508  25.927  1.00  0.00    -0.200 F 
ATOM     73  C   UNL A   1      49.710  26.974  23.935  1.00  0.00     0.200 A 
ATOM     74  F   UNL A   1      48.495  27.465  21.969  1.00  0.00    -0.200 F 
ATOM     75  F   UNL A   1      50.785  26.647  23.204  1.00  0.00    -0.200 F 
ENDBRANCH  42  65
ENDBRANCH  16  17
ENDBRANCH   9  11
ENDBRANCH   8   9
ENDBRANCH   7   8
ENDBRANCH   6   7
ENDBRANCH   5   6
ENDBRANCH   4   5
ENDBRANCH   3   4
ENDBRANCH   2   3
ENDBRANCH   1   2
BRANCH   1  76
ATOM     76  C   UNL A   1      34.053  35.210  30.129  1.00  0.00     0.188 C 
BRANCH  76  77
ATOM     77  O   UNL A   1      33.410  33.971  29.852  1.00  0.00    -0.376 OA
BRANCH  77  78
ATOM     78  C   UNL A   1      34.226  32.813  30.014  1.00  0.00     0.202 C 
BRANCH  78  79
ATOM     79  C   UNL A   1      35.205  32.542  28.863  1.00  0.00     0.261 C 
BRANCH  79  80
ATOM     80  O   UNL A   1      34.645  31.838  27.742  1.00  0.00    -0.460 OA
BRANCH  80  81
ATOM     81  C   UNL A   1      35.221  30.668  27.372  1.00  0.00     0.339 C 
ATOM     82  O   UNL A   1      36.382  30.358  27.491  1.00  0.00    -0.246 OA
BRANCH  81  83
ATOM     83  C   UNL A   1      34.123  29.739  27.018  1.00  0.00     0.078 A 
ATOM     84  C   UNL A   1      32.781  30.027  27.265  1.00  0.00     0.019 A 
ATOM     85  C   UNL A   1      34.453  28.462  26.587  1.00  0.00     0.127 A 
ATOM     86  C   UNL A   1      31.830  29.020  27.107  1.00  0.00     0.031 A 
ATOM     87  N   UNL A   1      33.546  27.466  26.423  1.00  0.00    -0.254 NA
ATOM     88  C   UNL A   1      32.243  27.749  26.703  1.00  0.00     0.094 A 
BRANCH  88  89
ATOM     89  C   UNL A   1      31.193  26.648  26.560  1.00  0.00     0.318 C 
BRANCH  89  90
ATOM     90  N   UNL A   1      31.715  25.437  25.923  1.00  0.00    -0.331 N 
ATOM     91  H   UNL A   1      32.314  24.964  26.600  1.00  0.00     0.347 HD
ATOM     92  H   UNL A   1      32.195  25.761  25.084  1.00  0.00     0.347 HD
BRANCH  90  93
ATOM     93  C   UNL A   1      30.715  24.456  25.446  1.00  0.00     0.272 C 
ATOM     94  C   UNL A   1      31.301  23.794  24.192  1.00  0.00     0.077 C 
ATOM     95  C   UNL A   1      30.326  23.399  26.503  1.00  0.00     0.278 C 
ATOM     96  C   UNL A   1      32.398  22.803  24.572  1.00  0.00     0.028 C 
ATOM     97  N   UNL A   1      30.983  22.201  26.504  1.00  0.00    -0.351 N 
ATOM     98  O   UNL A   1      29.500  23.625  27.389  1.00  0.00    -0.268 OA
ATOM     99  C   UNL A   1      31.797  21.699  25.423  1.00  0.00     0.116 C 
ATOM    100  H   UNL A   1      30.894  21.636  27.305  1.00  0.00     0.163 HD
ENDBRANCH  90  93
ENDBRANCH  89  90
ENDBRANCH  88  89
ENDBRANCH  81  83
ENDBRANCH  80  81
ENDBRANCH  79  80
ENDBRANCH  78  79
ENDBRANCH  77  78
ENDBRANCH  76  77
ENDBRANCH   1  76
TORSDOF 23
ENDMDL
