MODEL 1
REMARK VINA RESULT:     -11.3      0.000      0.000
REMARK SMILES CCc1cc(S(F)(F)(F)(F)F)cc2c1O[C@@H](C(F)(F)F)C(C(=O)OCCOCCOCCOCCOC(=O)c1ccc(-c3c4nc(c(-c5c(F)c(F)c(F)c(F)c5F)c5ccc([nH]5)c(-c5c(F)c(F)c(F)c(F)c5F)c5nc(c(-c6c(F)c(F)c(F)c(F)c6F)c6ccc3[nH]6)C=C5)C=C4)cc1)=C2
REMARK SMILES IDX 31 1 30 2 29 3 28 4 27 5 26 6 25 7 24 8 22 9 23 10 21 11
REMARK SMILES IDX 3 12 4 13 14 14 5 15 13 16 15 17 12 18 102 19 16 20 2 21
REMARK SMILES IDX 1 22 6 23 7 24 8 25 9 26 10 27 11 28 17 29 18 30 19 31 20 32
REMARK SMILES IDX 32 33 33 34 34 35 35 36 36 37 37 38 38 39 39 40 40 41 101 42
REMARK SMILES IDX 41 43 100 44 42 45 43 46 44 47 94 48 45 49 99 50 93 51 95 52
REMARK SMILES IDX 46 53 98 54 92 55 91 56 47 58 79 59 59 60 78 61 60 62 63 63
REMARK SMILES IDX 77 64 96 65 61 66 62 67 76 69 97 70 64 71 48 72 49 73 57 74
REMARK SMILES IDX 50 75 51 76 55 77 58 78 52 79 53 80 56 81 54 82 80 83 81 84
REMARK SMILES IDX 89 85 82 86 83 87 87 88 90 89 84 90 85 91 88 92 86 93 65 94
REMARK SMILES IDX 66 95 74 96 67 97 68 98 72 99 75 100 69 101 70 102 73 103
REMARK SMILES IDX 71 104
REMARK H PARENT 95 57 63 68
REMARK Flexibility Score: inf
ROOT
ATOM      1  C   UNL A   1      33.685  35.211  29.793  1.00  0.00     0.188 C 
ENDROOT
BRANCH   1   2
ATOM      2  O   UNL A   1      32.625  34.601  29.070  1.00  0.00    -0.377 OA
BRANCH   2   3
ATOM      3  C   UNL A   1      33.160  33.849  27.990  1.00  0.00     0.188 C 
BRANCH   3   4
ATOM      4  C   UNL A   1      34.678  33.903  28.038  1.00  0.00     0.188 C 
BRANCH   4   5
ATOM      5  O   UNL A   1      35.210  32.647  27.644  1.00  0.00    -0.376 OA
BRANCH   5   6
ATOM      6  C   UNL A   1      34.472  31.604  28.264  1.00  0.00     0.202 C 
BRANCH   6   7
ATOM      7  C   UNL A   1      34.829  30.277  27.615  1.00  0.00     0.261 C 
BRANCH   7   8
ATOM      8  O   UNL A   1      33.871  29.965  26.615  1.00  0.00    -0.460 OA
BRANCH   8   9
ATOM      9  C   UNL A   1      33.106  28.772  26.711  1.00  0.00     0.338 C 
ATOM     10  O   UNL A   1      32.209  28.663  27.603  1.00  0.00    -0.246 OA
BRANCH   9  11
ATOM     11  C   UNL A   1      33.362  27.626  25.745  1.00  0.00     0.087 C 
ATOM     12  C   UNL A   1      33.589  24.324  23.198  1.00  0.00    -0.004 A 
ATOM     13  C   UNL A   1      34.448  23.280  23.495  1.00  0.00     0.032 A 
ATOM     14  C   UNL A   1      33.495  25.373  24.080  1.00  0.00     0.131 A 
ATOM     15  C   UNL A   1      35.190  23.285  24.647  1.00  0.00     0.108 A 
ATOM     16  C   UNL A   1      34.242  25.420  25.243  1.00  0.00     0.019 A 
ATOM     17  O   UNL A   1      32.557  26.344  23.829  1.00  0.00    -0.475 OA
ATOM     18  C   UNL A   1      35.091  24.353  25.514  1.00  0.00     0.036 A 
ATOM     19  C   UNL A   1      34.042  26.553  26.131  1.00  0.00     0.027 C 
ATOM     20  C   UNL A   1      32.844  27.686  24.314  1.00  0.00     0.316 C 
BRANCH  12  21
ATOM     21  C   UNL A   1      32.860  24.470  21.873  1.00  0.00     0.036 C 
ATOM     22  C   UNL A   1      33.060  23.214  21.041  1.00  0.00     0.009 C 
ENDBRANCH  12  21
BRANCH  15  23
ATOM     23  S   UNL A   1      36.289  21.899  25.028  1.00  0.00     0.310 S 
ATOM     24  F   UNL A   1      35.339  20.855  24.307  1.00  0.00    -0.094 F 
ATOM     25  F   UNL A   1      35.462  21.640  26.344  1.00  0.00    -0.094 F 
ATOM     26  F   UNL A   1      37.239  20.714  25.359  1.00  0.00    -0.094 F 
ATOM     27  F   UNL A   1      37.018  22.085  23.639  1.00  0.00    -0.094 F 
ATOM     28  F   UNL A   1      35.263  23.032  24.625  1.00  0.00    -0.094 F 
ENDBRANCH  15  23
BRANCH  20  29
ATOM     29  C   UNL A   1      31.566  28.508  24.283  1.00  0.00     0.430 C 
ATOM     30  F   UNL A   1      30.723  28.052  25.206  1.00  0.00    -0.167 F 
ATOM     31  F   UNL A   1      31.853  29.782  24.536  1.00  0.00    -0.167 F 
ATOM     32  F   UNL A   1      31.004  28.410  23.082  1.00  0.00    -0.167 F 
ENDBRANCH  20  29
ENDBRANCH   9  11
ENDBRANCH   8   9
ENDBRANCH   7   8
ENDBRANCH   6   7
ENDBRANCH   5   6
ENDBRANCH   4   5
ENDBRANCH   3   4
ENDBRANCH   2   3
ENDBRANCH   1   2
BRANCH   1  33
ATOM     33  C   UNL A   1      33.138  35.821  31.073  1.00  0.00     0.188 C 
BRANCH  33  34
ATOM     34  O   UNL A   1      33.933  35.404  32.173  1.00  0.00    -0.376 OA
BRANCH  34  35
ATOM     35  C   UNL A   1      33.337  34.269  32.784  1.00  0.00     0.202 C 
BRANCH  35  36
ATOM     36  C   UNL A   1      34.405  33.458  33.499  1.00  0.00     0.261 C 
BRANCH  36  37
ATOM     37  O   UNL A   1      35.361  32.999  32.555  1.00  0.00    -0.460 OA
BRANCH  37  38
ATOM     38  C   UNL A   1      36.708  33.442  32.634  1.00  0.00     0.338 C 
ATOM     39  O   UNL A   1      37.009  34.430  33.375  1.00  0.00    -0.246 OA
BRANCH  38  40
ATOM     40  C   UNL A   1      37.789  32.734  31.834  1.00  0.00     0.060 A 
ATOM     41  C   UNL A   1      37.844  32.737  30.450  1.00  0.00     0.016 A 
ATOM     42  C   UNL A   1      38.751  32.178  32.560  1.00  0.00     0.016 A 
ATOM     43  C   UNL A   1      38.822  31.867  29.913  1.00  0.00     0.010 A 
ATOM     44  C   UNL A   1      39.752  31.454  31.959  1.00  0.00     0.010 A 
ATOM     45  C   UNL A   1      39.834  31.366  30.597  1.00  0.00    -0.014 A 
BRANCH  45  46
ATOM     46  C   UNL A   1      41.027  30.725  29.906  1.00  0.00     0.031 A 
ATOM     47  C   UNL A   1      42.075  31.609  29.641  1.00  0.00     0.074 A 
ATOM     48  C   UNL A   1      41.000  29.407  29.481  1.00  0.00     0.049 A 
ATOM     49  N   UNL A   1      43.210  31.353  28.988  1.00  0.00    -0.248 NA
ATOM     50  C   UNL A   1      42.090  33.018  30.060  1.00  0.00     0.031 C 
ATOM     51  C   UNL A   1      39.951  28.507  29.752  1.00  0.00     0.029 A 
ATOM     52  N   UNL A   1      41.949  28.738  28.741  1.00  0.00    -0.354 N 
ATOM     53  C   UNL A   1      43.977  32.445  28.951  1.00  0.00     0.074 A 
ATOM     54  C   UNL A   1      43.264  33.533  29.635  1.00  0.00     0.031 C 
ATOM     55  C   UNL A   1      40.258  27.316  29.174  1.00  0.00     0.029 A 
ATOM     56  C   UNL A   1      41.504  27.451  28.533  1.00  0.00     0.049 A 
ATOM     57  H   UNL A   1      42.799  29.115  28.417  1.00  0.00     0.167 HD
ATOM     58  C   UNL A   1      45.242  32.575  28.376  1.00  0.00     0.037 A 
ATOM     59  C   UNL A   1      42.133  26.440  27.825  1.00  0.00     0.037 A 
ATOM     60  C   UNL A   1      45.890  31.550  27.704  1.00  0.00     0.049 A 
ATOM     61  C   UNL A   1      43.373  26.587  27.199  1.00  0.00     0.074 A 
ATOM     62  C   UNL A   1      47.168  31.662  27.126  1.00  0.00     0.029 A 
ATOM     63  N   UNL A   1      45.434  30.270  27.476  1.00  0.00    -0.354 N 
ATOM     64  N   UNL A   1      44.156  27.666  27.196  1.00  0.00    -0.248 NA
ATOM     65  C   UNL A   1      44.034  25.532  26.419  1.00  0.00     0.031 C 
ATOM     66  C   UNL A   1      47.475  30.470  26.547  1.00  0.00     0.029 A 
ATOM     67  C   UNL A   1      46.392  29.594  26.755  1.00  0.00     0.049 A 
ATOM     68  H   UNL A   1      44.570  29.903  27.775  1.00  0.00     0.167 HD
ATOM     69  C   UNL A   1      45.273  27.422  26.508  1.00  0.00     0.074 A 
ATOM     70  C   UNL A   1      45.207  26.047  25.992  1.00  0.00     0.031 C 
ATOM     71  C   UNL A   1      46.346  28.289  26.293  1.00  0.00     0.037 A 
BRANCH  58  72
ATOM     72  C   UNL A   1      45.948  33.916  28.492  1.00  0.00     0.064 A 
ATOM     73  C   UNL A   1      46.777  34.147  29.577  1.00  0.00     0.173 A 
ATOM     74  C   UNL A   1      45.770  34.837  27.551  1.00  0.00     0.173 A 
ATOM     75  F   UNL A   1      47.183  33.183  30.399  1.00  0.00    -0.203 F 
ATOM     76  C   UNL A   1      47.154  35.501  29.732  1.00  0.00     0.198 A 
ATOM     77  C   UNL A   1      46.283  36.102  27.707  1.00  0.00     0.198 A 
ATOM     78  F   UNL A   1      45.091  34.531  26.450  1.00  0.00    -0.203 F 
ATOM     79  F   UNL A   1      47.634  35.879  30.913  1.00  0.00    -0.200 F 
ATOM     80  C   UNL A   1      47.063  36.417  28.785  1.00  0.00     0.200 A 
ATOM     81  F   UNL A   1      46.017  37.033  26.795  1.00  0.00    -0.200 F 
ATOM     82  F   UNL A   1      47.696  37.584  28.874  1.00  0.00    -0.200 F 
ENDBRANCH  58  72
BRANCH  59  83
ATOM     83  C   UNL A   1      41.433  25.094  27.724  1.00  0.00     0.064 A 
ATOM     84  C   UNL A   1      41.922  24.024  28.456  1.00  0.00     0.173 A 
ATOM     85  C   UNL A   1      40.378  24.960  26.930  1.00  0.00     0.173 A 
ATOM     86  F   UNL A   1      42.803  24.163  29.443  1.00  0.00    -0.203 F 
ATOM     87  C   UNL A   1      41.399  22.771  28.058  1.00  0.00     0.198 A 
ATOM     88  C   UNL A   1      39.833  23.721  26.692  1.00  0.00     0.198 A 
ATOM     89  F   UNL A   1      39.843  26.035  26.358  1.00  0.00    -0.203 F 
ATOM     90  F   UNL A   1      42.056  21.678  28.439  1.00  0.00    -0.200 F 
ATOM     91  C   UNL A   1      40.305  22.611  27.336  1.00  0.00     0.200 A 
ATOM     92  F   UNL A   1      38.834  23.600  25.824  1.00  0.00    -0.200 F 
ATOM     93  F   UNL A   1      39.694  21.433  27.241  1.00  0.00    -0.200 F 
ENDBRANCH  59  83
BRANCH  71  94
ATOM     94  C   UNL A   1      47.537  27.768  25.504  1.00  0.00     0.064 A 
ATOM     95  C   UNL A   1      47.585  27.757  24.120  1.00  0.00     0.173 A 
ATOM     96  C   UNL A   1      48.596  27.436  26.232  1.00  0.00     0.173 A 
ATOM     97  F   UNL A   1      46.649  28.316  23.357  1.00  0.00    -0.203 F 
ATOM     98  C   UNL A   1      48.719  27.099  23.589  1.00  0.00     0.198 A 
ATOM     99  C   UNL A   1      49.724  26.924  25.634  1.00  0.00     0.198 A 
ATOM    100  F   UNL A   1      48.567  27.600  27.552  1.00  0.00    -0.203 F 
ATOM    101  F   UNL A   1      48.678  26.724  22.315  1.00  0.00    -0.200 F 
ATOM    102  C   UNL A   1      49.816  26.830  24.274  1.00  0.00     0.200 A 
ATOM    103  F   UNL A   1      50.738  26.515  26.392  1.00  0.00    -0.200 F 
ATOM    104  F   UNL A   1      50.951  26.487  23.671  1.00  0.00    -0.200 F 
ENDBRANCH  71  94
ENDBRANCH  45  46
ENDBRANCH  38  40
ENDBRANCH  37  38
ENDBRANCH  36  37
ENDBRANCH  35  36
ENDBRANCH  34  35
ENDBRANCH  33  34
ENDBRANCH   1  33
TORSDOF 23
ENDMDL
MODEL 2
REMARK VINA RESULT:     -10.5      5.778     12.132
REMARK SMILES CCc1cc(S(F)(F)(F)(F)F)cc2c1O[C@@H](C(F)(F)F)C(C(=O)OCCOCCOCCOCCOC(=O)c1ccc(-c3c4nc(c(-c5c(F)c(F)c(F)c(F)c5F)c5ccc([nH]5)c(-c5c(F)c(F)c(F)c(F)c5F)c5nc(c(-c6c(F)c(F)c(F)c(F)c6F)c6ccc3[nH]6)C=C5)C=C4)cc1)=C2
REMARK SMILES IDX 31 1 30 2 29 3 28 4 27 5 26 6 25 7 24 8 22 9 23 10 21 11
REMARK SMILES IDX 3 12 4 13 14 14 5 15 13 16 15 17 12 18 102 19 16 20 2 21
REMARK SMILES IDX 1 22 6 23 7 24 8 25 9 26 10 27 11 28 17 29 18 30 19 31 20 32
REMARK SMILES IDX 32 33 33 34 34 35 35 36 36 37 37 38 38 39 39 40 40 41 101 42
REMARK SMILES IDX 41 43 100 44 42 45 43 46 44 47 94 48 45 49 99 50 93 51 95 52
REMARK SMILES IDX 46 53 98 54 92 55 91 56 47 58 79 59 59 60 78 61 60 62 63 63
REMARK SMILES IDX 77 64 96 65 61 66 62 67 76 69 97 70 64 71 48 72 49 73 57 74
REMARK SMILES IDX 50 75 51 76 55 77 58 78 52 79 53 80 56 81 54 82 80 83 81 84
REMARK SMILES IDX 89 85 82 86 83 87 87 88 90 89 84 90 85 91 88 92 86 93 65 94
REMARK SMILES IDX 66 95 74 96 67 97 68 98 72 99 75 100 69 101 70 102 73 103
REMARK SMILES IDX 71 104
REMARK H PARENT 95 57 63 68
REMARK Flexibility Score: inf
ROOT
ATOM      1  C   UNL A   1      43.364  18.535  26.355  1.00  0.00     0.188 C 
ENDROOT
BRANCH   1   2
ATOM      2  O   UNL A   1      43.653  18.175  25.012  1.00  0.00    -0.377 OA
BRANCH   2   3
ATOM      3  C   UNL A   1      44.804  18.880  24.570  1.00  0.00     0.188 C 
BRANCH   3   4
ATOM      4  C   UNL A   1      44.638  20.361  24.873  1.00  0.00     0.188 C 
BRANCH   4   5
ATOM      5  O   UNL A   1      44.619  21.093  23.657  1.00  0.00    -0.376 OA
BRANCH   5   6
ATOM      6  C   UNL A   1      44.926  22.455  23.919  1.00  0.00     0.202 C 
BRANCH   6   7
ATOM      7  C   UNL A   1      44.243  22.889  25.205  1.00  0.00     0.261 C 
BRANCH   7   8
ATOM      8  O   UNL A   1      43.151  23.742  24.897  1.00  0.00    -0.460 OA
BRANCH   8   9
ATOM      9  C   UNL A   1      43.082  25.042  25.465  1.00  0.00     0.338 C 
ATOM     10  O   UNL A   1      42.367  25.937  24.917  1.00  0.00    -0.246 OA
BRANCH   9  11
ATOM     11  C   UNL A   1      43.864  25.361  26.730  1.00  0.00     0.087 C 
ATOM     12  C   UNL A   1      46.392  25.963  29.999  1.00  0.00    -0.004 A 
ATOM     13  C   UNL A   1      46.080  25.405  31.226  1.00  0.00     0.032 A 
ATOM     14  C   UNL A   1      45.572  25.705  28.928  1.00  0.00     0.131 A 
ATOM     15  C   UNL A   1      44.977  24.606  31.375  1.00  0.00     0.108 A 
ATOM     16  C   UNL A   1      44.440  24.918  29.045  1.00  0.00     0.019 A 
ATOM     17  O   UNL A   1      45.956  26.171  27.695  1.00  0.00    -0.475 OA
ATOM     18  C   UNL A   1      44.158  24.369  30.291  1.00  0.00     0.036 A 
ATOM     19  C   UNL A   1      43.658  24.672  27.846  1.00  0.00     0.027 C 
ATOM     20  C   UNL A   1      44.899  26.478  26.742  1.00  0.00     0.316 C 
BRANCH  12  21
ATOM     21  C   UNL A   1      47.498  26.984  29.790  1.00  0.00     0.036 C 
ATOM     22  C   UNL A   1      48.848  26.287  29.826  1.00  0.00     0.009 C 
ENDBRANCH  12  21
BRANCH  15  23
ATOM     23  S   UNL A   1      44.599  23.866  32.983  1.00  0.00     0.310 S 
ATOM     24  F   UNL A   1      43.498  24.960  33.307  1.00  0.00    -0.094 F 
ATOM     25  F   UNL A   1      45.654  24.831  33.645  1.00  0.00    -0.094 F 
ATOM     26  F   UNL A   1      44.279  23.224  34.362  1.00  0.00    -0.094 F 
ATOM     27  F   UNL A   1      43.448  23.007  32.326  1.00  0.00    -0.094 F 
ATOM     28  F   UNL A   1      44.832  24.588  31.596  1.00  0.00    -0.094 F 
ENDBRANCH  15  23
BRANCH  20  29
ATOM     29  C   UNL A   1      45.505  26.608  25.354  1.00  0.00     0.430 C 
ATOM     30  F   UNL A   1      46.585  27.384  25.414  1.00  0.00    -0.167 F 
ATOM     31  F   UNL A   1      45.849  25.404  24.906  1.00  0.00    -0.167 F 
ATOM     32  F   UNL A   1      44.614  27.151  24.530  1.00  0.00    -0.167 F 
ENDBRANCH  20  29
ENDBRANCH   9  11
ENDBRANCH   8   9
ENDBRANCH   7   8
ENDBRANCH   6   7
ENDBRANCH   5   6
ENDBRANCH   4   5
ENDBRANCH   3   4
ENDBRANCH   2   3
ENDBRANCH   1   2
BRANCH   1  33
ATOM     33  C   UNL A   1      41.865  18.726  26.516  1.00  0.00     0.188 C 
BRANCH  33  34
ATOM     34  O   UNL A   1      41.616  19.912  27.257  1.00  0.00    -0.376 OA
BRANCH  34  35
ATOM     35  C   UNL A   1      41.104  20.913  26.389  1.00  0.00     0.202 C 
BRANCH  35  36
ATOM     36  C   UNL A   1      40.623  22.098  27.211  1.00  0.00     0.261 C 
BRANCH  36  37
ATOM     37  O   UNL A   1      40.291  23.172  26.343  1.00  0.00    -0.460 OA
BRANCH  37  38
ATOM     38  C   UNL A   1      39.177  24.003  26.635  1.00  0.00     0.338 C 
ATOM     39  O   UNL A   1      38.043  23.749  26.121  1.00  0.00    -0.246 OA
BRANCH  38  40
ATOM     40  C   UNL A   1      39.342  25.196  27.562  1.00  0.00     0.060 A 
ATOM     41  C   UNL A   1      39.000  25.175  28.904  1.00  0.00     0.016 A 
ATOM     42  C   UNL A   1      39.935  26.252  27.018  1.00  0.00     0.016 A 
ATOM     43  C   UNL A   1      39.064  26.442  29.531  1.00  0.00     0.010 A 
ATOM     44  C   UNL A   1      40.086  27.415  27.734  1.00  0.00     0.010 A 
ATOM     45  C   UNL A   1      39.716  27.485  29.049  1.00  0.00    -0.014 A 
BRANCH  45  46
ATOM     46  C   UNL A   1      40.035  28.697  29.908  1.00  0.00     0.031 A 
ATOM     47  C   UNL A   1      41.297  28.655  30.505  1.00  0.00     0.074 A 
ATOM     48  C   UNL A   1      39.095  29.682  30.156  1.00  0.00     0.049 A 
ATOM     49  N   UNL A   1      41.822  29.534  31.361  1.00  0.00    -0.248 NA
ATOM     50  C   UNL A   1      42.284  27.591  30.271  1.00  0.00     0.031 C 
ATOM     51  C   UNL A   1      37.823  29.735  29.551  1.00  0.00     0.029 A 
ATOM     52  N   UNL A   1      39.203  30.760  31.005  1.00  0.00    -0.354 N 
ATOM     53  C   UNL A   1      43.059  29.165  31.699  1.00  0.00     0.074 A 
ATOM     54  C   UNL A   1      43.372  27.907  31.008  1.00  0.00     0.031 C 
ATOM     55  C   UNL A   1      37.171  30.823  30.037  1.00  0.00     0.029 A 
ATOM     56  C   UNL A   1      38.023  31.469  30.953  1.00  0.00     0.049 A 
ATOM     57  H   UNL A   1      39.988  30.985  31.554  1.00  0.00     0.167 HD
ATOM     58  C   UNL A   1      43.939  29.830  32.555  1.00  0.00     0.037 A 
ATOM     59  C   UNL A   1      37.690  32.614  31.659  1.00  0.00     0.037 A 
ATOM     60  C   UNL A   1      43.620  31.000  33.228  1.00  0.00     0.049 A 
ATOM     61  C   UNL A   1      38.548  33.247  32.560  1.00  0.00     0.074 A 
ATOM     62  C   UNL A   1      44.498  31.686  34.087  1.00  0.00     0.029 A 
ATOM     63  N   UNL A   1      42.432  31.695  33.194  1.00  0.00    -0.354 N 
ATOM     64  N   UNL A   1      39.799  32.901  32.867  1.00  0.00    -0.248 NA
ATOM     65  C   UNL A   1      38.194  34.442  33.337  1.00  0.00     0.031 C 
ATOM     66  C   UNL A   1      43.845  32.776  34.574  1.00  0.00     0.029 A 
ATOM     67  C   UNL A   1      42.548  32.786  34.026  1.00  0.00     0.049 A 
ATOM     68  H   UNL A   1      41.636  31.453  32.667  1.00  0.00     0.167 HD
ATOM     69  C   UNL A   1      40.308  33.758  33.755  1.00  0.00     0.074 A 
ATOM     70  C   UNL A   1      39.280  34.758  34.075  1.00  0.00     0.031 C 
ATOM     71  C   UNL A   1      41.590  33.748  34.306  1.00  0.00     0.037 A 
BRANCH  58  72
ATOM     72  C   UNL A   1      45.324  29.239  32.761  1.00  0.00     0.064 A 
ATOM     73  C   UNL A   1      45.496  28.246  33.710  1.00  0.00     0.173 A 
ATOM     74  C   UNL A   1      46.340  29.671  32.023  1.00  0.00     0.173 A 
ATOM     75  F   UNL A   1      44.481  27.608  34.287  1.00  0.00    -0.203 F 
ATOM     76  C   UNL A   1      46.850  27.970  34.012  1.00  0.00     0.198 A 
ATOM     77  C   UNL A   1      47.623  29.255  32.288  1.00  0.00     0.198 A 
ATOM     78  F   UNL A   1      46.115  30.515  31.020  1.00  0.00    -0.203 F 
ATOM     79  F   UNL A   1      47.112  27.314  35.139  1.00  0.00    -0.200 F 
ATOM     80  C   UNL A   1      47.873  28.319  33.253  1.00  0.00     0.200 A 
ATOM     81  F   UNL A   1      48.635  29.770  31.595  1.00  0.00    -0.200 F 
ATOM     82  F   UNL A   1      49.082  27.789  33.417  1.00  0.00    -0.200 F 
ENDBRANCH  58  72
BRANCH  59  83
ATOM     83  C   UNL A   1      36.310  33.215  31.439  1.00  0.00     0.064 A 
ATOM     84  C   UNL A   1      36.041  33.866  30.246  1.00  0.00     0.173 A 
ATOM     85  C   UNL A   1      35.392  33.118  32.393  1.00  0.00     0.173 A 
ATOM     86  F   UNL A   1      36.826  33.772  29.176  1.00  0.00    -0.203 F 
ATOM     87  C   UNL A   1      34.858  34.641  30.270  1.00  0.00     0.198 A 
ATOM     88  C   UNL A   1      34.200  33.794  32.288  1.00  0.00     0.198 A 
ATOM     89  F   UNL A   1      35.628  32.360  33.460  1.00  0.00    -0.203 F 
ATOM     90  F   UNL A   1      34.706  35.568  29.329  1.00  0.00    -0.200 F 
ATOM     91  C   UNL A   1      33.893  34.506  31.162  1.00  0.00     0.200 A 
ATOM     92  F   UNL A   1      33.333  33.754  33.295  1.00  0.00    -0.200 F 
ATOM     93  F   UNL A   1      32.687  35.036  30.975  1.00  0.00    -0.200 F 
ENDBRANCH  59  83
BRANCH  71  94
ATOM     94  C   UNL A   1      41.959  34.860  35.275  1.00  0.00     0.064 A 
ATOM     95  C   UNL A   1      42.415  36.103  34.866  1.00  0.00     0.173 A 
ATOM     96  C   UNL A   1      41.695  34.610  36.551  1.00  0.00     0.173 A 
ATOM     97  F   UNL A   1      42.451  36.479  33.591  1.00  0.00    -0.203 F 
ATOM     98  C   UNL A   1      42.838  36.937  35.928  1.00  0.00     0.198 A 
ATOM     99  C   UNL A   1      42.011  35.528  37.525  1.00  0.00     0.198 A 
ATOM    100  F   UNL A   1      41.118  33.461  36.892  1.00  0.00    -0.203 F 
ATOM    101  F   UNL A   1      43.609  37.977  35.629  1.00  0.00    -0.200 F 
ATOM    102  C   UNL A   1      42.519  36.753  37.197  1.00  0.00     0.200 A 
ATOM    103  F   UNL A   1      41.819  35.217  38.804  1.00  0.00    -0.200 F 
ATOM    104  F   UNL A   1      42.685  37.710  38.106  1.00  0.00    -0.200 F 
ENDBRANCH  71  94
ENDBRANCH  45  46
ENDBRANCH  38  40
ENDBRANCH  37  38
ENDBRANCH  36  37
ENDBRANCH  35  36
ENDBRANCH  34  35
ENDBRANCH  33  34
ENDBRANCH   1  33
TORSDOF 23
ENDMDL
MODEL 3
REMARK VINA RESULT:     -10.3      0.978      2.138
REMARK SMILES CCc1cc(S(F)(F)(F)(F)F)cc2c1O[C@@H](C(F)(F)F)C(C(=O)OCCOCCOCCOCCOC(=O)c1ccc(-c3c4nc(c(-c5c(F)c(F)c(F)c(F)c5F)c5ccc([nH]5)c(-c5c(F)c(F)c(F)c(F)c5F)c5nc(c(-c6c(F)c(F)c(F)c(F)c6F)c6ccc3[nH]6)C=C5)C=C4)cc1)=C2
REMARK SMILES IDX 31 1 30 2 29 3 28 4 27 5 26 6 25 7 24 8 22 9 23 10 21 11
REMARK SMILES IDX 3 12 4 13 14 14 5 15 13 16 15 17 12 18 102 19 16 20 2 21
REMARK SMILES IDX 1 22 6 23 7 24 8 25 9 26 10 27 11 28 17 29 18 30 19 31 20 32
REMARK SMILES IDX 32 33 33 34 34 35 35 36 36 37 37 38 38 39 39 40 40 41 101 42
REMARK SMILES IDX 41 43 100 44 42 45 43 46 44 47 94 48 45 49 99 50 93 51 95 52
REMARK SMILES IDX 46 53 98 54 92 55 91 56 47 58 79 59 59 60 78 61 60 62 63 63
REMARK SMILES IDX 77 64 96 65 61 66 62 67 76 69 97 70 64 71 48 72 49 73 57 74
REMARK SMILES IDX 50 75 51 76 55 77 58 78 52 79 53 80 56 81 54 82 80 83 81 84
REMARK SMILES IDX 89 85 82 86 83 87 87 88 90 89 84 90 85 91 88 92 86 93 65 94
REMARK SMILES IDX 66 95 74 96 67 97 68 98 72 99 75 100 69 101 70 102 73 103
REMARK SMILES IDX 71 104
REMARK H PARENT 95 57 63 68
REMARK Flexibility Score: inf
ROOT
ATOM      1  C   UNL A   1      33.937  35.126  30.157  1.00  0.00     0.188 C 
ENDROOT
BRANCH   1   2
ATOM      2  O   UNL A   1      32.975  34.433  29.375  1.00  0.00    -0.377 OA
BRANCH   2   3
ATOM      3  C   UNL A   1      33.639  33.622  28.417  1.00  0.00     0.188 C 
BRANCH   3   4
ATOM      4  C   UNL A   1      35.142  33.798  28.560  1.00  0.00     0.188 C 
BRANCH   4   5
ATOM      5  O   UNL A   1      35.807  32.688  27.974  1.00  0.00    -0.376 OA
BRANCH   5   6
ATOM      6  C   UNL A   1      35.270  31.483  28.499  1.00  0.00     0.202 C 
BRANCH   6   7
ATOM      7  C   UNL A   1      35.486  30.356  27.502  1.00  0.00     0.261 C 
BRANCH   7   8
ATOM      8  O   UNL A   1      34.338  30.227  26.677  1.00  0.00    -0.460 OA
BRANCH   8   9
ATOM      9  C   UNL A   1      33.468  29.117  26.840  1.00  0.00     0.338 C 
ATOM     10  O   UNL A   1      32.697  29.057  27.848  1.00  0.00    -0.246 OA
BRANCH   9  11
ATOM     11  C   UNL A   1      33.458  28.001  25.807  1.00  0.00     0.087 C 
ATOM     12  C   UNL A   1      32.994  24.784  23.185  1.00  0.00    -0.004 A 
ATOM     13  C   UNL A   1      33.878  23.721  23.232  1.00  0.00     0.032 A 
ATOM     14  C   UNL A   1      33.138  25.804  24.094  1.00  0.00     0.131 A 
ATOM     15  C   UNL A   1      34.878  23.678  24.168  1.00  0.00     0.108 A 
ATOM     16  C   UNL A   1      34.146  25.803  25.041  1.00  0.00     0.019 A 
ATOM     17  O   UNL A   1      32.187  26.794  24.107  1.00  0.00    -0.475 OA
ATOM     18  C   UNL A   1      35.014  24.717  25.064  1.00  0.00     0.036 A 
ATOM     19  C   UNL A   1      34.190  26.908  25.984  1.00  0.00     0.027 C 
ATOM     20  C   UNL A   1      32.609  28.115  24.548  1.00  0.00     0.316 C 
BRANCH  12  21
ATOM     21  C   UNL A   1      31.967  24.984  22.082  1.00  0.00     0.036 C 
ATOM     22  C   UNL A   1      32.657  25.513  20.835  1.00  0.00     0.009 C 
ENDBRANCH  12  21
BRANCH  15  23
ATOM     23  S   UNL A   1      36.009  22.267  24.229  1.00  0.00     0.310 S 
ATOM     24  F   UNL A   1      35.940  22.189  25.811  1.00  0.00    -0.094 F 
ATOM     25  F   UNL A   1      37.211  23.272  24.400  1.00  0.00    -0.094 F 
ATOM     26  F   UNL A   1      36.981  21.054  24.273  1.00  0.00    -0.094 F 
ATOM     27  F   UNL A   1      34.783  21.272  24.199  1.00  0.00    -0.094 F 
ATOM     28  F   UNL A   1      35.002  23.484  24.297  1.00  0.00    -0.094 F 
ENDBRANCH  15  23
BRANCH  20  29
ATOM     29  C   UNL A   1      31.379  28.953  24.853  1.00  0.00     0.430 C 
ATOM     30  F   UNL A   1      31.755  30.181  25.201  1.00  0.00    -0.167 F 
ATOM     31  F   UNL A   1      30.605  29.016  23.773  1.00  0.00    -0.167 F 
ATOM     32  F   UNL A   1      30.700  28.398  25.853  1.00  0.00    -0.167 F 
ENDBRANCH  20  29
ENDBRANCH   9  11
ENDBRANCH   8   9
ENDBRANCH   7   8
ENDBRANCH   6   7
ENDBRANCH   5   6
ENDBRANCH   4   5
ENDBRANCH   3   4
ENDBRANCH   2   3
ENDBRANCH   1   2
BRANCH   1  33
ATOM     33  C   UNL A   1      33.258  35.726  31.378  1.00  0.00     0.188 C 
BRANCH  33  34
ATOM     34  O   UNL A   1      34.034  35.447  32.535  1.00  0.00    -0.376 OA
BRANCH  34  35
ATOM     35  C   UNL A   1      33.612  34.214  33.101  1.00  0.00     0.202 C 
BRANCH  35  36
ATOM     36  C   UNL A   1      34.820  33.464  33.638  1.00  0.00     0.261 C 
BRANCH  36  37
ATOM     37  O   UNL A   1      35.700  33.156  32.566  1.00  0.00    -0.460 OA
BRANCH  37  38
ATOM     38  C   UNL A   1      37.012  33.699  32.546  1.00  0.00     0.338 C 
ATOM     39  O   UNL A   1      37.247  34.813  33.109  1.00  0.00    -0.246 OA
BRANCH  38  40
ATOM     40  C   UNL A   1      38.134  32.946  31.851  1.00  0.00     0.060 A 
ATOM     41  C   UNL A   1      38.404  33.051  30.497  1.00  0.00     0.016 A 
ATOM     42  C   UNL A   1      38.916  32.237  32.656  1.00  0.00     0.016 A 
ATOM     43  C   UNL A   1      39.370  32.128  30.031  1.00  0.00     0.010 A 
ATOM     44  C   UNL A   1      39.929  31.461  32.144  1.00  0.00     0.010 A 
ATOM     45  C   UNL A   1      40.213  31.472  30.807  1.00  0.00    -0.014 A 
BRANCH  45  46
ATOM     46  C   UNL A   1      41.435  30.765  30.242  1.00  0.00     0.031 A 
ATOM     47  C   UNL A   1      42.590  31.549  30.227  1.00  0.00     0.074 A 
ATOM     48  C   UNL A   1      41.352  29.499  29.689  1.00  0.00     0.049 A 
ATOM     49  N   UNL A   1      43.786  31.227  29.730  1.00  0.00    -0.248 NA
ATOM     50  C   UNL A   1      42.671  32.908  30.783  1.00  0.00     0.031 C 
ATOM     51  C   UNL A   1      40.193  28.698  29.707  1.00  0.00     0.029 A 
ATOM     52  N   UNL A   1      42.340  28.795  29.036  1.00  0.00    -0.354 N 
ATOM     53  C   UNL A   1      44.649  32.229  29.918  1.00  0.00     0.074 A 
ATOM     54  C   UNL A   1      43.942  33.326  30.592  1.00  0.00     0.031 C 
ATOM     55  C   UNL A   1      40.474  27.534  29.066  1.00  0.00     0.029 A 
ATOM     56  C   UNL A   1      41.814  27.586  28.636  1.00  0.00     0.049 A 
ATOM     57  H   UNL A   1      43.262  29.103  28.883  1.00  0.00     0.167 HD
ATOM     58  C   UNL A   1      45.996  32.268  29.555  1.00  0.00     0.037 A 
ATOM     59  C   UNL A   1      42.450  26.576  27.933  1.00  0.00     0.037 A 
ATOM     60  C   UNL A   1      46.643  31.238  28.890  1.00  0.00     0.049 A 
ATOM     61  C   UNL A   1      43.782  26.639  27.519  1.00  0.00     0.074 A 
ATOM     62  C   UNL A   1      48.002  31.259  28.525  1.00  0.00     0.029 A 
ATOM     63  N   UNL A   1      46.111  30.040  28.468  1.00  0.00    -0.354 N 
ATOM     64  N   UNL A   1      44.654  27.623  27.741  1.00  0.00    -0.248 NA
ATOM     65  C   UNL A   1      44.457  25.588  26.745  1.00  0.00     0.031 C 
ATOM     66  C   UNL A   1      48.284  30.094  27.882  1.00  0.00     0.029 A 
ATOM     67  C   UNL A   1      47.104  29.326  27.836  1.00  0.00     0.049 A 
ATOM     68  H   UNL A   1      45.179  29.745  28.597  1.00  0.00     0.167 HD
ATOM     69  C   UNL A   1      45.839  27.317  27.208  1.00  0.00     0.074 A 
ATOM     70  C   UNL A   1      45.726  26.007  26.553  1.00  0.00     0.031 C 
ATOM     71  C   UNL A   1      47.009  28.077  27.244  1.00  0.00     0.037 A 
BRANCH  58  72
ATOM     72  C   UNL A   1      46.798  33.510  29.910  1.00  0.00     0.064 A 
ATOM     73  C   UNL A   1      46.838  34.563  29.013  1.00  0.00     0.173 A 
ATOM     74  C   UNL A   1      47.435  33.571  31.074  1.00  0.00     0.173 A 
ATOM     75  F   UNL A   1      46.024  34.655  27.964  1.00  0.00    -0.203 F 
ATOM     76  C   UNL A   1      47.822  35.533  29.311  1.00  0.00     0.198 A 
ATOM     77  C   UNL A   1      48.278  34.619  31.355  1.00  0.00     0.198 A 
ATOM     78  F   UNL A   1      47.255  32.609  31.976  1.00  0.00    -0.203 F 
ATOM     79  F   UNL A   1      48.181  36.371  28.342  1.00  0.00    -0.200 F 
ATOM     80  C   UNL A   1      48.412  35.666  30.486  1.00  0.00     0.200 A 
ATOM     81  F   UNL A   1      48.974  34.614  32.488  1.00  0.00    -0.200 F 
ATOM     82  F   UNL A   1      49.098  36.759  30.807  1.00  0.00    -0.200 F 
ENDBRANCH  58  72
BRANCH  59  83
ATOM     83  C   UNL A   1      41.651  25.327  27.593  1.00  0.00     0.064 A 
ATOM     84  C   UNL A   1      40.705  25.387  26.583  1.00  0.00     0.173 A 
ATOM     85  C   UNL A   1      41.862  24.207  28.274  1.00  0.00     0.173 A 
ATOM     86  F   UNL A   1      40.634  26.393  25.715  1.00  0.00    -0.203 F 
ATOM     87  C   UNL A   1      39.821  24.283  26.560  1.00  0.00     0.198 A 
ATOM     88  C   UNL A   1      41.041  23.119  28.102  1.00  0.00     0.198 A 
ATOM     89  F   UNL A   1      42.877  24.138  29.131  1.00  0.00    -0.203 F 
ATOM     90  F   UNL A   1      38.684  24.416  25.883  1.00  0.00    -0.200 F 
ATOM     91  C   UNL A   1      40.047  23.130  27.163  1.00  0.00     0.200 A 
ATOM     92  F   UNL A   1      41.215  22.040  28.859  1.00  0.00    -0.200 F 
ATOM     93  F   UNL A   1      39.345  22.037  26.872  1.00  0.00    -0.200 F 
ENDBRANCH  59  83
BRANCH  71  94
ATOM     94  C   UNL A   1      48.256  27.499  26.595  1.00  0.00     0.064 A 
ATOM     95  C   UNL A   1      49.201  26.760  27.289  1.00  0.00     0.173 A 
ATOM     96  C   UNL A   1      48.324  27.638  25.277  1.00  0.00     0.173 A 
ATOM     97  F   UNL A   1      49.039  26.383  28.555  1.00  0.00    -0.203 F 
ATOM     98  C   UNL A   1      50.352  26.442  26.530  1.00  0.00     0.198 A 
ATOM     99  C   UNL A   1      49.418  27.182  24.581  1.00  0.00     0.198 A 
ATOM    100  F   UNL A   1      47.325  28.224  24.624  1.00  0.00    -0.203 F 
ATOM    101  F   UNL A   1      51.442  26.064  27.189  1.00  0.00    -0.200 F 
ATOM    102  C   UNL A   1      50.417  26.496  25.212  1.00  0.00     0.200 A 
ATOM    103  F   UNL A   1      49.505  27.413  23.273  1.00  0.00    -0.200 F 
ATOM    104  F   UNL A   1      51.403  25.912  24.536  1.00  0.00    -0.200 F 
ENDBRANCH  71  94
ENDBRANCH  45  46
ENDBRANCH  38  40
ENDBRANCH  37  38
ENDBRANCH  36  37
ENDBRANCH  35  36
ENDBRANCH  34  35
ENDBRANCH  33  34
ENDBRANCH   1  33
TORSDOF 23
ENDMDL
