MODEL 1
REMARK VINA RESULT:     -10.6      0.000      0.000
REMARK SMILES O=C(Cc1csc(N2C(=O)C[C@H](Nc3cccc(F)c3)C2=O)n1)OCCOCCOCCOCCOC(=O)c1ccc(-c2c3nc(c(-c4c(F)c(F)c(F)c(F)c4F)c4ccc([nH]4)c(-c4c(F)c(F)c(F)c(F)c4F)c4nc(c(-c5c(F)c(F)c(F)c(F)c5F)c5ccc2[nH]5)C=C4)C=C3)cc1
REMARK SMILES IDX 29 1 28 2 27 3 26 4 25 5 24 6 2 7 1 8 3 9 4 10 5 11 23 12
REMARK SMILES IDX 6 13 7 14 8 15 9 16 21 17 10 18 11 19 12 20 22 21 13 22
REMARK SMILES IDX 14 24 15 25 20 26 16 27 18 28 17 29 19 30 30 31 31 32 32 33
REMARK SMILES IDX 33 34 34 35 35 36 36 37 37 38 38 39 39 40 40 41 101 42 41 43
REMARK SMILES IDX 100 44 42 45 43 46 44 47 94 48 45 49 99 50 93 51 95 52 46 53
REMARK SMILES IDX 98 54 92 55 91 56 47 58 79 59 59 60 78 61 60 62 63 63 77 64
REMARK SMILES IDX 96 65 61 66 62 67 76 69 97 70 64 71 48 72 49 73 57 74 50 75
REMARK SMILES IDX 51 76 55 77 58 78 52 79 53 80 56 81 54 82 80 83 81 84 89 85
REMARK SMILES IDX 82 86 83 87 87 88 90 89 84 90 85 91 88 92 86 93 65 94 66 95
REMARK SMILES IDX 74 96 67 97 68 98 72 99 75 100 69 101 70 102 73 103 71 104
REMARK H PARENT 13 23 95 57 63 68
REMARK Flexibility Score: inf
ROOT
ATOM      1  C   UNL A   1      35.151  31.666  28.102  1.00  0.00     0.188 C 
ENDROOT
BRANCH   1   2
ATOM      2  C   UNL A   1      34.206  30.554  27.653  1.00  0.00     0.188 C 
BRANCH   2   3
ATOM      3  O   UNL A   1      33.207  30.733  26.654  1.00  0.00    -0.376 OA
BRANCH   3   4
ATOM      4  C   UNL A   1      32.791  29.813  25.667  1.00  0.00     0.202 C 
BRANCH   4   5
ATOM      5  C   UNL A   1      31.372  29.783  25.115  1.00  0.00     0.261 C 
BRANCH   5   6
ATOM      6  O   UNL A   1      31.232  29.489  23.728  1.00  0.00    -0.463 OA
BRANCH   6   7
ATOM      7  C   UNL A   1      30.676  28.365  23.220  1.00  0.00     0.311 C 
ATOM      8  O   UNL A   1      29.476  28.168  23.417  1.00  0.00    -0.252 OA
BRANCH   7   9
ATOM      9  C   UNL A   1      31.549  27.277  22.637  1.00  0.00     0.179 C 
BRANCH   9  10
ATOM     10  C   UNL A   1      31.522  25.998  23.362  1.00  0.00     0.065 A 
ATOM     11  C   UNL A   1      30.590  24.979  23.281  1.00  0.00     0.093 A 
ATOM     12  N   UNL A   1      32.607  25.723  24.143  1.00  0.00    -0.224 NA
ATOM     13  S   UNL A   1      31.168  23.623  24.149  1.00  0.00    -0.104 S 
ATOM     14  C   UNL A   1      32.659  24.436  24.362  1.00  0.00     0.199 A 
BRANCH  14  15
ATOM     15  N   UNL A   1      33.832  23.774  24.592  1.00  0.00    -0.223 N 
ATOM     16  C   UNL A   1      34.580  23.305  23.546  1.00  0.00     0.238 C 
ATOM     17  C   UNL A   1      34.171  23.239  25.802  1.00  0.00     0.258 C 
ATOM     18  O   UNL A   1      34.552  23.617  22.363  1.00  0.00    -0.274 OA
ATOM     19  C   UNL A   1      35.534  22.279  24.059  1.00  0.00     0.136 C 
ATOM     20  C   UNL A   1      35.332  22.298  25.563  1.00  0.00     0.179 C 
ATOM     21  O   UNL A   1      33.635  23.403  26.890  1.00  0.00    -0.272 OA
BRANCH  20  22
ATOM     22  N   UNL A   1      35.039  20.952  26.058  1.00  0.00    -0.373 N 
ATOM     23  H   UNL A   1      35.325  20.655  26.952  1.00  0.00     0.161 HD
BRANCH  22  24
ATOM     24  C   UNL A   1      34.338  20.114  25.201  1.00  0.00     0.038 A 
ATOM     25  C   UNL A   1      32.985  20.334  24.912  1.00  0.00     0.026 A 
ATOM     26  C   UNL A   1      34.941  18.943  24.742  1.00  0.00     0.065 A 
ATOM     27  C   UNL A   1      32.242  19.404  24.185  1.00  0.00     0.005 A 
ATOM     28  C   UNL A   1      34.192  18.012  24.033  1.00  0.00     0.125 A 
ATOM     29  C   UNL A   1      32.848  18.229  23.753  1.00  0.00     0.039 A 
ATOM     30  F   UNL A   1      34.772  16.871  23.638  1.00  0.00    -0.207 F 
ENDBRANCH  22  24
ENDBRANCH  20  22
ENDBRANCH  14  15
ENDBRANCH   9  10
ENDBRANCH   7   9
ENDBRANCH   6   7
ENDBRANCH   5   6
ENDBRANCH   4   5
ENDBRANCH   3   4
ENDBRANCH   2   3
ENDBRANCH   1   2
BRANCH   1  31
ATOM     31  O   UNL A   1      34.784  32.984  27.739  1.00  0.00    -0.377 OA
BRANCH  31  32
ATOM     32  C   UNL A   1      34.049  33.661  28.739  1.00  0.00     0.188 C 
BRANCH  32  33
ATOM     33  C   UNL A   1      34.728  33.651  30.121  1.00  0.00     0.188 C 
BRANCH  33  34
ATOM     34  O   UNL A   1      34.025  33.119  31.223  1.00  0.00    -0.376 OA
BRANCH  34  35
ATOM     35  C   UNL A   1      34.548  33.131  32.541  1.00  0.00     0.202 C 
BRANCH  35  36
ATOM     36  C   UNL A   1      35.462  34.206  33.170  1.00  0.00     0.261 C 
BRANCH  36  37
ATOM     37  O   UNL A   1      36.872  34.110  32.979  1.00  0.00    -0.460 OA
BRANCH  37  38
ATOM     38  C   UNL A   1      37.507  33.128  33.649  1.00  0.00     0.338 C 
ATOM     39  O   UNL A   1      37.327  32.785  34.805  1.00  0.00    -0.246 OA
BRANCH  38  40
ATOM     40  C   UNL A   1      38.297  32.355  32.665  1.00  0.00     0.060 A 
ATOM     41  C   UNL A   1      39.188  31.390  33.155  1.00  0.00     0.016 A 
ATOM     42  C   UNL A   1      38.119  32.517  31.287  1.00  0.00     0.016 A 
ATOM     43  C   UNL A   1      39.936  30.616  32.275  1.00  0.00     0.010 A 
ATOM     44  C   UNL A   1      38.900  31.766  30.402  1.00  0.00     0.010 A 
ATOM     45  C   UNL A   1      39.841  30.846  30.897  1.00  0.00    -0.014 A 
BRANCH  45  46
ATOM     46  C   UNL A   1      40.920  30.322  30.027  1.00  0.00     0.031 A 
ATOM     47  C   UNL A   1      42.089  31.230  29.750  1.00  0.00     0.074 A 
ATOM     48  C   UNL A   1      40.919  29.054  29.580  1.00  0.00     0.049 A 
ATOM     49  N   UNL A   1      43.176  31.000  29.060  1.00  0.00    -0.248 NA
ATOM     50  C   UNL A   1      42.029  32.578  30.343  1.00  0.00     0.031 C 
ATOM     51  C   UNL A   1      39.874  28.067  29.839  1.00  0.00     0.029 A 
ATOM     52  N   UNL A   1      41.843  28.380  28.822  1.00  0.00    -0.354 N 
ATOM     53  C   UNL A   1      43.925  32.165  29.143  1.00  0.00     0.074 A 
ATOM     54  C   UNL A   1      43.161  33.117  29.916  1.00  0.00     0.031 C 
ATOM     55  C   UNL A   1      40.219  26.907  29.251  1.00  0.00     0.029 A 
ATOM     56  C   UNL A   1      41.492  27.079  28.552  1.00  0.00     0.049 A 
ATOM     57  H   UNL A   1      42.678  28.789  28.500  1.00  0.00     0.167 HD
ATOM     58  C   UNL A   1      45.152  32.413  28.633  1.00  0.00     0.037 A 
ATOM     59  C   UNL A   1      42.127  26.144  27.817  1.00  0.00     0.037 A 
ATOM     60  C   UNL A   1      45.914  31.466  27.868  1.00  0.00     0.049 A 
ATOM     61  C   UNL A   1      43.454  26.482  27.181  1.00  0.00     0.074 A 
ATOM     62  C   UNL A   1      47.165  31.627  27.303  1.00  0.00     0.029 A 
ATOM     63  N   UNL A   1      45.493  30.182  27.560  1.00  0.00    -0.354 N 
ATOM     64  N   UNL A   1      44.159  27.583  27.270  1.00  0.00    -0.248 NA
ATOM     65  C   UNL A   1      44.074  25.443  26.344  1.00  0.00     0.031 C 
ATOM     66  C   UNL A   1      47.481  30.459  26.606  1.00  0.00     0.029 A 
ATOM     67  C   UNL A   1      46.454  29.547  26.791  1.00  0.00     0.049 A 
ATOM     68  H   UNL A   1      44.640  29.781  27.844  1.00  0.00     0.167 HD
ATOM     69  C   UNL A   1      45.316  27.360  26.530  1.00  0.00     0.074 A 
ATOM     70  C   UNL A   1      45.226  26.011  26.014  1.00  0.00     0.031 C 
ATOM     71  C   UNL A   1      46.356  28.197  26.298  1.00  0.00     0.037 A 
BRANCH  58  72
ATOM     72  C   UNL A   1      45.756  33.764  28.876  1.00  0.00     0.064 A 
ATOM     73  C   UNL A   1      46.395  34.045  30.093  1.00  0.00     0.173 A 
ATOM     74  C   UNL A   1      45.620  34.805  27.947  1.00  0.00     0.173 A 
ATOM     75  F   UNL A   1      46.553  33.081  31.012  1.00  0.00    -0.203 F 
ATOM     76  C   UNL A   1      46.845  35.329  30.384  1.00  0.00     0.198 A 
ATOM     77  C   UNL A   1      46.096  36.082  28.230  1.00  0.00     0.198 A 
ATOM     78  F   UNL A   1      45.034  34.580  26.761  1.00  0.00    -0.203 F 
ATOM     79  F   UNL A   1      47.410  35.585  31.572  1.00  0.00    -0.200 F 
ATOM     80  C   UNL A   1      46.694  36.347  29.454  1.00  0.00     0.200 A 
ATOM     81  F   UNL A   1      45.971  37.059  27.322  1.00  0.00    -0.200 F 
ATOM     82  F   UNL A   1      47.123  37.584  29.738  1.00  0.00    -0.200 F 
ENDBRANCH  58  72
BRANCH  59  83
ATOM     83  C   UNL A   1      41.525  24.795  27.640  1.00  0.00     0.064 A 
ATOM     84  C   UNL A   1      40.408  24.598  26.813  1.00  0.00     0.173 A 
ATOM     85  C   UNL A   1      42.070  23.669  28.273  1.00  0.00     0.173 A 
ATOM     86  F   UNL A   1      39.850  25.639  26.177  1.00  0.00    -0.203 F 
ATOM     87  C   UNL A   1      39.852  23.333  26.639  1.00  0.00     0.198 A 
ATOM     88  C   UNL A   1      41.533  22.398  28.072  1.00  0.00     0.198 A 
ATOM     89  F   UNL A   1      43.153  23.798  29.051  1.00  0.00    -0.203 F 
ATOM     90  F   UNL A   1      38.770  23.178  25.864  1.00  0.00    -0.200 F 
ATOM     91  C   UNL A   1      40.420  22.231  27.262  1.00  0.00     0.200 A 
ATOM     92  F   UNL A   1      42.104  21.332  28.651  1.00  0.00    -0.200 F 
ATOM     93  F   UNL A   1      39.901  21.010  27.075  1.00  0.00    -0.200 F 
ENDBRANCH  59  83
BRANCH  71  94
ATOM     94  C   UNL A   1      47.505  27.679  25.479  1.00  0.00     0.064 A 
ATOM     95  C   UNL A   1      48.664  27.195  26.108  1.00  0.00     0.173 A 
ATOM     96  C   UNL A   1      47.493  27.732  24.077  1.00  0.00     0.173 A 
ATOM     97  F   UNL A   1      48.733  27.137  27.447  1.00  0.00    -0.203 F 
ATOM     98  C   UNL A   1      49.770  26.796  25.364  1.00  0.00     0.198 A 
ATOM     99  C   UNL A   1      48.589  27.298  23.336  1.00  0.00     0.198 A 
ATOM    100  F   UNL A   1      46.409  28.178  23.428  1.00  0.00    -0.203 F 
ATOM    101  F   UNL A   1      50.879  26.375  25.990  1.00  0.00    -0.200 F 
ATOM    102  C   UNL A   1      49.730  26.840  23.980  1.00  0.00     0.200 A 
ATOM    103  F   UNL A   1      48.538  27.316  21.997  1.00  0.00    -0.200 F 
ATOM    104  F   UNL A   1      50.789  26.440  23.263  1.00  0.00    -0.200 F 
ENDBRANCH  71  94
ENDBRANCH  45  46
ENDBRANCH  38  40
ENDBRANCH  37  38
ENDBRANCH  36  37
ENDBRANCH  35  36
ENDBRANCH  34  35
ENDBRANCH  33  34
ENDBRANCH  32  33
ENDBRANCH  31  32
ENDBRANCH   1  31
TORSDOF 24
ENDMDL
MODEL 2
REMARK VINA RESULT:      -9.5      1.473      2.458
REMARK SMILES O=C(Cc1csc(N2C(=O)C[C@H](Nc3cccc(F)c3)C2=O)n1)OCCOCCOCCOCCOC(=O)c1ccc(-c2c3nc(c(-c4c(F)c(F)c(F)c(F)c4F)c4ccc([nH]4)c(-c4c(F)c(F)c(F)c(F)c4F)c4nc(c(-c5c(F)c(F)c(F)c(F)c5F)c5ccc2[nH]5)C=C4)C=C3)cc1
REMARK SMILES IDX 29 1 28 2 27 3 26 4 25 5 24 6 2 7 1 8 3 9 4 10 5 11 23 12
REMARK SMILES IDX 6 13 7 14 8 15 9 16 21 17 10 18 11 19 12 20 22 21 13 22
REMARK SMILES IDX 14 24 15 25 20 26 16 27 18 28 17 29 19 30 30 31 31 32 32 33
REMARK SMILES IDX 33 34 34 35 35 36 36 37 37 38 38 39 39 40 40 41 101 42 41 43
REMARK SMILES IDX 100 44 42 45 43 46 44 47 94 48 45 49 99 50 93 51 95 52 46 53
REMARK SMILES IDX 98 54 92 55 91 56 47 58 79 59 59 60 78 61 60 62 63 63 77 64
REMARK SMILES IDX 96 65 61 66 62 67 76 69 97 70 64 71 48 72 49 73 57 74 50 75
REMARK SMILES IDX 51 76 55 77 58 78 52 79 53 80 56 81 54 82 80 83 81 84 89 85
REMARK SMILES IDX 82 86 83 87 87 88 90 89 84 90 85 91 88 92 86 93 65 94 66 95
REMARK SMILES IDX 74 96 67 97 68 98 72 99 75 100 69 101 70 102 73 103 71 104
REMARK H PARENT 13 23 95 57 63 68
REMARK Flexibility Score: inf
ROOT
ATOM      1  C   UNL A   1      34.510  29.672  27.841  1.00  0.00     0.188 C 
ENDROOT
BRANCH   1   2
ATOM      2  C   UNL A   1      33.421  29.125  26.922  1.00  0.00     0.188 C 
BRANCH   2   3
ATOM      3  O   UNL A   1      32.665  29.942  26.034  1.00  0.00    -0.376 OA
BRANCH   3   4
ATOM      4  C   UNL A   1      32.091  29.579  24.796  1.00  0.00     0.202 C 
BRANCH   4   5
ATOM      5  C   UNL A   1      30.695  30.016  24.376  1.00  0.00     0.261 C 
BRANCH   5   6
ATOM      6  O   UNL A   1      30.132  29.358  23.244  1.00  0.00    -0.463 OA
BRANCH   6   7
ATOM      7  C   UNL A   1      30.181  28.026  23.011  1.00  0.00     0.311 C 
ATOM      8  O   UNL A   1      29.550  27.281  23.761  1.00  0.00    -0.252 OA
BRANCH   7   9
ATOM      9  C   UNL A   1      31.163  27.461  22.011  1.00  0.00     0.179 C 
BRANCH   9  10
ATOM     10  C   UNL A   1      32.057  26.416  22.535  1.00  0.00     0.065 A 
ATOM     11  C   UNL A   1      33.353  26.543  23.000  1.00  0.00     0.093 A 
ATOM     12  N   UNL A   1      31.513  25.173  22.682  1.00  0.00    -0.224 NA
ATOM     13  S   UNL A   1      33.837  25.067  23.716  1.00  0.00    -0.104 S 
ATOM     14  C   UNL A   1      32.236  24.489  23.528  1.00  0.00     0.199 A 
BRANCH  14  15
ATOM     15  N   UNL A   1      31.718  23.494  24.307  1.00  0.00    -0.223 N 
ATOM     16  C   UNL A   1      31.177  23.782  25.531  1.00  0.00     0.238 C 
ATOM     17  C   UNL A   1      31.987  22.169  24.116  1.00  0.00     0.258 C 
ATOM     18  O   UNL A   1      30.790  24.851  25.982  1.00  0.00    -0.274 OA
ATOM     19  C   UNL A   1      31.094  22.524  26.328  1.00  0.00     0.136 C 
ATOM     20  C   UNL A   1      31.543  21.440  25.365  1.00  0.00     0.179 C 
ATOM     21  O   UNL A   1      32.539  21.628  23.167  1.00  0.00    -0.272 OA
BRANCH  20  22
ATOM     22  N   UNL A   1      32.636  20.658  25.946  1.00  0.00    -0.373 N 
ATOM     23  H   UNL A   1      32.467  19.867  26.506  1.00  0.00     0.161 HD
BRANCH  22  24
ATOM     24  C   UNL A   1      33.925  21.091  25.665  1.00  0.00     0.038 A 
ATOM     25  C   UNL A   1      34.834  20.278  24.975  1.00  0.00     0.026 A 
ATOM     26  C   UNL A   1      34.380  22.290  26.214  1.00  0.00     0.065 A 
ATOM     27  C   UNL A   1      36.172  20.645  24.839  1.00  0.00     0.005 A 
ATOM     28  C   UNL A   1      35.718  22.644  26.089  1.00  0.00     0.125 A 
ATOM     29  C   UNL A   1      36.619  21.832  25.410  1.00  0.00     0.039 A 
ATOM     30  F   UNL A   1      36.152  23.775  26.660  1.00  0.00    -0.207 F 
ENDBRANCH  22  24
ENDBRANCH  20  22
ENDBRANCH  14  15
ENDBRANCH   9  10
ENDBRANCH   7   9
ENDBRANCH   6   7
ENDBRANCH   5   6
ENDBRANCH   4   5
ENDBRANCH   3   4
ENDBRANCH   2   3
ENDBRANCH   1   2
BRANCH   1  31
ATOM     31  O   UNL A   1      34.987  30.971  27.545  1.00  0.00    -0.377 OA
BRANCH  31  32
ATOM     32  C   UNL A   1      34.246  32.000  28.170  1.00  0.00     0.188 C 
BRANCH  32  33
ATOM     33  C   UNL A   1      34.899  32.543  29.454  1.00  0.00     0.188 C 
BRANCH  33  34
ATOM     34  O   UNL A   1      34.255  32.327  30.690  1.00  0.00    -0.376 OA
BRANCH  34  35
ATOM     35  C   UNL A   1      34.781  32.802  31.919  1.00  0.00     0.202 C 
BRANCH  35  36
ATOM     36  C   UNL A   1      35.230  34.244  32.244  1.00  0.00     0.261 C 
BRANCH  36  37
ATOM     37  O   UNL A   1      36.564  34.639  31.928  1.00  0.00    -0.460 OA
BRANCH  37  38
ATOM     38  C   UNL A   1      37.536  34.196  32.750  1.00  0.00     0.338 C 
ATOM     39  O   UNL A   1      37.603  34.338  33.960  1.00  0.00    -0.246 OA
BRANCH  38  40
ATOM     40  C   UNL A   1      38.397  33.280  31.971  1.00  0.00     0.060 A 
ATOM     41  C   UNL A   1      39.292  32.464  32.677  1.00  0.00     0.016 A 
ATOM     42  C   UNL A   1      38.285  33.167  30.581  1.00  0.00     0.016 A 
ATOM     43  C   UNL A   1      40.107  31.565  31.997  1.00  0.00     0.010 A 
ATOM     44  C   UNL A   1      39.131  32.291  29.893  1.00  0.00     0.010 A 
ATOM     45  C   UNL A   1      40.074  31.522  30.598  1.00  0.00    -0.014 A 
BRANCH  45  46
ATOM     46  C   UNL A   1      41.211  30.883  29.895  1.00  0.00     0.031 A 
ATOM     47  C   UNL A   1      42.480  31.683  29.760  1.00  0.00     0.074 A 
ATOM     48  C   UNL A   1      41.161  29.607  29.478  1.00  0.00     0.049 A 
ATOM     49  N   UNL A   1      43.625  31.343  29.230  1.00  0.00    -0.248 NA
ATOM     50  C   UNL A   1      42.457  33.050  30.312  1.00  0.00     0.031 C 
ATOM     51  C   UNL A   1      40.010  28.717  29.612  1.00  0.00     0.029 A 
ATOM     52  N   UNL A   1      42.117  28.835  28.866  1.00  0.00    -0.354 N 
ATOM     53  C   UNL A   1      44.454  32.445  29.390  1.00  0.00     0.074 A 
ATOM     54  C   UNL A   1      43.677  33.480  30.032  1.00  0.00     0.031 C 
ATOM     55  C   UNL A   1      40.330  27.515  29.101  1.00  0.00     0.029 A 
ATOM     56  C   UNL A   1      41.696  27.559  28.579  1.00  0.00     0.049 A 
ATOM     57  H   UNL A   1      43.019  29.163  28.653  1.00  0.00     0.167 HD
ATOM     58  C   UNL A   1      45.755  32.575  29.047  1.00  0.00     0.037 A 
ATOM     59  C   UNL A   1      42.341  26.552  27.956  1.00  0.00     0.037 A 
ATOM     60  C   UNL A   1      46.528  31.545  28.412  1.00  0.00     0.049 A 
ATOM     61  C   UNL A   1      43.765  26.759  27.499  1.00  0.00     0.074 A 
ATOM     62  C   UNL A   1      47.853  31.584  28.020  1.00  0.00     0.029 A 
ATOM     63  N   UNL A   1      46.045  30.290  28.076  1.00  0.00    -0.354 N 
ATOM     64  N   UNL A   1      44.544  27.802  27.661  1.00  0.00    -0.248 NA
ATOM     65  C   UNL A   1      44.400  25.647  26.776  1.00  0.00     0.031 C 
ATOM     66  C   UNL A   1      48.159  30.372  27.396  1.00  0.00     0.029 A 
ATOM     67  C   UNL A   1      47.042  29.554  27.458  1.00  0.00     0.049 A 
ATOM     68  H   UNL A   1      45.130  29.969  28.250  1.00  0.00     0.167 HD
ATOM     69  C   UNL A   1      45.766  27.461  27.090  1.00  0.00     0.074 A 
ATOM     70  C   UNL A   1      45.630  26.107  26.595  1.00  0.00     0.031 C 
ATOM     71  C   UNL A   1      46.896  28.202  26.985  1.00  0.00     0.037 A 
BRANCH  58  72
ATOM     72  C   UNL A   1      46.434  33.879  29.341  1.00  0.00     0.064 A 
ATOM     73  C   UNL A   1      46.513  34.874  28.356  1.00  0.00     0.173 A 
ATOM     74  C   UNL A   1      47.086  34.106  30.562  1.00  0.00     0.173 A 
ATOM     75  F   UNL A   1      45.903  34.705  27.174  1.00  0.00    -0.203 F 
ATOM     76  C   UNL A   1      47.251  36.035  28.569  1.00  0.00     0.198 A 
ATOM     77  C   UNL A   1      47.801  35.280  30.782  1.00  0.00     0.198 A 
ATOM     78  F   UNL A   1      47.022  33.192  31.542  1.00  0.00    -0.203 F 
ATOM     79  F   UNL A   1      47.352  36.950  27.596  1.00  0.00    -0.200 F 
ATOM     80  C   UNL A   1      47.895  36.236  29.781  1.00  0.00     0.200 A 
ATOM     81  F   UNL A   1      48.403  35.485  31.961  1.00  0.00    -0.200 F 
ATOM     82  F   UNL A   1      48.609  37.352  29.983  1.00  0.00    -0.200 F 
ENDBRANCH  58  72
BRANCH  59  83
ATOM     83  C   UNL A   1      41.655  25.252  27.726  1.00  0.00     0.064 A 
ATOM     84  C   UNL A   1      42.013  24.102  28.445  1.00  0.00     0.173 A 
ATOM     85  C   UNL A   1      40.607  25.139  26.801  1.00  0.00     0.173 A 
ATOM     86  F   UNL A   1      43.005  24.155  29.347  1.00  0.00    -0.203 F 
ATOM     87  C   UNL A   1      41.363  22.887  28.236  1.00  0.00     0.198 A 
ATOM     88  C   UNL A   1      39.934  23.931  26.616  1.00  0.00     0.198 A 
ATOM     89  F   UNL A   1      40.206  26.214  26.108  1.00  0.00    -0.203 F 
ATOM     90  F   UNL A   1      41.744  21.798  28.918  1.00  0.00    -0.200 F 
ATOM     91  C   UNL A   1      40.318  22.804  27.328  1.00  0.00     0.200 A 
ATOM     92  F   UNL A   1      38.904  23.864  25.761  1.00  0.00    -0.200 F 
ATOM     93  F   UNL A   1      39.675  21.643  27.145  1.00  0.00    -0.200 F 
ENDBRANCH  59  83
BRANCH  71  94
ATOM     94  C   UNL A   1      48.095  27.565  26.341  1.00  0.00     0.064 A 
ATOM     95  C   UNL A   1      49.114  27.009  27.131  1.00  0.00     0.173 A 
ATOM     96  C   UNL A   1      48.275  27.573  24.950  1.00  0.00     0.173 A 
ATOM     97  F   UNL A   1      48.998  26.990  28.468  1.00  0.00    -0.203 F 
ATOM     98  C   UNL A   1      50.272  26.497  26.554  1.00  0.00     0.198 A 
ATOM     99  C   UNL A   1      49.419  27.027  24.374  1.00  0.00     0.198 A 
ATOM    100  F   UNL A   1      47.329  28.084  24.149  1.00  0.00    -0.203 F 
ATOM    101  F   UNL A   1      51.247  26.008  27.332  1.00  0.00    -0.200 F 
ATOM    102  C   UNL A   1      50.421  26.499  25.176  1.00  0.00     0.200 A 
ATOM    103  F   UNL A   1      49.549  27.006  23.040  1.00  0.00    -0.200 F 
ATOM    104  F   UNL A   1      51.528  25.991  24.619  1.00  0.00    -0.200 F 
ENDBRANCH  71  94
ENDBRANCH  45  46
ENDBRANCH  38  40
ENDBRANCH  37  38
ENDBRANCH  36  37
ENDBRANCH  35  36
ENDBRANCH  34  35
ENDBRANCH  33  34
ENDBRANCH  32  33
ENDBRANCH  31  32
ENDBRANCH   1  31
TORSDOF 24
ENDMDL
MODEL 3
REMARK VINA RESULT:      -9.5      3.441      7.301
REMARK SMILES O=C(Cc1csc(N2C(=O)C[C@H](Nc3cccc(F)c3)C2=O)n1)OCCOCCOCCOCCOC(=O)c1ccc(-c2c3nc(c(-c4c(F)c(F)c(F)c(F)c4F)c4ccc([nH]4)c(-c4c(F)c(F)c(F)c(F)c4F)c4nc(c(-c5c(F)c(F)c(F)c(F)c5F)c5ccc2[nH]5)C=C4)C=C3)cc1
REMARK SMILES IDX 29 1 28 2 27 3 26 4 25 5 24 6 2 7 1 8 3 9 4 10 5 11 23 12
REMARK SMILES IDX 6 13 7 14 8 15 9 16 21 17 10 18 11 19 12 20 22 21 13 22
REMARK SMILES IDX 14 24 15 25 20 26 16 27 18 28 17 29 19 30 30 31 31 32 32 33
REMARK SMILES IDX 33 34 34 35 35 36 36 37 37 38 38 39 39 40 40 41 101 42 41 43
REMARK SMILES IDX 100 44 42 45 43 46 44 47 94 48 45 49 99 50 93 51 95 52 46 53
REMARK SMILES IDX 98 54 92 55 91 56 47 58 79 59 59 60 78 61 60 62 63 63 77 64
REMARK SMILES IDX 96 65 61 66 62 67 76 69 97 70 64 71 48 72 49 73 57 74 50 75
REMARK SMILES IDX 51 76 55 77 58 78 52 79 53 80 56 81 54 82 80 83 81 84 89 85
REMARK SMILES IDX 82 86 83 87 87 88 90 89 84 90 85 91 88 92 86 93 65 94 66 95
REMARK SMILES IDX 74 96 67 97 68 98 72 99 75 100 69 101 70 102 73 103 71 104
REMARK H PARENT 13 23 95 57 63 68
REMARK Flexibility Score: inf
ROOT
ATOM      1  C   UNL A   1      35.547  30.484  27.833  1.00  0.00     0.188 C 
ENDROOT
BRANCH   1   2
ATOM      2  C   UNL A   1      34.933  29.322  27.056  1.00  0.00     0.188 C 
BRANCH   2   3
ATOM      3  O   UNL A   1      33.811  28.577  27.520  1.00  0.00    -0.376 OA
BRANCH   3   4
ATOM      4  C   UNL A   1      32.447  28.938  27.466  1.00  0.00     0.202 C 
BRANCH   4   5
ATOM      5  C   UNL A   1      31.904  29.966  26.483  1.00  0.00     0.261 C 
BRANCH   5   6
ATOM      6  O   UNL A   1      32.202  29.753  25.106  1.00  0.00    -0.463 OA
BRANCH   6   7
ATOM      7  C   UNL A   1      31.373  29.168  24.209  1.00  0.00     0.311 C 
ATOM      8  O   UNL A   1      30.257  29.659  24.041  1.00  0.00    -0.252 OA
BRANCH   7   9
ATOM      9  C   UNL A   1      31.721  27.825  23.611  1.00  0.00     0.179 C 
BRANCH   9  10
ATOM     10  C   UNL A   1      31.529  26.673  24.506  1.00  0.00     0.065 A 
ATOM     11  C   UNL A   1      30.383  26.279  25.172  1.00  0.00     0.093 A 
ATOM     12  N   UNL A   1      32.584  25.815  24.620  1.00  0.00    -0.224 NA
ATOM     13  S   UNL A   1      30.646  24.742  25.876  1.00  0.00    -0.104 S 
ATOM     14  C   UNL A   1      32.150  24.664  25.063  1.00  0.00     0.199 A 
BRANCH  14  15
ATOM     15  N   UNL A   1      32.769  23.481  24.772  1.00  0.00    -0.223 N 
ATOM     16  C   UNL A   1      32.793  23.010  23.487  1.00  0.00     0.238 C 
ATOM     17  C   UNL A   1      33.088  22.546  25.713  1.00  0.00     0.258 C 
ATOM     18  O   UNL A   1      32.601  23.602  22.433  1.00  0.00    -0.274 OA
ATOM     19  C   UNL A   1      33.121  21.555  23.515  1.00  0.00     0.136 C 
ATOM     20  C   UNL A   1      33.408  21.263  24.976  1.00  0.00     0.179 C 
ATOM     21  O   UNL A   1      33.073  22.649  26.933  1.00  0.00    -0.272 OA
BRANCH  20  22
ATOM     22  N   UNL A   1      32.579  20.153  25.450  1.00  0.00    -0.373 N 
ATOM     23  H   UNL A   1      31.704  20.305  25.876  1.00  0.00     0.161 HD
BRANCH  22  24
ATOM     24  C   UNL A   1      33.091  18.875  25.269  1.00  0.00     0.038 A 
ATOM     25  C   UNL A   1      34.097  18.619  24.328  1.00  0.00     0.026 A 
ATOM     26  C   UNL A   1      32.489  17.798  25.917  1.00  0.00     0.065 A 
ATOM     27  C   UNL A   1      34.493  17.315  24.032  1.00  0.00     0.005 A 
ATOM     28  C   UNL A   1      32.876  16.500  25.606  1.00  0.00     0.125 A 
ATOM     29  C   UNL A   1      33.869  16.248  24.668  1.00  0.00     0.039 A 
ATOM     30  F   UNL A   1      32.256  15.472  26.203  1.00  0.00    -0.207 F 
ENDBRANCH  22  24
ENDBRANCH  20  22
ENDBRANCH  14  15
ENDBRANCH   9  10
ENDBRANCH   7   9
ENDBRANCH   6   7
ENDBRANCH   5   6
ENDBRANCH   4   5
ENDBRANCH   3   4
ENDBRANCH   2   3
ENDBRANCH   1   2
BRANCH   1  31
ATOM     31  O   UNL A   1      35.891  30.223  29.182  1.00  0.00    -0.377 OA
BRANCH  31  32
ATOM     32  C   UNL A   1      37.285  30.211  29.416  1.00  0.00     0.188 C 
BRANCH  32  33
ATOM     33  C   UNL A   1      37.987  28.935  28.918  1.00  0.00     0.188 C 
BRANCH  33  34
ATOM     34  O   UNL A   1      39.050  29.056  27.998  1.00  0.00    -0.376 OA
BRANCH  34  35
ATOM     35  C   UNL A   1      39.908  27.973  27.676  1.00  0.00     0.202 C 
BRANCH  35  36
ATOM     36  C   UNL A   1      39.564  26.468  27.722  1.00  0.00     0.261 C 
BRANCH  36  37
ATOM     37  O   UNL A   1      39.977  25.632  26.642  1.00  0.00    -0.460 OA
BRANCH  37  38
ATOM     38  C   UNL A   1      40.996  24.785  26.890  1.00  0.00     0.338 C 
ATOM     39  O   UNL A   1      40.932  23.576  27.043  1.00  0.00    -0.246 OA
BRANCH  38  40
ATOM     40  C   UNL A   1      42.257  25.534  26.699  1.00  0.00     0.060 A 
ATOM     41  C   UNL A   1      43.089  25.709  27.813  1.00  0.00     0.016 A 
ATOM     42  C   UNL A   1      42.655  25.995  25.440  1.00  0.00     0.016 A 
ATOM     43  C   UNL A   1      44.300  26.382  27.684  1.00  0.00     0.010 A 
ATOM     44  C   UNL A   1      43.854  26.706  25.317  1.00  0.00     0.010 A 
ATOM     45  C   UNL A   1      44.655  26.938  26.449  1.00  0.00    -0.014 A 
BRANCH  45  46
ATOM     46  C   UNL A   1      45.710  27.979  26.432  1.00  0.00     0.031 A 
ATOM     47  C   UNL A   1      45.287  29.398  26.707  1.00  0.00     0.074 A 
ATOM     48  C   UNL A   1      47.009  27.671  26.279  1.00  0.00     0.049 A 
ATOM     49  N   UNL A   1      46.015  30.481  26.792  1.00  0.00    -0.248 NA
ATOM     50  C   UNL A   1      43.848  29.623  26.931  1.00  0.00     0.031 C 
ATOM     51  C   UNL A   1      47.541  26.326  26.071  1.00  0.00     0.029 A 
ATOM     52  N   UNL A   1      48.120  28.477  26.291  1.00  0.00    -0.354 N 
ATOM     53  C   UNL A   1      45.126  31.506  27.083  1.00  0.00     0.074 A 
ATOM     54  C   UNL A   1      43.801  30.932  27.126  1.00  0.00     0.031 C 
ATOM     55  C   UNL A   1      48.881  26.400  25.979  1.00  0.00     0.029 A 
ATOM     56  C   UNL A   1      49.298  27.798  26.093  1.00  0.00     0.049 A 
ATOM     57  H   UNL A   1      48.078  29.451  26.427  1.00  0.00     0.167 HD
ATOM     58  C   UNL A   1      45.394  32.811  27.312  1.00  0.00     0.037 A 
ATOM     59  C   UNL A   1      50.561  28.260  26.005  1.00  0.00     0.037 A 
ATOM     60  C   UNL A   1      46.712  33.382  27.273  1.00  0.00     0.049 A 
ATOM     61  C   UNL A   1      50.819  29.738  26.173  1.00  0.00     0.074 A 
ATOM     62  C   UNL A   1      47.084  34.697  27.486  1.00  0.00     0.029 A 
ATOM     63  N   UNL A   1      47.871  32.673  27.002  1.00  0.00    -0.354 N 
ATOM     64  N   UNL A   1      49.975  30.700  26.455  1.00  0.00    -0.248 NA
ATOM     65  C   UNL A   1      52.209  30.193  26.012  1.00  0.00     0.031 C 
ATOM     66  C   UNL A   1      48.464  34.795  27.290  1.00  0.00     0.029 A 
ATOM     67  C   UNL A   1      48.959  33.529  27.019  1.00  0.00     0.049 A 
ATOM     68  H   UNL A   1      47.915  31.705  26.824  1.00  0.00     0.167 HD
ATOM     69  C   UNL A   1      50.732  31.864  26.537  1.00  0.00     0.074 A 
ATOM     70  C   UNL A   1      52.107  31.485  26.292  1.00  0.00     0.031 C 
ATOM     71  C   UNL A   1      50.324  33.132  26.789  1.00  0.00     0.037 A 
BRANCH  58  72
ATOM     72  C   UNL A   1      44.245  33.724  27.621  1.00  0.00     0.064 A 
ATOM     73  C   UNL A   1      43.769  34.615  26.649  1.00  0.00     0.173 A 
ATOM     74  C   UNL A   1      43.680  33.782  28.903  1.00  0.00     0.173 A 
ATOM     75  F   UNL A   1      44.275  34.596  25.407  1.00  0.00    -0.203 F 
ATOM     76  C   UNL A   1      42.792  35.557  26.959  1.00  0.00     0.198 A 
ATOM     77  C   UNL A   1      42.683  34.706  29.202  1.00  0.00     0.198 A 
ATOM     78  F   UNL A   1      44.088  32.935  29.860  1.00  0.00    -0.203 F 
ATOM     79  F   UNL A   1      42.386  36.431  26.028  1.00  0.00    -0.200 F 
ATOM     80  C   UNL A   1      42.251  35.602  28.236  1.00  0.00     0.200 A 
ATOM     81  F   UNL A   1      42.145  34.734  30.429  1.00  0.00    -0.200 F 
ATOM     82  F   UNL A   1      41.314  36.512  28.535  1.00  0.00    -0.200 F 
ENDBRANCH  58  72
BRANCH  59  83
ATOM     83  C   UNL A   1      51.686  27.320  25.750  1.00  0.00     0.064 A 
ATOM     84  C   UNL A   1      52.431  26.772  26.805  1.00  0.00     0.173 A 
ATOM     85  C   UNL A   1      52.022  26.929  24.446  1.00  0.00     0.173 A 
ATOM     86  F   UNL A   1      52.149  27.106  28.073  1.00  0.00    -0.203 F 
ATOM     87  C   UNL A   1      53.478  25.883  26.565  1.00  0.00     0.198 A 
ATOM     88  C   UNL A   1      53.048  26.014  24.209  1.00  0.00     0.198 A 
ATOM     89  F   UNL A   1      51.323  27.401  23.405  1.00  0.00    -0.203 F 
ATOM     90  F   UNL A   1      54.190  25.396  27.590  1.00  0.00    -0.200 F 
ATOM     91  C   UNL A   1      53.780  25.498  25.268  1.00  0.00     0.200 A 
ATOM     92  F   UNL A   1      53.315  25.620  22.956  1.00  0.00    -0.200 F 
ATOM     93  F   UNL A   1      54.770  24.625  25.038  1.00  0.00    -0.200 F 
ENDBRANCH  59  83
BRANCH  71  94
ATOM     94  C   UNL A   1      51.373  34.207  26.851  1.00  0.00     0.064 A 
ATOM     95  C   UNL A   1      52.005  34.513  28.067  1.00  0.00     0.173 A 
ATOM     96  C   UNL A   1      51.696  34.986  25.731  1.00  0.00     0.173 A 
ATOM     97  F   UNL A   1      51.721  33.807  29.173  1.00  0.00    -0.203 F 
ATOM     98  C   UNL A   1      52.912  35.564  28.160  1.00  0.00     0.198 A 
ATOM     99  C   UNL A   1      52.630  36.014  25.820  1.00  0.00     0.198 A 
ATOM    100  F   UNL A   1      51.126  34.731  24.544  1.00  0.00    -0.203 F 
ATOM    101  F   UNL A   1      53.472  35.861  29.341  1.00  0.00    -0.200 F 
ATOM    102  C   UNL A   1      53.229  36.310  27.036  1.00  0.00     0.200 A 
ATOM    103  F   UNL A   1      52.956  36.717  24.726  1.00  0.00    -0.200 F 
ATOM    104  F   UNL A   1      54.115  37.312  27.122  1.00  0.00    -0.200 F 
ENDBRANCH  71  94
ENDBRANCH  45  46
ENDBRANCH  38  40
ENDBRANCH  37  38
ENDBRANCH  36  37
ENDBRANCH  35  36
ENDBRANCH  34  35
ENDBRANCH  33  34
ENDBRANCH  32  33
ENDBRANCH  31  32
ENDBRANCH   1  31
TORSDOF 24
ENDMDL
