MODEL 1
REMARK VINA RESULT:     -10.1      0.000      0.000
REMARK SMILES O=C(OCCOCCOCCOCCOC(=O)c1ccc(-c2c3nc(c(-c4c(F)c(F)c(F)c(F)c4F)c4ccc([nH]4)c(-c4c(F)c(F)c(F)c(F)c4F)c4nc(c(-c5c(F)c(F)c(F)c(F)c5F)c5ccc2[nH]5)C=C4)C=C3)cc1)C1=Cc2c(ccc(Cl)c2Sc2ccccc2)O[C@H]1C(F)(F)F
REMARK SMILES IDX 9 1 8 2 7 3 6 4 5 5 4 6 3 7 2 8 1 9 81 10 82 11 98 12 83 13
REMARK SMILES IDX 97 14 84 15 89 16 85 17 87 18 86 19 88 20 99 21 100 22
REMARK SMILES IDX 101 23 102 24 90 25 91 26 92 27 96 28 93 29 95 30 94 31
REMARK SMILES IDX 10 32 11 33 12 34 13 35 14 36 15 37 16 38 17 39 18 40 19 41
REMARK SMILES IDX 80 42 20 43 79 44 21 45 22 46 23 47 73 48 24 49 78 50 72 51
REMARK SMILES IDX 74 52 25 53 77 54 71 55 70 56 26 58 58 59 38 60 57 61 39 62
REMARK SMILES IDX 42 63 56 64 75 65 40 66 41 67 55 69 76 70 43 71 27 72 28 73
REMARK SMILES IDX 36 74 29 75 30 76 34 77 37 78 31 79 32 80 35 81 33 82 59 83
REMARK SMILES IDX 60 84 68 85 61 86 62 87 66 88 69 89 63 90 64 91 67 92 65 93
REMARK SMILES IDX 44 94 45 95 53 96 46 97 47 98 51 99 54 100 48 101 49 102
REMARK SMILES IDX 52 103 50 104
REMARK H PARENT 74 57 42 68
REMARK Flexibility Score: inf
ROOT
ATOM      1  O   UNL A   1      35.007  33.303  27.630  1.00  0.00    -0.377 OA
ENDROOT
BRANCH   1   2
ATOM      2  C   UNL A   1      34.395  32.151  28.189  1.00  0.00     0.188 C 
BRANCH   2   3
ATOM      3  C   UNL A   1      33.570  31.223  27.280  1.00  0.00     0.188 C 
BRANCH   3   4
ATOM      4  O   UNL A   1      33.548  29.845  27.663  1.00  0.00    -0.376 OA
BRANCH   4   5
ATOM      5  C   UNL A   1      34.205  28.943  26.779  1.00  0.00     0.202 C 
BRANCH   5   6
ATOM      6  C   UNL A   1      33.487  28.795  25.429  1.00  0.00     0.261 C 
BRANCH   6   7
ATOM      7  O   UNL A   1      33.674  27.498  24.815  1.00  0.00    -0.460 OA
BRANCH   7   8
ATOM      8  C   UNL A   1      33.135  27.295  23.575  1.00  0.00     0.338 C 
ATOM      9  O   UNL A   1      32.916  28.152  22.761  1.00  0.00    -0.246 OA
BRANCH   8  10
ATOM     10  C   UNL A   1      32.641  25.910  23.440  1.00  0.00     0.087 C 
ATOM     11  C   UNL A   1      33.589  24.982  23.318  1.00  0.00     0.028 C 
ATOM     12  C   UNL A   1      31.194  25.613  23.646  1.00  0.00     0.316 C 
ATOM     13  C   UNL A   1      33.332  23.626  23.755  1.00  0.00     0.033 A 
ATOM     14  O   UNL A   1      30.938  24.224  23.982  1.00  0.00    -0.475 OA
ATOM     15  C   UNL A   1      31.985  23.343  24.097  1.00  0.00     0.129 A 
ATOM     16  C   UNL A   1      34.373  22.683  23.998  1.00  0.00     0.042 A 
ATOM     17  C   UNL A   1      31.629  22.114  24.635  1.00  0.00     0.049 A 
ATOM     18  C   UNL A   1      33.968  21.463  24.615  1.00  0.00     0.055 A 
ATOM     19  C   UNL A   1      32.620  21.185  24.912  1.00  0.00     0.025 A 
ATOM     20  Cl  UNL A   1      35.088  20.224  25.099  1.00  0.00    -0.083 Cl
BRANCH  12  21
ATOM     21  C   UNL A   1      30.491  26.540  24.654  1.00  0.00     0.430 C 
ATOM     22  F   UNL A   1      31.057  26.482  25.878  1.00  0.00    -0.167 F 
ATOM     23  F   UNL A   1      30.528  27.827  24.238  1.00  0.00    -0.167 F 
ATOM     24  F   UNL A   1      29.185  26.217  24.800  1.00  0.00    -0.167 F 
ENDBRANCH  12  21
BRANCH  16  25
ATOM     25  S   UNL A   1      36.135  22.799  23.479  1.00  0.00    -0.088 SA
BRANCH  25  26
ATOM     26  C   UNL A   1      37.330  22.868  24.804  1.00  0.00     0.012 A 
ATOM     27  C   UNL A   1      38.118  21.754  25.127  1.00  0.00     0.015 A 
ATOM     28  C   UNL A   1      37.423  23.972  25.661  1.00  0.00     0.015 A 
ATOM     29  C   UNL A   1      39.105  21.821  26.125  1.00  0.00     0.001 A 
ATOM     30  C   UNL A   1      38.415  24.056  26.656  1.00  0.00     0.001 A 
ATOM     31  C   UNL A   1      39.279  22.987  26.865  1.00  0.00     0.000 A 
ENDBRANCH  25  26
ENDBRANCH  16  25
ENDBRANCH   8  10
ENDBRANCH   7   8
ENDBRANCH   6   7
ENDBRANCH   5   6
ENDBRANCH   4   5
ENDBRANCH   3   4
ENDBRANCH   2   3
ENDBRANCH   1   2
BRANCH   1  32
ATOM     32  C   UNL A   1      34.628  34.543  28.216  1.00  0.00     0.188 C 
BRANCH  32  33
ATOM     33  C   UNL A   1      33.788  34.318  29.476  1.00  0.00     0.188 C 
BRANCH  33  34
ATOM     34  O   UNL A   1      34.383  34.944  30.598  1.00  0.00    -0.376 OA
BRANCH  34  35
ATOM     35  C   UNL A   1      34.454  34.243  31.833  1.00  0.00     0.202 C 
BRANCH  35  36
ATOM     36  C   UNL A   1      34.584  32.705  31.951  1.00  0.00     0.261 C 
BRANCH  36  37
ATOM     37  O   UNL A   1      35.716  32.056  31.370  1.00  0.00    -0.460 OA
BRANCH  37  38
ATOM     38  C   UNL A   1      36.645  31.557  32.198  1.00  0.00     0.338 C 
ATOM     39  O   UNL A   1      36.654  31.619  33.414  1.00  0.00    -0.246 OA
BRANCH  38  40
ATOM     40  C   UNL A   1      37.581  30.733  31.397  1.00  0.00     0.060 A 
ATOM     41  C   UNL A   1      38.148  29.615  32.019  1.00  0.00     0.016 A 
ATOM     42  C   UNL A   1      37.940  31.073  30.086  1.00  0.00     0.016 A 
ATOM     43  C   UNL A   1      39.156  28.901  31.381  1.00  0.00     0.010 A 
ATOM     44  C   UNL A   1      38.975  30.376  29.452  1.00  0.00     0.010 A 
ATOM     45  C   UNL A   1      39.636  29.345  30.141  1.00  0.00    -0.014 A 
BRANCH  45  46
ATOM     46  C   UNL A   1      41.043  29.008  29.819  1.00  0.00     0.031 A 
ATOM     47  C   UNL A   1      42.098  29.955  30.334  1.00  0.00     0.074 A 
ATOM     48  C   UNL A   1      41.383  27.860  29.215  1.00  0.00     0.049 A 
ATOM     49  N   UNL A   1      43.400  29.837  30.341  1.00  0.00    -0.248 NA
ATOM     50  C   UNL A   1      41.610  31.204  30.949  1.00  0.00     0.031 C 
ATOM     51  C   UNL A   1      40.451  26.850  28.723  1.00  0.00     0.029 A 
ATOM     52  N   UNL A   1      42.624  27.346  28.935  1.00  0.00    -0.354 N 
ATOM     53  C   UNL A   1      43.875  30.981  30.971  1.00  0.00     0.074 A 
ATOM     54  C   UNL A   1      42.735  31.800  31.301  1.00  0.00     0.031 C 
ATOM     55  C   UNL A   1      41.156  25.828  28.204  1.00  0.00     0.029 A 
ATOM     56  C   UNL A   1      42.584  26.121  28.321  1.00  0.00     0.049 A 
ATOM     57  H   UNL A   1      43.462  27.813  29.154  1.00  0.00     0.167 HD
ATOM     58  C   UNL A   1      45.153  31.317  31.263  1.00  0.00     0.037 A 
ATOM     59  C   UNL A   1      43.597  25.333  27.909  1.00  0.00     0.037 A 
ATOM     60  C   UNL A   1      46.289  30.514  30.910  1.00  0.00     0.049 A 
ATOM     61  C   UNL A   1      45.019  25.771  28.168  1.00  0.00     0.074 A 
ATOM     62  C   UNL A   1      47.628  30.762  31.139  1.00  0.00     0.029 A 
ATOM     63  N   UNL A   1      46.209  29.307  30.231  1.00  0.00    -0.354 N 
ATOM     64  N   UNL A   1      45.461  26.833  28.800  1.00  0.00    -0.248 NA
ATOM     65  C   UNL A   1      46.081  24.888  27.668  1.00  0.00     0.031 C 
ATOM     66  C   UNL A   1      48.365  29.729  30.548  1.00  0.00     0.029 A 
ATOM     67  C   UNL A   1      47.479  28.808  30.009  1.00  0.00     0.049 A 
ATOM     68  H   UNL A   1      45.372  28.871  29.950  1.00  0.00     0.167 HD
ATOM     69  C   UNL A   1      46.847  26.724  28.811  1.00  0.00     0.074 A 
ATOM     70  C   UNL A   1      47.170  25.488  28.127  1.00  0.00     0.031 C 
ATOM     71  C   UNL A   1      47.771  27.563  29.344  1.00  0.00     0.037 A 
BRANCH  58  72
ATOM     72  C   UNL A   1      45.373  32.633  31.952  1.00  0.00     0.064 A 
ATOM     73  C   UNL A   1      45.373  32.746  33.350  1.00  0.00     0.173 A 
ATOM     74  C   UNL A   1      45.559  33.800  31.198  1.00  0.00     0.173 A 
ATOM     75  F   UNL A   1      45.171  31.663  34.116  1.00  0.00    -0.203 F 
ATOM     76  C   UNL A   1      45.521  33.986  33.968  1.00  0.00     0.198 A 
ATOM     77  C   UNL A   1      45.736  35.034  31.819  1.00  0.00     0.198 A 
ATOM     78  F   UNL A   1      45.558  33.748  29.858  1.00  0.00    -0.203 F 
ATOM     79  F   UNL A   1      45.457  34.080  35.303  1.00  0.00    -0.200 F 
ATOM     80  C   UNL A   1      45.708  35.127  33.202  1.00  0.00     0.200 A 
ATOM     81  F   UNL A   1      45.921  36.134  31.078  1.00  0.00    -0.200 F 
ATOM     82  F   UNL A   1      45.845  36.320  33.797  1.00  0.00    -0.200 F 
ENDBRANCH  58  72
BRANCH  59  83
ATOM     83  C   UNL A   1      43.312  24.044  27.226  1.00  0.00     0.064 A 
ATOM     84  C   UNL A   1      42.866  22.925  27.944  1.00  0.00     0.173 A 
ATOM     85  C   UNL A   1      43.511  23.895  25.846  1.00  0.00     0.173 A 
ATOM     86  F   UNL A   1      42.684  23.009  29.270  1.00  0.00    -0.203 F 
ATOM     87  C   UNL A   1      42.651  21.702  27.311  1.00  0.00     0.198 A 
ATOM     88  C   UNL A   1      43.270  22.679  25.209  1.00  0.00     0.198 A 
ATOM     89  F   UNL A   1      43.942  24.933  25.113  1.00  0.00    -0.203 F 
ATOM     90  F   UNL A   1      42.274  20.635  28.029  1.00  0.00    -0.200 F 
ATOM     91  C   UNL A   1      42.849  21.581  25.943  1.00  0.00     0.200 A 
ATOM     92  F   UNL A   1      43.455  22.569  23.887  1.00  0.00    -0.200 F 
ATOM     93  F   UNL A   1      42.645  20.404  25.336  1.00  0.00    -0.200 F 
ENDBRANCH  59  83
BRANCH  71  94
ATOM     94  C   UNL A   1      49.210  27.146  29.267  1.00  0.00     0.064 A 
ATOM     95  C   UNL A   1      49.811  26.366  30.266  1.00  0.00     0.173 A 
ATOM     96  C   UNL A   1      49.986  27.494  28.150  1.00  0.00     0.173 A 
ATOM     97  F   UNL A   1      49.116  26.014  31.358  1.00  0.00    -0.203 F 
ATOM     98  C   UNL A   1      51.145  25.980  30.165  1.00  0.00     0.198 A 
ATOM     99  C   UNL A   1      51.307  27.077  28.036  1.00  0.00     0.198 A 
ATOM    100  F   UNL A   1      49.454  28.227  27.159  1.00  0.00    -0.203 F 
ATOM    101  F   UNL A   1      51.715  25.281  31.157  1.00  0.00    -0.200 F 
ATOM    102  C   UNL A   1      51.889  26.328  29.048  1.00  0.00     0.200 A 
ATOM    103  F   UNL A   1      52.019  27.399  26.947  1.00  0.00    -0.200 F 
ATOM    104  F   UNL A   1      53.171  25.950  28.949  1.00  0.00    -0.200 F 
ENDBRANCH  71  94
ENDBRANCH  45  46
ENDBRANCH  38  40
ENDBRANCH  37  38
ENDBRANCH  36  37
ENDBRANCH  35  36
ENDBRANCH  34  35
ENDBRANCH  33  34
ENDBRANCH  32  33
ENDBRANCH   1  32
TORSDOF 23
ENDMDL
MODEL 2
REMARK VINA RESULT:     -10.1      3.915      9.404
REMARK SMILES O=C(OCCOCCOCCOCCOC(=O)c1ccc(-c2c3nc(c(-c4c(F)c(F)c(F)c(F)c4F)c4ccc([nH]4)c(-c4c(F)c(F)c(F)c(F)c4F)c4nc(c(-c5c(F)c(F)c(F)c(F)c5F)c5ccc2[nH]5)C=C4)C=C3)cc1)C1=Cc2c(ccc(Cl)c2Sc2ccccc2)O[C@H]1C(F)(F)F
REMARK SMILES IDX 9 1 8 2 7 3 6 4 5 5 4 6 3 7 2 8 1 9 81 10 82 11 98 12 83 13
REMARK SMILES IDX 97 14 84 15 89 16 85 17 87 18 86 19 88 20 99 21 100 22
REMARK SMILES IDX 101 23 102 24 90 25 91 26 92 27 96 28 93 29 95 30 94 31
REMARK SMILES IDX 10 32 11 33 12 34 13 35 14 36 15 37 16 38 17 39 18 40 19 41
REMARK SMILES IDX 80 42 20 43 79 44 21 45 22 46 23 47 73 48 24 49 78 50 72 51
REMARK SMILES IDX 74 52 25 53 77 54 71 55 70 56 26 58 58 59 38 60 57 61 39 62
REMARK SMILES IDX 42 63 56 64 75 65 40 66 41 67 55 69 76 70 43 71 27 72 28 73
REMARK SMILES IDX 36 74 29 75 30 76 34 77 37 78 31 79 32 80 35 81 33 82 59 83
REMARK SMILES IDX 60 84 68 85 61 86 62 87 66 88 69 89 63 90 64 91 67 92 65 93
REMARK SMILES IDX 44 94 45 95 53 96 46 97 47 98 51 99 54 100 48 101 49 102
REMARK SMILES IDX 52 103 50 104
REMARK H PARENT 74 57 42 68
REMARK Flexibility Score: inf
ROOT
ATOM      1  O   UNL A   1      40.360  21.062  27.520  1.00  0.00    -0.377 OA
ENDROOT
BRANCH   1   2
ATOM      2  C   UNL A   1      39.952  21.801  26.380  1.00  0.00     0.188 C 
BRANCH   2   3
ATOM      3  C   UNL A   1      39.294  23.179  26.571  1.00  0.00     0.188 C 
BRANCH   3   4
ATOM      4  O   UNL A   1      37.952  23.295  26.091  1.00  0.00    -0.376 OA
BRANCH   4   5
ATOM      5  C   UNL A   1      37.440  22.162  25.396  1.00  0.00     0.202 C 
BRANCH   5   6
ATOM      6  C   UNL A   1      36.101  21.665  25.961  1.00  0.00     0.261 C 
BRANCH   6   7
ATOM      7  O   UNL A   1      35.105  22.708  26.088  1.00  0.00    -0.460 OA
BRANCH   7   8
ATOM      8  C   UNL A   1      33.817  22.332  26.353  1.00  0.00     0.338 C 
ATOM      9  O   UNL A   1      33.491  21.382  27.013  1.00  0.00    -0.246 OA
BRANCH   8  10
ATOM     10  C   UNL A   1      32.866  23.112  25.536  1.00  0.00     0.087 C 
ATOM     11  C   UNL A   1      33.065  24.429  25.542  1.00  0.00     0.028 C 
ATOM     12  C   UNL A   1      31.914  22.408  24.629  1.00  0.00     0.316 C 
ATOM     13  C   UNL A   1      32.647  25.228  24.409  1.00  0.00     0.033 A 
ATOM     14  O   UNL A   1      31.420  23.252  23.555  1.00  0.00    -0.475 OA
ATOM     15  C   UNL A   1      31.854  24.550  23.449  1.00  0.00     0.129 A 
ATOM     16  C   UNL A   1      33.134  26.546  24.172  1.00  0.00     0.042 A 
ATOM     17  C   UNL A   1      31.482  25.171  22.265  1.00  0.00     0.049 A 
ATOM     18  C   UNL A   1      32.783  27.115  22.913  1.00  0.00     0.055 A 
ATOM     19  C   UNL A   1      31.963  26.442  21.988  1.00  0.00     0.025 A 
ATOM     20  Cl  UNL A   1      33.362  28.665  22.376  1.00  0.00    -0.083 Cl
BRANCH  12  21
ATOM     21  C   UNL A   1      32.442  21.079  24.059  1.00  0.00     0.430 C 
ATOM     22  F   UNL A   1      31.865  20.767  22.879  1.00  0.00    -0.167 F 
ATOM     23  F   UNL A   1      33.781  21.129  23.869  1.00  0.00    -0.167 F 
ATOM     24  F   UNL A   1      32.208  20.049  24.904  1.00  0.00    -0.167 F 
ENDBRANCH  12  21
BRANCH  16  25
ATOM     25  S   UNL A   1      34.028  27.640  25.352  1.00  0.00    -0.088 SA
BRANCH  25  26
ATOM     26  C   UNL A   1      33.149  29.108  25.865  1.00  0.00     0.012 A 
ATOM     27  C   UNL A   1      33.641  29.923  26.894  1.00  0.00     0.015 A 
ATOM     28  C   UNL A   1      31.875  29.419  25.372  1.00  0.00     0.015 A 
ATOM     29  C   UNL A   1      32.989  31.114  27.259  1.00  0.00     0.001 A 
ATOM     30  C   UNL A   1      31.218  30.614  25.720  1.00  0.00     0.001 A 
ATOM     31  C   UNL A   1      31.795  31.479  26.643  1.00  0.00     0.000 A 
ENDBRANCH  25  26
ENDBRANCH  16  25
ENDBRANCH   8  10
ENDBRANCH   7   8
ENDBRANCH   6   7
ENDBRANCH   5   6
ENDBRANCH   4   5
ENDBRANCH   3   4
ENDBRANCH   2   3
ENDBRANCH   1   2
BRANCH   1  32
ATOM     32  C   UNL A   1      41.494  20.224  27.333  1.00  0.00     0.188 C 
BRANCH  32  33
ATOM     33  C   UNL A   1      41.230  19.182  26.243  1.00  0.00     0.188 C 
BRANCH  33  34
ATOM     34  O   UNL A   1      42.343  19.066  25.375  1.00  0.00    -0.376 OA
BRANCH  34  35
ATOM     35  C   UNL A   1      43.466  18.291  25.779  1.00  0.00     0.202 C 
BRANCH  35  36
ATOM     36  C   UNL A   1      44.888  18.454  25.191  1.00  0.00     0.261 C 
BRANCH  36  37
ATOM     37  O   UNL A   1      45.454  19.762  25.090  1.00  0.00    -0.460 OA
BRANCH  37  38
ATOM     38  C   UNL A   1      44.851  20.643  24.277  1.00  0.00     0.338 C 
ATOM     39  O   UNL A   1      44.623  20.508  23.088  1.00  0.00    -0.246 OA
BRANCH  38  40
ATOM     40  C   UNL A   1      44.324  21.750  25.109  1.00  0.00     0.060 A 
ATOM     41  C   UNL A   1      43.726  22.827  24.443  1.00  0.00     0.016 A 
ATOM     42  C   UNL A   1      44.457  21.765  26.504  1.00  0.00     0.016 A 
ATOM     43  C   UNL A   1      43.364  23.967  25.152  1.00  0.00     0.010 A 
ATOM     44  C   UNL A   1      44.122  22.922  27.216  1.00  0.00     0.010 A 
ATOM     45  C   UNL A   1      43.655  24.050  26.519  1.00  0.00    -0.014 A 
BRANCH  45  46
ATOM     46  C   UNL A   1      43.865  25.411  27.068  1.00  0.00     0.031 A 
ATOM     47  C   UNL A   1      45.235  26.011  26.877  1.00  0.00     0.074 A 
ATOM     48  C   UNL A   1      42.864  26.132  27.594  1.00  0.00     0.049 A 
ATOM     49  N   UNL A   1      45.659  27.227  27.109  1.00  0.00    -0.248 NA
ATOM     50  C   UNL A   1      46.268  25.116  26.324  1.00  0.00     0.031 C 
ATOM     51  C   UNL A   1      41.491  25.671  27.779  1.00  0.00     0.029 A 
ATOM     52  N   UNL A   1      42.855  27.426  28.049  1.00  0.00    -0.354 N 
ATOM     53  C   UNL A   1      46.991  27.239  26.715  1.00  0.00     0.074 A 
ATOM     54  C   UNL A   1      47.323  25.910  26.265  1.00  0.00     0.031 C 
ATOM     55  C   UNL A   1      40.766  26.675  28.307  1.00  0.00     0.029 A 
ATOM     56  C   UNL A   1      41.629  27.840  28.502  1.00  0.00     0.049 A 
ATOM     57  H   UNL A   1      43.653  28.002  28.050  1.00  0.00     0.167 HD
ATOM     58  C   UNL A   1      47.864  28.273  26.715  1.00  0.00     0.037 A 
ATOM     59  C   UNL A   1      41.258  29.032  29.011  1.00  0.00     0.037 A 
ATOM     60  C   UNL A   1      47.541  29.588  27.190  1.00  0.00     0.049 A 
ATOM     61  C   UNL A   1      42.274  30.146  29.083  1.00  0.00     0.074 A 
ATOM     62  C   UNL A   1      48.347  30.708  27.254  1.00  0.00     0.029 A 
ATOM     63  N   UNL A   1      46.302  29.950  27.700  1.00  0.00    -0.354 N 
ATOM     64  N   UNL A   1      43.521  30.165  28.673  1.00  0.00    -0.248 NA
ATOM     65  C   UNL A   1      41.822  31.412  29.677  1.00  0.00     0.031 C 
ATOM     66  C   UNL A   1      47.613  31.735  27.856  1.00  0.00     0.029 A 
ATOM     67  C   UNL A   1      46.329  31.272  28.107  1.00  0.00     0.049 A 
ATOM     68  H   UNL A   1      45.521  29.354  27.763  1.00  0.00     0.167 HD
ATOM     69  C   UNL A   1      43.987  31.452  28.918  1.00  0.00     0.074 A 
ATOM     70  C   UNL A   1      42.886  32.185  29.508  1.00  0.00     0.031 C 
ATOM     71  C   UNL A   1      45.211  31.983  28.672  1.00  0.00     0.037 A 
BRANCH  58  72
ATOM     72  C   UNL A   1      49.258  27.991  26.235  1.00  0.00     0.064 A 
ATOM     73  C   UNL A   1      50.345  27.916  27.119  1.00  0.00     0.173 A 
ATOM     74  C   UNL A   1      49.510  27.818  24.866  1.00  0.00     0.173 A 
ATOM     75  F   UNL A   1      50.161  28.102  28.434  1.00  0.00    -0.203 F 
ATOM     76  C   UNL A   1      51.639  27.711  26.645  1.00  0.00     0.198 A 
ATOM     77  C   UNL A   1      50.801  27.583  24.400  1.00  0.00     0.198 A 
ATOM     78  F   UNL A   1      48.507  27.888  23.979  1.00  0.00    -0.203 F 
ATOM     79  F   UNL A   1      52.671  27.706  27.501  1.00  0.00    -0.200 F 
ATOM     80  C   UNL A   1      51.865  27.539  25.287  1.00  0.00     0.200 A 
ATOM     81  F   UNL A   1      51.016  27.412  23.089  1.00  0.00    -0.200 F 
ATOM     82  F   UNL A   1      53.110  27.346  24.833  1.00  0.00    -0.200 F 
ENDBRANCH  58  72
BRANCH  59  83
ATOM     83  C   UNL A   1      39.862  29.244  29.478  1.00  0.00     0.064 A 
ATOM     84  C   UNL A   1      39.519  29.100  30.829  1.00  0.00     0.173 A 
ATOM     85  C   UNL A   1      38.838  29.562  28.576  1.00  0.00     0.173 A 
ATOM     86  F   UNL A   1      40.459  28.772  31.728  1.00  0.00    -0.203 F 
ATOM     87  C   UNL A   1      38.201  29.246  31.257  1.00  0.00     0.198 A 
ATOM     88  C   UNL A   1      37.523  29.734  29.008  1.00  0.00     0.198 A 
ATOM     89  F   UNL A   1      39.111  29.705  27.270  1.00  0.00    -0.203 F 
ATOM     90  F   UNL A   1      37.892  29.053  32.547  1.00  0.00    -0.200 F 
ATOM     91  C   UNL A   1      37.205  29.567  30.347  1.00  0.00     0.200 A 
ATOM     92  F   UNL A   1      36.566  30.051  28.127  1.00  0.00    -0.200 F 
ATOM     93  F   UNL A   1      35.937  29.703  30.759  1.00  0.00    -0.200 F 
ENDBRANCH  59  83
BRANCH  71  94
ATOM     94  C   UNL A   1      45.407  33.439  28.978  1.00  0.00     0.064 A 
ATOM     95  C   UNL A   1      45.108  34.441  28.043  1.00  0.00     0.173 A 
ATOM     96  C   UNL A   1      45.855  33.837  30.248  1.00  0.00     0.173 A 
ATOM     97  F   UNL A   1      44.685  34.113  26.813  1.00  0.00    -0.203 F 
ATOM     98  C   UNL A   1      45.286  35.786  28.356  1.00  0.00     0.198 A 
ATOM     99  C   UNL A   1      45.997  35.183  30.569  1.00  0.00     0.198 A 
ATOM    100  F   UNL A   1      46.141  32.918  31.183  1.00  0.00    -0.203 F 
ATOM    101  F   UNL A   1      45.046  36.725  27.430  1.00  0.00    -0.200 F 
ATOM    102  C   UNL A   1      45.722  36.156  29.620  1.00  0.00     0.200 A 
ATOM    103  F   UNL A   1      46.402  35.539  31.796  1.00  0.00    -0.200 F 
ATOM    104  F   UNL A   1      45.885  37.452  29.922  1.00  0.00    -0.200 F 
ENDBRANCH  71  94
ENDBRANCH  45  46
ENDBRANCH  38  40
ENDBRANCH  37  38
ENDBRANCH  36  37
ENDBRANCH  35  36
ENDBRANCH  34  35
ENDBRANCH  33  34
ENDBRANCH  32  33
ENDBRANCH   1  32
TORSDOF 23
ENDMDL
MODEL 3
REMARK VINA RESULT:      -9.8      3.943      9.617
REMARK SMILES O=C(OCCOCCOCCOCCOC(=O)c1ccc(-c2c3nc(c(-c4c(F)c(F)c(F)c(F)c4F)c4ccc([nH]4)c(-c4c(F)c(F)c(F)c(F)c4F)c4nc(c(-c5c(F)c(F)c(F)c(F)c5F)c5ccc2[nH]5)C=C4)C=C3)cc1)C1=Cc2c(ccc(Cl)c2Sc2ccccc2)O[C@H]1C(F)(F)F
REMARK SMILES IDX 9 1 8 2 7 3 6 4 5 5 4 6 3 7 2 8 1 9 81 10 82 11 98 12 83 13
REMARK SMILES IDX 97 14 84 15 89 16 85 17 87 18 86 19 88 20 99 21 100 22
REMARK SMILES IDX 101 23 102 24 90 25 91 26 92 27 96 28 93 29 95 30 94 31
REMARK SMILES IDX 10 32 11 33 12 34 13 35 14 36 15 37 16 38 17 39 18 40 19 41
REMARK SMILES IDX 80 42 20 43 79 44 21 45 22 46 23 47 73 48 24 49 78 50 72 51
REMARK SMILES IDX 74 52 25 53 77 54 71 55 70 56 26 58 58 59 38 60 57 61 39 62
REMARK SMILES IDX 42 63 56 64 75 65 40 66 41 67 55 69 76 70 43 71 27 72 28 73
REMARK SMILES IDX 36 74 29 75 30 76 34 77 37 78 31 79 32 80 35 81 33 82 59 83
REMARK SMILES IDX 60 84 68 85 61 86 62 87 66 88 69 89 63 90 64 91 67 92 65 93
REMARK SMILES IDX 44 94 45 95 53 96 46 97 47 98 51 99 54 100 48 101 49 102
REMARK SMILES IDX 52 103 50 104
REMARK H PARENT 74 57 42 68
REMARK Flexibility Score: inf
ROOT
ATOM      1  O   UNL A   1      40.636  20.019  27.288  1.00  0.00    -0.377 OA
ENDROOT
BRANCH   1   2
ATOM      2  C   UNL A   1      39.988  20.633  26.186  1.00  0.00     0.188 C 
BRANCH   2   3
ATOM      3  C   UNL A   1      39.620  22.126  26.266  1.00  0.00     0.188 C 
BRANCH   3   4
ATOM      4  O   UNL A   1      38.224  22.412  26.392  1.00  0.00    -0.376 OA
BRANCH   4   5
ATOM      5  C   UNL A   1      37.467  22.354  25.188  1.00  0.00     0.202 C 
BRANCH   5   6
ATOM      6  C   UNL A   1      36.060  21.771  25.390  1.00  0.00     0.261 C 
BRANCH   6   7
ATOM      7  O   UNL A   1      35.309  22.425  26.440  1.00  0.00    -0.460 OA
BRANCH   7   8
ATOM      8  C   UNL A   1      34.012  22.039  26.634  1.00  0.00     0.338 C 
ATOM      9  O   UNL A   1      33.657  21.087  27.277  1.00  0.00    -0.246 OA
BRANCH   8  10
ATOM     10  C   UNL A   1      33.101  22.807  25.761  1.00  0.00     0.087 C 
ATOM     11  C   UNL A   1      33.332  24.118  25.721  1.00  0.00     0.028 C 
ATOM     12  C   UNL A   1      32.157  22.090  24.856  1.00  0.00     0.316 C 
ATOM     13  C   UNL A   1      32.962  24.881  24.547  1.00  0.00     0.033 A 
ATOM     14  O   UNL A   1      31.712  22.901  23.737  1.00  0.00    -0.475 OA
ATOM     15  C   UNL A   1      32.179  24.184  23.593  1.00  0.00     0.129 A 
ATOM     16  C   UNL A   1      33.487  26.178  24.272  1.00  0.00     0.042 A 
ATOM     17  C   UNL A   1      31.854  24.766  22.375  1.00  0.00     0.049 A 
ATOM     18  C   UNL A   1      33.183  26.704  22.983  1.00  0.00     0.055 A 
ATOM     19  C   UNL A   1      32.372  26.014  22.063  1.00  0.00     0.025 A 
ATOM     20  Cl  UNL A   1      33.812  28.218  22.402  1.00  0.00    -0.083 Cl
BRANCH  12  21
ATOM     21  C   UNL A   1      32.668  20.728  24.353  1.00  0.00     0.430 C 
ATOM     22  F   UNL A   1      34.012  20.701  24.234  1.00  0.00    -0.167 F 
ATOM     23  F   UNL A   1      32.304  19.731  25.193  1.00  0.00    -0.167 F 
ATOM     24  F   UNL A   1      32.152  20.420  23.140  1.00  0.00    -0.167 F 
ENDBRANCH  12  21
BRANCH  16  25
ATOM     25  S   UNL A   1      34.375  27.296  25.433  1.00  0.00    -0.088 SA
BRANCH  25  26
ATOM     26  C   UNL A   1      33.472  28.749  25.951  1.00  0.00     0.012 A 
ATOM     27  C   UNL A   1      33.972  29.590  26.956  1.00  0.00     0.015 A 
ATOM     28  C   UNL A   1      32.179  29.021  25.489  1.00  0.00     0.015 A 
ATOM     29  C   UNL A   1      33.300  30.768  27.323  1.00  0.00     0.001 A 
ATOM     30  C   UNL A   1      31.501  30.203  25.840  1.00  0.00     0.001 A 
ATOM     31  C   UNL A   1      32.080  31.095  26.736  1.00  0.00     0.000 A 
ENDBRANCH  25  26
ENDBRANCH  16  25
ENDBRANCH   8  10
ENDBRANCH   7   8
ENDBRANCH   6   7
ENDBRANCH   5   6
ENDBRANCH   4   5
ENDBRANCH   3   4
ENDBRANCH   2   3
ENDBRANCH   1   2
BRANCH   1  32
ATOM     32  C   UNL A   1      42.054  19.934  27.194  1.00  0.00     0.188 C 
BRANCH  32  33
ATOM     33  C   UNL A   1      42.471  18.966  26.085  1.00  0.00     0.188 C 
BRANCH  33  34
ATOM     34  O   UNL A   1      43.152  19.651  25.048  1.00  0.00    -0.376 OA
BRANCH  34  35
ATOM     35  C   UNL A   1      44.518  20.004  25.223  1.00  0.00     0.202 C 
BRANCH  35  36
ATOM     36  C   UNL A   1      45.016  21.450  25.462  1.00  0.00     0.261 C 
BRANCH  36  37
ATOM     37  O   UNL A   1      44.150  22.387  26.105  1.00  0.00    -0.460 OA
BRANCH  37  38
ATOM     38  C   UNL A   1      43.328  23.112  25.332  1.00  0.00     0.338 C 
ATOM     39  O   UNL A   1      42.986  22.865  24.189  1.00  0.00    -0.246 OA
BRANCH  38  40
ATOM     40  C   UNL A   1      42.736  24.184  26.167  1.00  0.00     0.060 A 
ATOM     41  C   UNL A   1      42.348  25.363  25.521  1.00  0.00     0.016 A 
ATOM     42  C   UNL A   1      42.612  24.064  27.558  1.00  0.00     0.016 A 
ATOM     43  C   UNL A   1      41.943  26.464  26.268  1.00  0.00     0.010 A 
ATOM     44  C   UNL A   1      42.235  25.178  28.315  1.00  0.00     0.010 A 
ATOM     45  C   UNL A   1      41.984  26.400  27.667  1.00  0.00    -0.014 A 
BRANCH  45  46
ATOM     46  C   UNL A   1      42.185  27.684  28.380  1.00  0.00     0.031 A 
ATOM     47  C   UNL A   1      43.608  28.168  28.508  1.00  0.00     0.074 A 
ATOM     48  C   UNL A   1      41.158  28.448  28.782  1.00  0.00     0.049 A 
ATOM     49  N   UNL A   1      44.068  29.315  28.937  1.00  0.00    -0.248 NA
ATOM     50  C   UNL A   1      44.658  27.232  28.068  1.00  0.00     0.031 C 
ATOM     51  C   UNL A   1      39.745  28.102  28.661  1.00  0.00     0.029 A 
ATOM     52  N   UNL A   1      41.159  29.693  29.356  1.00  0.00    -0.354 N 
ATOM     53  C   UNL A   1      45.449  29.237  28.800  1.00  0.00     0.074 A 
ATOM     54  C   UNL A   1      45.761  27.926  28.287  1.00  0.00     0.031 C 
ATOM     55  C   UNL A   1      39.009  29.120  29.144  1.00  0.00     0.029 A 
ATOM     56  C   UNL A   1      39.903  30.179  29.614  1.00  0.00     0.049 A 
ATOM     57  H   UNL A   1      41.982  30.190  29.564  1.00  0.00     0.167 HD
ATOM     58  C   UNL A   1      46.380  30.182  29.067  1.00  0.00     0.037 A 
ATOM     59  C   UNL A   1      39.531  31.352  30.164  1.00  0.00     0.037 A 
ATOM     60  C   UNL A   1      46.071  31.476  29.604  1.00  0.00     0.049 A 
ATOM     61  C   UNL A   1      40.595  32.357  30.536  1.00  0.00     0.074 A 
ATOM     62  C   UNL A   1      46.931  32.506  29.930  1.00  0.00     0.029 A 
ATOM     63  N   UNL A   1      44.788  31.906  29.910  1.00  0.00    -0.354 N 
ATOM     64  N   UNL A   1      41.895  32.295  30.367  1.00  0.00    -0.248 NA
ATOM     65  C   UNL A   1      40.133  33.604  31.161  1.00  0.00     0.031 C 
ATOM     66  C   UNL A   1      46.173  33.542  30.487  1.00  0.00     0.029 A 
ATOM     67  C   UNL A   1      44.835  33.180  30.447  1.00  0.00     0.049 A 
ATOM     68  H   UNL A   1      43.966  31.383  29.767  1.00  0.00     0.167 HD
ATOM     69  C   UNL A   1      42.400  33.507  30.824  1.00  0.00     0.074 A 
ATOM     70  C   UNL A   1      41.264  34.286  31.272  1.00  0.00     0.031 C 
ATOM     71  C   UNL A   1      43.685  33.941  30.865  1.00  0.00     0.037 A 
BRANCH  58  72
ATOM     72  C   UNL A   1      47.816  29.813  28.827  1.00  0.00     0.064 A 
ATOM     73  C   UNL A   1      48.458  30.091  27.611  1.00  0.00     0.173 A 
ATOM     74  C   UNL A   1      48.548  29.149  29.821  1.00  0.00     0.173 A 
ATOM     75  F   UNL A   1      47.792  30.700  26.618  1.00  0.00    -0.203 F 
ATOM     76  C   UNL A   1      49.773  29.688  27.388  1.00  0.00     0.198 A 
ATOM     77  C   UNL A   1      49.872  28.775  29.605  1.00  0.00     0.198 A 
ATOM     78  F   UNL A   1      47.978  28.853  30.998  1.00  0.00    -0.203 F 
ATOM     79  F   UNL A   1      50.347  29.909  26.197  1.00  0.00    -0.200 F 
ATOM     80  C   UNL A   1      50.480  29.036  28.387  1.00  0.00     0.200 A 
ATOM     81  F   UNL A   1      50.555  28.149  30.573  1.00  0.00    -0.200 F 
ATOM     82  F   UNL A   1      51.743  28.645  28.170  1.00  0.00    -0.200 F 
ENDBRANCH  58  72
BRANCH  59  83
ATOM     83  C   UNL A   1      38.092  31.653  30.382  1.00  0.00     0.064 A 
ATOM     84  C   UNL A   1      37.301  32.197  29.361  1.00  0.00     0.173 A 
ATOM     85  C   UNL A   1      37.487  31.433  31.627  1.00  0.00     0.173 A 
ATOM     86  F   UNL A   1      37.840  32.449  28.159  1.00  0.00    -0.203 F 
ATOM     87  C   UNL A   1      35.966  32.530  29.583  1.00  0.00     0.198 A 
ATOM     88  C   UNL A   1      36.144  31.741  31.841  1.00  0.00     0.198 A 
ATOM     89  F   UNL A   1      38.200  30.919  32.641  1.00  0.00    -0.203 F 
ATOM     90  F   UNL A   1      35.247  33.096  28.604  1.00  0.00    -0.200 F 
ATOM     91  C   UNL A   1      35.387  32.297  30.822  1.00  0.00     0.200 A 
ATOM     92  F   UNL A   1      35.587  31.508  33.037  1.00  0.00    -0.200 F 
ATOM     93  F   UNL A   1      34.104  32.620  31.035  1.00  0.00    -0.200 F 
ENDBRANCH  59  83
BRANCH  71  94
ATOM     94  C   UNL A   1      43.926  35.341  31.348  1.00  0.00     0.064 A 
ATOM     95  C   UNL A   1      43.900  36.442  30.479  1.00  0.00     0.173 A 
ATOM     96  C   UNL A   1      44.139  35.587  32.714  1.00  0.00     0.173 A 
ATOM     97  F   UNL A   1      43.709  36.260  29.164  1.00  0.00    -0.203 F 
ATOM     98  C   UNL A   1      44.114  37.733  30.955  1.00  0.00     0.198 A 
ATOM     99  C   UNL A   1      44.317  36.882  33.190  1.00  0.00     0.198 A 
ATOM    100  F   UNL A   1      44.160  34.571  33.589  1.00  0.00    -0.203 F 
ATOM    101  F   UNL A   1      44.138  38.764  30.099  1.00  0.00    -0.200 F 
ATOM    102  C   UNL A   1      44.314  37.953  32.310  1.00  0.00     0.200 A 
ATOM    103  F   UNL A   1      44.493  37.093  34.502  1.00  0.00    -0.200 F 
ATOM    104  F   UNL A   1      44.512  39.197  32.766  1.00  0.00    -0.200 F 
ENDBRANCH  71  94
ENDBRANCH  45  46
ENDBRANCH  38  40
ENDBRANCH  37  38
ENDBRANCH  36  37
ENDBRANCH  35  36
ENDBRANCH  34  35
ENDBRANCH  33  34
ENDBRANCH  32  33
ENDBRANCH   1  32
TORSDOF 23
ENDMDL
