MODEL 1
REMARK VINA RESULT:     -10.1      0.000      0.000
REMARK SMILES C[N@H+]1CCO[C@](C)(C(=O)OCCOCCOCCOCCOC(=O)c2ccc(-c3c4nc(c(-c5c(F)c(F)c(F)c(F)c5F)c5ccc([nH]5)c(-c5c(F)c(F)c(F)c(F)c5F)c5nc(c(-c6c(F)c(F)c(F)c(F)c6F)c6ccc3[nH]6)C=C5)C=C4)cc2)C1
REMARK SMILES IDX 17 1 16 2 15 3 14 4 13 5 12 6 11 7 10 8 8 9 9 10 6 11 1 12
REMARK SMILES IDX 2 13 3 14 88 15 4 17 5 18 7 19 18 20 19 21 20 22 21 23 22 24
REMARK SMILES IDX 23 25 24 26 25 27 26 28 87 29 27 30 86 31 28 32 29 33 30 34
REMARK SMILES IDX 80 35 31 36 85 37 79 38 81 39 32 40 84 41 78 42 77 43 33 45
REMARK SMILES IDX 65 46 45 47 64 48 46 49 49 50 63 51 82 52 47 53 48 54 62 56
REMARK SMILES IDX 83 57 50 58 34 59 35 60 43 61 36 62 37 63 41 64 44 65 38 66
REMARK SMILES IDX 39 67 42 68 40 69 66 70 67 71 75 72 68 73 69 74 73 75 76 76
REMARK SMILES IDX 70 77 71 78 74 79 72 80 51 81 52 82 60 83 53 84 54 85 58 86
REMARK SMILES IDX 61 87 55 88 56 89 59 90 57 91
REMARK H PARENT 2 16 81 44 49 55
REMARK Flexibility Score: inf
ROOT
ATOM      1  C   UNL A   1      43.179  19.162  25.948  1.00  0.00     0.188 C 
ENDROOT
BRANCH   1   2
ATOM      2  O   UNL A   1      41.909  19.363  25.335  1.00  0.00    -0.377 OA
BRANCH   2   3
ATOM      3  C   UNL A   1      40.804  19.667  26.165  1.00  0.00     0.188 C 
BRANCH   3   4
ATOM      4  C   UNL A   1      40.704  21.139  26.582  1.00  0.00     0.188 C 
BRANCH   4   5
ATOM      5  O   UNL A   1      39.453  21.801  26.594  1.00  0.00    -0.376 OA
BRANCH   5   6
ATOM      6  C   UNL A   1      38.404  21.465  25.701  1.00  0.00     0.202 C 
BRANCH   6   7
ATOM      7  C   UNL A   1      37.163  22.333  25.415  1.00  0.00     0.261 C 
BRANCH   7   8
ATOM      8  O   UNL A   1      36.154  21.817  24.533  1.00  0.00    -0.461 OA
BRANCH   8   9
ATOM      9  C   UNL A   1      35.622  22.735  23.688  1.00  0.00     0.344 C 
ATOM     10  O   UNL A   1      36.255  23.223  22.752  1.00  0.00    -0.249 OA
BRANCH   9  11
ATOM     11  C   UNL A   1      34.170  23.154  24.009  1.00  0.00     0.211 C 
ATOM     12  C   UNL A   1      31.729  24.841  25.485  1.00  0.00     0.332 C 
ATOM     13  N   UNL A   1      32.437  23.630  25.873  1.00  0.00    -0.333 N 
ATOM     14  C   UNL A   1      31.745  22.411  25.414  1.00  0.00     0.290 C 
ATOM     15  C   UNL A   1      33.866  23.597  25.468  1.00  0.00     0.310 C 
ATOM     16  H   UNL A   1      32.428  23.649  26.893  1.00  0.00     0.348 HD
ATOM     17  C   UNL A   1      32.023  22.048  23.949  1.00  0.00     0.223 C 
ATOM     18  O   UNL A   1      33.418  21.961  23.675  1.00  0.00    -0.353 OA
ATOM     19  C   UNL A   1      33.885  24.292  23.020  1.00  0.00     0.061 C 
ENDBRANCH   9  11
ENDBRANCH   8   9
ENDBRANCH   7   8
ENDBRANCH   6   7
ENDBRANCH   5   6
ENDBRANCH   4   5
ENDBRANCH   3   4
ENDBRANCH   2   3
ENDBRANCH   1   2
BRANCH   1  20
ATOM     20  C   UNL A   1      44.463  19.392  25.126  1.00  0.00     0.188 C 
BRANCH  20  21
ATOM     21  O   UNL A   1      44.667  20.739  24.726  1.00  0.00    -0.376 OA
BRANCH  21  22
ATOM     22  C   UNL A   1      45.709  21.484  25.343  1.00  0.00     0.202 C 
BRANCH  22  23
ATOM     23  C   UNL A   1      45.306  22.684  26.216  1.00  0.00     0.261 C 
BRANCH  23  24
ATOM     24  O   UNL A   1      45.036  23.915  25.520  1.00  0.00    -0.460 OA
BRANCH  24  25
ATOM     25  C   UNL A   1      43.796  24.104  25.025  1.00  0.00     0.338 C 
ATOM     26  O   UNL A   1      43.272  23.515  24.102  1.00  0.00    -0.246 OA
BRANCH  25  27
ATOM     27  C   UNL A   1      43.079  25.027  25.932  1.00  0.00     0.060 A 
ATOM     28  C   UNL A   1      43.651  26.277  26.196  1.00  0.00     0.016 A 
ATOM     29  C   UNL A   1      41.878  24.655  26.543  1.00  0.00     0.016 A 
ATOM     30  C   UNL A   1      43.051  27.140  27.111  1.00  0.00     0.010 A 
ATOM     31  C   UNL A   1      41.287  25.514  27.476  1.00  0.00     0.010 A 
ATOM     32  C   UNL A   1      41.894  26.742  27.795  1.00  0.00    -0.014 A 
BRANCH  32  33
ATOM     33  C   UNL A   1      41.444  27.537  28.965  1.00  0.00     0.031 A 
ATOM     34  C   UNL A   1      42.221  27.430  30.250  1.00  0.00     0.074 A 
ATOM     35  C   UNL A   1      40.411  28.391  28.871  1.00  0.00     0.049 A 
ATOM     36  N   UNL A   1      42.037  28.050  31.390  1.00  0.00    -0.248 NA
ATOM     37  C   UNL A   1      43.363  26.501  30.250  1.00  0.00     0.031 C 
ATOM     38  C   UNL A   1      39.607  28.613  27.672  1.00  0.00     0.029 A 
ATOM     39  N   UNL A   1      39.865  29.235  29.805  1.00  0.00    -0.354 N 
ATOM     40  C   UNL A   1      43.037  27.586  32.236  1.00  0.00     0.074 A 
ATOM     41  C   UNL A   1      43.801  26.607  31.495  1.00  0.00     0.031 C 
ATOM     42  C   UNL A   1      38.666  29.534  27.943  1.00  0.00     0.029 A 
ATOM     43  C   UNL A   1      38.784  29.944  29.342  1.00  0.00     0.049 A 
ATOM     44  H   UNL A   1      40.214  29.324  30.721  1.00  0.00     0.167 HD
ATOM     45  C   UNL A   1      43.301  27.952  33.513  1.00  0.00     0.037 A 
ATOM     46  C   UNL A   1      37.975  30.811  29.982  1.00  0.00     0.037 A 
ATOM     47  C   UNL A   1      42.537  28.925  34.251  1.00  0.00     0.049 A 
ATOM     48  C   UNL A   1      38.248  31.147  31.426  1.00  0.00     0.074 A 
ATOM     49  C   UNL A   1      42.735  29.377  35.544  1.00  0.00     0.029 A 
ATOM     50  N   UNL A   1      41.421  29.588  33.763  1.00  0.00    -0.354 N 
ATOM     51  N   UNL A   1      39.212  30.730  32.210  1.00  0.00    -0.248 NA
ATOM     52  C   UNL A   1      37.319  32.086  32.073  1.00  0.00     0.031 C 
ATOM     53  C   UNL A   1      41.701  30.264  35.860  1.00  0.00     0.029 A 
ATOM     54  C   UNL A   1      40.900  30.422  34.742  1.00  0.00     0.049 A 
ATOM     55  H   UNL A   1      41.052  29.483  32.857  1.00  0.00     0.167 HD
ATOM     56  C   UNL A   1      39.026  31.374  33.427  1.00  0.00     0.074 A 
ATOM     57  C   UNL A   1      37.868  32.230  33.270  1.00  0.00     0.031 C 
ATOM     58  C   UNL A   1      39.745  31.267  34.573  1.00  0.00     0.037 A 
BRANCH  45  59
ATOM     59  C   UNL A   1      44.448  27.274  34.207  1.00  0.00     0.064 A 
ATOM     60  C   UNL A   1      45.746  27.808  34.190  1.00  0.00     0.173 A 
ATOM     61  C   UNL A   1      44.236  26.092  34.933  1.00  0.00     0.173 A 
ATOM     62  F   UNL A   1      46.006  28.928  33.499  1.00  0.00    -0.203 F 
ATOM     63  C   UNL A   1      46.792  27.169  34.851  1.00  0.00     0.198 A 
ATOM     64  C   UNL A   1      45.278  25.475  35.620  1.00  0.00     0.198 A 
ATOM     65  F   UNL A   1      43.014  25.540  34.986  1.00  0.00    -0.203 F 
ATOM     66  F   UNL A   1      48.033  27.671  34.780  1.00  0.00    -0.200 F 
ATOM     67  C   UNL A   1      46.556  26.009  35.572  1.00  0.00     0.200 A 
ATOM     68  F   UNL A   1      45.044  24.361  36.328  1.00  0.00    -0.200 F 
ATOM     69  F   UNL A   1      47.562  25.401  36.217  1.00  0.00    -0.200 F 
ENDBRANCH  45  59
BRANCH  46  70
ATOM     70  C   UNL A   1      36.817  31.416  29.269  1.00  0.00     0.064 A 
ATOM     71  C   UNL A   1      36.791  32.783  28.952  1.00  0.00     0.173 A 
ATOM     72  C   UNL A   1      35.695  30.647  28.924  1.00  0.00     0.173 A 
ATOM     73  F   UNL A   1      37.826  33.568  29.285  1.00  0.00    -0.203 F 
ATOM     74  C   UNL A   1      35.678  33.359  28.339  1.00  0.00     0.198 A 
ATOM     75  C   UNL A   1      34.599  31.218  28.281  1.00  0.00     0.198 A 
ATOM     76  F   UNL A   1      35.667  29.336  29.208  1.00  0.00    -0.203 F 
ATOM     77  F   UNL A   1      35.656  34.677  28.101  1.00  0.00    -0.200 F 
ATOM     78  C   UNL A   1      34.586  32.574  27.999  1.00  0.00     0.200 A 
ATOM     79  F   UNL A   1      33.552  30.452  27.941  1.00  0.00    -0.200 F 
ATOM     80  F   UNL A   1      33.518  33.128  27.409  1.00  0.00    -0.200 F 
ENDBRANCH  46  70
BRANCH  58  81
ATOM     81  C   UNL A   1      39.321  32.124  35.735  1.00  0.00     0.064 A 
ATOM     82  C   UNL A   1      39.848  33.409  35.940  1.00  0.00     0.173 A 
ATOM     83  C   UNL A   1      38.362  31.658  36.649  1.00  0.00     0.173 A 
ATOM     84  F   UNL A   1      40.776  33.899  35.103  1.00  0.00    -0.203 F 
ATOM     85  C   UNL A   1      39.466  34.174  37.038  1.00  0.00     0.198 A 
ATOM     86  C   UNL A   1      37.954  32.442  37.724  1.00  0.00     0.198 A 
ATOM     87  F   UNL A   1      37.816  30.443  36.496  1.00  0.00    -0.203 F 
ATOM     88  F   UNL A   1      40.036  35.369  37.251  1.00  0.00    -0.200 F 
ATOM     89  C   UNL A   1      38.516  33.693  37.926  1.00  0.00     0.200 A 
ATOM     90  F   UNL A   1      37.022  31.983  38.570  1.00  0.00    -0.200 F 
ATOM     91  F   UNL A   1      38.149  34.432  38.982  1.00  0.00    -0.200 F 
ENDBRANCH  58  81
ENDBRANCH  32  33
ENDBRANCH  25  27
ENDBRANCH  24  25
ENDBRANCH  23  24
ENDBRANCH  22  23
ENDBRANCH  21  22
ENDBRANCH  20  21
ENDBRANCH   1  20
TORSDOF 20
ENDMDL
MODEL 2
REMARK VINA RESULT:      -9.2      1.259      2.247
REMARK SMILES C[N@H+]1CCO[C@](C)(C(=O)OCCOCCOCCOCCOC(=O)c2ccc(-c3c4nc(c(-c5c(F)c(F)c(F)c(F)c5F)c5ccc([nH]5)c(-c5c(F)c(F)c(F)c(F)c5F)c5nc(c(-c6c(F)c(F)c(F)c(F)c6F)c6ccc3[nH]6)C=C5)C=C4)cc2)C1
REMARK SMILES IDX 17 1 16 2 15 3 14 4 13 5 12 6 11 7 10 8 8 9 9 10 6 11 1 12
REMARK SMILES IDX 2 13 3 14 88 15 4 17 5 18 7 19 18 20 19 21 20 22 21 23 22 24
REMARK SMILES IDX 23 25 24 26 25 27 26 28 87 29 27 30 86 31 28 32 29 33 30 34
REMARK SMILES IDX 80 35 31 36 85 37 79 38 81 39 32 40 84 41 78 42 77 43 33 45
REMARK SMILES IDX 65 46 45 47 64 48 46 49 49 50 63 51 82 52 47 53 48 54 62 56
REMARK SMILES IDX 83 57 50 58 34 59 35 60 43 61 36 62 37 63 41 64 44 65 38 66
REMARK SMILES IDX 39 67 42 68 40 69 66 70 67 71 75 72 68 73 69 74 73 75 76 76
REMARK SMILES IDX 70 77 71 78 74 79 72 80 51 81 52 82 60 83 53 84 54 85 58 86
REMARK SMILES IDX 61 87 55 88 56 89 59 90 57 91
REMARK H PARENT 2 16 81 44 49 55
REMARK Flexibility Score: inf
ROOT
ATOM      1  C   UNL A   1      42.615  21.722  27.335  1.00  0.00     0.188 C 
ENDROOT
BRANCH   1   2
ATOM      2  O   UNL A   1      41.313  21.888  27.885  1.00  0.00    -0.377 OA
BRANCH   2   3
ATOM      3  C   UNL A   1      40.258  22.255  27.016  1.00  0.00     0.188 C 
BRANCH   3   4
ATOM      4  C   UNL A   1      39.923  23.751  27.015  1.00  0.00     0.188 C 
BRANCH   4   5
ATOM      5  O   UNL A   1      38.631  24.199  26.646  1.00  0.00    -0.376 OA
BRANCH   5   6
ATOM      6  C   UNL A   1      37.697  23.367  25.977  1.00  0.00     0.202 C 
BRANCH   6   7
ATOM      7  C   UNL A   1      36.208  23.696  25.756  1.00  0.00     0.261 C 
BRANCH   7   8
ATOM      8  O   UNL A   1      35.223  22.765  26.229  1.00  0.00    -0.461 OA
BRANCH   8   9
ATOM      9  C   UNL A   1      34.419  22.257  25.263  1.00  0.00     0.344 C 
ATOM     10  O   UNL A   1      34.765  21.333  24.526  1.00  0.00    -0.249 OA
BRANCH   9  11
ATOM     11  C   UNL A   1      33.043  22.947  25.126  1.00  0.00     0.211 C 
ATOM     12  C   UNL A   1      30.512  24.447  23.602  1.00  0.00     0.332 C 
ATOM     13  N   UNL A   1      31.746  24.973  24.168  1.00  0.00    -0.333 N 
ATOM     14  C   UNL A   1      31.575  25.408  25.566  1.00  0.00     0.290 C 
ATOM     15  C   UNL A   1      32.913  24.061  24.050  1.00  0.00     0.310 C 
ATOM     16  H   UNL A   1      31.960  25.788  23.593  1.00  0.00     0.348 HD
ATOM     17  C   UNL A   1      31.645  24.267  26.590  1.00  0.00     0.223 C 
ATOM     18  O   UNL A   1      32.836  23.498  26.452  1.00  0.00    -0.353 OA
ATOM     19  C   UNL A   1      32.074  21.793  24.841  1.00  0.00     0.061 C 
ENDBRANCH   9  11
ENDBRANCH   8   9
ENDBRANCH   7   8
ENDBRANCH   6   7
ENDBRANCH   5   6
ENDBRANCH   4   5
ENDBRANCH   3   4
ENDBRANCH   2   3
ENDBRANCH   1   2
BRANCH   1  20
ATOM     20  C   UNL A   1      42.779  21.567  25.810  1.00  0.00     0.188 C 
BRANCH  20  21
ATOM     21  O   UNL A   1      44.084  21.186  25.398  1.00  0.00    -0.376 OA
BRANCH  21  22
ATOM     22  C   UNL A   1      44.604  21.727  24.191  1.00  0.00     0.202 C 
BRANCH  22  23
ATOM     23  C   UNL A   1      45.384  23.050  24.281  1.00  0.00     0.261 C 
BRANCH  23  24
ATOM     24  O   UNL A   1      45.133  23.859  25.443  1.00  0.00    -0.460 OA
BRANCH  24  25
ATOM     25  C   UNL A   1      45.430  25.174  25.377  1.00  0.00     0.338 C 
ATOM     26  O   UNL A   1      46.193  25.720  24.607  1.00  0.00    -0.246 OA
BRANCH  25  27
ATOM     27  C   UNL A   1      44.506  25.895  26.280  1.00  0.00     0.060 A 
ATOM     28  C   UNL A   1      44.639  27.284  26.395  1.00  0.00     0.016 A 
ATOM     29  C   UNL A   1      43.545  25.212  27.030  1.00  0.00     0.016 A 
ATOM     30  C   UNL A   1      43.846  27.988  27.299  1.00  0.00     0.010 A 
ATOM     31  C   UNL A   1      42.763  25.917  27.951  1.00  0.00     0.010 A 
ATOM     32  C   UNL A   1      42.940  27.302  28.119  1.00  0.00    -0.014 A 
BRANCH  32  33
ATOM     33  C   UNL A   1      42.328  28.018  29.266  1.00  0.00     0.031 A 
ATOM     34  C   UNL A   1      43.059  28.028  30.582  1.00  0.00     0.074 A 
ATOM     35  C   UNL A   1      41.181  28.705  29.127  1.00  0.00     0.049 A 
ATOM     36  N   UNL A   1      42.737  28.611  31.710  1.00  0.00    -0.248 NA
ATOM     37  C   UNL A   1      44.327  27.283  30.632  1.00  0.00     0.031 C 
ATOM     38  C   UNL A   1      40.402  28.805  27.894  1.00  0.00     0.029 A 
ATOM     39  N   UNL A   1      40.476  29.456  30.034  1.00  0.00    -0.354 N 
ATOM     40  C   UNL A   1      43.760  28.303  32.599  1.00  0.00     0.074 A 
ATOM     41  C   UNL A   1      44.693  27.452  31.893  1.00  0.00     0.031 C 
ATOM     42  C   UNL A   1      39.323  29.573  28.124  1.00  0.00     0.029 A 
ATOM     43  C   UNL A   1      39.320  29.994  29.524  1.00  0.00     0.049 A 
ATOM     44  H   UNL A   1      40.771  29.596  30.963  1.00  0.00     0.167 HD
ATOM     45  C   UNL A   1      43.914  28.703  33.883  1.00  0.00     0.037 A 
ATOM     46  C   UNL A   1      38.364  30.727  30.127  1.00  0.00     0.037 A 
ATOM     47  C   UNL A   1      42.982  29.548  34.585  1.00  0.00     0.049 A 
ATOM     48  C   UNL A   1      38.524  31.099  31.579  1.00  0.00     0.074 A 
ATOM     49  C   UNL A   1      43.057  30.023  35.883  1.00  0.00     0.029 A 
ATOM     50  N   UNL A   1      41.799  30.035  34.050  1.00  0.00    -0.354 N 
ATOM     51  N   UNL A   1      39.508  30.831  32.404  1.00  0.00    -0.248 NA
ATOM     52  C   UNL A   1      37.439  31.885  32.183  1.00  0.00     0.031 C 
ATOM     53  C   UNL A   1      41.888  30.743  36.153  1.00  0.00     0.029 A 
ATOM     54  C   UNL A   1      41.119  30.779  35.002  1.00  0.00     0.049 A 
ATOM     55  H   UNL A   1      41.487  29.877  33.130  1.00  0.00     0.167 HD
ATOM     56  C   UNL A   1      39.177  31.438  33.609  1.00  0.00     0.074 A 
ATOM     57  C   UNL A   1      37.910  32.109  33.401  1.00  0.00     0.031 C 
ATOM     58  C   UNL A   1      39.857  31.440  34.784  1.00  0.00     0.037 A 
BRANCH  45  59
ATOM     59  C   UNL A   1      45.121  28.206  34.627  1.00  0.00     0.064 A 
ATOM     60  C   UNL A   1      45.104  27.002  35.348  1.00  0.00     0.173 A 
ATOM     61  C   UNL A   1      46.324  28.927  34.585  1.00  0.00     0.173 A 
ATOM     62  F   UNL A   1      43.975  26.282  35.433  1.00  0.00    -0.203 F 
ATOM     63  C   UNL A   1      46.238  26.554  36.021  1.00  0.00     0.198 A 
ATOM     64  C   UNL A   1      47.465  28.459  35.231  1.00  0.00     0.198 A 
ATOM     65  F   UNL A   1      46.397  30.083  33.908  1.00  0.00    -0.203 F 
ATOM     66  F   UNL A   1      46.184  25.427  36.745  1.00  0.00    -0.200 F 
ATOM     67  C   UNL A   1      47.419  27.277  35.955  1.00  0.00     0.200 A 
ATOM     68  F   UNL A   1      48.609  29.152  35.154  1.00  0.00    -0.200 F 
ATOM     69  F   UNL A   1      48.513  26.839  36.594  1.00  0.00    -0.200 F 
ENDBRANCH  45  59
BRANCH  46  70
ATOM     70  C   UNL A   1      37.158  31.152  29.365  1.00  0.00     0.064 A 
ATOM     71  C   UNL A   1      36.140  30.241  29.046  1.00  0.00     0.173 A 
ATOM     72  C   UNL A   1      37.015  32.471  28.909  1.00  0.00     0.173 A 
ATOM     73  F   UNL A   1      36.240  28.961  29.435  1.00  0.00    -0.203 F 
ATOM     74  C   UNL A   1      35.041  30.627  28.280  1.00  0.00     0.198 A 
ATOM     75  C   UNL A   1      35.900  32.864  28.173  1.00  0.00     0.198 A 
ATOM     76  F   UNL A   1      37.962  33.382  29.182  1.00  0.00    -0.203 F 
ATOM     77  F   UNL A   1      34.113  29.722  27.940  1.00  0.00    -0.200 F 
ATOM     78  C   UNL A   1      34.919  31.940  27.850  1.00  0.00     0.200 A 
ATOM     79  F   UNL A   1      35.781  34.137  27.771  1.00  0.00    -0.200 F 
ATOM     80  F   UNL A   1      33.863  32.312  27.115  1.00  0.00    -0.200 F 
ENDBRANCH  46  70
BRANCH  58  81
ATOM     81  C   UNL A   1      39.261  32.220  35.923  1.00  0.00     0.064 A 
ATOM     82  C   UNL A   1      39.573  33.572  36.139  1.00  0.00     0.173 A 
ATOM     83  C   UNL A   1      38.354  31.612  36.805  1.00  0.00     0.173 A 
ATOM     84  F   UNL A   1      40.443  34.201  35.333  1.00  0.00    -0.203 F 
ATOM     85  C   UNL A   1      39.035  34.269  37.217  1.00  0.00     0.198 A 
ATOM     86  C   UNL A   1      37.788  32.323  37.859  1.00  0.00     0.198 A 
ATOM     87  F   UNL A   1      38.010  30.326  36.640  1.00  0.00    -0.203 F 
ATOM     88  F   UNL A   1      39.403  35.539  37.442  1.00  0.00    -0.200 F 
ATOM     89  C   UNL A   1      38.140  33.647  38.073  1.00  0.00     0.200 A 
ATOM     90  F   UNL A   1      36.908  31.725  38.673  1.00  0.00    -0.200 F 
ATOM     91  F   UNL A   1      37.623  34.320  39.110  1.00  0.00    -0.200 F 
ENDBRANCH  58  81
ENDBRANCH  32  33
ENDBRANCH  25  27
ENDBRANCH  24  25
ENDBRANCH  23  24
ENDBRANCH  22  23
ENDBRANCH  21  22
ENDBRANCH  20  21
ENDBRANCH   1  20
TORSDOF 20
ENDMDL
MODEL 3
REMARK VINA RESULT:      -8.9      5.484      8.845
REMARK SMILES C[N@H+]1CCO[C@](C)(C(=O)OCCOCCOCCOCCOC(=O)c2ccc(-c3c4nc(c(-c5c(F)c(F)c(F)c(F)c5F)c5ccc([nH]5)c(-c5c(F)c(F)c(F)c(F)c5F)c5nc(c(-c6c(F)c(F)c(F)c(F)c6F)c6ccc3[nH]6)C=C5)C=C4)cc2)C1
REMARK SMILES IDX 17 1 16 2 15 3 14 4 13 5 12 6 11 7 10 8 8 9 9 10 6 11 1 12
REMARK SMILES IDX 2 13 3 14 88 15 4 17 5 18 7 19 18 20 19 21 20 22 21 23 22 24
REMARK SMILES IDX 23 25 24 26 25 27 26 28 87 29 27 30 86 31 28 32 29 33 30 34
REMARK SMILES IDX 80 35 31 36 85 37 79 38 81 39 32 40 84 41 78 42 77 43 33 45
REMARK SMILES IDX 65 46 45 47 64 48 46 49 49 50 63 51 82 52 47 53 48 54 62 56
REMARK SMILES IDX 83 57 50 58 34 59 35 60 43 61 36 62 37 63 41 64 44 65 38 66
REMARK SMILES IDX 39 67 42 68 40 69 66 70 67 71 75 72 68 73 69 74 73 75 76 76
REMARK SMILES IDX 70 77 71 78 74 79 72 80 51 81 52 82 60 83 53 84 54 85 58 86
REMARK SMILES IDX 61 87 55 88 56 89 59 90 57 91
REMARK H PARENT 2 16 81 44 49 55
REMARK Flexibility Score: inf
ROOT
ATOM      1  C   UNL A   1      45.799  22.905  24.383  1.00  0.00     0.188 C 
ENDROOT
BRANCH   1   2
ATOM      2  O   UNL A   1      46.585  24.058  24.098  1.00  0.00    -0.377 OA
BRANCH   2   3
ATOM      3  C   UNL A   1      47.041  24.844  25.183  1.00  0.00     0.188 C 
BRANCH   3   4
ATOM      4  C   UNL A   1      47.538  26.241  24.794  1.00  0.00     0.188 C 
BRANCH   4   5
ATOM      5  O   UNL A   1      46.807  27.037  23.879  1.00  0.00    -0.376 OA
BRANCH   5   6
ATOM      6  C   UNL A   1      47.414  28.055  23.100  1.00  0.00     0.202 C 
BRANCH   6   7
ATOM      7  C   UNL A   1      48.234  27.827  21.816  1.00  0.00     0.261 C 
BRANCH   7   8
ATOM      8  O   UNL A   1      49.667  27.811  21.912  1.00  0.00    -0.461 OA
BRANCH   8   9
ATOM      9  C   UNL A   1      50.299  28.622  21.028  1.00  0.00     0.344 C 
ATOM     10  O   UNL A   1      50.044  29.822  20.925  1.00  0.00    -0.249 OA
BRANCH   9  11
ATOM     11  C   UNL A   1      51.342  27.921  20.128  1.00  0.00     0.211 C 
ATOM     12  C   UNL A   1      54.323  27.276  18.834  1.00  0.00     0.332 C 
ATOM     13  N   UNL A   1      53.299  28.241  18.463  1.00  0.00    -0.333 N 
ATOM     14  C   UNL A   1      52.387  27.716  17.431  1.00  0.00     0.290 C 
ATOM     15  C   UNL A   1      52.525  28.785  19.609  1.00  0.00     0.310 C 
ATOM     16  H   UNL A   1      53.822  29.026  18.072  1.00  0.00     0.348 HD
ATOM     17  C   UNL A   1      51.273  26.815  17.981  1.00  0.00     0.223 C 
ATOM     18  O   UNL A   1      50.534  27.452  19.020  1.00  0.00    -0.353 OA
ATOM     19  C   UNL A   1      51.850  26.755  20.986  1.00  0.00     0.061 C 
ENDBRANCH   9  11
ENDBRANCH   8   9
ENDBRANCH   7   8
ENDBRANCH   6   7
ENDBRANCH   5   6
ENDBRANCH   4   5
ENDBRANCH   3   4
ENDBRANCH   2   3
ENDBRANCH   1   2
BRANCH   1  20
ATOM     20  C   UNL A   1      44.268  22.973  24.218  1.00  0.00     0.188 C 
BRANCH  20  21
ATOM     21  O   UNL A   1      43.575  21.841  24.723  1.00  0.00    -0.376 OA
BRANCH  21  22
ATOM     22  C   UNL A   1      42.967  21.929  26.005  1.00  0.00     0.202 C 
BRANCH  22  23
ATOM     23  C   UNL A   1      41.576  21.297  26.178  1.00  0.00     0.261 C 
BRANCH  23  24
ATOM     24  O   UNL A   1      40.674  21.977  27.070  1.00  0.00    -0.460 OA
BRANCH  24  25
ATOM     25  C   UNL A   1      39.629  22.638  26.530  1.00  0.00     0.338 C 
ATOM     26  O   UNL A   1      38.694  22.167  25.917  1.00  0.00    -0.246 OA
BRANCH  25  27
ATOM     27  C   UNL A   1      39.697  24.045  26.984  1.00  0.00     0.060 A 
ATOM     28  C   UNL A   1      40.244  24.997  26.116  1.00  0.00     0.016 A 
ATOM     29  C   UNL A   1      39.261  24.416  28.259  1.00  0.00     0.016 A 
ATOM     30  C   UNL A   1      40.404  26.316  26.539  1.00  0.00     0.010 A 
ATOM     31  C   UNL A   1      39.440  25.735  28.689  1.00  0.00     0.010 A 
ATOM     32  C   UNL A   1      40.051  26.680  27.845  1.00  0.00    -0.014 A 
BRANCH  32  33
ATOM     33  C   UNL A   1      40.499  27.996  28.368  1.00  0.00     0.031 A 
ATOM     34  C   UNL A   1      41.976  28.268  28.465  1.00  0.00     0.074 A 
ATOM     35  C   UNL A   1      39.614  28.957  28.684  1.00  0.00     0.049 A 
ATOM     36  N   UNL A   1      42.601  29.350  28.859  1.00  0.00    -0.248 NA
ATOM     37  C   UNL A   1      42.872  27.172  28.059  1.00  0.00     0.031 C 
ATOM     38  C   UNL A   1      38.161  28.829  28.593  1.00  0.00     0.029 A 
ATOM     39  N   UNL A   1      39.813  30.236  29.139  1.00  0.00    -0.354 N 
ATOM     40  C   UNL A   1      43.956  29.064  28.748  1.00  0.00     0.074 A 
ATOM     41  C   UNL A   1      44.066  27.698  28.287  1.00  0.00     0.031 C 
ATOM     42  C   UNL A   1      37.598  29.985  28.985  1.00  0.00     0.029 A 
ATOM     43  C   UNL A   1      38.648  30.922  29.380  1.00  0.00     0.049 A 
ATOM     44  H   UNL A   1      40.706  30.625  29.282  1.00  0.00     0.167 HD
ATOM     45  C   UNL A   1      45.014  29.872  28.997  1.00  0.00     0.037 A 
ATOM     46  C   UNL A   1      38.456  32.160  29.877  1.00  0.00     0.037 A 
ATOM     47  C   UNL A   1      44.903  31.232  29.459  1.00  0.00     0.049 A 
ATOM     48  C   UNL A   1      39.652  33.014  30.215  1.00  0.00     0.074 A 
ATOM     49  C   UNL A   1      45.914  32.139  29.723  1.00  0.00     0.029 A 
ATOM     50  N   UNL A   1      43.707  31.878  29.735  1.00  0.00    -0.354 N 
ATOM     51  N   UNL A   1      40.929  32.750  30.078  1.00  0.00    -0.248 NA
ATOM     52  C   UNL A   1      39.377  34.347  30.770  1.00  0.00     0.031 C 
ATOM     53  C   UNL A   1      45.334  33.309  30.221  1.00  0.00     0.029 A 
ATOM     54  C   UNL A   1      43.957  33.160  30.199  1.00  0.00     0.049 A 
ATOM     55  H   UNL A   1      42.812  31.484  29.619  1.00  0.00     0.167 HD
ATOM     56  C   UNL A   1      41.606  33.888  30.499  1.00  0.00     0.074 A 
ATOM     57  C   UNL A   1      40.596  34.855  30.875  1.00  0.00     0.031 C 
ATOM     58  C   UNL A   1      42.942  34.113  30.572  1.00  0.00     0.037 A 
BRANCH  45  59
ATOM     59  C   UNL A   1      46.388  29.298  28.805  1.00  0.00     0.064 A 
ATOM     60  C   UNL A   1      47.069  29.394  27.581  1.00  0.00     0.173 A 
ATOM     61  C   UNL A   1      47.050  28.673  29.873  1.00  0.00     0.173 A 
ATOM     62  F   UNL A   1      46.476  29.967  26.522  1.00  0.00    -0.203 F 
ATOM     63  C   UNL A   1      48.348  28.864  27.429  1.00  0.00     0.198 A 
ATOM     64  C   UNL A   1      48.341  28.175  29.727  1.00  0.00     0.198 A 
ATOM     65  F   UNL A   1      46.447  28.556  31.067  1.00  0.00    -0.203 F 
ATOM     66  F   UNL A   1      48.958  28.924  26.237  1.00  0.00    -0.200 F 
ATOM     67  C   UNL A   1      48.986  28.263  28.502  1.00  0.00     0.200 A 
ATOM     68  F   UNL A   1      48.961  27.607  30.770  1.00  0.00    -0.200 F 
ATOM     69  F   UNL A   1      50.221  27.764  28.357  1.00  0.00    -0.200 F 
ENDBRANCH  45  59
BRANCH  46  70
ATOM     70  C   UNL A   1      37.075  32.668  30.103  1.00  0.00     0.064 A 
ATOM     71  C   UNL A   1      36.404  33.413  29.122  1.00  0.00     0.173 A 
ATOM     72  C   UNL A   1      36.412  32.449  31.320  1.00  0.00     0.173 A 
ATOM     73  F   UNL A   1      37.005  33.674  27.952  1.00  0.00    -0.203 F 
ATOM     74  C   UNL A   1      35.135  33.940  29.360  1.00  0.00     0.198 A 
ATOM     75  C   UNL A   1      35.131  32.947  31.543  1.00  0.00     0.198 A 
ATOM     76  F   UNL A   1      37.010  31.746  32.294  1.00  0.00    -0.203 F 
ATOM     77  F   UNL A   1      34.542  34.698  28.428  1.00  0.00    -0.200 F 
ATOM     78  C   UNL A   1      34.497  33.701  30.568  1.00  0.00     0.200 A 
ATOM     79  F   UNL A   1      34.513  32.701  32.707  1.00  0.00    -0.200 F 
ATOM     80  F   UNL A   1      33.278  34.206  30.796  1.00  0.00    -0.200 F 
ENDBRANCH  46  70
BRANCH  58  81
ATOM     81  C   UNL A   1      43.387  35.472  31.042  1.00  0.00     0.064 A 
ATOM     82  C   UNL A   1      43.531  35.773  32.406  1.00  0.00     0.173 A 
ATOM     83  C   UNL A   1      43.687  36.482  30.115  1.00  0.00     0.173 A 
ATOM     84  F   UNL A   1      43.248  34.847  33.336  1.00  0.00    -0.203 F 
ATOM     85  C   UNL A   1      43.914  37.045  32.823  1.00  0.00     0.198 A 
ATOM     86  C   UNL A   1      44.107  37.741  30.535  1.00  0.00     0.198 A 
ATOM     87  F   UNL A   1      43.579  36.247  28.800  1.00  0.00    -0.203 F 
ATOM     88  F   UNL A   1      43.976  37.329  34.132  1.00  0.00    -0.200 F 
ATOM     89  C   UNL A   1      44.206  38.026  31.888  1.00  0.00     0.200 A 
ATOM     90  F   UNL A   1      44.407  38.681  29.629  1.00  0.00    -0.200 F 
ATOM     91  F   UNL A   1      44.575  39.250  32.291  1.00  0.00    -0.200 F 
ENDBRANCH  58  81
ENDBRANCH  32  33
ENDBRANCH  25  27
ENDBRANCH  24  25
ENDBRANCH  23  24
ENDBRANCH  22  23
ENDBRANCH  21  22
ENDBRANCH  20  21
ENDBRANCH   1  20
TORSDOF 20
ENDMDL
