MODEL 1
REMARK VINA RESULT:     -11.2      0.000      0.000
REMARK SMILES Cc1cc(C)c(S(=O)(=O)Nc2ccc(N3CC[NH+](C)CC3)c(C(=O)OCCOCCOCCOCCOC(=O)c3ccc(-c4c5nc(c(-c6c(F)c(F)c(F)c(F)c6F)c6ccc([nH]6)c(-c6c(F)c(F)c(F)c(F)c6F)c6nc(c(-c7c(F)c(F)c(F)c(F)c7F)c7ccc4[nH]7)C=C6)C=C5)cc3)c2)c(C)c1
REMARK SMILES IDX 30 1 29 2 28 3 27 4 26 5 25 6 23 7 24 8 22 9 11 10 12 11
REMARK SMILES IDX 103 12 13 13 14 14 10 15 7 17 8 18 9 19 6 20 1 21 2 22 3 23
REMARK SMILES IDX 106 24 4 25 104 26 5 27 105 28 15 29 16 30 21 31 17 32 20 33
REMARK SMILES IDX 18 34 19 35 31 37 32 38 33 39 34 40 35 41 36 42 37 43 38 44
REMARK SMILES IDX 39 45 40 46 41 47 102 48 42 49 101 50 43 51 44 52 45 53
REMARK SMILES IDX 95 54 46 55 100 56 94 57 96 58 47 59 99 60 93 61 92 62 48 64
REMARK SMILES IDX 80 65 60 66 79 67 61 68 64 69 78 70 97 71 62 72 63 73 77 75
REMARK SMILES IDX 98 76 65 77 49 78 50 79 58 80 51 81 52 82 56 83 59 84 53 85
REMARK SMILES IDX 54 86 57 87 55 88 81 89 82 90 90 91 83 92 84 93 88 94 91 95
REMARK SMILES IDX 85 96 86 97 89 98 87 99 66 100 67 101 75 102 68 103 69 104
REMARK SMILES IDX 73 105 76 106 70 107 71 108 74 109 72 110
REMARK H PARENT 10 16 18 36 96 63 64 74
REMARK Flexibility Score: inf
ROOT
ATOM      1  C   UNL A   1      38.370  22.115  25.270  1.00  0.00     0.188 C 
ENDROOT
BRANCH   1   2
ATOM      2  C   UNL A   1      37.846  23.357  26.008  1.00  0.00     0.188 C 
BRANCH   2   3
ATOM      3  O   UNL A   1      36.440  23.511  25.966  1.00  0.00    -0.376 OA
BRANCH   3   4
ATOM      4  C   UNL A   1      35.626  23.061  27.035  1.00  0.00     0.202 C 
BRANCH   4   5
ATOM      5  C   UNL A   1      34.126  22.731  26.930  1.00  0.00     0.261 C 
BRANCH   5   6
ATOM      6  O   UNL A   1      33.789  21.422  26.486  1.00  0.00    -0.460 OA
BRANCH   6   7
ATOM      7  C   UNL A   1      34.327  20.990  25.322  1.00  0.00     0.340 C 
ATOM      8  O   UNL A   1      35.401  20.426  25.187  1.00  0.00    -0.246 OA
BRANCH   7   9
ATOM      9  C   UNL A   1      33.336  21.276  24.250  1.00  0.00     0.085 A 
ATOM     10  C   UNL A   1      32.473  22.955  22.763  1.00  0.00     0.050 A 
ATOM     11  C   UNL A   1      31.764  21.965  22.080  1.00  0.00     0.029 A 
ATOM     12  C   UNL A   1      33.118  22.630  23.941  1.00  0.00     0.044 A 
ATOM     13  C   UNL A   1      31.852  20.627  22.480  1.00  0.00     0.029 A 
ATOM     14  C   UNL A   1      32.686  20.246  23.537  1.00  0.00     0.052 A 
BRANCH  10  15
ATOM     15  N   UNL A   1      32.702  24.175  22.075  1.00  0.00    -0.280 N 
ATOM     16  H   UNL A   1      32.516  24.173  21.108  1.00  0.00     0.180 HD
BRANCH  15  17
ATOM     17  S   UNL A   1      33.252  25.619  22.722  1.00  0.00     0.262 S 
ATOM     18  O   UNL A   1      33.976  26.276  21.651  1.00  0.00    -0.201 OA
ATOM     19  O   UNL A   1      33.925  25.244  23.949  1.00  0.00    -0.201 OA
BRANCH  17  20
ATOM     20  C   UNL A   1      31.906  26.731  23.203  1.00  0.00     0.093 A 
ATOM     21  C   UNL A   1      28.460  29.266  22.576  1.00  0.00     0.044 C 
ATOM     22  C   UNL A   1      29.660  28.411  22.858  1.00  0.00    -0.051 A 
ATOM     23  C   UNL A   1      30.944  28.910  22.662  1.00  0.00     0.008 A 
ATOM     24  C   UNL A   1      29.526  27.141  23.423  1.00  0.00     0.008 A 
ATOM     25  C   UNL A   1      32.074  28.093  22.846  1.00  0.00    -0.030 A 
ATOM     26  C   UNL A   1      30.640  26.299  23.643  1.00  0.00    -0.030 A 
ATOM     27  C   UNL A   1      33.417  28.778  22.795  1.00  0.00     0.046 C 
ATOM     28  C   UNL A   1      30.385  25.056  24.449  1.00  0.00     0.046 C 
ENDBRANCH  17  20
ENDBRANCH  15  17
ENDBRANCH  10  15
BRANCH  14  29
ATOM     29  N   UNL A   1      32.838  18.916  23.848  1.00  0.00    -0.360 N 
ATOM     30  C   UNL A   1      32.282  18.323  25.063  1.00  0.00     0.178 C 
ATOM     31  C   UNL A   1      33.201  17.945  22.814  1.00  0.00     0.178 C 
ATOM     32  C   UNL A   1      33.321  17.328  25.641  1.00  0.00     0.283 C 
ATOM     33  C   UNL A   1      34.178  16.895  23.406  1.00  0.00     0.283 C 
ATOM     34  N   UNL A   1      33.725  16.273  24.682  1.00  0.00    -0.334 N 
ATOM     35  C   UNL A   1      34.829  15.497  25.260  1.00  0.00     0.332 C 
ATOM     36  H   UNL A   1      32.930  15.662  24.494  1.00  0.00     0.347 HD
ENDBRANCH  14  29
ENDBRANCH   7   9
ENDBRANCH   6   7
ENDBRANCH   5   6
ENDBRANCH   4   5
ENDBRANCH   3   4
ENDBRANCH   2   3
ENDBRANCH   1   2
BRANCH   1  37
ATOM     37  O   UNL A   1      38.816  21.100  26.145  1.00  0.00    -0.377 OA
BRANCH  37  38
ATOM     38  C   UNL A   1      39.988  20.388  25.765  1.00  0.00     0.188 C 
BRANCH  38  39
ATOM     39  C   UNL A   1      41.398  20.773  26.288  1.00  0.00     0.188 C 
BRANCH  39  40
ATOM     40  O   UNL A   1      42.456  19.892  25.932  1.00  0.00    -0.376 OA
BRANCH  40  41
ATOM     41  C   UNL A   1      43.506  20.386  25.114  1.00  0.00     0.202 C 
BRANCH  41  42
ATOM     42  C   UNL A   1      44.147  21.706  25.565  1.00  0.00     0.261 C 
BRANCH  42  43
ATOM     43  O   UNL A   1      43.523  22.896  25.058  1.00  0.00    -0.460 OA
BRANCH  43  44
ATOM     44  C   UNL A   1      44.222  24.048  25.158  1.00  0.00     0.338 C 
ATOM     45  O   UNL A   1      45.163  24.403  24.473  1.00  0.00    -0.246 OA
BRANCH  44  46
ATOM     46  C   UNL A   1      43.502  24.925  26.103  1.00  0.00     0.060 A 
ATOM     47  C   UNL A   1      44.005  26.212  26.331  1.00  0.00     0.016 A 
ATOM     48  C   UNL A   1      42.318  24.506  26.717  1.00  0.00     0.016 A 
ATOM     49  C   UNL A   1      43.344  27.073  27.201  1.00  0.00     0.010 A 
ATOM     50  C   UNL A   1      41.671  25.360  27.612  1.00  0.00     0.010 A 
ATOM     51  C   UNL A   1      42.203  26.632  27.883  1.00  0.00    -0.014 A 
BRANCH  51  52
ATOM     52  C   UNL A   1      41.715  27.431  29.030  1.00  0.00     0.031 A 
ATOM     53  C   UNL A   1      42.481  27.360  30.319  1.00  0.00     0.074 A 
ATOM     54  C   UNL A   1      40.662  28.256  28.908  1.00  0.00     0.049 A 
ATOM     55  N   UNL A   1      42.294  28.011  31.438  1.00  0.00    -0.248 NA
ATOM     56  C   UNL A   1      43.618  26.425  30.348  1.00  0.00     0.031 C 
ATOM     57  C   UNL A   1      39.859  28.427  27.701  1.00  0.00     0.029 A 
ATOM     58  N   UNL A   1      40.094  29.107  29.821  1.00  0.00    -0.354 N 
ATOM     59  C   UNL A   1      43.296  27.576  32.296  1.00  0.00     0.074 A 
ATOM     60  C   UNL A   1      44.056  26.570  31.587  1.00  0.00     0.031 C 
ATOM     61  C   UNL A   1      38.890  29.326  27.951  1.00  0.00     0.029 A 
ATOM     62  C   UNL A   1      38.998  29.776  29.338  1.00  0.00     0.049 A 
ATOM     63  H   UNL A   1      40.440  29.228  30.735  1.00  0.00     0.167 HD
ATOM     64  C   UNL A   1      43.567  27.990  33.557  1.00  0.00     0.037 A 
ATOM     65  C   UNL A   1      38.172  30.642  29.956  1.00  0.00     0.037 A 
ATOM     66  C   UNL A   1      42.790  28.971  34.268  1.00  0.00     0.049 A 
ATOM     67  C   UNL A   1      38.450  31.038  31.382  1.00  0.00     0.074 A 
ATOM     68  C   UNL A   1      42.979  29.461  35.548  1.00  0.00     0.029 A 
ATOM     69  N   UNL A   1      41.659  29.598  33.763  1.00  0.00    -0.354 N 
ATOM     70  N   UNL A   1      39.419  30.652  32.178  1.00  0.00    -0.248 NA
ATOM     71  C   UNL A   1      37.525  32.004  31.991  1.00  0.00     0.031 C 
ATOM     72  C   UNL A   1      41.929  30.340  35.838  1.00  0.00     0.029 A 
ATOM     73  C   UNL A   1      41.122  30.450  34.716  1.00  0.00     0.049 A 
ATOM     74  H   UNL A   1      41.293  29.459  32.860  1.00  0.00     0.167 HD
ATOM     75  C   UNL A   1      39.231  31.337  33.373  1.00  0.00     0.074 A 
ATOM     76  C   UNL A   1      38.071  32.185  33.186  1.00  0.00     0.031 C 
ATOM     77  C   UNL A   1      39.952  31.271  34.522  1.00  0.00     0.037 A 
BRANCH  64  78
ATOM     78  C   UNL A   1      44.736  27.347  34.247  1.00  0.00     0.064 A 
ATOM     79  C   UNL A   1      44.590  26.180  35.014  1.00  0.00     0.173 A 
ATOM     80  C   UNL A   1      46.016  27.911  34.153  1.00  0.00     0.173 A 
ATOM     81  F   UNL A   1      43.384  25.608  35.154  1.00  0.00    -0.203 F 
ATOM     82  C   UNL A   1      45.674  25.627  35.692  1.00  0.00     0.198 A 
ATOM     83  C   UNL A   1      47.104  27.337  34.805  1.00  0.00     0.198 A 
ATOM     84  F   UNL A   1      46.213  29.027  33.434  1.00  0.00    -0.203 F 
ATOM     85  F   UNL A   1      45.497  24.552  36.473  1.00  0.00    -0.200 F 
ATOM     86  C   UNL A   1      46.930  26.204  35.583  1.00  0.00     0.200 A 
ATOM     87  F   UNL A   1      48.320  27.889  34.689  1.00  0.00    -0.200 F 
ATOM     88  F   UNL A   1      47.972  25.672  36.239  1.00  0.00    -0.200 F 
ENDBRANCH  64  78
BRANCH  65  89
ATOM     89  C   UNL A   1      36.999  31.186  29.223  1.00  0.00     0.064 A 
ATOM     90  C   UNL A   1      37.018  32.472  28.667  1.00  0.00     0.173 A 
ATOM     91  C   UNL A   1      35.834  30.421  29.057  1.00  0.00     0.173 A 
ATOM     92  F   UNL A   1      38.099  33.252  28.820  1.00  0.00    -0.203 F 
ATOM     93  C   UNL A   1      35.913  32.977  27.983  1.00  0.00     0.198 A 
ATOM     94  C   UNL A   1      34.742  30.915  28.348  1.00  0.00     0.198 A 
ATOM     95  F   UNL A   1      35.763  29.186  29.575  1.00  0.00    -0.203 F 
ATOM     96  F   UNL A   1      35.943  34.224  27.495  1.00  0.00    -0.200 F 
ATOM     97  C   UNL A   1      34.780  32.195  27.817  1.00  0.00     0.200 A 
ATOM     98  F   UNL A   1      33.654  30.150  28.179  1.00  0.00    -0.200 F 
ATOM     99  F   UNL A   1      33.723  32.675  27.147  1.00  0.00    -0.200 F 
ENDBRANCH  65  89
BRANCH  77 100
ATOM    100  C   UNL A   1      39.509  32.151  35.659  1.00  0.00     0.064 A 
ATOM    101  C   UNL A   1      38.537  31.732  36.581  1.00  0.00     0.173 A 
ATOM    102  C   UNL A   1      40.067  33.427  35.833  1.00  0.00     0.173 A 
ATOM    103  F   UNL A   1      37.962  30.526  36.455  1.00  0.00    -0.203 F 
ATOM    104  C   UNL A   1      38.107  32.574  37.604  1.00  0.00     0.198 A 
ATOM    105  C   UNL A   1      39.663  34.252  36.879  1.00  0.00     0.198 A 
ATOM    106  F   UNL A   1      41.009  33.875  34.988  1.00  0.00    -0.203 F 
ATOM    107  F   UNL A   1      37.128  32.179  38.428  1.00  0.00    -0.200 F 
ATOM    108  C   UNL A   1      38.674  33.832  37.754  1.00  0.00     0.200 A 
ATOM    109  F   UNL A   1      40.224  35.459  37.033  1.00  0.00    -0.200 F 
ATOM    110  F   UNL A   1      38.258  34.642  38.737  1.00  0.00    -0.200 F 
ENDBRANCH  77 100
ENDBRANCH  51  52
ENDBRANCH  44  46
ENDBRANCH  43  44
ENDBRANCH  42  43
ENDBRANCH  41  42
ENDBRANCH  40  41
ENDBRANCH  39  40
ENDBRANCH  38  39
ENDBRANCH  37  38
ENDBRANCH   1  37
TORSDOF 24
ENDMDL
MODEL 2
REMARK VINA RESULT:     -11.1      4.793     10.559
REMARK SMILES Cc1cc(C)c(S(=O)(=O)Nc2ccc(N3CC[NH+](C)CC3)c(C(=O)OCCOCCOCCOCCOC(=O)c3ccc(-c4c5nc(c(-c6c(F)c(F)c(F)c(F)c6F)c6ccc([nH]6)c(-c6c(F)c(F)c(F)c(F)c6F)c6nc(c(-c7c(F)c(F)c(F)c(F)c7F)c7ccc4[nH]7)C=C6)C=C5)cc3)c2)c(C)c1
REMARK SMILES IDX 30 1 29 2 28 3 27 4 26 5 25 6 23 7 24 8 22 9 11 10 12 11
REMARK SMILES IDX 103 12 13 13 14 14 10 15 7 17 8 18 9 19 6 20 1 21 2 22 3 23
REMARK SMILES IDX 106 24 4 25 104 26 5 27 105 28 15 29 16 30 21 31 17 32 20 33
REMARK SMILES IDX 18 34 19 35 31 37 32 38 33 39 34 40 35 41 36 42 37 43 38 44
REMARK SMILES IDX 39 45 40 46 41 47 102 48 42 49 101 50 43 51 44 52 45 53
REMARK SMILES IDX 95 54 46 55 100 56 94 57 96 58 47 59 99 60 93 61 92 62 48 64
REMARK SMILES IDX 80 65 60 66 79 67 61 68 64 69 78 70 97 71 62 72 63 73 77 75
REMARK SMILES IDX 98 76 65 77 49 78 50 79 58 80 51 81 52 82 56 83 59 84 53 85
REMARK SMILES IDX 54 86 57 87 55 88 81 89 82 90 90 91 83 92 84 93 88 94 91 95
REMARK SMILES IDX 85 96 86 97 89 98 87 99 66 100 67 101 75 102 68 103 69 104
REMARK SMILES IDX 73 105 76 106 70 107 71 108 74 109 72 110
REMARK H PARENT 10 16 18 36 96 63 64 74
REMARK Flexibility Score: inf
ROOT
ATOM      1  C   UNL A   1      33.465  32.183  27.931  1.00  0.00     0.188 C 
ENDROOT
BRANCH   1   2
ATOM      2  C   UNL A   1      33.578  30.759  27.363  1.00  0.00     0.188 C 
BRANCH   2   3
ATOM      3  O   UNL A   1      32.348  30.198  26.945  1.00  0.00    -0.376 OA
BRANCH   3   4
ATOM      4  C   UNL A   1      31.949  28.911  27.384  1.00  0.00     0.202 C 
BRANCH   4   5
ATOM      5  C   UNL A   1      32.276  27.588  26.666  1.00  0.00     0.261 C 
BRANCH   5   6
ATOM      6  O   UNL A   1      31.266  26.587  26.683  1.00  0.00    -0.460 OA
BRANCH   6   7
ATOM      7  C   UNL A   1      30.738  26.199  25.499  1.00  0.00     0.340 C 
ATOM      8  O   UNL A   1      29.552  26.151  25.215  1.00  0.00    -0.246 OA
BRANCH   7   9
ATOM      9  C   UNL A   1      31.878  25.903  24.589  1.00  0.00     0.085 A 
ATOM     10  C   UNL A   1      33.478  24.242  23.915  1.00  0.00     0.050 A 
ATOM     11  C   UNL A   1      33.829  25.043  22.825  1.00  0.00     0.029 A 
ATOM     12  C   UNL A   1      32.629  24.750  24.879  1.00  0.00     0.044 A 
ATOM     13  C   UNL A   1      33.192  26.271  22.616  1.00  0.00     0.029 A 
ATOM     14  C   UNL A   1      32.162  26.701  23.460  1.00  0.00     0.052 A 
BRANCH  10  15
ATOM     15  N   UNL A   1      33.812  22.864  23.835  1.00  0.00    -0.280 N 
ATOM     16  H   UNL A   1      33.227  22.305  23.274  1.00  0.00     0.180 HD
BRANCH  15  17
ATOM     17  S   UNL A   1      35.087  22.082  24.588  1.00  0.00     0.262 S 
ATOM     18  O   UNL A   1      35.222  22.715  25.886  1.00  0.00    -0.201 OA
ATOM     19  O   UNL A   1      36.170  22.127  23.626  1.00  0.00    -0.201 OA
BRANCH  17  20
ATOM     20  C   UNL A   1      34.754  20.328  24.893  1.00  0.00     0.093 A 
ATOM     21  C   UNL A   1      33.412  16.335  23.921  1.00  0.00     0.044 C 
ATOM     22  C   UNL A   1      33.882  17.701  24.325  1.00  0.00    -0.051 A 
ATOM     23  C   UNL A   1      32.969  18.669  24.735  1.00  0.00     0.008 A 
ATOM     24  C   UNL A   1      35.243  18.004  24.404  1.00  0.00     0.008 A 
ATOM     25  C   UNL A   1      33.389  19.977  25.037  1.00  0.00    -0.030 A 
ATOM     26  C   UNL A   1      35.703  19.301  24.727  1.00  0.00    -0.030 A 
ATOM     27  C   UNL A   1      32.357  20.890  25.652  1.00  0.00     0.046 C 
ATOM     28  C   UNL A   1      37.177  19.437  24.988  1.00  0.00     0.046 C 
ENDBRANCH  17  20
ENDBRANCH  15  17
ENDBRANCH  10  15
BRANCH  14  29
ATOM     29  N   UNL A   1      31.480  27.860  23.178  1.00  0.00    -0.360 N 
ATOM     30  C   UNL A   1      32.050  29.185  23.414  1.00  0.00     0.178 C 
ATOM     31  C   UNL A   1      30.336  27.849  22.266  1.00  0.00     0.178 C 
ATOM     32  C   UNL A   1      30.937  30.102  23.983  1.00  0.00     0.283 C 
ATOM     33  C   UNL A   1      29.249  28.827  22.784  1.00  0.00     0.283 C 
ATOM     34  N   UNL A   1      29.744  30.193  23.109  1.00  0.00    -0.334 N 
ATOM     35  C   UNL A   1      28.690  30.935  23.813  1.00  0.00     0.332 C 
ATOM     36  H   UNL A   1      29.992  30.675  22.245  1.00  0.00     0.347 HD
ENDBRANCH  14  29
ENDBRANCH   7   9
ENDBRANCH   6   7
ENDBRANCH   5   6
ENDBRANCH   4   5
ENDBRANCH   3   4
ENDBRANCH   2   3
ENDBRANCH   1   2
BRANCH   1  37
ATOM     37  O   UNL A   1      34.658  32.928  27.794  1.00  0.00    -0.377 OA
BRANCH  37  38
ATOM     38  C   UNL A   1      34.791  34.088  28.607  1.00  0.00     0.188 C 
BRANCH  38  39
ATOM     39  C   UNL A   1      33.661  34.570  29.555  1.00  0.00     0.188 C 
BRANCH  39  40
ATOM     40  O   UNL A   1      34.054  35.468  30.586  1.00  0.00    -0.376 OA
BRANCH  40  41
ATOM     41  C   UNL A   1      34.390  34.936  31.858  1.00  0.00     0.202 C 
BRANCH  41  42
ATOM     42  C   UNL A   1      35.879  34.649  32.096  1.00  0.00     0.261 C 
BRANCH  42  43
ATOM     43  O   UNL A   1      36.173  33.366  32.669  1.00  0.00    -0.460 OA
BRANCH  43  44
ATOM     44  C   UNL A   1      35.614  32.286  32.080  1.00  0.00     0.338 C 
ATOM     45  O   UNL A   1      34.429  32.061  31.921  1.00  0.00    -0.246 OA
BRANCH  44  46
ATOM     46  C   UNL A   1      36.701  31.513  31.447  1.00  0.00     0.060 A 
ATOM     47  C   UNL A   1      37.660  30.914  32.274  1.00  0.00     0.016 A 
ATOM     48  C   UNL A   1      36.746  31.334  30.061  1.00  0.00     0.016 A 
ATOM     49  C   UNL A   1      38.689  30.163  31.714  1.00  0.00     0.010 A 
ATOM     50  C   UNL A   1      37.796  30.604  29.498  1.00  0.00     0.010 A 
ATOM     51  C   UNL A   1      38.788  30.048  30.322  1.00  0.00    -0.014 A 
BRANCH  51  52
ATOM     52  C   UNL A   1      40.051  29.532  29.746  1.00  0.00     0.031 A 
ATOM     53  C   UNL A   1      41.241  30.448  29.714  1.00  0.00     0.074 A 
ATOM     54  C   UNL A   1      40.160  28.260  29.331  1.00  0.00     0.049 A 
ATOM     55  N   UNL A   1      42.467  30.210  29.323  1.00  0.00    -0.248 NA
ATOM     56  C   UNL A   1      41.015  31.822  30.191  1.00  0.00     0.031 C 
ATOM     57  C   UNL A   1      39.083  27.274  29.338  1.00  0.00     0.029 A 
ATOM     58  N   UNL A   1      41.240  27.583  28.823  1.00  0.00    -0.354 N 
ATOM     59  C   UNL A   1      43.159  31.398  29.521  1.00  0.00     0.074 A 
ATOM     60  C   UNL A   1      42.207  32.367  30.018  1.00  0.00     0.031 C 
ATOM     61  C   UNL A   1      39.556  26.114  28.846  1.00  0.00     0.029 A 
ATOM     62  C   UNL A   1      40.960  26.286  28.476  1.00  0.00     0.049 A 
ATOM     63  H   UNL A   1      42.131  27.989  28.719  1.00  0.00     0.167 HD
ATOM     64  C   UNL A   1      44.474  31.652  29.321  1.00  0.00     0.037 A 
ATOM     65  C   UNL A   1      41.749  25.352  27.911  1.00  0.00     0.037 A 
ATOM     66  C   UNL A   1      45.411  30.693  28.799  1.00  0.00     0.049 A 
ATOM     67  C   UNL A   1      43.194  25.677  27.632  1.00  0.00     0.074 A 
ATOM     68  C   UNL A   1      46.764  30.848  28.558  1.00  0.00     0.029 A 
ATOM     69  N   UNL A   1      45.083  29.398  28.417  1.00  0.00    -0.354 N 
ATOM     70  N   UNL A   1      43.853  26.789  27.854  1.00  0.00    -0.248 NA
ATOM     71  C   UNL A   1      44.007  24.608  27.036  1.00  0.00     0.031 C 
ATOM     72  C   UNL A   1      47.242  29.668  27.977  1.00  0.00     0.029 A 
ATOM     73  C   UNL A   1      46.203  28.753  27.916  1.00  0.00     0.049 A 
ATOM     74  H   UNL A   1      44.187  28.998  28.494  1.00  0.00     0.167 HD
ATOM     75  C   UNL A   1      45.159  26.550  27.442  1.00  0.00     0.074 A 
ATOM     76  C   UNL A   1      45.203  25.177  26.983  1.00  0.00     0.031 C 
ATOM     77  C   UNL A   1      46.225  27.391  27.442  1.00  0.00     0.037 A 
BRANCH  64  78
ATOM     78  C   UNL A   1      44.954  33.040  29.639  1.00  0.00     0.064 A 
ATOM     79  C   UNL A   1      45.160  33.466  30.961  1.00  0.00     0.173 A 
ATOM     80  C   UNL A   1      45.197  33.961  28.610  1.00  0.00     0.173 A 
ATOM     81  F   UNL A   1      44.924  32.632  31.985  1.00  0.00    -0.203 F 
ATOM     82  C   UNL A   1      45.553  34.773  31.240  1.00  0.00     0.198 A 
ATOM     83  C   UNL A   1      45.622  35.257  28.891  1.00  0.00     0.198 A 
ATOM     84  F   UNL A   1      45.015  33.608  27.328  1.00  0.00    -0.203 F 
ATOM     85  F   UNL A   1      45.678  35.177  32.513  1.00  0.00    -0.200 F 
ATOM     86  C   UNL A   1      45.788  35.665  30.205  1.00  0.00     0.200 A 
ATOM     87  F   UNL A   1      45.860  36.115  27.889  1.00  0.00    -0.200 F 
ATOM     88  F   UNL A   1      46.162  36.924  30.475  1.00  0.00    -0.200 F 
ENDBRANCH  64  78
BRANCH  65  89
ATOM     89  C   UNL A   1      41.181  24.023  27.568  1.00  0.00     0.064 A 
ATOM     90  C   UNL A   1      40.171  23.886  26.606  1.00  0.00     0.173 A 
ATOM     91  C   UNL A   1      41.645  22.857  28.196  1.00  0.00     0.173 A 
ATOM     92  F   UNL A   1      39.675  24.974  25.996  1.00  0.00    -0.203 F 
ATOM     93  C   UNL A   1      39.641  22.636  26.292  1.00  0.00     0.198 A 
ATOM     94  C   UNL A   1      41.136  21.605  27.860  1.00  0.00     0.198 A 
ATOM     95  F   UNL A   1      42.607  22.933  29.128  1.00  0.00    -0.203 F 
ATOM     96  F   UNL A   1      38.649  22.537  25.396  1.00  0.00    -0.200 F 
ATOM     97  C   UNL A   1      40.130  21.496  26.912  1.00  0.00     0.200 A 
ATOM     98  F   UNL A   1      41.621  20.505  28.453  1.00  0.00    -0.200 F 
ATOM     99  F   UNL A   1      39.630  20.293  26.599  1.00  0.00    -0.200 F 
ENDBRANCH  65  89
BRANCH  77 100
ATOM    100  C   UNL A   1      47.532  26.838  26.940  1.00  0.00     0.064 A 
ATOM    101  C   UNL A   1      48.379  26.082  27.765  1.00  0.00     0.173 A 
ATOM    102  C   UNL A   1      47.939  27.062  25.615  1.00  0.00     0.173 A 
ATOM    103  F   UNL A   1      48.044  25.847  29.043  1.00  0.00    -0.203 F 
ATOM    104  C   UNL A   1      49.604  25.612  27.298  1.00  0.00     0.198 A 
ATOM    105  C   UNL A   1      49.147  26.559  25.140  1.00  0.00     0.198 A 
ATOM    106  F   UNL A   1      47.164  27.769  24.779  1.00  0.00    -0.203 F 
ATOM    107  F   UNL A   1      50.427  24.954  28.124  1.00  0.00    -0.200 F 
ATOM    108  C   UNL A   1      49.985  25.847  25.984  1.00  0.00     0.200 A 
ATOM    109  F   UNL A   1      49.505  26.773  23.866  1.00  0.00    -0.200 F 
ATOM    110  F   UNL A   1      51.165  25.398  25.537  1.00  0.00    -0.200 F 
ENDBRANCH  77 100
ENDBRANCH  51  52
ENDBRANCH  44  46
ENDBRANCH  43  44
ENDBRANCH  42  43
ENDBRANCH  41  42
ENDBRANCH  40  41
ENDBRANCH  39  40
ENDBRANCH  38  39
ENDBRANCH  37  38
ENDBRANCH   1  37
TORSDOF 24
ENDMDL
MODEL 3
REMARK VINA RESULT:     -11.1      5.272     10.696
REMARK SMILES Cc1cc(C)c(S(=O)(=O)Nc2ccc(N3CC[NH+](C)CC3)c(C(=O)OCCOCCOCCOCCOC(=O)c3ccc(-c4c5nc(c(-c6c(F)c(F)c(F)c(F)c6F)c6ccc([nH]6)c(-c6c(F)c(F)c(F)c(F)c6F)c6nc(c(-c7c(F)c(F)c(F)c(F)c7F)c7ccc4[nH]7)C=C6)C=C5)cc3)c2)c(C)c1
REMARK SMILES IDX 30 1 29 2 28 3 27 4 26 5 25 6 23 7 24 8 22 9 11 10 12 11
REMARK SMILES IDX 103 12 13 13 14 14 10 15 7 17 8 18 9 19 6 20 1 21 2 22 3 23
REMARK SMILES IDX 106 24 4 25 104 26 5 27 105 28 15 29 16 30 21 31 17 32 20 33
REMARK SMILES IDX 18 34 19 35 31 37 32 38 33 39 34 40 35 41 36 42 37 43 38 44
REMARK SMILES IDX 39 45 40 46 41 47 102 48 42 49 101 50 43 51 44 52 45 53
REMARK SMILES IDX 95 54 46 55 100 56 94 57 96 58 47 59 99 60 93 61 92 62 48 64
REMARK SMILES IDX 80 65 60 66 79 67 61 68 64 69 78 70 97 71 62 72 63 73 77 75
REMARK SMILES IDX 98 76 65 77 49 78 50 79 58 80 51 81 52 82 56 83 59 84 53 85
REMARK SMILES IDX 54 86 57 87 55 88 81 89 82 90 90 91 83 92 84 93 88 94 91 95
REMARK SMILES IDX 85 96 86 97 89 98 87 99 66 100 67 101 75 102 68 103 69 104
REMARK SMILES IDX 73 105 76 106 70 107 71 108 74 109 72 110
REMARK H PARENT 10 16 18 36 96 63 64 74
REMARK Flexibility Score: inf
ROOT
ATOM      1  C   UNL A   1      36.336  31.441  28.354  1.00  0.00     0.188 C 
ENDROOT
BRANCH   1   2
ATOM      2  C   UNL A   1      36.070  30.020  27.833  1.00  0.00     0.188 C 
BRANCH   2   3
ATOM      3  O   UNL A   1      34.801  29.498  28.179  1.00  0.00    -0.376 OA
BRANCH   3   4
ATOM      4  C   UNL A   1      33.858  29.156  27.179  1.00  0.00     0.202 C 
BRANCH   4   5
ATOM      5  C   UNL A   1      32.464  28.556  27.443  1.00  0.00     0.261 C 
BRANCH   5   6
ATOM      6  O   UNL A   1      31.797  27.977  26.328  1.00  0.00    -0.460 OA
BRANCH   6   7
ATOM      7  C   UNL A   1      31.772  28.677  25.171  1.00  0.00     0.340 C 
ATOM      8  O   UNL A   1      31.541  29.870  25.051  1.00  0.00    -0.246 OA
BRANCH   7   9
ATOM      9  C   UNL A   1      32.138  27.733  24.081  1.00  0.00     0.085 A 
ATOM     10  C   UNL A   1      33.516  25.858  23.480  1.00  0.00     0.050 A 
ATOM     11  C   UNL A   1      32.784  25.717  22.299  1.00  0.00     0.029 A 
ATOM     12  C   UNL A   1      33.298  26.964  24.280  1.00  0.00     0.044 A 
ATOM     13  C   UNL A   1      31.722  26.583  22.016  1.00  0.00     0.029 A 
ATOM     14  C   UNL A   1      31.338  27.572  22.929  1.00  0.00     0.052 A 
BRANCH  10  15
ATOM     15  N   UNL A   1      34.257  24.730  23.918  1.00  0.00    -0.280 N 
ATOM     16  H   UNL A   1      35.145  24.606  23.512  1.00  0.00     0.180 HD
BRANCH  15  17
ATOM     17  S   UNL A   1      33.792  23.584  25.048  1.00  0.00     0.262 S 
ATOM     18  O   UNL A   1      32.420  23.907  25.390  1.00  0.00    -0.201 OA
ATOM     19  O   UNL A   1      34.832  23.613  26.056  1.00  0.00    -0.201 OA
BRANCH  17  20
ATOM     20  C   UNL A   1      33.782  21.900  24.379  1.00  0.00     0.093 A 
ATOM     21  C   UNL A   1      33.193  17.618  24.465  1.00  0.00     0.044 C 
ATOM     22  C   UNL A   1      33.430  19.097  24.375  1.00  0.00    -0.051 A 
ATOM     23  C   UNL A   1      34.612  19.654  24.855  1.00  0.00     0.008 A 
ATOM     24  C   UNL A   1      32.527  19.935  23.715  1.00  0.00     0.008 A 
ATOM     25  C   UNL A   1      34.810  21.046  24.849  1.00  0.00    -0.030 A 
ATOM     26  C   UNL A   1      32.705  21.336  23.669  1.00  0.00    -0.030 A 
ATOM     27  C   UNL A   1      36.193  21.530  25.211  1.00  0.00     0.046 C 
ATOM     28  C   UNL A   1      31.786  22.093  22.750  1.00  0.00     0.046 C 
ENDBRANCH  17  20
ENDBRANCH  15  17
ENDBRANCH  10  15
BRANCH  14  29
ATOM     29  N   UNL A   1      30.228  28.344  22.680  1.00  0.00    -0.360 N 
ATOM     30  C   UNL A   1      30.266  29.520  21.813  1.00  0.00     0.178 C 
ATOM     31  C   UNL A   1      28.885  27.819  22.928  1.00  0.00     0.178 C 
ATOM     32  C   UNL A   1      29.397  30.631  22.457  1.00  0.00     0.283 C 
ATOM     33  C   UNL A   1      27.983  28.946  23.496  1.00  0.00     0.283 C 
ATOM     34  N   UNL A   1      27.998  30.211  22.711  1.00  0.00    -0.334 N 
ATOM     35  C   UNL A   1      27.315  31.263  23.474  1.00  0.00     0.332 C 
ATOM     36  H   UNL A   1      27.522  30.061  21.821  1.00  0.00     0.347 HD
ENDBRANCH  14  29
ENDBRANCH   7   9
ENDBRANCH   6   7
ENDBRANCH   5   6
ENDBRANCH   4   5
ENDBRANCH   3   4
ENDBRANCH   2   3
ENDBRANCH   1   2
BRANCH   1  37
ATOM     37  O   UNL A   1      35.645  32.435  27.625  1.00  0.00    -0.377 OA
BRANCH  37  38
ATOM     38  C   UNL A   1      34.543  33.061  28.271  1.00  0.00     0.188 C 
BRANCH  38  39
ATOM     39  C   UNL A   1      34.420  33.132  29.817  1.00  0.00     0.188 C 
BRANCH  39  40
ATOM     40  O   UNL A   1      34.668  34.403  30.403  1.00  0.00    -0.376 OA
BRANCH  40  41
ATOM     41  C   UNL A   1      34.109  34.684  31.678  1.00  0.00     0.202 C 
BRANCH  41  42
ATOM     42  C   UNL A   1      35.102  34.771  32.845  1.00  0.00     0.261 C 
BRANCH  42  43
ATOM     43  O   UNL A   1      36.417  34.265  32.571  1.00  0.00    -0.460 OA
BRANCH  43  44
ATOM     44  C   UNL A   1      36.658  32.974  32.884  1.00  0.00     0.338 C 
ATOM     45  O   UNL A   1      35.912  32.200  33.455  1.00  0.00    -0.246 OA
BRANCH  44  46
ATOM     46  C   UNL A   1      37.911  32.579  32.210  1.00  0.00     0.060 A 
ATOM     47  C   UNL A   1      38.112  32.990  30.886  1.00  0.00     0.016 A 
ATOM     48  C   UNL A   1      38.898  31.857  32.887  1.00  0.00     0.016 A 
ATOM     49  C   UNL A   1      39.288  32.652  30.224  1.00  0.00     0.010 A 
ATOM     50  C   UNL A   1      40.066  31.493  32.212  1.00  0.00     0.010 A 
ATOM     51  C   UNL A   1      40.246  31.860  30.868  1.00  0.00    -0.014 A 
BRANCH  51  52
ATOM     52  C   UNL A   1      41.318  31.247  30.051  1.00  0.00     0.031 A 
ATOM     53  C   UNL A   1      42.554  32.056  29.783  1.00  0.00     0.074 A 
ATOM     54  C   UNL A   1      41.228  29.978  29.622  1.00  0.00     0.049 A 
ATOM     55  N   UNL A   1      43.652  31.720  29.154  1.00  0.00    -0.248 NA
ATOM     56  C   UNL A   1      42.551  33.435  30.297  1.00  0.00     0.031 C 
ATOM     57  C   UNL A   1      40.091  29.090  29.843  1.00  0.00     0.029 A 
ATOM     58  N   UNL A   1      42.121  29.219  28.908  1.00  0.00    -0.354 N 
ATOM     59  C   UNL A   1      44.472  32.838  29.211  1.00  0.00     0.074 A 
ATOM     60  C   UNL A   1      43.729  33.878  29.889  1.00  0.00     0.031 C 
ATOM     61  C   UNL A   1      40.350  27.902  29.266  1.00  0.00     0.029 A 
ATOM     62  C   UNL A   1      41.663  27.958  28.623  1.00  0.00     0.049 A 
ATOM     63  H   UNL A   1      43.006  29.548  28.628  1.00  0.00     0.167 HD
ATOM     64  C   UNL A   1      45.739  32.981  28.753  1.00  0.00     0.037 A 
ATOM     65  C   UNL A   1      42.237  26.969  27.911  1.00  0.00     0.037 A 
ATOM     66  C   UNL A   1      46.463  31.953  28.053  1.00  0.00     0.049 A 
ATOM     67  C   UNL A   1      43.620  27.172  27.349  1.00  0.00     0.074 A 
ATOM     68  C   UNL A   1      47.750  31.994  27.547  1.00  0.00     0.029 A 
ATOM     69  N   UNL A   1      45.952  30.699  27.744  1.00  0.00    -0.354 N 
ATOM     70  N   UNL A   1      44.407  28.218  27.436  1.00  0.00    -0.248 NA
ATOM     71  C   UNL A   1      44.200  26.048  26.602  1.00  0.00     0.031 C 
ATOM     72  C   UNL A   1      47.996  30.788  26.881  1.00  0.00     0.029 A 
ATOM     73  C   UNL A   1      46.888  29.968  27.028  1.00  0.00     0.049 A 
ATOM     74  H   UNL A   1      45.057  30.378  27.997  1.00  0.00     0.167 HD
ATOM     75  C   UNL A   1      45.578  27.874  26.770  1.00  0.00     0.074 A 
ATOM     76  C   UNL A   1      45.408  26.511  26.311  1.00  0.00     0.031 C 
ATOM     77  C   UNL A   1      46.694  28.619  26.558  1.00  0.00     0.037 A 
BRANCH  64  78
ATOM     78  C   UNL A   1      46.394  34.315  28.969  1.00  0.00     0.064 A 
ATOM     79  C   UNL A   1      47.154  34.588  30.118  1.00  0.00     0.173 A 
ATOM     80  C   UNL A   1      46.249  35.340  28.023  1.00  0.00     0.173 A 
ATOM     81  F   UNL A   1      47.309  33.650  31.065  1.00  0.00    -0.203 F 
ATOM     82  C   UNL A   1      47.709  35.848  30.329  1.00  0.00     0.198 A 
ATOM     83  C   UNL A   1      46.834  36.588  28.221  1.00  0.00     0.198 A 
ATOM     84  F   UNL A   1      45.533  35.135  26.907  1.00  0.00    -0.203 F 
ATOM     85  F   UNL A   1      48.373  36.105  31.465  1.00  0.00    -0.200 F 
ATOM     86  C   UNL A   1      47.552  36.845  29.378  1.00  0.00     0.200 A 
ATOM     87  F   UNL A   1      46.691  37.547  27.295  1.00  0.00    -0.200 F 
ATOM     88  F   UNL A   1      48.084  38.058  29.583  1.00  0.00    -0.200 F 
ENDBRANCH  64  78
BRANCH  65  89
ATOM     89  C   UNL A   1      41.496  25.701  27.687  1.00  0.00     0.064 A 
ATOM     90  C   UNL A   1      40.424  25.631  26.786  1.00  0.00     0.173 A 
ATOM     91  C   UNL A   1      41.852  24.528  28.370  1.00  0.00     0.173 A 
ATOM     92  F   UNL A   1      40.028  26.731  26.129  1.00  0.00    -0.203 F 
ATOM     93  C   UNL A   1      39.732  24.438  26.584  1.00  0.00     0.198 A 
ATOM     94  C   UNL A   1      41.178  23.330  28.145  1.00  0.00     0.198 A 
ATOM     95  F   UNL A   1      42.866  24.544  29.247  1.00  0.00    -0.203 F 
ATOM     96  F   UNL A   1      38.687  24.406  25.746  1.00  0.00    -0.200 F 
ATOM     97  C   UNL A   1      40.115  23.287  27.257  1.00  0.00     0.200 A 
ATOM     98  F   UNL A   1      41.561  22.218  28.788  1.00  0.00    -0.200 F 
ATOM     99  F   UNL A   1      39.458  22.137  27.052  1.00  0.00    -0.200 F 
ENDBRANCH  65  89
BRANCH  77 100
ATOM    100  C   UNL A   1      47.819  27.963  25.804  1.00  0.00     0.064 A 
ATOM    101  C   UNL A   1      48.955  27.464  26.461  1.00  0.00     0.173 A 
ATOM    102  C   UNL A   1      47.760  27.827  24.409  1.00  0.00     0.173 A 
ATOM    103  F   UNL A   1      49.070  27.578  27.793  1.00  0.00    -0.203 F 
ATOM    104  C   UNL A   1      50.007  26.897  25.746  1.00  0.00     0.198 A 
ATOM    105  C   UNL A   1      48.797  27.226  23.700  1.00  0.00     0.198 A 
ATOM    106  F   UNL A   1      46.693  28.276  23.730  1.00  0.00    -0.203 F 
ATOM    107  F   UNL A   1      51.111  26.492  26.388  1.00  0.00    -0.200 F 
ATOM    108  C   UNL A   1      49.925  26.775  24.366  1.00  0.00     0.200 A 
ATOM    109  F   UNL A   1      48.707  27.093  22.369  1.00  0.00    -0.200 F 
ATOM    110  F   UNL A   1      50.939  26.232  23.679  1.00  0.00    -0.200 F 
ENDBRANCH  77 100
ENDBRANCH  51  52
ENDBRANCH  44  46
ENDBRANCH  43  44
ENDBRANCH  42  43
ENDBRANCH  41  42
ENDBRANCH  40  41
ENDBRANCH  39  40
ENDBRANCH  38  39
ENDBRANCH  37  38
ENDBRANCH   1  37
TORSDOF 24
ENDMDL
