MODEL 1
REMARK VINA RESULT:      -9.4      0.000      0.000
REMARK SMILES C/C(=C/C[NH+]1C[C@@H](C)[C@H](C)C1)C(=O)OCCOCCOCCOCCOC(=O)c1ccc(-c2c3nc(c(-c4c(F)c(F)c(F)c(F)c4F)c4ccc([nH]4)c(-c4c(F)c(F)c(F)c(F)c4F)c4nc(c(-c5c(F)c(F)c(F)c(F)c5F)c5ccc2[nH]5)C=C4)C=C3)cc1
REMARK SMILES IDX 20 1 19 2 18 3 17 4 16 5 15 6 14 7 12 8 13 9 2 10 1 11 3 12
REMARK SMILES IDX 4 13 5 14 6 15 11 16 7 18 9 19 8 20 10 21 21 22 22 23 23 24
REMARK SMILES IDX 24 25 25 26 26 27 27 28 28 29 29 30 30 31 91 32 31 33 90 34
REMARK SMILES IDX 32 35 33 36 34 37 84 38 35 39 89 40 83 41 85 42 36 43 88 44
REMARK SMILES IDX 82 45 81 46 37 48 69 49 49 50 68 51 50 52 53 53 67 54 86 55
REMARK SMILES IDX 51 56 52 57 66 59 87 60 54 61 38 62 39 63 47 64 40 65 41 66
REMARK SMILES IDX 45 67 48 68 42 69 43 70 46 71 44 72 70 73 71 74 79 75 72 76
REMARK SMILES IDX 73 77 77 78 80 79 74 80 75 81 78 82 76 83 55 84 56 85 64 86
REMARK SMILES IDX 57 87 58 88 62 89 65 90 59 91 60 92 63 93 61 94
REMARK H PARENT 5 17 85 47 53 58
REMARK Flexibility Score: inf
ROOT
ATOM      1  O   UNL A   1      36.255  24.078  25.378  1.00  0.00    -0.377 OA
ENDROOT
BRANCH   1   2
ATOM      2  C   UNL A   1      34.942  24.228  24.859  1.00  0.00     0.188 C 
BRANCH   2   3
ATOM      3  C   UNL A   1      33.744  23.776  25.723  1.00  0.00     0.188 C 
BRANCH   3   4
ATOM      4  O   UNL A   1      32.495  24.270  25.257  1.00  0.00    -0.376 OA
BRANCH   4   5
ATOM      5  C   UNL A   1      32.134  24.037  23.908  1.00  0.00     0.202 C 
BRANCH   5   6
ATOM      6  C   UNL A   1      30.653  24.159  23.526  1.00  0.00     0.261 C 
BRANCH   6   7
ATOM      7  O   UNL A   1      30.232  25.482  23.194  1.00  0.00    -0.460 OA
BRANCH   7   8
ATOM      8  C   UNL A   1      29.868  26.304  24.199  1.00  0.00     0.333 C 
ATOM      9  O   UNL A   1      29.487  25.955  25.304  1.00  0.00    -0.247 OA
BRANCH   8  10
ATOM     10  C   UNL A   1      30.179  27.716  23.825  1.00  0.00     0.036 C 
ATOM     11  C   UNL A   1      29.062  28.436  23.125  1.00  0.00     0.052 C 
ATOM     12  C   UNL A   1      31.349  28.335  24.090  1.00  0.00     0.044 C 
BRANCH  12  13
ATOM     13  C   UNL A   1      32.592  27.807  24.759  1.00  0.00     0.291 C 
BRANCH  13  14
ATOM     14  N   UNL A   1      32.927  28.467  26.016  1.00  0.00    -0.331 N 
ATOM     15  C   UNL A   1      34.239  28.118  26.549  1.00  0.00     0.266 C 
ATOM     16  C   UNL A   1      32.783  29.923  26.018  1.00  0.00     0.266 C 
ATOM     17  H   UNL A   1      32.211  28.087  26.635  1.00  0.00     0.348 HD
ATOM     18  C   UNL A   1      34.521  29.224  27.552  1.00  0.00     0.049 C 
ATOM     19  C   UNL A   1      33.956  30.460  26.846  1.00  0.00     0.049 C 
ATOM     20  C   UNL A   1      36.011  29.332  27.854  1.00  0.00     0.014 C 
ATOM     21  C   UNL A   1      33.563  31.586  27.795  1.00  0.00     0.014 C 
ENDBRANCH  13  14
ENDBRANCH  12  13
ENDBRANCH   8  10
ENDBRANCH   7   8
ENDBRANCH   6   7
ENDBRANCH   5   6
ENDBRANCH   4   5
ENDBRANCH   3   4
ENDBRANCH   2   3
ENDBRANCH   1   2
BRANCH   1  22
ATOM     22  C   UNL A   1      37.225  23.362  24.618  1.00  0.00     0.188 C 
BRANCH  22  23
ATOM     23  C   UNL A   1      37.091  21.839  24.367  1.00  0.00     0.188 C 
BRANCH  23  24
ATOM     24  O   UNL A   1      37.624  21.009  25.386  1.00  0.00    -0.376 OA
BRANCH  24  25
ATOM     25  C   UNL A   1      38.084  19.722  25.002  1.00  0.00     0.202 C 
BRANCH  25  26
ATOM     26  C   UNL A   1      39.383  19.245  25.663  1.00  0.00     0.261 C 
BRANCH  26  27
ATOM     27  O   UNL A   1      40.363  20.264  25.916  1.00  0.00    -0.460 OA
BRANCH  27  28
ATOM     28  C   UNL A   1      40.778  20.437  27.189  1.00  0.00     0.338 C 
ATOM     29  O   UNL A   1      41.024  19.578  28.017  1.00  0.00    -0.246 OA
BRANCH  28  30
ATOM     30  C   UNL A   1      41.063  21.874  27.353  1.00  0.00     0.060 A 
ATOM     31  C   UNL A   1      40.426  22.807  26.522  1.00  0.00     0.016 A 
ATOM     32  C   UNL A   1      41.926  22.296  28.365  1.00  0.00     0.016 A 
ATOM     33  C   UNL A   1      40.649  24.173  26.709  1.00  0.00     0.010 A 
ATOM     34  C   UNL A   1      42.169  23.658  28.534  1.00  0.00     0.010 A 
ATOM     35  C   UNL A   1      41.543  24.601  27.699  1.00  0.00    -0.014 A 
BRANCH  35  36
ATOM     36  C   UNL A   1      41.959  26.019  27.780  1.00  0.00     0.031 A 
ATOM     37  C   UNL A   1      43.299  26.401  27.223  1.00  0.00     0.074 A 
ATOM     38  C   UNL A   1      41.181  26.942  28.372  1.00  0.00     0.049 A 
ATOM     39  N   UNL A   1      43.940  27.539  27.299  1.00  0.00    -0.248 NA
ATOM     40  C   UNL A   1      44.015  25.349  26.484  1.00  0.00     0.031 C 
ATOM     41  C   UNL A   1      39.842  26.703  28.904  1.00  0.00     0.029 A 
ATOM     42  N   UNL A   1      41.423  28.265  28.643  1.00  0.00    -0.354 N 
ATOM     43  C   UNL A   1      45.137  27.339  26.624  1.00  0.00     0.074 A 
ATOM     44  C   UNL A   1      45.146  25.964  26.171  1.00  0.00     0.031 C 
ATOM     45  C   UNL A   1      39.386  27.840  29.457  1.00  0.00     0.029 A 
ATOM     46  C   UNL A   1      40.420  28.870  29.359  1.00  0.00     0.049 A 
ATOM     47  H   UNL A   1      42.239  28.735  28.353  1.00  0.00     0.167 HD
ATOM     48  C   UNL A   1      46.136  28.224  26.402  1.00  0.00     0.037 A 
ATOM     49  C   UNL A   1      40.365  30.102  29.903  1.00  0.00     0.037 A 
ATOM     50  C   UNL A   1      46.128  29.583  26.873  1.00  0.00     0.049 A 
ATOM     51  C   UNL A   1      41.542  31.033  29.744  1.00  0.00     0.074 A 
ATOM     52  C   UNL A   1      47.086  30.565  26.692  1.00  0.00     0.029 A 
ATOM     53  N   UNL A   1      45.116  30.147  27.636  1.00  0.00    -0.354 N 
ATOM     54  N   UNL A   1      42.662  30.851  29.089  1.00  0.00    -0.248 NA
ATOM     55  C   UNL A   1      41.447  32.340  30.413  1.00  0.00     0.031 C 
ATOM     56  C   UNL A   1      46.681  31.703  27.397  1.00  0.00     0.029 A 
ATOM     57  C   UNL A   1      45.443  31.452  27.966  1.00  0.00     0.049 A 
ATOM     58  H   UNL A   1      44.287  29.688  27.903  1.00  0.00     0.167 HD
ATOM     59  C   UNL A   1      43.392  32.023  29.242  1.00  0.00     0.074 A 
ATOM     60  C   UNL A   1      42.583  32.917  30.044  1.00  0.00     0.031 C 
ATOM     61  C   UNL A   1      44.622  32.332  28.762  1.00  0.00     0.037 A 
BRANCH  48  62
ATOM     62  C   UNL A   1      47.336  27.732  25.647  1.00  0.00     0.064 A 
ATOM     63  C   UNL A   1      47.389  27.756  24.244  1.00  0.00     0.173 A 
ATOM     64  C   UNL A   1      48.454  27.238  26.336  1.00  0.00     0.173 A 
ATOM     65  F   UNL A   1      46.340  28.204  23.537  1.00  0.00    -0.203 F 
ATOM     66  C   UNL A   1      48.501  27.272  23.560  1.00  0.00     0.198 A 
ATOM     67  C   UNL A   1      49.578  26.786  25.650  1.00  0.00     0.198 A 
ATOM     68  F   UNL A   1      48.458  27.194  27.677  1.00  0.00    -0.203 F 
ATOM     69  F   UNL A   1      48.505  27.252  22.221  1.00  0.00    -0.200 F 
ATOM     70  C   UNL A   1      49.596  26.794  24.263  1.00  0.00     0.200 A 
ATOM     71  F   UNL A   1      50.640  26.335  26.331  1.00  0.00    -0.200 F 
ATOM     72  F   UNL A   1      50.667  26.331  23.604  1.00  0.00    -0.200 F 
ENDBRANCH  48  62
BRANCH  49  73
ATOM     73  C   UNL A   1      39.163  30.524  30.670  1.00  0.00     0.064 A 
ATOM     74  C   UNL A   1      39.034  30.212  32.031  1.00  0.00     0.173 A 
ATOM     75  C   UNL A   1      38.115  31.230  30.060  1.00  0.00     0.173 A 
ATOM     76  F   UNL A   1      39.993  29.511  32.651  1.00  0.00    -0.203 F 
ATOM     77  C   UNL A   1      37.896  30.578  32.749  1.00  0.00     0.198 A 
ATOM     78  C   UNL A   1      36.992  31.622  30.786  1.00  0.00     0.198 A 
ATOM     79  F   UNL A   1      38.185  31.545  28.759  1.00  0.00    -0.203 F 
ATOM     80  F   UNL A   1      37.778  30.226  34.036  1.00  0.00    -0.200 F 
ATOM     81  C   UNL A   1      36.880  31.289  32.128  1.00  0.00     0.200 A 
ATOM     82  F   UNL A   1      36.015  32.313  30.185  1.00  0.00    -0.200 F 
ATOM     83  F   UNL A   1      35.789  31.644  32.820  1.00  0.00    -0.200 F 
ENDBRANCH  49  73
BRANCH  61  84
ATOM     84  C   UNL A   1      45.163  33.702  29.059  1.00  0.00     0.064 A 
ATOM     85  C   UNL A   1      45.935  33.958  30.200  1.00  0.00     0.173 A 
ATOM     86  C   UNL A   1      44.960  34.757  28.154  1.00  0.00     0.173 A 
ATOM     87  F   UNL A   1      46.147  32.989  31.105  1.00  0.00    -0.203 F 
ATOM     88  C   UNL A   1      46.471  35.222  30.434  1.00  0.00     0.198 A 
ATOM     89  C   UNL A   1      45.524  36.010  28.375  1.00  0.00     0.198 A 
ATOM     90  F   UNL A   1      44.236  34.564  27.042  1.00  0.00    -0.203 F 
ATOM     91  F   UNL A   1      47.174  35.454  31.552  1.00  0.00    -0.200 F 
ATOM     92  C   UNL A   1      46.274  36.243  29.517  1.00  0.00     0.200 A 
ATOM     93  F   UNL A   1      45.346  36.991  27.478  1.00  0.00    -0.200 F 
ATOM     94  F   UNL A   1      46.805  37.454  29.735  1.00  0.00    -0.200 F 
ENDBRANCH  61  84
ENDBRANCH  35  36
ENDBRANCH  28  30
ENDBRANCH  27  28
ENDBRANCH  26  27
ENDBRANCH  25  26
ENDBRANCH  24  25
ENDBRANCH  23  24
ENDBRANCH  22  23
ENDBRANCH   1  22
TORSDOF 22
ENDMDL
MODEL 2
REMARK VINA RESULT:      -9.4      1.013      2.599
REMARK SMILES C/C(=C/C[NH+]1C[C@@H](C)[C@H](C)C1)C(=O)OCCOCCOCCOCCOC(=O)c1ccc(-c2c3nc(c(-c4c(F)c(F)c(F)c(F)c4F)c4ccc([nH]4)c(-c4c(F)c(F)c(F)c(F)c4F)c4nc(c(-c5c(F)c(F)c(F)c(F)c5F)c5ccc2[nH]5)C=C4)C=C3)cc1
REMARK SMILES IDX 20 1 19 2 18 3 17 4 16 5 15 6 14 7 12 8 13 9 2 10 1 11 3 12
REMARK SMILES IDX 4 13 5 14 6 15 11 16 7 18 9 19 8 20 10 21 21 22 22 23 23 24
REMARK SMILES IDX 24 25 25 26 26 27 27 28 28 29 29 30 30 31 91 32 31 33 90 34
REMARK SMILES IDX 32 35 33 36 34 37 84 38 35 39 89 40 83 41 85 42 36 43 88 44
REMARK SMILES IDX 82 45 81 46 37 48 69 49 49 50 68 51 50 52 53 53 67 54 86 55
REMARK SMILES IDX 51 56 52 57 66 59 87 60 54 61 38 62 39 63 47 64 40 65 41 66
REMARK SMILES IDX 45 67 48 68 42 69 43 70 46 71 44 72 70 73 71 74 79 75 72 76
REMARK SMILES IDX 73 77 77 78 80 79 74 80 75 81 78 82 76 83 55 84 56 85 64 86
REMARK SMILES IDX 57 87 58 88 62 89 65 90 59 91 60 92 63 93 61 94
REMARK H PARENT 5 17 85 47 53 58
REMARK Flexibility Score: inf
ROOT
ATOM      1  O   UNL A   1      36.108  23.502  26.148  1.00  0.00    -0.377 OA
ENDROOT
BRANCH   1   2
ATOM      2  C   UNL A   1      34.688  23.531  26.124  1.00  0.00     0.188 C 
BRANCH   2   3
ATOM      3  C   UNL A   1      33.909  22.346  26.738  1.00  0.00     0.188 C 
BRANCH   3   4
ATOM      4  O   UNL A   1      32.690  22.734  27.356  1.00  0.00    -0.376 OA
BRANCH   4   5
ATOM      5  C   UNL A   1      32.120  23.983  27.009  1.00  0.00     0.202 C 
BRANCH   5   6
ATOM      6  C   UNL A   1      30.966  23.993  25.999  1.00  0.00     0.261 C 
BRANCH   6   7
ATOM      7  O   UNL A   1      31.065  23.003  24.974  1.00  0.00    -0.460 OA
BRANCH   7   8
ATOM      8  C   UNL A   1      31.119  23.419  23.693  1.00  0.00     0.333 C 
ATOM      9  O   UNL A   1      30.278  24.099  23.126  1.00  0.00    -0.247 OA
BRANCH   8  10
ATOM     10  C   UNL A   1      32.455  23.085  23.117  1.00  0.00     0.036 C 
ATOM     11  C   UNL A   1      32.867  21.651  23.287  1.00  0.00     0.052 C 
ATOM     12  C   UNL A   1      33.252  23.966  22.475  1.00  0.00     0.044 C 
BRANCH  12  13
ATOM     13  C   UNL A   1      33.048  25.435  22.207  1.00  0.00     0.291 C 
BRANCH  13  14
ATOM     14  N   UNL A   1      32.556  26.195  23.352  1.00  0.00    -0.331 N 
ATOM     15  C   UNL A   1      33.548  26.422  24.396  1.00  0.00     0.266 C 
ATOM     16  C   UNL A   1      31.903  27.464  23.028  1.00  0.00     0.266 C 
ATOM     17  H   UNL A   1      31.839  25.565  23.712  1.00  0.00     0.348 HD
ATOM     18  C   UNL A   1      32.956  27.562  25.207  1.00  0.00     0.049 C 
ATOM     19  C   UNL A   1      32.332  28.448  24.123  1.00  0.00     0.049 C 
ATOM     20  C   UNL A   1      34.026  28.276  26.025  1.00  0.00     0.014 C 
ATOM     21  C   UNL A   1      31.195  29.329  24.626  1.00  0.00     0.014 C 
ENDBRANCH  13  14
ENDBRANCH  12  13
ENDBRANCH   8  10
ENDBRANCH   7   8
ENDBRANCH   6   7
ENDBRANCH   5   6
ENDBRANCH   4   5
ENDBRANCH   3   4
ENDBRANCH   2   3
ENDBRANCH   1   2
BRANCH   1  22
ATOM     22  C   UNL A   1      36.821  23.381  24.921  1.00  0.00     0.188 C 
BRANCH  22  23
ATOM     23  C   UNL A   1      37.324  22.007  24.411  1.00  0.00     0.188 C 
BRANCH  23  24
ATOM     24  O   UNL A   1      37.541  21.031  25.417  1.00  0.00    -0.376 OA
BRANCH  24  25
ATOM     25  C   UNL A   1      38.036  19.768  25.001  1.00  0.00     0.202 C 
BRANCH  25  26
ATOM     26  C   UNL A   1      39.270  19.247  25.749  1.00  0.00     0.261 C 
BRANCH  26  27
ATOM     27  O   UNL A   1      40.321  20.204  25.955  1.00  0.00    -0.460 OA
BRANCH  27  28
ATOM     28  C   UNL A   1      40.779  20.376  27.213  1.00  0.00     0.338 C 
ATOM     29  O   UNL A   1      41.072  19.516  28.024  1.00  0.00    -0.246 OA
BRANCH  28  30
ATOM     30  C   UNL A   1      41.041  21.818  27.378  1.00  0.00     0.060 A 
ATOM     31  C   UNL A   1      40.371  22.742  26.565  1.00  0.00     0.016 A 
ATOM     32  C   UNL A   1      41.915  22.250  28.377  1.00  0.00     0.016 A 
ATOM     33  C   UNL A   1      40.572  24.110  26.754  1.00  0.00     0.010 A 
ATOM     34  C   UNL A   1      42.135  23.616  28.547  1.00  0.00     0.010 A 
ATOM     35  C   UNL A   1      41.476  24.551  27.729  1.00  0.00    -0.014 A 
BRANCH  35  36
ATOM     36  C   UNL A   1      41.868  25.977  27.809  1.00  0.00     0.031 A 
ATOM     37  C   UNL A   1      43.197  26.383  27.244  1.00  0.00     0.074 A 
ATOM     38  C   UNL A   1      41.077  26.884  28.407  1.00  0.00     0.049 A 
ATOM     39  N   UNL A   1      43.818  27.531  27.317  1.00  0.00    -0.248 NA
ATOM     40  C   UNL A   1      43.928  25.345  26.500  1.00  0.00     0.031 C 
ATOM     41  C   UNL A   1      39.746  26.621  28.947  1.00  0.00     0.029 A 
ATOM     42  N   UNL A   1      41.298  28.211  28.679  1.00  0.00    -0.354 N 
ATOM     43  C   UNL A   1      45.014  27.354  26.635  1.00  0.00     0.074 A 
ATOM     44  C   UNL A   1      45.045  25.980  26.181  1.00  0.00     0.031 C 
ATOM     45  C   UNL A   1      39.273  27.749  29.504  1.00  0.00     0.029 A 
ATOM     46  C   UNL A   1      40.288  28.797  29.401  1.00  0.00     0.049 A 
ATOM     47  H   UNL A   1      42.103  28.696  28.384  1.00  0.00     0.167 HD
ATOM     48  C   UNL A   1      45.996  28.257  26.408  1.00  0.00     0.037 A 
ATOM     49  C   UNL A   1      40.214  30.028  29.947  1.00  0.00     0.037 A 
ATOM     50  C   UNL A   1      45.967  29.615  26.881  1.00  0.00     0.049 A 
ATOM     51  C   UNL A   1      41.373  30.980  29.782  1.00  0.00     0.074 A 
ATOM     52  C   UNL A   1      46.906  30.614  26.695  1.00  0.00     0.029 A 
ATOM     53  N   UNL A   1      44.949  30.159  27.650  1.00  0.00    -0.354 N 
ATOM     54  N   UNL A   1      42.493  30.819  29.120  1.00  0.00    -0.248 NA
ATOM     55  C   UNL A   1      41.260  32.284  30.453  1.00  0.00     0.031 C 
ATOM     56  C   UNL A   1      46.485  31.744  27.403  1.00  0.00     0.029 A 
ATOM     57  C   UNL A   1      45.255  31.471  27.980  1.00  0.00     0.049 A 
ATOM     58  H   UNL A   1      44.130  29.685  27.922  1.00  0.00     0.167 HD
ATOM     59  C   UNL A   1      43.203  32.003  29.270  1.00  0.00     0.074 A 
ATOM     60  C   UNL A   1      42.382  32.882  30.077  1.00  0.00     0.031 C 
ATOM     61  C   UNL A   1      44.424  32.335  28.782  1.00  0.00     0.037 A 
BRANCH  48  62
ATOM     62  C   UNL A   1      47.200  27.787  25.645  1.00  0.00     0.064 A 
ATOM     63  C   UNL A   1      48.357  27.331  26.295  1.00  0.00     0.173 A 
ATOM     64  C   UNL A   1      47.192  27.781  24.241  1.00  0.00     0.173 A 
ATOM     65  F   UNL A   1      48.421  27.331  27.636  1.00  0.00    -0.203 F 
ATOM     66  C   UNL A   1      49.473  26.921  25.571  1.00  0.00     0.198 A 
ATOM     67  C   UNL A   1      48.297  27.339  23.520  1.00  0.00     0.198 A 
ATOM     68  F   UNL A   1      46.111  28.203  23.568  1.00  0.00    -0.203 F 
ATOM     69  F   UNL A   1      50.586  26.546  26.214  1.00  0.00    -0.200 F 
ATOM     70  C   UNL A   1      49.440  26.919  24.184  1.00  0.00     0.200 A 
ATOM     71  F   UNL A   1      48.259  27.326  22.180  1.00  0.00    -0.200 F 
ATOM     72  F   UNL A   1      50.514  26.522  23.488  1.00  0.00    -0.200 F 
ENDBRANCH  48  62
BRANCH  49  73
ATOM     73  C   UNL A   1      39.010  30.427  30.722  1.00  0.00     0.064 A 
ATOM     74  C   UNL A   1      37.901  30.998  30.082  1.00  0.00     0.173 A 
ATOM     75  C   UNL A   1      38.947  30.263  32.114  1.00  0.00     0.173 A 
ATOM     76  F   UNL A   1      37.925  31.205  28.758  1.00  0.00    -0.203 F 
ATOM     77  C   UNL A   1      36.781  31.403  30.806  1.00  0.00     0.198 A 
ATOM     78  C   UNL A   1      37.814  30.640  32.833  1.00  0.00     0.198 A 
ATOM     79  F   UNL A   1      39.985  29.730  32.775  1.00  0.00    -0.203 F 
ATOM     80  F   UNL A   1      35.754  31.988  30.176  1.00  0.00    -0.200 F 
ATOM     81  C   UNL A   1      36.735  31.215  32.180  1.00  0.00     0.200 A 
ATOM     82  F   UNL A   1      37.772  30.453  34.159  1.00  0.00    -0.200 F 
ATOM     83  F   UNL A   1      35.656  31.600  32.875  1.00  0.00    -0.200 F 
ENDBRANCH  49  73
BRANCH  61  84
ATOM     84  C   UNL A   1      44.942  33.714  29.077  1.00  0.00     0.064 A 
ATOM     85  C   UNL A   1      44.625  34.810  28.263  1.00  0.00     0.173 A 
ATOM     86  C   UNL A   1      45.711  33.951  30.228  1.00  0.00     0.173 A 
ATOM     87  F   UNL A   1      43.906  34.635  27.144  1.00  0.00    -0.203 F 
ATOM     88  C   UNL A   1      45.072  36.091  28.580  1.00  0.00     0.198 A 
ATOM     89  C   UNL A   1      46.130  35.237  30.558  1.00  0.00     0.198 A 
ATOM     90  F   UNL A   1      46.036  32.939  31.045  1.00  0.00    -0.203 F 
ATOM     91  F   UNL A   1      44.791  37.118  27.766  1.00  0.00    -0.200 F 
ATOM     92  C   UNL A   1      45.814  36.305  29.732  1.00  0.00     0.200 A 
ATOM     93  F   UNL A   1      46.832  35.444  31.682  1.00  0.00    -0.200 F 
ATOM     94  F   UNL A   1      46.229  37.540  30.045  1.00  0.00    -0.200 F 
ENDBRANCH  61  84
ENDBRANCH  35  36
ENDBRANCH  28  30
ENDBRANCH  27  28
ENDBRANCH  26  27
ENDBRANCH  25  26
ENDBRANCH  24  25
ENDBRANCH  23  24
ENDBRANCH  22  23
ENDBRANCH   1  22
TORSDOF 22
ENDMDL
MODEL 3
REMARK VINA RESULT:      -9.1      5.542     11.279
REMARK SMILES C/C(=C/C[NH+]1C[C@@H](C)[C@H](C)C1)C(=O)OCCOCCOCCOCCOC(=O)c1ccc(-c2c3nc(c(-c4c(F)c(F)c(F)c(F)c4F)c4ccc([nH]4)c(-c4c(F)c(F)c(F)c(F)c4F)c4nc(c(-c5c(F)c(F)c(F)c(F)c5F)c5ccc2[nH]5)C=C4)C=C3)cc1
REMARK SMILES IDX 20 1 19 2 18 3 17 4 16 5 15 6 14 7 12 8 13 9 2 10 1 11 3 12
REMARK SMILES IDX 4 13 5 14 6 15 11 16 7 18 9 19 8 20 10 21 21 22 22 23 23 24
REMARK SMILES IDX 24 25 25 26 26 27 27 28 28 29 29 30 30 31 91 32 31 33 90 34
REMARK SMILES IDX 32 35 33 36 34 37 84 38 35 39 89 40 83 41 85 42 36 43 88 44
REMARK SMILES IDX 82 45 81 46 37 48 69 49 49 50 68 51 50 52 53 53 67 54 86 55
REMARK SMILES IDX 51 56 52 57 66 59 87 60 54 61 38 62 39 63 47 64 40 65 41 66
REMARK SMILES IDX 45 67 48 68 42 69 43 70 46 71 44 72 70 73 71 74 79 75 72 76
REMARK SMILES IDX 73 77 77 78 80 79 74 80 75 81 78 82 76 83 55 84 56 85 64 86
REMARK SMILES IDX 57 87 58 88 62 89 65 90 59 91 60 92 63 93 61 94
REMARK H PARENT 5 17 85 47 53 58
REMARK Flexibility Score: inf
ROOT
ATOM      1  O   UNL A   1      33.727  31.346  27.948  1.00  0.00    -0.377 OA
ENDROOT
BRANCH   1   2
ATOM      2  C   UNL A   1      34.179  30.306  27.092  1.00  0.00     0.188 C 
BRANCH   2   3
ATOM      3  C   UNL A   1      33.399  28.972  27.066  1.00  0.00     0.188 C 
BRANCH   3   4
ATOM      4  O   UNL A   1      34.100  27.923  26.412  1.00  0.00    -0.376 OA
BRANCH   4   5
ATOM      5  C   UNL A   1      33.353  26.899  25.780  1.00  0.00     0.202 C 
BRANCH   5   6
ATOM      6  C   UNL A   1      33.941  25.482  25.765  1.00  0.00     0.261 C 
BRANCH   6   7
ATOM      7  O   UNL A   1      34.478  25.075  24.506  1.00  0.00    -0.460 OA
BRANCH   7   8
ATOM      8  C   UNL A   1      35.196  23.935  24.461  1.00  0.00     0.333 C 
ATOM      9  O   UNL A   1      36.409  23.851  24.565  1.00  0.00    -0.247 OA
BRANCH   8  10
ATOM     10  C   UNL A   1      34.271  22.763  24.454  1.00  0.00     0.036 C 
ATOM     11  C   UNL A   1      34.416  21.847  25.635  1.00  0.00     0.052 C 
ATOM     12  C   UNL A   1      33.355  22.520  23.493  1.00  0.00     0.044 C 
BRANCH  12  13
ATOM     13  C   UNL A   1      33.051  23.287  22.231  1.00  0.00     0.291 C 
BRANCH  13  14
ATOM     14  N   UNL A   1      31.899  24.178  22.330  1.00  0.00    -0.331 N 
ATOM     15  C   UNL A   1      31.183  24.098  23.597  1.00  0.00     0.266 C 
ATOM     16  C   UNL A   1      32.166  25.583  22.019  1.00  0.00     0.266 C 
ATOM     17  H   UNL A   1      31.301  23.809  21.591  1.00  0.00     0.348 HD
ATOM     18  C   UNL A   1      30.363  25.377  23.624  1.00  0.00     0.049 C 
ATOM     19  C   UNL A   1      31.327  26.398  23.011  1.00  0.00     0.049 C 
ATOM     20  C   UNL A   1      29.933  25.731  25.042  1.00  0.00     0.014 C 
ATOM     21  C   UNL A   1      30.633  27.598  22.376  1.00  0.00     0.014 C 
ENDBRANCH  13  14
ENDBRANCH  12  13
ENDBRANCH   8  10
ENDBRANCH   7   8
ENDBRANCH   6   7
ENDBRANCH   5   6
ENDBRANCH   4   5
ENDBRANCH   3   4
ENDBRANCH   2   3
ENDBRANCH   1   2
BRANCH   1  22
ATOM     22  C   UNL A   1      34.685  32.126  28.658  1.00  0.00     0.188 C 
BRANCH  22  23
ATOM     23  C   UNL A   1      35.111  33.531  28.161  1.00  0.00     0.188 C 
BRANCH  23  24
ATOM     24  O   UNL A   1      34.674  34.614  28.965  1.00  0.00    -0.376 OA
BRANCH  24  25
ATOM     25  C   UNL A   1      33.280  34.718  29.214  1.00  0.00     0.202 C 
BRANCH  25  26
ATOM     26  C   UNL A   1      32.780  36.087  29.691  1.00  0.00     0.261 C 
BRANCH  26  27
ATOM     27  O   UNL A   1      33.184  36.469  31.016  1.00  0.00    -0.460 OA
BRANCH  27  28
ATOM     28  C   UNL A   1      32.786  35.691  32.044  1.00  0.00     0.338 C 
ATOM     29  O   UNL A   1      31.650  35.503  32.442  1.00  0.00    -0.246 OA
BRANCH  28  30
ATOM     30  C   UNL A   1      33.974  34.947  32.501  1.00  0.00     0.060 A 
ATOM     31  C   UNL A   1      35.240  35.545  32.421  1.00  0.00     0.016 A 
ATOM     32  C   UNL A   1      33.822  33.676  33.055  1.00  0.00     0.016 A 
ATOM     33  C   UNL A   1      36.361  34.868  32.904  1.00  0.00     0.010 A 
ATOM     34  C   UNL A   1      34.946  32.989  33.513  1.00  0.00     0.010 A 
ATOM     35  C   UNL A   1      36.221  33.576  33.427  1.00  0.00    -0.014 A 
BRANCH  35  36
ATOM     36  C   UNL A   1      37.411  32.756  33.748  1.00  0.00     0.031 A 
ATOM     37  C   UNL A   1      38.139  33.029  35.031  1.00  0.00     0.074 A 
ATOM     38  C   UNL A   1      37.859  31.816  32.898  1.00  0.00     0.049 A 
ATOM     39  N   UNL A   1      39.276  32.547  35.464  1.00  0.00    -0.248 NA
ATOM     40  C   UNL A   1      37.498  33.986  35.947  1.00  0.00     0.031 C 
ATOM     41  C   UNL A   1      37.210  31.425  31.650  1.00  0.00     0.029 A 
ATOM     42  N   UNL A   1      38.986  31.034  32.955  1.00  0.00    -0.354 N 
ATOM     43  C   UNL A   1      39.488  33.144  36.699  1.00  0.00     0.074 A 
ATOM     44  C   UNL A   1      38.381  34.045  36.933  1.00  0.00     0.031 C 
ATOM     45  C   UNL A   1      37.961  30.489  31.046  1.00  0.00     0.029 A 
ATOM     46  C   UNL A   1      39.164  30.250  31.842  1.00  0.00     0.049 A 
ATOM     47  H   UNL A   1      39.607  31.035  33.720  1.00  0.00     0.167 HD
ATOM     48  C   UNL A   1      40.516  32.955  37.559  1.00  0.00     0.037 A 
ATOM     49  C   UNL A   1      40.201  29.461  31.494  1.00  0.00     0.037 A 
ATOM     50  C   UNL A   1      41.624  32.073  37.310  1.00  0.00     0.049 A 
ATOM     51  C   UNL A   1      41.391  29.358  32.415  1.00  0.00     0.074 A 
ATOM     52  C   UNL A   1      42.710  31.800  38.122  1.00  0.00     0.029 A 
ATOM     53  N   UNL A   1      41.795  31.331  36.150  1.00  0.00    -0.354 N 
ATOM     54  N   UNL A   1      41.583  29.905  33.591  1.00  0.00    -0.248 NA
ATOM     55  C   UNL A   1      42.517  28.532  31.952  1.00  0.00     0.031 C 
ATOM     56  C   UNL A   1      43.569  30.941  37.428  1.00  0.00     0.029 A 
ATOM     57  C   UNL A   1      42.988  30.629  36.209  1.00  0.00     0.049 A 
ATOM     58  H   UNL A   1      41.162  31.305  35.397  1.00  0.00     0.167 HD
ATOM     59  C   UNL A   1      42.831  29.471  34.019  1.00  0.00     0.074 A 
ATOM     60  C   UNL A   1      43.350  28.605  32.982  1.00  0.00     0.031 C 
ATOM     61  C   UNL A   1      43.489  29.764  35.168  1.00  0.00     0.037 A 
BRANCH  48  62
ATOM     62  C   UNL A   1      40.502  33.750  38.832  1.00  0.00     0.064 A 
ATOM     63  C   UNL A   1      41.241  34.935  38.973  1.00  0.00     0.173 A 
ATOM     64  C   UNL A   1      39.728  33.327  39.924  1.00  0.00     0.173 A 
ATOM     65  F   UNL A   1      42.009  35.374  37.964  1.00  0.00    -0.203 F 
ATOM     66  C   UNL A   1      41.235  35.646  40.169  1.00  0.00     0.198 A 
ATOM     67  C   UNL A   1      39.698  34.059  41.108  1.00  0.00     0.198 A 
ATOM     68  F   UNL A   1      39.001  32.203  39.844  1.00  0.00    -0.203 F 
ATOM     69  F   UNL A   1      41.994  36.742  40.299  1.00  0.00    -0.200 F 
ATOM     70  C   UNL A   1      40.459  35.212  41.233  1.00  0.00     0.200 A 
ATOM     71  F   UNL A   1      38.938  33.644  42.131  1.00  0.00    -0.200 F 
ATOM     72  F   UNL A   1      40.452  35.899  42.384  1.00  0.00    -0.200 F 
ENDBRANCH  48  62
BRANCH  49  73
ATOM     73  C   UNL A   1      40.175  28.723  30.204  1.00  0.00     0.064 A 
ATOM     74  C   UNL A   1      40.748  29.274  29.049  1.00  0.00     0.173 A 
ATOM     75  C   UNL A   1      39.564  27.465  30.092  1.00  0.00     0.173 A 
ATOM     76  F   UNL A   1      41.315  30.488  29.098  1.00  0.00    -0.203 F 
ATOM     77  C   UNL A   1      40.700  28.601  27.830  1.00  0.00     0.198 A 
ATOM     78  C   UNL A   1      39.544  26.779  28.879  1.00  0.00     0.198 A 
ATOM     79  F   UNL A   1      38.992  26.898  31.165  1.00  0.00    -0.203 F 
ATOM     80  F   UNL A   1      41.215  29.171  26.732  1.00  0.00    -0.200 F 
ATOM     81  C   UNL A   1      40.106  27.351  27.747  1.00  0.00     0.200 A 
ATOM     82  F   UNL A   1      38.972  25.570  28.805  1.00  0.00    -0.200 F 
ATOM     83  F   UNL A   1      40.064  26.702  26.576  1.00  0.00    -0.200 F 
ENDBRANCH  49  73
BRANCH  61  84
ATOM     84  C   UNL A   1      44.830  29.122  35.388  1.00  0.00     0.064 A 
ATOM     85  C   UNL A   1      46.021  29.758  35.014  1.00  0.00     0.173 A 
ATOM     86  C   UNL A   1      44.924  27.882  36.041  1.00  0.00     0.173 A 
ATOM     87  F   UNL A   1      45.986  30.938  34.374  1.00  0.00    -0.203 F 
ATOM     88  C   UNL A   1      47.258  29.171  35.271  1.00  0.00     0.198 A 
ATOM     89  C   UNL A   1      46.163  27.313  36.323  1.00  0.00     0.198 A 
ATOM     90  F   UNL A   1      43.815  27.235  36.426  1.00  0.00    -0.203 F 
ATOM     91  F   UNL A   1      48.383  29.779  34.869  1.00  0.00    -0.200 F 
ATOM     92  C   UNL A   1      47.328  27.955  35.934  1.00  0.00     0.200 A 
ATOM     93  F   UNL A   1      46.228  26.146  36.980  1.00  0.00    -0.200 F 
ATOM     94  F   UNL A   1      48.519  27.399  36.195  1.00  0.00    -0.200 F 
ENDBRANCH  61  84
ENDBRANCH  35  36
ENDBRANCH  28  30
ENDBRANCH  27  28
ENDBRANCH  26  27
ENDBRANCH  25  26
ENDBRANCH  24  25
ENDBRANCH  23  24
ENDBRANCH  22  23
ENDBRANCH   1  22
TORSDOF 22
ENDMDL
