MODEL 1
REMARK VINA RESULT:     -10.4      0.000      0.000
REMARK SMILES O=C(OCCOCCOCCOCCOC(=O)c1ccnc(-c2ccnc(COc3ccccc3)n2)c1)c1ccc(-c2c3nc(c(-c4c(F)c(F)c(F)c(F)c4F)c4ccc([nH]4)c(-c4c(F)c(F)c(F)c(F)c4F)c4nc(c(-c5c(F)c(F)c(F)c(F)c5F)c5ccc2[nH]5)C=C4)C=C3)cc1
REMARK SMILES IDX 10 1 9 2 8 3 7 4 6 5 5 6 4 7 3 8 2 9 1 10 38 11 39 12 100 13
REMARK SMILES IDX 40 14 99 15 41 16 42 17 43 18 93 19 44 20 98 21 92 22 94 23
REMARK SMILES IDX 45 24 97 25 91 26 90 27 46 29 78 30 58 31 77 32 59 33 62 34
REMARK SMILES IDX 76 35 95 36 60 37 61 38 75 40 96 41 63 42 47 43 48 44 56 45
REMARK SMILES IDX 49 46 50 47 54 48 57 49 51 50 52 51 55 52 53 53 79 54 80 55
REMARK SMILES IDX 88 56 81 57 82 58 86 59 89 60 83 61 84 62 87 63 85 64 64 65
REMARK SMILES IDX 65 66 73 67 66 68 67 69 71 70 74 71 68 72 69 73 72 74 70 75
REMARK SMILES IDX 11 76 12 77 13 78 14 79 15 80 16 81 17 82 18 83 19 84 37 85
REMARK SMILES IDX 20 86 22 87 21 88 23 89 24 90 36 91 25 92 27 93 26 94 28 95
REMARK SMILES IDX 29 96 30 97 31 98 35 99 32 100 34 101 33 102
REMARK H PARENT 94 28 62 39
REMARK Flexibility Score: inf
ROOT
ATOM      1  C   UNL A   1      36.289  31.102  27.845  1.00  0.00     0.188 C 
ENDROOT
BRANCH   1   2
ATOM      2  O   UNL A   1      35.489  32.258  28.048  1.00  0.00    -0.377 OA
BRANCH   2   3
ATOM      3  C   UNL A   1      35.737  33.013  29.231  1.00  0.00     0.188 C 
BRANCH   3   4
ATOM      4  C   UNL A   1      34.481  33.551  29.915  1.00  0.00     0.188 C 
BRANCH   4   5
ATOM      5  O   UNL A   1      34.262  32.874  31.158  1.00  0.00    -0.376 OA
BRANCH   5   6
ATOM      6  C   UNL A   1      34.259  33.714  32.311  1.00  0.00     0.202 C 
BRANCH   6   7
ATOM      7  C   UNL A   1      35.491  33.553  33.203  1.00  0.00     0.261 C 
BRANCH   7   8
ATOM      8  O   UNL A   1      35.902  32.183  33.308  1.00  0.00    -0.460 OA
BRANCH   8   9
ATOM      9  C   UNL A   1      37.097  31.699  33.729  1.00  0.00     0.338 C 
ATOM     10  O   UNL A   1      37.355  31.762  34.929  1.00  0.00    -0.246 OA
BRANCH   9  11
ATOM     11  C   UNL A   1      38.122  31.068  32.833  1.00  0.00     0.060 A 
ATOM     12  C   UNL A   1      39.158  30.222  33.235  1.00  0.00     0.016 A 
ATOM     13  C   UNL A   1      37.990  31.323  31.455  1.00  0.00     0.016 A 
ATOM     14  C   UNL A   1      40.086  29.721  32.331  1.00  0.00     0.010 A 
ATOM     15  C   UNL A   1      38.902  30.803  30.531  1.00  0.00     0.010 A 
ATOM     16  C   UNL A   1      39.978  30.033  30.980  1.00  0.00    -0.014 A 
BRANCH  16  17
ATOM     17  C   UNL A   1      41.120  29.709  30.107  1.00  0.00     0.031 A 
ATOM     18  C   UNL A   1      41.118  28.371  29.432  1.00  0.00     0.074 A 
ATOM     19  C   UNL A   1      42.037  30.646  29.813  1.00  0.00     0.049 A 
ATOM     20  N   UNL A   1      42.010  27.832  28.647  1.00  0.00    -0.248 NA
ATOM     21  C   UNL A   1      39.929  27.529  29.659  1.00  0.00     0.031 C 
ATOM     22  C   UNL A   1      42.027  32.021  30.316  1.00  0.00     0.029 A 
ATOM     23  N   UNL A   1      43.135  30.594  28.999  1.00  0.00    -0.354 N 
ATOM     24  C   UNL A   1      41.503  26.585  28.308  1.00  0.00     0.074 A 
ATOM     25  C   UNL A   1      40.229  26.439  28.972  1.00  0.00     0.031 C 
ATOM     26  C   UNL A   1      43.066  32.687  29.786  1.00  0.00     0.029 A 
ATOM     27  C   UNL A   1      43.845  31.768  28.961  1.00  0.00     0.049 A 
ATOM     28  H   UNL A   1      43.391  29.791  28.489  1.00  0.00     0.167 HD
ATOM     29  C   UNL A   1      42.064  25.645  27.513  1.00  0.00     0.037 A 
ATOM     30  C   UNL A   1      45.013  32.044  28.352  1.00  0.00     0.037 A 
ATOM     31  C   UNL A   1      43.338  25.818  26.873  1.00  0.00     0.049 A 
ATOM     32  C   UNL A   1      45.674  30.941  27.565  1.00  0.00     0.074 A 
ATOM     33  C   UNL A   1      44.063  24.916  26.118  1.00  0.00     0.029 A 
ATOM     34  N   UNL A   1      44.077  26.994  26.920  1.00  0.00    -0.354 N 
ATOM     35  N   UNL A   1      45.238  29.729  27.313  1.00  0.00    -0.248 NA
ATOM     36  C   UNL A   1      46.993  31.235  26.992  1.00  0.00     0.031 C 
ATOM     37  C   UNL A   1      45.260  25.536  25.741  1.00  0.00     0.029 A 
ATOM     38  C   UNL A   1      45.258  26.838  26.219  1.00  0.00     0.049 A 
ATOM     39  H   UNL A   1      43.800  27.816  27.385  1.00  0.00     0.167 HD
ATOM     40  C   UNL A   1      46.217  29.119  26.543  1.00  0.00     0.074 A 
ATOM     41  C   UNL A   1      47.262  30.106  26.350  1.00  0.00     0.031 C 
ATOM     42  C   UNL A   1      46.262  27.858  26.045  1.00  0.00     0.037 A 
BRANCH  29  43
ATOM     43  C   UNL A   1      41.330  24.345  27.375  1.00  0.00     0.064 A 
ATOM     44  C   UNL A   1      41.781  23.169  27.996  1.00  0.00     0.173 A 
ATOM     45  C   UNL A   1      40.188  24.262  26.565  1.00  0.00     0.173 A 
ATOM     46  F   UNL A   1      42.888  23.186  28.753  1.00  0.00    -0.203 F 
ATOM     47  C   UNL A   1      41.133  21.953  27.781  1.00  0.00     0.198 A 
ATOM     48  C   UNL A   1      39.529  23.050  26.374  1.00  0.00     0.198 A 
ATOM     49  F   UNL A   1      39.722  25.354  25.940  1.00  0.00    -0.203 F 
ATOM     50  F   UNL A   1      41.620  20.831  28.330  1.00  0.00    -0.200 F 
ATOM     51  C   UNL A   1      40.008  21.895  26.974  1.00  0.00     0.200 A 
ATOM     52  F   UNL A   1      38.442  22.997  25.593  1.00  0.00    -0.200 F 
ATOM     53  F   UNL A   1      39.395  20.723  26.758  1.00  0.00    -0.200 F 
ENDBRANCH  29  43
BRANCH  30  54
ATOM     54  C   UNL A   1      45.651  33.381  28.506  1.00  0.00     0.064 A 
ATOM     55  C   UNL A   1      46.532  33.654  29.560  1.00  0.00     0.173 A 
ATOM     56  C   UNL A   1      45.374  34.425  27.608  1.00  0.00     0.173 A 
ATOM     57  F   UNL A   1      46.813  32.701  30.462  1.00  0.00    -0.203 F 
ATOM     58  C   UNL A   1      47.095  34.920  29.721  1.00  0.00     0.198 A 
ATOM     59  C   UNL A   1      45.962  35.680  27.750  1.00  0.00     0.198 A 
ATOM     60  F   UNL A   1      44.532  34.224  26.583  1.00  0.00    -0.203 F 
ATOM     61  F   UNL A   1      47.896  35.167  30.768  1.00  0.00    -0.200 F 
ATOM     62  C   UNL A   1      46.816  35.929  28.813  1.00  0.00     0.200 A 
ATOM     63  F   UNL A   1      45.697  36.647  26.861  1.00  0.00    -0.200 F 
ATOM     64  F   UNL A   1      47.359  37.145  28.967  1.00  0.00    -0.200 F 
ENDBRANCH  30  54
BRANCH  42  65
ATOM     65  C   UNL A   1      47.461  27.498  25.222  1.00  0.00     0.064 A 
ATOM     66  C   UNL A   1      47.496  27.729  23.841  1.00  0.00     0.173 A 
ATOM     67  C   UNL A   1      48.605  26.969  25.836  1.00  0.00     0.173 A 
ATOM     68  F   UNL A   1      46.420  28.221  23.210  1.00  0.00    -0.203 F 
ATOM     69  C   UNL A   1      48.631  27.421  23.097  1.00  0.00     0.198 A 
ATOM     70  C   UNL A   1      49.748  26.689  25.094  1.00  0.00     0.198 A 
ATOM     71  F   UNL A   1      48.620  26.740  27.158  1.00  0.00    -0.203 F 
ATOM     72  F   UNL A   1      48.630  27.608  21.770  1.00  0.00    -0.200 F 
ATOM     73  C   UNL A   1      49.758  26.909  23.724  1.00  0.00     0.200 A 
ATOM     74  F   UNL A   1      50.840  26.209  25.704  1.00  0.00    -0.200 F 
ATOM     75  F   UNL A   1      50.853  26.624  23.008  1.00  0.00    -0.200 F 
ENDBRANCH  42  65
ENDBRANCH  16  17
ENDBRANCH   9  11
ENDBRANCH   8   9
ENDBRANCH   7   8
ENDBRANCH   6   7
ENDBRANCH   5   6
ENDBRANCH   4   5
ENDBRANCH   3   4
ENDBRANCH   2   3
ENDBRANCH   1   2
BRANCH   1  76
ATOM     76  C   UNL A   1      35.769  29.742  28.359  1.00  0.00     0.188 C 
BRANCH  76  77
ATOM     77  O   UNL A   1      35.489  28.787  27.344  1.00  0.00    -0.376 OA
BRANCH  77  78
ATOM     78  C   UNL A   1      34.360  29.076  26.525  1.00  0.00     0.202 C 
BRANCH  78  79
ATOM     79  C   UNL A   1      33.006  28.820  27.195  1.00  0.00     0.261 C 
BRANCH  79  80
ATOM     80  O   UNL A   1      31.887  28.708  26.296  1.00  0.00    -0.460 OA
BRANCH  80  81
ATOM     81  C   UNL A   1      31.463  29.802  25.620  1.00  0.00     0.338 C 
ATOM     82  O   UNL A   1      31.553  30.966  25.965  1.00  0.00    -0.246 OA
BRANCH  81  83
ATOM     83  C   UNL A   1      31.132  29.330  24.254  1.00  0.00     0.063 A 
ATOM     84  C   UNL A   1      29.929  29.710  23.661  1.00  0.00     0.036 A 
ATOM     85  C   UNL A   1      31.908  28.309  23.696  1.00  0.00     0.046 A 
ATOM     86  C   UNL A   1      29.514  29.003  22.553  1.00  0.00     0.112 A 
ATOM     87  C   UNL A   1      31.382  27.618  22.612  1.00  0.00     0.090 A 
ATOM     88  N   UNL A   1      30.192  27.951  22.047  1.00  0.00    -0.255 NA
BRANCH  87  89
ATOM     89  C   UNL A   1      31.987  26.384  22.100  1.00  0.00     0.092 A 
ATOM     90  C   UNL A   1      32.080  26.145  20.740  1.00  0.00     0.051 A 
ATOM     91  N   UNL A   1      32.536  25.562  23.017  1.00  0.00    -0.228 NA
ATOM     92  C   UNL A   1      32.757  25.011  20.366  1.00  0.00     0.115 A 
ATOM     93  C   UNL A   1      33.257  24.524  22.549  1.00  0.00     0.166 A 
ATOM     94  N   UNL A   1      33.353  24.187  21.244  1.00  0.00    -0.238 NA
BRANCH  93  95
ATOM     95  C   UNL A   1      34.178  23.810  23.516  1.00  0.00     0.306 C 
BRANCH  95  96
ATOM     96  O   UNL A   1      33.692  22.521  23.939  1.00  0.00    -0.486 OA
BRANCH  96  97
ATOM     97  C   UNL A   1      33.535  22.381  25.292  1.00  0.00     0.119 A 
ATOM     98  C   UNL A   1      32.345  22.856  25.839  1.00  0.00     0.046 A 
ATOM     99  C   UNL A   1      34.539  21.907  26.139  1.00  0.00     0.046 A 
ATOM    100  C   UNL A   1      32.139  22.813  27.220  1.00  0.00     0.004 A 
ATOM    101  C   UNL A   1      34.331  21.854  27.519  1.00  0.00     0.004 A 
ATOM    102  C   UNL A   1      33.129  22.304  28.060  1.00  0.00     0.000 A 
ENDBRANCH  96  97
ENDBRANCH  95  96
ENDBRANCH  93  95
ENDBRANCH  87  89
ENDBRANCH  81  83
ENDBRANCH  80  81
ENDBRANCH  79  80
ENDBRANCH  78  79
ENDBRANCH  77  78
ENDBRANCH  76  77
ENDBRANCH   1  76
TORSDOF 24
ENDMDL
MODEL 2
REMARK VINA RESULT:     -10.3      5.106     11.114
REMARK SMILES O=C(OCCOCCOCCOCCOC(=O)c1ccnc(-c2ccnc(COc3ccccc3)n2)c1)c1ccc(-c2c3nc(c(-c4c(F)c(F)c(F)c(F)c4F)c4ccc([nH]4)c(-c4c(F)c(F)c(F)c(F)c4F)c4nc(c(-c5c(F)c(F)c(F)c(F)c5F)c5ccc2[nH]5)C=C4)C=C3)cc1
REMARK SMILES IDX 10 1 9 2 8 3 7 4 6 5 5 6 4 7 3 8 2 9 1 10 38 11 39 12 100 13
REMARK SMILES IDX 40 14 99 15 41 16 42 17 43 18 93 19 44 20 98 21 92 22 94 23
REMARK SMILES IDX 45 24 97 25 91 26 90 27 46 29 78 30 58 31 77 32 59 33 62 34
REMARK SMILES IDX 76 35 95 36 60 37 61 38 75 40 96 41 63 42 47 43 48 44 56 45
REMARK SMILES IDX 49 46 50 47 54 48 57 49 51 50 52 51 55 52 53 53 79 54 80 55
REMARK SMILES IDX 88 56 81 57 82 58 86 59 89 60 83 61 84 62 87 63 85 64 64 65
REMARK SMILES IDX 65 66 73 67 66 68 67 69 71 70 74 71 68 72 69 73 72 74 70 75
REMARK SMILES IDX 11 76 12 77 13 78 14 79 15 80 16 81 17 82 18 83 19 84 37 85
REMARK SMILES IDX 20 86 22 87 21 88 23 89 24 90 36 91 25 92 27 93 26 94 28 95
REMARK SMILES IDX 29 96 30 97 31 98 35 99 32 100 34 101 33 102
REMARK H PARENT 94 28 62 39
REMARK Flexibility Score: inf
ROOT
ATOM      1  C   UNL A   1      41.226  20.829  26.093  1.00  0.00     0.188 C 
ENDROOT
BRANCH   1   2
ATOM      2  O   UNL A   1      41.375  19.443  26.369  1.00  0.00    -0.377 OA
BRANCH   2   3
ATOM      3  C   UNL A   1      42.697  18.915  26.318  1.00  0.00     0.188 C 
BRANCH   3   4
ATOM      4  C   UNL A   1      43.522  19.383  25.120  1.00  0.00     0.188 C 
BRANCH   4   5
ATOM      5  O   UNL A   1      44.370  20.475  25.496  1.00  0.00    -0.376 OA
BRANCH   5   6
ATOM      6  C   UNL A   1      45.032  21.126  24.411  1.00  0.00     0.202 C 
BRANCH   6   7
ATOM      7  C   UNL A   1      44.301  22.363  23.888  1.00  0.00     0.261 C 
BRANCH   7   8
ATOM      8  O   UNL A   1      43.848  23.209  24.954  1.00  0.00    -0.460 OA
BRANCH   8   9
ATOM      9  C   UNL A   1      44.364  24.398  25.354  1.00  0.00     0.338 C 
ATOM     10  O   UNL A   1      45.203  24.935  24.632  1.00  0.00    -0.246 OA
BRANCH   9  11
ATOM     11  C   UNL A   1      43.965  25.120  26.607  1.00  0.00     0.060 A 
ATOM     12  C   UNL A   1      43.237  24.583  27.671  1.00  0.00     0.016 A 
ATOM     13  C   UNL A   1      44.412  26.449  26.732  1.00  0.00     0.016 A 
ATOM     14  C   UNL A   1      42.879  25.349  28.773  1.00  0.00     0.010 A 
ATOM     15  C   UNL A   1      44.081  27.224  27.849  1.00  0.00     0.010 A 
ATOM     16  C   UNL A   1      43.275  26.679  28.852  1.00  0.00    -0.014 A 
BRANCH  16  17
ATOM     17  C   UNL A   1      42.656  27.520  29.892  1.00  0.00     0.031 A 
ATOM     18  C   UNL A   1      43.407  27.699  31.177  1.00  0.00     0.074 A 
ATOM     19  C   UNL A   1      41.539  28.217  29.624  1.00  0.00     0.049 A 
ATOM     20  N   UNL A   1      43.073  28.356  32.253  1.00  0.00    -0.248 NA
ATOM     21  C   UNL A   1      44.736  27.065  31.248  1.00  0.00     0.031 C 
ATOM     22  C   UNL A   1      40.828  28.210  28.345  1.00  0.00     0.029 A 
ATOM     23  N   UNL A   1      40.825  29.089  30.401  1.00  0.00    -0.354 N 
ATOM     24  C   UNL A   1      44.133  28.193  33.134  1.00  0.00     0.074 A 
ATOM     25  C   UNL A   1      45.123  27.374  32.474  1.00  0.00     0.031 C 
ATOM     26  C   UNL A   1      39.784  29.051  28.421  1.00  0.00     0.029 A 
ATOM     27  C   UNL A   1      39.719  29.604  29.771  1.00  0.00     0.049 A 
ATOM     28  H   UNL A   1      41.081  29.325  31.322  1.00  0.00     0.167 HD
ATOM     29  C   UNL A   1      44.259  28.685  34.387  1.00  0.00     0.037 A 
ATOM     30  C   UNL A   1      38.751  30.402  30.257  1.00  0.00     0.037 A 
ATOM     31  C   UNL A   1      43.251  29.490  35.018  1.00  0.00     0.049 A 
ATOM     32  C   UNL A   1      38.858  30.844  31.695  1.00  0.00     0.074 A 
ATOM     33  C   UNL A   1      43.208  29.976  36.311  1.00  0.00     0.029 A 
ATOM     34  N   UNL A   1      42.096  29.929  34.381  1.00  0.00    -0.354 N 
ATOM     35  N   UNL A   1      39.820  30.619  32.560  1.00  0.00    -0.248 NA
ATOM     36  C   UNL A   1      37.742  31.632  32.231  1.00  0.00     0.031 C 
ATOM     37  C   UNL A   1      42.007  30.678  36.467  1.00  0.00     0.029 A 
ATOM     38  C   UNL A   1      41.326  30.670  35.258  1.00  0.00     0.049 A 
ATOM     39  H   UNL A   1      41.862  29.739  33.445  1.00  0.00     0.167 HD
ATOM     40  C   UNL A   1      39.436  31.248  33.735  1.00  0.00     0.074 A 
ATOM     41  C   UNL A   1      38.160  31.883  33.463  1.00  0.00     0.031 C 
ATOM     42  C   UNL A   1      40.066  31.293  34.934  1.00  0.00     0.037 A 
BRANCH  29  43
ATOM     43  C   UNL A   1      45.486  28.289  35.153  1.00  0.00     0.064 A 
ATOM     44  C   UNL A   1      45.542  27.105  35.904  1.00  0.00     0.173 A 
ATOM     45  C   UNL A   1      46.604  29.137  35.181  1.00  0.00     0.173 A 
ATOM     46  F   UNL A   1      44.487  26.276  35.940  1.00  0.00    -0.203 F 
ATOM     47  C   UNL A   1      46.660  26.801  36.680  1.00  0.00     0.198 A 
ATOM     48  C   UNL A   1      47.728  28.817  35.936  1.00  0.00     0.198 A 
ATOM     49  F   UNL A   1      46.597  30.287  34.490  1.00  0.00    -0.203 F 
ATOM     50  F   UNL A   1      46.666  25.698  37.441  1.00  0.00    -0.200 F 
ATOM     51  C   UNL A   1      47.752  27.655  36.693  1.00  0.00     0.200 A 
ATOM     52  F   UNL A   1      48.783  29.645  35.948  1.00  0.00    -0.200 F 
ATOM     53  F   UNL A   1      48.820  27.370  37.450  1.00  0.00    -0.200 F 
ENDBRANCH  29  43
BRANCH  30  54
ATOM     54  C   UNL A   1      37.588  30.784  29.410  1.00  0.00     0.064 A 
ATOM     55  C   UNL A   1      37.447  32.082  28.904  1.00  0.00     0.173 A 
ATOM     56  C   UNL A   1      36.577  29.858  29.105  1.00  0.00     0.173 A 
ATOM     57  F   UNL A   1      38.369  33.015  29.184  1.00  0.00    -0.203 F 
ATOM     58  C   UNL A   1      36.335  32.445  28.143  1.00  0.00     0.198 A 
ATOM     59  C   UNL A   1      35.483  30.211  28.317  1.00  0.00     0.198 A 
ATOM     60  F   UNL A   1      36.654  28.601  29.568  1.00  0.00    -0.203 F 
ATOM     61  F   UNL A   1      36.201  33.708  27.714  1.00  0.00    -0.200 F 
ATOM     62  C   UNL A   1      35.358  31.508  27.845  1.00  0.00     0.200 A 
ATOM     63  F   UNL A   1      34.548  29.296  28.023  1.00  0.00    -0.200 F 
ATOM     64  F   UNL A   1      34.290  31.855  27.112  1.00  0.00    -0.200 F 
ENDBRANCH  30  54
BRANCH  42  65
ATOM     65  C   UNL A   1      39.400  32.081  36.020  1.00  0.00     0.064 A 
ATOM     66  C   UNL A   1      38.425  31.509  36.848  1.00  0.00     0.173 A 
ATOM     67  C   UNL A   1      39.785  33.407  36.267  1.00  0.00     0.173 A 
ATOM     68  F   UNL A   1      38.017  30.248  36.639  1.00  0.00    -0.203 F 
ATOM     69  C   UNL A   1      37.842  32.245  37.874  1.00  0.00     0.198 A 
ATOM     70  C   UNL A   1      39.220  34.131  37.312  1.00  0.00     0.198 A 
ATOM     71  F   UNL A   1      40.721  33.993  35.505  1.00  0.00    -0.203 F 
ATOM     72  F   UNL A   1      36.881  31.694  38.627  1.00  0.00    -0.200 F 
ATOM     73  C   UNL A   1      38.245  33.551  38.110  1.00  0.00     0.200 A 
ATOM     74  F   UNL A   1      39.621  35.387  37.548  1.00  0.00    -0.200 F 
ATOM     75  F   UNL A   1      37.690  34.254  39.106  1.00  0.00    -0.200 F 
ENDBRANCH  42  65
ENDBRANCH  16  17
ENDBRANCH   9  11
ENDBRANCH   8   9
ENDBRANCH   7   8
ENDBRANCH   6   7
ENDBRANCH   5   6
ENDBRANCH   4   5
ENDBRANCH   3   4
ENDBRANCH   2   3
ENDBRANCH   1   2
BRANCH   1  76
ATOM     76  C   UNL A   1      40.573  21.731  27.162  1.00  0.00     0.188 C 
BRANCH  76  77
ATOM     77  O   UNL A   1      40.390  23.084  26.771  1.00  0.00    -0.376 OA
BRANCH  77  78
ATOM     78  C   UNL A   1      39.200  23.705  27.248  1.00  0.00     0.202 C 
BRANCH  78  79
ATOM     79  C   UNL A   1      38.206  24.100  26.151  1.00  0.00     0.261 C 
BRANCH  79  80
ATOM     80  O   UNL A   1      36.959  23.381  26.163  1.00  0.00    -0.460 OA
BRANCH  80  81
ATOM     81  C   UNL A   1      36.781  22.341  25.313  1.00  0.00     0.338 C 
ATOM     82  O   UNL A   1      37.570  21.451  25.058  1.00  0.00    -0.246 OA
BRANCH  81  83
ATOM     83  C   UNL A   1      35.338  22.338  24.974  1.00  0.00     0.063 A 
ATOM     84  C   UNL A   1      34.643  21.131  24.907  1.00  0.00     0.036 A 
ATOM     85  C   UNL A   1      34.769  23.514  24.475  1.00  0.00     0.046 A 
ATOM     86  C   UNL A   1      33.415  21.137  24.281  1.00  0.00     0.112 A 
ATOM     87  C   UNL A   1      33.552  23.412  23.813  1.00  0.00     0.090 A 
ATOM     88  N   UNL A   1      32.880  22.235  23.706  1.00  0.00    -0.255 NA
BRANCH  87  89
ATOM     89  C   UNL A   1      32.981  24.524  23.045  1.00  0.00     0.092 A 
ATOM     90  C   UNL A   1      33.074  24.558  21.664  1.00  0.00     0.051 A 
ATOM     91  N   UNL A   1      32.279  25.437  23.744  1.00  0.00    -0.228 NA
ATOM     92  C   UNL A   1      32.415  25.585  21.036  1.00  0.00     0.115 A 
ATOM     93  C   UNL A   1      31.593  26.353  23.033  1.00  0.00     0.166 A 
ATOM     94  N   UNL A   1      31.672  26.492  21.691  1.00  0.00    -0.238 NA
BRANCH  93  95
ATOM     95  C   UNL A   1      30.519  27.146  23.749  1.00  0.00     0.306 C 
BRANCH  95  96
ATOM     96  O   UNL A   1      30.823  28.548  23.882  1.00  0.00    -0.486 OA
BRANCH  96  97
ATOM     97  C   UNL A   1      29.796  29.392  23.552  1.00  0.00     0.119 A 
ATOM     98  C   UNL A   1      29.870  30.693  24.044  1.00  0.00     0.046 A 
ATOM     99  C   UNL A   1      28.651  28.982  22.866  1.00  0.00     0.046 A 
ATOM    100  C   UNL A   1      28.829  31.595  23.809  1.00  0.00     0.004 A 
ATOM    101  C   UNL A   1      27.613  29.884  22.622  1.00  0.00     0.004 A 
ATOM    102  C   UNL A   1      27.703  31.193  23.091  1.00  0.00     0.000 A 
ENDBRANCH  96  97
ENDBRANCH  95  96
ENDBRANCH  93  95
ENDBRANCH  87  89
ENDBRANCH  81  83
ENDBRANCH  80  81
ENDBRANCH  79  80
ENDBRANCH  78  79
ENDBRANCH  77  78
ENDBRANCH  76  77
ENDBRANCH   1  76
TORSDOF 24
ENDMDL
MODEL 3
REMARK VINA RESULT:      -9.6      4.087      9.564
REMARK SMILES O=C(OCCOCCOCCOCCOC(=O)c1ccnc(-c2ccnc(COc3ccccc3)n2)c1)c1ccc(-c2c3nc(c(-c4c(F)c(F)c(F)c(F)c4F)c4ccc([nH]4)c(-c4c(F)c(F)c(F)c(F)c4F)c4nc(c(-c5c(F)c(F)c(F)c(F)c5F)c5ccc2[nH]5)C=C4)C=C3)cc1
REMARK SMILES IDX 10 1 9 2 8 3 7 4 6 5 5 6 4 7 3 8 2 9 1 10 38 11 39 12 100 13
REMARK SMILES IDX 40 14 99 15 41 16 42 17 43 18 93 19 44 20 98 21 92 22 94 23
REMARK SMILES IDX 45 24 97 25 91 26 90 27 46 29 78 30 58 31 77 32 59 33 62 34
REMARK SMILES IDX 76 35 95 36 60 37 61 38 75 40 96 41 63 42 47 43 48 44 56 45
REMARK SMILES IDX 49 46 50 47 54 48 57 49 51 50 52 51 55 52 53 53 79 54 80 55
REMARK SMILES IDX 88 56 81 57 82 58 86 59 89 60 83 61 84 62 87 63 85 64 64 65
REMARK SMILES IDX 65 66 73 67 66 68 67 69 71 70 74 71 68 72 69 73 72 74 70 75
REMARK SMILES IDX 11 76 12 77 13 78 14 79 15 80 16 81 17 82 18 83 19 84 37 85
REMARK SMILES IDX 20 86 22 87 21 88 23 89 24 90 36 91 25 92 27 93 26 94 28 95
REMARK SMILES IDX 29 96 30 97 31 98 35 99 32 100 34 101 33 102
REMARK H PARENT 94 28 62 39
REMARK Flexibility Score: inf
ROOT
ATOM      1  C   UNL A   1      36.330  22.670  24.226  1.00  0.00     0.188 C 
ENDROOT
BRANCH   1   2
ATOM      2  O   UNL A   1      36.691  21.354  24.622  1.00  0.00    -0.377 OA
BRANCH   2   3
ATOM      3  C   UNL A   1      38.013  21.171  25.118  1.00  0.00     0.188 C 
BRANCH   3   4
ATOM      4  C   UNL A   1      38.574  22.366  25.888  1.00  0.00     0.188 C 
BRANCH   4   5
ATOM      5  O   UNL A   1      39.507  21.925  26.881  1.00  0.00    -0.376 OA
BRANCH   5   6
ATOM      6  C   UNL A   1      40.580  21.124  26.388  1.00  0.00     0.202 C 
BRANCH   6   7
ATOM      7  C   UNL A   1      41.785  21.928  25.899  1.00  0.00     0.261 C 
BRANCH   7   8
ATOM      8  O   UNL A   1      42.712  22.203  26.959  1.00  0.00    -0.460 OA
BRANCH   8   9
ATOM      9  C   UNL A   1      42.745  23.280  27.782  1.00  0.00     0.338 C 
ATOM     10  O   UNL A   1      42.064  23.246  28.806  1.00  0.00    -0.246 OA
BRANCH   9  11
ATOM     11  C   UNL A   1      43.575  24.507  27.545  1.00  0.00     0.060 A 
ATOM     12  C   UNL A   1      43.809  25.117  26.310  1.00  0.00     0.016 A 
ATOM     13  C   UNL A   1      44.127  25.119  28.686  1.00  0.00     0.016 A 
ATOM     14  C   UNL A   1      44.631  26.230  26.188  1.00  0.00     0.010 A 
ATOM     15  C   UNL A   1      44.935  26.256  28.580  1.00  0.00     0.010 A 
ATOM     16  C   UNL A   1      45.219  26.786  27.319  1.00  0.00    -0.014 A 
BRANCH  16  17
ATOM     17  C   UNL A   1      46.284  27.785  27.119  1.00  0.00     0.031 A 
ATOM     18  C   UNL A   1      45.894  29.231  27.163  1.00  0.00     0.074 A 
ATOM     19  C   UNL A   1      47.571  27.402  27.059  1.00  0.00     0.049 A 
ATOM     20  N   UNL A   1      46.625  30.298  26.987  1.00  0.00    -0.248 NA
ATOM     21  C   UNL A   1      44.481  29.516  27.472  1.00  0.00     0.031 C 
ATOM     22  C   UNL A   1      48.044  26.021  27.156  1.00  0.00     0.029 A 
ATOM     23  N   UNL A   1      48.715  28.141  26.932  1.00  0.00    -0.354 N 
ATOM     24  C   UNL A   1      45.760  31.372  27.138  1.00  0.00     0.074 A 
ATOM     25  C   UNL A   1      44.447  30.837  27.416  1.00  0.00     0.031 C 
ATOM     26  C   UNL A   1      49.386  26.014  27.099  1.00  0.00     0.029 A 
ATOM     27  C   UNL A   1      49.857  27.381  26.897  1.00  0.00     0.049 A 
ATOM     28  H   UNL A   1      48.719  29.125  26.872  1.00  0.00     0.167 HD
ATOM     29  C   UNL A   1      46.044  32.691  27.045  1.00  0.00     0.037 A 
ATOM     30  C   UNL A   1      51.132  27.759  26.688  1.00  0.00     0.037 A 
ATOM     31  C   UNL A   1      47.359  33.191  26.759  1.00  0.00     0.049 A 
ATOM     32  C   UNL A   1      51.406  29.226  26.474  1.00  0.00     0.074 A 
ATOM     33  C   UNL A   1      47.768  34.494  26.547  1.00  0.00     0.029 A 
ATOM     34  N   UNL A   1      48.488  32.388  26.646  1.00  0.00    -0.354 N 
ATOM     35  N   UNL A   1      50.573  30.239  26.531  1.00  0.00    -0.248 NA
ATOM     36  C   UNL A   1      52.787  29.602  26.151  1.00  0.00     0.031 C 
ATOM     37  C   UNL A   1      49.140  34.473  26.267  1.00  0.00     0.029 A 
ATOM     38  C   UNL A   1      49.593  33.165  26.353  1.00  0.00     0.049 A 
ATOM     39  H   UNL A   1      48.498  31.410  26.757  1.00  0.00     0.167 HD
ATOM     40  C   UNL A   1      51.327  31.373  26.266  1.00  0.00     0.074 A 
ATOM     41  C   UNL A   1      52.692  30.922  26.070  1.00  0.00     0.031 C 
ATOM     42  C   UNL A   1      50.936  32.668  26.180  1.00  0.00     0.037 A 
BRANCH  29  43
ATOM     43  C   UNL A   1      44.895  33.646  27.179  1.00  0.00     0.064 A 
ATOM     44  C   UNL A   1      44.424  34.069  28.431  1.00  0.00     0.173 A 
ATOM     45  C   UNL A   1      44.220  34.101  26.036  1.00  0.00     0.173 A 
ATOM     46  F   UNL A   1      45.011  33.635  29.557  1.00  0.00    -0.203 F 
ATOM     47  C   UNL A   1      43.299  34.886  28.533  1.00  0.00     0.198 A 
ATOM     48  C   UNL A   1      43.113  34.938  26.141  1.00  0.00     0.198 A 
ATOM     49  F   UNL A   1      44.623  33.716  24.816  1.00  0.00    -0.203 F 
ATOM     50  F   UNL A   1      42.827  35.224  29.742  1.00  0.00    -0.200 F 
ATOM     51  C   UNL A   1      42.647  35.322  27.390  1.00  0.00     0.200 A 
ATOM     52  F   UNL A   1      42.484  35.357  25.035  1.00  0.00    -0.200 F 
ATOM     53  F   UNL A   1      41.557  36.096  27.490  1.00  0.00    -0.200 F 
ENDBRANCH  29  43
BRANCH  30  54
ATOM     54  C   UNL A   1      52.220  26.745  26.616  1.00  0.00     0.064 A 
ATOM     55  C   UNL A   1      53.119  26.561  27.674  1.00  0.00     0.173 A 
ATOM     56  C   UNL A   1      52.397  25.950  25.471  1.00  0.00     0.173 A 
ATOM     57  F   UNL A   1      53.013  27.310  28.782  1.00  0.00    -0.203 F 
ATOM     58  C   UNL A   1      54.161  25.637  27.585  1.00  0.00     0.198 A 
ATOM     59  C   UNL A   1      53.417  25.004  25.396  1.00  0.00     0.198 A 
ATOM     60  F   UNL A   1      51.571  26.088  24.424  1.00  0.00    -0.203 F 
ATOM     61  F   UNL A   1      55.036  25.517  28.593  1.00  0.00    -0.200 F 
ATOM     62  C   UNL A   1      54.305  24.855  26.449  1.00  0.00     0.200 A 
ATOM     63  F   UNL A   1      53.543  24.243  24.299  1.00  0.00    -0.200 F 
ATOM     64  F   UNL A   1      55.305  23.966  26.364  1.00  0.00    -0.200 F 
ENDBRANCH  30  54
BRANCH  42  65
ATOM     65  C   UNL A   1      52.003  33.680  25.897  1.00  0.00     0.064 A 
ATOM     66  C   UNL A   1      52.676  34.344  26.932  1.00  0.00     0.173 A 
ATOM     67  C   UNL A   1      52.393  33.944  24.576  1.00  0.00     0.173 A 
ATOM     68  F   UNL A   1      52.326  34.132  28.210  1.00  0.00    -0.203 F 
ATOM     69  C   UNL A   1      53.689  35.255  26.652  1.00  0.00     0.198 A 
ATOM     70  C   UNL A   1      53.426  34.834  24.301  1.00  0.00     0.198 A 
ATOM     71  F   UNL A   1      51.783  33.325  23.554  1.00  0.00    -0.203 F 
ATOM     72  F   UNL A   1      54.291  35.912  27.653  1.00  0.00    -0.200 F 
ATOM     73  C   UNL A   1      54.069  35.494  25.339  1.00  0.00     0.200 A 
ATOM     74  F   UNL A   1      53.801  35.052  23.034  1.00  0.00    -0.200 F 
ATOM     75  F   UNL A   1      55.052  36.363  25.073  1.00  0.00    -0.200 F 
ENDBRANCH  42  65
ENDBRANCH  16  17
ENDBRANCH   9  11
ENDBRANCH   8   9
ENDBRANCH   7   8
ENDBRANCH   6   7
ENDBRANCH   5   6
ENDBRANCH   4   5
ENDBRANCH   3   4
ENDBRANCH   2   3
ENDBRANCH   1   2
BRANCH   1  76
ATOM     76  C   UNL A   1      35.062  22.864  23.367  1.00  0.00     0.188 C 
BRANCH  76  77
ATOM     77  O   UNL A   1      34.721  24.218  23.103  1.00  0.00    -0.376 OA
BRANCH  77  78
ATOM     78  C   UNL A   1      33.624  24.732  23.853  1.00  0.00     0.202 C 
BRANCH  78  79
ATOM     79  C   UNL A   1      33.785  26.191  24.294  1.00  0.00     0.261 C 
BRANCH  79  80
ATOM     80  O   UNL A   1      33.724  26.413  25.715  1.00  0.00    -0.460 OA
BRANCH  80  81
ATOM     81  C   UNL A   1      32.524  26.618  26.307  1.00  0.00     0.338 C 
ATOM     82  O   UNL A   1      31.786  25.782  26.793  1.00  0.00    -0.246 OA
BRANCH  81  83
ATOM     83  C   UNL A   1      32.416  28.084  26.505  1.00  0.00     0.063 A 
ATOM     84  C   UNL A   1      31.492  28.819  25.763  1.00  0.00     0.036 A 
ATOM     85  C   UNL A   1      33.416  28.731  27.237  1.00  0.00     0.046 A 
ATOM     86  C   UNL A   1      31.645  30.188  25.733  1.00  0.00     0.112 A 
ATOM     87  C   UNL A   1      33.524  30.110  27.103  1.00  0.00     0.090 A 
ATOM     88  N   UNL A   1      32.655  30.836  26.351  1.00  0.00    -0.255 NA
BRANCH  87  89
ATOM     89  C   UNL A   1      34.671  30.862  27.624  1.00  0.00     0.092 A 
ATOM     90  C   UNL A   1      34.548  32.193  27.982  1.00  0.00     0.051 A 
ATOM     91  N   UNL A   1      35.803  30.159  27.831  1.00  0.00    -0.228 NA
ATOM     92  C   UNL A   1      35.652  32.772  28.557  1.00  0.00     0.115 A 
ATOM     93  C   UNL A   1      36.800  30.790  28.483  1.00  0.00     0.166 A 
ATOM     94  N   UNL A   1      36.784  32.099  28.817  1.00  0.00    -0.238 NA
BRANCH  93  95
ATOM     95  C   UNL A   1      37.918  29.943  29.053  1.00  0.00     0.306 C 
BRANCH  95  96
ATOM     96  O   UNL A   1      39.125  29.966  28.265  1.00  0.00    -0.486 OA
BRANCH  96  97
ATOM     97  C   UNL A   1      39.590  28.734  27.890  1.00  0.00     0.119 A 
ATOM     98  C   UNL A   1      40.592  28.710  26.922  1.00  0.00     0.046 A 
ATOM     99  C   UNL A   1      39.035  27.532  28.333  1.00  0.00     0.046 A 
ATOM    100  C   UNL A   1      41.072  27.491  26.437  1.00  0.00     0.004 A 
ATOM    101  C   UNL A   1      39.519  26.313  27.856  1.00  0.00     0.004 A 
ATOM    102  C   UNL A   1      40.540  26.291  26.909  1.00  0.00     0.000 A 
ENDBRANCH  96  97
ENDBRANCH  95  96
ENDBRANCH  93  95
ENDBRANCH  87  89
ENDBRANCH  81  83
ENDBRANCH  80  81
ENDBRANCH  79  80
ENDBRANCH  78  79
ENDBRANCH  77  78
ENDBRANCH  76  77
ENDBRANCH   1  76
TORSDOF 24
ENDMDL
