MODEL 1
REMARK VINA RESULT:      -8.0      0.000      0.000
REMARK SMILES CC[C@@H](C)[C@H](NC(=O)[C@H](C)N1C(=O)N2CCC3=c4cc(OC)ccc4=N[C@@H]3[C@@]2(C)C1=O)C(=O)OCCOCCOCCOCCOC(=O)c1ccc(-c2c3nc(c(-c4c(F)c(F)c(F)c(F)c4F)c4ccc([nH]4)c(-c4c(F)c(F)c(F)c(F)c4F)c4nc(c(-c5c(F)c(F)c(F)c(F)c5F)c5ccc2[nH]5)C=C4)C=C3)cc1
REMARK SMILES IDX 39 1 38 2 37 3 36 4 35 5 34 6 32 7 33 8 5 9 3 10 4 11 2 12
REMARK SMILES IDX 1 13 6 14 7 15 8 17 9 18 10 19 11 20 12 21 30 22 14 23 13 24
REMARK SMILES IDX 28 25 31 26 15 27 27 28 29 29 16 30 17 31 26 32 18 33 25 34
REMARK SMILES IDX 19 35 24 36 20 37 23 38 21 39 22 40 40 41 41 42 42 43 43 44
REMARK SMILES IDX 44 45 45 46 46 47 47 48 48 49 49 50 50 51 111 52 51 53
REMARK SMILES IDX 110 54 52 55 53 56 54 57 104 58 55 59 109 60 103 61 105 62
REMARK SMILES IDX 56 63 108 64 102 65 101 66 57 68 89 69 69 70 88 71 70 72
REMARK SMILES IDX 73 73 87 74 106 75 71 76 72 77 86 79 107 80 74 81 58 82
REMARK SMILES IDX 59 83 67 84 60 85 61 86 65 87 68 88 62 89 63 90 66 91 64 92
REMARK SMILES IDX 90 93 91 94 99 95 92 96 93 97 97 98 100 99 94 100 95 101
REMARK SMILES IDX 98 102 96 103 75 104 76 105 84 106 77 107 78 108 82 109
REMARK SMILES IDX 85 110 79 111 80 112 83 113 81 114
REMARK H PARENT 6 16 105 67 73 78
REMARK Flexibility Score: inf
ROOT
ATOM      1  C   UNL A   1      33.480  25.355  25.568  1.00  0.00     0.188 C 
ENDROOT
BRANCH   1   2
ATOM      2  C   UNL A   1      33.813  23.857  25.688  1.00  0.00     0.188 C 
BRANCH   2   3
ATOM      3  O   UNL A   1      35.129  23.401  25.956  1.00  0.00    -0.376 OA
BRANCH   3   4
ATOM      4  C   UNL A   1      36.233  23.888  25.212  1.00  0.00     0.202 C 
BRANCH   4   5
ATOM      5  C   UNL A   1      37.667  23.438  25.568  1.00  0.00     0.261 C 
BRANCH   5   6
ATOM      6  O   UNL A   1      38.357  24.134  26.644  1.00  0.00    -0.462 OA
BRANCH   6   7
ATOM      7  C   UNL A   1      39.625  23.716  26.865  1.00  0.00     0.328 C 
ATOM      8  O   UNL A   1      40.094  22.721  26.304  1.00  0.00    -0.250 OA
BRANCH   7   9
ATOM      9  C   UNL A   1      40.405  24.382  28.068  1.00  0.00     0.195 C 
BRANCH   9  10
ATOM     10  C   UNL A   1      40.248  25.905  27.632  1.00  0.00     0.019 C 
ATOM     11  C   UNL A   1      41.097  26.268  26.424  1.00  0.00     0.010 C 
BRANCH  10  12
ATOM     12  C   UNL A   1      40.351  26.900  28.799  1.00  0.00     0.002 C 
ATOM     13  C   UNL A   1      40.380  28.371  28.395  1.00  0.00     0.004 C 
ENDBRANCH  10  12
ENDBRANCH   9  10
BRANCH   9  14
ATOM     14  N   UNL A   1      41.782  24.007  28.770  1.00  0.00    -0.341 N 
ATOM     15  C   UNL A   1      43.154  24.268  28.960  1.00  0.00     0.243 C 
ATOM     16  H   UNL A   1      41.583  23.228  29.337  1.00  0.00     0.164 HD
ATOM     17  O   UNL A   1      43.648  23.431  29.750  1.00  0.00    -0.273 OA
BRANCH  15  18
ATOM     18  C   UNL A   1      44.290  25.471  28.436  1.00  0.00     0.181 C 
ATOM     19  C   UNL A   1      43.818  26.860  28.876  1.00  0.00     0.042 C 
BRANCH  18  20
ATOM     20  N   UNL A   1      44.627  25.573  26.944  1.00  0.00    -0.250 N 
ATOM     21  C   UNL A   1      44.788  26.726  25.981  1.00  0.00     0.328 C 
ATOM     22  C   UNL A   1      45.570  24.671  26.679  1.00  0.00     0.259 C 
ATOM     23  N   UNL A   1      45.912  26.335  25.006  1.00  0.00    -0.307 N 
ATOM     24  O   UNL A   1      44.283  27.835  26.044  1.00  0.00    -0.248 OA
ATOM     25  C   UNL A   1      46.455  25.338  25.766  1.00  0.00     0.147 C 
ATOM     26  O   UNL A   1      45.844  23.619  27.226  1.00  0.00    -0.271 OA
ATOM     27  C   UNL A   1      47.352  26.917  24.284  1.00  0.00     0.127 C 
ATOM     28  C   UNL A   1      47.241  26.399  26.681  1.00  0.00     0.168 C 
ATOM     29  C   UNL A   1      46.747  24.289  24.682  1.00  0.00     0.048 C 
ATOM     30  C   UNL A   1      48.849  26.295  25.246  1.00  0.00     0.055 C 
ATOM     31  C   UNL A   1      48.614  26.036  26.845  1.00  0.00    -0.032 C 
ATOM     32  N   UNL A   1      46.740  27.364  27.718  1.00  0.00    -0.274 NA
ATOM     33  C   UNL A   1      48.805  26.406  28.158  1.00  0.00     0.005 A 
ATOM     34  C   UNL A   1      47.902  27.615  28.282  1.00  0.00     0.066 A 
ATOM     35  C   UNL A   1      48.099  25.588  29.309  1.00  0.00     0.056 A 
ATOM     36  C   UNL A   1      48.063  28.431  29.497  1.00  0.00     0.032 A 
ATOM     37  C   UNL A   1      47.456  26.282  30.320  1.00  0.00     0.119 A 
ATOM     38  C   UNL A   1      47.782  27.669  30.560  1.00  0.00     0.048 A 
BRANCH  37  39
ATOM     39  O   UNL A   1      46.271  25.866  30.889  1.00  0.00    -0.497 OA
ATOM     40  C   UNL A   1      46.169  25.264  32.187  1.00  0.00     0.278 C 
ENDBRANCH  37  39
ENDBRANCH  18  20
ENDBRANCH  15  18
ENDBRANCH   9  14
ENDBRANCH   7   9
ENDBRANCH   6   7
ENDBRANCH   5   6
ENDBRANCH   4   5
ENDBRANCH   3   4
ENDBRANCH   2   3
ENDBRANCH   1   2
BRANCH   1  41
ATOM     41  O   UNL A   1      32.563  25.859  26.520  1.00  0.00    -0.377 OA
BRANCH  41  42
ATOM     42  C   UNL A   1      31.919  27.075  26.200  1.00  0.00     0.188 C 
BRANCH  42  43
ATOM     43  C   UNL A   1      32.003  28.183  27.263  1.00  0.00     0.188 C 
BRANCH  43  44
ATOM     44  O   UNL A   1      33.330  28.569  27.598  1.00  0.00    -0.376 OA
BRANCH  44  45
ATOM     45  C   UNL A   1      33.954  29.531  26.759  1.00  0.00     0.202 C 
BRANCH  45  46
ATOM     46  C   UNL A   1      34.063  30.949  27.324  1.00  0.00     0.261 C 
BRANCH  46  47
ATOM     47  O   UNL A   1      34.570  31.109  28.635  1.00  0.00    -0.460 OA
BRANCH  47  48
ATOM     48  C   UNL A   1      34.867  32.352  29.058  1.00  0.00     0.338 C 
ATOM     49  O   UNL A   1      34.138  33.291  29.176  1.00  0.00    -0.246 OA
BRANCH  48  50
ATOM     50  C   UNL A   1      36.236  32.188  29.595  1.00  0.00     0.060 A 
ATOM     51  C   UNL A   1      37.201  31.453  28.896  1.00  0.00     0.016 A 
ATOM     52  C   UNL A   1      36.478  32.659  30.886  1.00  0.00     0.016 A 
ATOM     53  C   UNL A   1      38.448  31.242  29.477  1.00  0.00     0.010 A 
ATOM     54  C   UNL A   1      37.718  32.435  31.472  1.00  0.00     0.010 A 
ATOM     55  C   UNL A   1      38.718  31.765  30.752  1.00  0.00    -0.014 A 
BRANCH  55  56
ATOM     56  C   UNL A   1      40.110  31.854  31.233  1.00  0.00     0.031 A 
ATOM     57  C   UNL A   1      41.018  32.971  30.847  1.00  0.00     0.074 A 
ATOM     58  C   UNL A   1      40.548  30.824  31.978  1.00  0.00     0.049 A 
ATOM     59  N   UNL A   1      42.260  33.170  31.203  1.00  0.00    -0.248 NA
ATOM     60  C   UNL A   1      40.474  33.985  29.935  1.00  0.00     0.031 C 
ATOM     61  C   UNL A   1      39.734  29.666  32.357  1.00  0.00     0.029 A 
ATOM     62  N   UNL A   1      41.769  30.575  32.539  1.00  0.00    -0.354 N 
ATOM     63  C   UNL A   1      42.646  34.348  30.582  1.00  0.00     0.074 A 
ATOM     64  C   UNL A   1      41.522  34.786  29.778  1.00  0.00     0.031 C 
ATOM     65  C   UNL A   1      40.471  28.843  33.112  1.00  0.00     0.029 A 
ATOM     66  C   UNL A   1      41.811  29.401  33.246  1.00  0.00     0.049 A 
ATOM     67  H   UNL A   1      42.542  31.179  32.447  1.00  0.00     0.167 HD
ATOM     68  C   UNL A   1      43.827  35.002  30.698  1.00  0.00     0.037 A 
ATOM     69  C   UNL A   1      42.819  28.838  33.933  1.00  0.00     0.037 A 
ATOM     70  C   UNL A   1      44.941  34.522  31.480  1.00  0.00     0.049 A 
ATOM     71  C   UNL A   1      44.131  29.559  34.004  1.00  0.00     0.074 A 
ATOM     72  C   UNL A   1      46.170  35.121  31.692  1.00  0.00     0.029 A 
ATOM     73  N   UNL A   1      44.967  33.311  32.164  1.00  0.00    -0.354 N 
ATOM     74  N   UNL A   1      44.466  30.714  33.482  1.00  0.00    -0.248 NA
ATOM     75  C   UNL A   1      45.202  28.904  34.763  1.00  0.00     0.031 C 
ATOM     76  C   UNL A   1      46.958  34.249  32.451  1.00  0.00     0.029 A 
ATOM     77  C   UNL A   1      46.202  33.132  32.769  1.00  0.00     0.049 A 
ATOM     78  H   UNL A   1      44.217  32.675  32.213  1.00  0.00     0.167 HD
ATOM     79  C   UNL A   1      45.780  30.937  33.861  1.00  0.00     0.074 A 
ATOM     80  C   UNL A   1      46.175  29.802  34.674  1.00  0.00     0.031 C 
ATOM     81  C   UNL A   1      46.584  31.987  33.562  1.00  0.00     0.037 A 
BRANCH  68  82
ATOM     82  C   UNL A   1      43.973  36.308  29.969  1.00  0.00     0.064 A 
ATOM     83  C   UNL A   1      43.871  37.536  30.642  1.00  0.00     0.173 A 
ATOM     84  C   UNL A   1      44.264  36.338  28.597  1.00  0.00     0.173 A 
ATOM     85  F   UNL A   1      43.592  37.567  31.953  1.00  0.00    -0.203 F 
ATOM     86  C   UNL A   1      44.023  38.743  29.963  1.00  0.00     0.198 A 
ATOM     87  C   UNL A   1      44.446  37.547  27.928  1.00  0.00     0.198 A 
ATOM     88  F   UNL A   1      44.382  35.196  27.903  1.00  0.00    -0.203 F 
ATOM     89  F   UNL A   1      43.873  39.902  30.620  1.00  0.00    -0.200 F 
ATOM     90  C   UNL A   1      44.317  38.748  28.609  1.00  0.00     0.200 A 
ATOM     91  F   UNL A   1      44.748  37.550  26.621  1.00  0.00    -0.200 F 
ATOM     92  F   UNL A   1      44.471  39.909  27.959  1.00  0.00    -0.200 F 
ENDBRANCH  68  82
BRANCH  69  93
ATOM     93  C   UNL A   1      42.572  27.568  34.656  1.00  0.00     0.064 A 
ATOM     94  C   UNL A   1      41.850  27.566  35.857  1.00  0.00     0.173 A 
ATOM     95  C   UNL A   1      42.956  26.331  34.120  1.00  0.00     0.173 A 
ATOM     96  F   UNL A   1      41.466  28.727  36.409  1.00  0.00    -0.203 F 
ATOM     97  C   UNL A   1      41.518  26.373  36.493  1.00  0.00     0.198 A 
ATOM     98  C   UNL A   1      42.602  25.137  34.744  1.00  0.00     0.198 A 
ATOM     99  F   UNL A   1      43.632  26.281  32.962  1.00  0.00    -0.203 F 
ATOM    100  F   UNL A   1      40.837  26.398  37.646  1.00  0.00    -0.200 F 
ATOM    101  C   UNL A   1      41.884  25.159  35.930  1.00  0.00     0.200 A 
ATOM    102  F   UNL A   1      42.936  23.966  34.184  1.00  0.00    -0.200 F 
ATOM    103  F   UNL A   1      41.541  24.011  36.529  1.00  0.00    -0.200 F 
ENDBRANCH  69  93
BRANCH  81 104
ATOM    104  C   UNL A   1      47.981  31.959  34.114  1.00  0.00     0.064 A 
ATOM    105  C   UNL A   1      48.290  32.544  35.351  1.00  0.00     0.173 A 
ATOM    106  C   UNL A   1      49.005  31.286  33.430  1.00  0.00     0.173 A 
ATOM    107  F   UNL A   1      47.351  33.213  36.036  1.00  0.00    -0.203 F 
ATOM    108  C   UNL A   1      49.578  32.468  35.875  1.00  0.00     0.198 A 
ATOM    109  C   UNL A   1      50.283  31.185  33.973  1.00  0.00     0.198 A 
ATOM    110  F   UNL A   1      48.761  30.706  32.245  1.00  0.00    -0.203 F 
ATOM    111  F   UNL A   1      49.861  33.069  37.040  1.00  0.00    -0.200 F 
ATOM    112  C   UNL A   1      50.569  31.780  35.192  1.00  0.00     0.200 A 
ATOM    113  F   UNL A   1      51.236  30.506  33.319  1.00  0.00    -0.200 F 
ATOM    114  F   UNL A   1      51.804  31.693  35.707  1.00  0.00    -0.200 F 
ENDBRANCH  81 104
ENDBRANCH  55  56
ENDBRANCH  48  50
ENDBRANCH  47  48
ENDBRANCH  46  47
ENDBRANCH  45  46
ENDBRANCH  44  45
ENDBRANCH  43  44
ENDBRANCH  42  43
ENDBRANCH  41  42
ENDBRANCH   1  41
TORSDOF 26
ENDMDL
MODEL 2
REMARK VINA RESULT:      -7.8      4.922     11.410
REMARK SMILES CC[C@@H](C)[C@H](NC(=O)[C@H](C)N1C(=O)N2CCC3=c4cc(OC)ccc4=N[C@@H]3[C@@]2(C)C1=O)C(=O)OCCOCCOCCOCCOC(=O)c1ccc(-c2c3nc(c(-c4c(F)c(F)c(F)c(F)c4F)c4ccc([nH]4)c(-c4c(F)c(F)c(F)c(F)c4F)c4nc(c(-c5c(F)c(F)c(F)c(F)c5F)c5ccc2[nH]5)C=C4)C=C3)cc1
REMARK SMILES IDX 39 1 38 2 37 3 36 4 35 5 34 6 32 7 33 8 5 9 3 10 4 11 2 12
REMARK SMILES IDX 1 13 6 14 7 15 8 17 9 18 10 19 11 20 12 21 30 22 14 23 13 24
REMARK SMILES IDX 28 25 31 26 15 27 27 28 29 29 16 30 17 31 26 32 18 33 25 34
REMARK SMILES IDX 19 35 24 36 20 37 23 38 21 39 22 40 40 41 41 42 42 43 43 44
REMARK SMILES IDX 44 45 45 46 46 47 47 48 48 49 49 50 50 51 111 52 51 53
REMARK SMILES IDX 110 54 52 55 53 56 54 57 104 58 55 59 109 60 103 61 105 62
REMARK SMILES IDX 56 63 108 64 102 65 101 66 57 68 89 69 69 70 88 71 70 72
REMARK SMILES IDX 73 73 87 74 106 75 71 76 72 77 86 79 107 80 74 81 58 82
REMARK SMILES IDX 59 83 67 84 60 85 61 86 65 87 68 88 62 89 63 90 66 91 64 92
REMARK SMILES IDX 90 93 91 94 99 95 92 96 93 97 97 98 100 99 94 100 95 101
REMARK SMILES IDX 98 102 96 103 75 104 76 105 84 106 77 107 78 108 82 109
REMARK SMILES IDX 85 110 79 111 80 112 83 113 81 114
REMARK H PARENT 6 16 105 67 73 78
REMARK Flexibility Score: inf
ROOT
ATOM      1  C   UNL A   1      42.696  39.179  26.930  1.00  0.00     0.188 C 
ENDROOT
BRANCH   1   2
ATOM      2  C   UNL A   1      41.983  37.828  26.740  1.00  0.00     0.188 C 
BRANCH   2   3
ATOM      3  O   UNL A   1      42.286  36.701  27.547  1.00  0.00    -0.376 OA
BRANCH   3   4
ATOM      4  C   UNL A   1      41.496  36.385  28.680  1.00  0.00     0.202 C 
BRANCH   4   5
ATOM      5  C   UNL A   1      40.854  34.986  28.813  1.00  0.00     0.261 C 
BRANCH   5   6
ATOM      6  O   UNL A   1      39.410  34.906  28.967  1.00  0.00    -0.462 OA
BRANCH   6   7
ATOM      7  C   UNL A   1      38.996  34.422  30.161  1.00  0.00     0.328 C 
ATOM      8  O   UNL A   1      39.475  34.814  31.229  1.00  0.00    -0.250 OA
BRANCH   7   9
ATOM      9  C   UNL A   1      38.068  33.142  30.137  1.00  0.00     0.195 C 
BRANCH   9  10
ATOM     10  C   UNL A   1      36.862  33.745  29.291  1.00  0.00     0.019 C 
ATOM     11  C   UNL A   1      35.639  34.062  30.139  1.00  0.00     0.010 C 
BRANCH  10  12
ATOM     12  C   UNL A   1      36.552  32.963  28.005  1.00  0.00     0.002 C 
ATOM     13  C   UNL A   1      35.173  32.312  27.959  1.00  0.00     0.004 C 
ENDBRANCH  10  12
ENDBRANCH   9  10
BRANCH   9  14
ATOM     14  N   UNL A   1      37.658  32.115  31.280  1.00  0.00    -0.341 N 
ATOM     15  C   UNL A   1      37.932  30.936  32.003  1.00  0.00     0.243 C 
ATOM     16  H   UNL A   1      36.822  32.467  31.661  1.00  0.00     0.164 HD
ATOM     17  O   UNL A   1      37.032  30.730  32.851  1.00  0.00    -0.273 OA
BRANCH  15  18
ATOM     18  C   UNL A   1      39.208  29.762  32.058  1.00  0.00     0.181 C 
ATOM     19  C   UNL A   1      38.619  28.349  32.021  1.00  0.00     0.042 C 
BRANCH  18  20
ATOM     20  N   UNL A   1      40.197  29.796  33.229  1.00  0.00    -0.250 N 
ATOM     21  C   UNL A   1      41.041  28.750  33.920  1.00  0.00     0.328 C 
ATOM     22  C   UNL A   1      40.917  30.910  33.121  1.00  0.00     0.259 C 
ATOM     23  N   UNL A   1      42.358  29.437  34.321  1.00  0.00    -0.307 N 
ATOM     24  O   UNL A   1      40.838  27.549  33.997  1.00  0.00    -0.248 OA
ATOM     25  C   UNL A   1      42.248  30.512  33.484  1.00  0.00     0.147 C 
ATOM     26  O   UNL A   1      40.660  31.978  32.598  1.00  0.00    -0.271 OA
ATOM     27  C   UNL A   1      44.059  29.252  34.275  1.00  0.00     0.127 C 
ATOM     28  C   UNL A   1      42.760  29.648  32.231  1.00  0.00     0.168 C 
ATOM     29  C   UNL A   1      42.744  31.635  34.408  1.00  0.00     0.048 C 
ATOM     30  C   UNL A   1      44.767  30.192  32.802  1.00  0.00     0.055 C 
ATOM     31  C   UNL A   1      43.782  30.332  31.503  1.00  0.00    -0.032 C 
ATOM     32  N   UNL A   1      42.086  28.555  31.449  1.00  0.00    -0.274 NA
ATOM     33  C   UNL A   1      43.439  29.977  30.216  1.00  0.00     0.005 A 
ATOM     34  C   UNL A   1      42.890  28.579  30.408  1.00  0.00     0.066 A 
ATOM     35  C   UNL A   1      42.120  30.558  29.572  1.00  0.00     0.056 A 
ATOM     36  C   UNL A   1      42.670  27.789  29.186  1.00  0.00     0.032 A 
ATOM     37  C   UNL A   1      41.272  29.694  28.901  1.00  0.00     0.119 A 
ATOM     38  C   UNL A   1      41.769  28.423  28.427  1.00  0.00     0.048 A 
BRANCH  37  39
ATOM     39  O   UNL A   1      39.897  29.787  28.956  1.00  0.00    -0.497 OA
ATOM     40  C   UNL A   1      39.012  29.220  27.979  1.00  0.00     0.278 C 
ENDBRANCH  37  39
ENDBRANCH  18  20
ENDBRANCH  15  18
ENDBRANCH   9  14
ENDBRANCH   7   9
ENDBRANCH   6   7
ENDBRANCH   5   6
ENDBRANCH   4   5
ENDBRANCH   3   4
ENDBRANCH   2   3
ENDBRANCH   1   2
BRANCH   1  41
ATOM     41  O   UNL A   1      42.861  39.957  25.761  1.00  0.00    -0.377 OA
BRANCH  41  42
ATOM     42  C   UNL A   1      42.028  41.090  25.628  1.00  0.00     0.188 C 
BRANCH  42  43
ATOM     43  C   UNL A   1      42.038  41.778  24.253  1.00  0.00     0.188 C 
BRANCH  43  44
ATOM     44  O   UNL A   1      43.335  41.947  23.697  1.00  0.00    -0.376 OA
BRANCH  44  45
ATOM     45  C   UNL A   1      43.423  42.645  22.461  1.00  0.00     0.202 C 
BRANCH  45  46
ATOM     46  C   UNL A   1      44.828  42.822  21.885  1.00  0.00     0.261 C 
BRANCH  46  47
ATOM     47  O   UNL A   1      45.846  43.305  22.742  1.00  0.00    -0.460 OA
BRANCH  47  48
ATOM     48  C   UNL A   1      46.986  42.596  22.842  1.00  0.00     0.338 C 
ATOM     49  O   UNL A   1      47.992  42.711  22.208  1.00  0.00    -0.246 OA
BRANCH  48  50
ATOM     50  C   UNL A   1      46.784  41.842  24.099  1.00  0.00     0.060 A 
ATOM     51  C   UNL A   1      46.920  42.466  25.344  1.00  0.00     0.016 A 
ATOM     52  C   UNL A   1      46.608  40.461  23.996  1.00  0.00     0.016 A 
ATOM     53  C   UNL A   1      46.815  41.704  26.504  1.00  0.00     0.010 A 
ATOM     54  C   UNL A   1      46.518  39.697  25.153  1.00  0.00     0.010 A 
ATOM     55  C   UNL A   1      46.578  40.323  26.407  1.00  0.00    -0.014 A 
BRANCH  55  56
ATOM     56  C   UNL A   1      46.126  39.568  27.592  1.00  0.00     0.031 A 
ATOM     57  C   UNL A   1      46.026  38.081  27.602  1.00  0.00     0.074 A 
ATOM     58  C   UNL A   1      45.726  40.301  28.646  1.00  0.00     0.049 A 
ATOM     59  N   UNL A   1      45.648  37.297  28.577  1.00  0.00    -0.248 NA
ATOM     60  C   UNL A   1      46.377  37.383  26.359  1.00  0.00     0.031 C 
ATOM     61  C   UNL A   1      45.745  41.766  28.696  1.00  0.00     0.029 A 
ATOM     62  N   UNL A   1      45.224  39.930  29.861  1.00  0.00    -0.354 N 
ATOM     63  C   UNL A   1      45.740  36.006  28.081  1.00  0.00     0.074 A 
ATOM     64  C   UNL A   1      46.153  36.119  26.695  1.00  0.00     0.031 C 
ATOM     65  C   UNL A   1      45.301  42.168  29.892  1.00  0.00     0.029 A 
ATOM     66  C   UNL A   1      44.942  40.994  30.679  1.00  0.00     0.049 A 
ATOM     67  H   UNL A   1      45.080  38.992  30.125  1.00  0.00     0.167 HD
ATOM     68  C   UNL A   1      45.517  34.843  28.739  1.00  0.00     0.037 A 
ATOM     69  C   UNL A   1      44.455  41.020  31.931  1.00  0.00     0.037 A 
ATOM     70  C   UNL A   1      45.073  34.766  30.110  1.00  0.00     0.049 A 
ATOM     71  C   UNL A   1      44.169  39.720  32.618  1.00  0.00     0.074 A 
ATOM     72  C   UNL A   1      44.847  33.639  30.883  1.00  0.00     0.029 A 
ATOM     73  N   UNL A   1      44.767  35.862  30.908  1.00  0.00    -0.354 N 
ATOM     74  N   UNL A   1      44.335  38.498  32.173  1.00  0.00    -0.248 NA
ATOM     75  C   UNL A   1      43.635  39.799  33.982  1.00  0.00     0.031 C 
ATOM     76  C   UNL A   1      44.349  34.052  32.123  1.00  0.00     0.029 A 
ATOM     77  C   UNL A   1      44.322  35.437  32.151  1.00  0.00     0.049 A 
ATOM     78  H   UNL A   1      44.854  36.803  30.631  1.00  0.00     0.167 HD
ATOM     79  C   UNL A   1      43.944  37.659  33.204  1.00  0.00     0.074 A 
ATOM     80  C   UNL A   1      43.548  38.515  34.306  1.00  0.00     0.031 C 
ATOM     81  C   UNL A   1      43.916  36.304  33.233  1.00  0.00     0.037 A 
BRANCH  68  82
ATOM     82  C   UNL A   1      45.754  33.563  27.988  1.00  0.00     0.064 A 
ATOM     83  C   UNL A   1      47.053  33.081  27.758  1.00  0.00     0.173 A 
ATOM     84  C   UNL A   1      44.680  32.784  27.534  1.00  0.00     0.173 A 
ATOM     85  F   UNL A   1      48.118  33.786  28.167  1.00  0.00    -0.203 F 
ATOM     86  C   UNL A   1      47.266  31.886  27.075  1.00  0.00     0.198 A 
ATOM     87  C   UNL A   1      44.896  31.573  26.879  1.00  0.00     0.198 A 
ATOM     88  F   UNL A   1      43.416  33.189  27.734  1.00  0.00    -0.203 F 
ATOM     89  F   UNL A   1      48.517  31.472  26.826  1.00  0.00    -0.200 F 
ATOM     90  C   UNL A   1      46.188  31.130  26.643  1.00  0.00     0.200 A 
ATOM     91  F   UNL A   1      43.852  30.834  26.476  1.00  0.00    -0.200 F 
ATOM     92  F   UNL A   1      46.395  29.976  25.993  1.00  0.00    -0.200 F 
ENDBRANCH  68  82
BRANCH  69  93
ATOM     93  C   UNL A   1      44.292  42.328  32.608  1.00  0.00     0.064 A 
ATOM     94  C   UNL A   1      45.414  43.038  33.056  1.00  0.00     0.173 A 
ATOM     95  C   UNL A   1      43.037  42.940  32.731  1.00  0.00     0.173 A 
ATOM     96  F   UNL A   1      46.634  42.489  32.963  1.00  0.00    -0.203 F 
ATOM     97  C   UNL A   1      45.286  44.314  33.599  1.00  0.00     0.198 A 
ATOM     98  C   UNL A   1      42.913  44.227  33.251  1.00  0.00     0.198 A 
ATOM     99  F   UNL A   1      41.936  42.308  32.299  1.00  0.00    -0.203 F 
ATOM    100  F   UNL A   1      46.373  44.968  34.030  1.00  0.00    -0.200 F 
ATOM    101  C   UNL A   1      44.037  44.912  33.685  1.00  0.00     0.200 A 
ATOM    102  F   UNL A   1      41.708  44.810  33.311  1.00  0.00    -0.200 F 
ATOM    103  F   UNL A   1      43.919  46.151  34.182  1.00  0.00    -0.200 F 
ENDBRANCH  69  93
BRANCH  81 104
ATOM    104  C   UNL A   1      43.436  35.656  34.500  1.00  0.00     0.064 A 
ATOM    105  C   UNL A   1      44.319  35.357  35.548  1.00  0.00     0.173 A 
ATOM    106  C   UNL A   1      42.072  35.390  34.693  1.00  0.00     0.173 A 
ATOM    107  F   UNL A   1      45.634  35.576  35.407  1.00  0.00    -0.203 F 
ATOM    108  C   UNL A   1      43.854  34.801  36.737  1.00  0.00     0.198 A 
ATOM    109  C   UNL A   1      41.607  34.864  35.895  1.00  0.00     0.198 A 
ATOM    110  F   UNL A   1      41.185  35.661  33.723  1.00  0.00    -0.203 F 
ATOM    111  F   UNL A   1      44.721  34.486  37.710  1.00  0.00    -0.200 F 
ATOM    112  C   UNL A   1      42.499  34.567  36.915  1.00  0.00     0.200 A 
ATOM    113  F   UNL A   1      40.295  34.653  36.071  1.00  0.00    -0.200 F 
ATOM    114  F   UNL A   1      42.052  34.048  38.067  1.00  0.00    -0.200 F 
ENDBRANCH  81 104
ENDBRANCH  55  56
ENDBRANCH  48  50
ENDBRANCH  47  48
ENDBRANCH  46  47
ENDBRANCH  45  46
ENDBRANCH  44  45
ENDBRANCH  43  44
ENDBRANCH  42  43
ENDBRANCH  41  42
ENDBRANCH   1  41
TORSDOF 26
ENDMDL
MODEL 3
REMARK VINA RESULT:      -7.7      3.332      9.612
REMARK SMILES CC[C@@H](C)[C@H](NC(=O)[C@H](C)N1C(=O)N2CCC3=c4cc(OC)ccc4=N[C@@H]3[C@@]2(C)C1=O)C(=O)OCCOCCOCCOCCOC(=O)c1ccc(-c2c3nc(c(-c4c(F)c(F)c(F)c(F)c4F)c4ccc([nH]4)c(-c4c(F)c(F)c(F)c(F)c4F)c4nc(c(-c5c(F)c(F)c(F)c(F)c5F)c5ccc2[nH]5)C=C4)C=C3)cc1
REMARK SMILES IDX 39 1 38 2 37 3 36 4 35 5 34 6 32 7 33 8 5 9 3 10 4 11 2 12
REMARK SMILES IDX 1 13 6 14 7 15 8 17 9 18 10 19 11 20 12 21 30 22 14 23 13 24
REMARK SMILES IDX 28 25 31 26 15 27 27 28 29 29 16 30 17 31 26 32 18 33 25 34
REMARK SMILES IDX 19 35 24 36 20 37 23 38 21 39 22 40 40 41 41 42 42 43 43 44
REMARK SMILES IDX 44 45 45 46 46 47 47 48 48 49 49 50 50 51 111 52 51 53
REMARK SMILES IDX 110 54 52 55 53 56 54 57 104 58 55 59 109 60 103 61 105 62
REMARK SMILES IDX 56 63 108 64 102 65 101 66 57 68 89 69 69 70 88 71 70 72
REMARK SMILES IDX 73 73 87 74 106 75 71 76 72 77 86 79 107 80 74 81 58 82
REMARK SMILES IDX 59 83 67 84 60 85 61 86 65 87 68 88 62 89 63 90 66 91 64 92
REMARK SMILES IDX 90 93 91 94 99 95 92 96 93 97 97 98 100 99 94 100 95 101
REMARK SMILES IDX 98 102 96 103 75 104 76 105 84 106 77 107 78 108 82 109
REMARK SMILES IDX 85 110 79 111 80 112 83 113 81 114
REMARK H PARENT 6 16 105 67 73 78
REMARK Flexibility Score: inf
ROOT
ATOM      1  C   UNL A   1      52.125  22.906  32.837  1.00  0.00     0.188 C 
ENDROOT
BRANCH   1   2
ATOM      2  C   UNL A   1      51.969  24.404  32.518  1.00  0.00     0.188 C 
BRANCH   2   3
ATOM      3  O   UNL A   1      50.857  24.905  31.793  1.00  0.00    -0.376 OA
BRANCH   3   4
ATOM      4  C   UNL A   1      51.043  25.680  30.621  1.00  0.00     0.202 C 
BRANCH   4   5
ATOM      5  C   UNL A   1      49.907  25.797  29.581  1.00  0.00     0.261 C 
BRANCH   5   6
ATOM      6  O   UNL A   1      49.517  27.127  29.137  1.00  0.00    -0.462 OA
BRANCH   6   7
ATOM      7  C   UNL A   1      48.182  27.319  29.035  1.00  0.00     0.328 C 
ATOM      8  O   UNL A   1      47.378  26.739  29.771  1.00  0.00    -0.250 OA
BRANCH   7   9
ATOM      9  C   UNL A   1      47.661  28.104  27.765  1.00  0.00     0.195 C 
BRANCH   9  10
ATOM     10  C   UNL A   1      47.421  29.521  28.450  1.00  0.00     0.019 C 
ATOM     11  C   UNL A   1      45.984  29.725  28.906  1.00  0.00     0.010 C 
BRANCH  10  12
ATOM     12  C   UNL A   1      48.006  30.702  27.660  1.00  0.00     0.002 C 
ATOM     13  C   UNL A   1      47.504  32.078  28.086  1.00  0.00     0.004 C 
ENDBRANCH  10  12
ENDBRANCH   9  10
BRANCH   9  14
ATOM     14  N   UNL A   1      46.621  27.705  26.631  1.00  0.00    -0.341 N 
ATOM     15  C   UNL A   1      45.426  27.056  26.259  1.00  0.00     0.243 C 
ATOM     16  H   UNL A   1      46.977  28.092  25.800  1.00  0.00     0.164 HD
ATOM     17  O   UNL A   1      45.237  27.171  25.025  1.00  0.00    -0.273 OA
BRANCH  15  18
ATOM     18  C   UNL A   1      44.146  26.212  27.073  1.00  0.00     0.181 C 
ATOM     19  C   UNL A   1      44.012  26.728  28.509  1.00  0.00     0.042 C 
BRANCH  18  20
ATOM     20  N   UNL A   1      44.203  24.682  27.158  1.00  0.00    -0.250 N 
ATOM     21  C   UNL A   1      44.024  23.687  28.281  1.00  0.00     0.328 C 
ATOM     22  C   UNL A   1      43.619  24.193  26.067  1.00  0.00     0.259 C 
ATOM     23  N   UNL A   1      43.333  22.454  27.674  1.00  0.00    -0.307 N 
ATOM     24  O   UNL A   1      44.203  23.859  29.476  1.00  0.00    -0.248 OA
ATOM     25  C   UNL A   1      42.872  23.062  26.540  1.00  0.00     0.147 C 
ATOM     26  O   UNL A   1      43.478  24.668  24.956  1.00  0.00    -0.271 OA
ATOM     27  C   UNL A   1      42.039  21.359  27.920  1.00  0.00     0.127 C 
ATOM     28  C   UNL A   1      41.633  23.708  27.333  1.00  0.00     0.168 C 
ATOM     29  C   UNL A   1      43.147  21.961  25.503  1.00  0.00     0.048 C 
ATOM     30  C   UNL A   1      40.543  21.896  26.907  1.00  0.00     0.055 C 
ATOM     31  C   UNL A   1      40.400  23.504  26.639  1.00  0.00    -0.032 C 
ATOM     32  N   UNL A   1      41.586  24.820  28.342  1.00  0.00    -0.274 NA
ATOM     33  C   UNL A   1      39.782  24.710  26.890  1.00  0.00     0.005 A 
ATOM     34  C   UNL A   1      40.291  25.045  28.276  1.00  0.00     0.066 A 
ATOM     35  C   UNL A   1      40.336  26.025  26.216  1.00  0.00     0.056 A 
ATOM     36  C   UNL A   1      39.616  26.154  28.970  1.00  0.00     0.032 A 
ATOM     37  C   UNL A   1      40.495  27.156  26.999  1.00  0.00     0.119 A 
ATOM     38  C   UNL A   1      39.784  27.270  28.251  1.00  0.00     0.048 A 
BRANCH  37  39
ATOM     39  O   UNL A   1      41.551  28.033  26.858  1.00  0.00    -0.497 OA
ATOM     40  C   UNL A   1      41.907  28.672  25.624  1.00  0.00     0.278 C 
ENDBRANCH  37  39
ENDBRANCH  18  20
ENDBRANCH  15  18
ENDBRANCH   9  14
ENDBRANCH   7   9
ENDBRANCH   6   7
ENDBRANCH   5   6
ENDBRANCH   4   5
ENDBRANCH   3   4
ENDBRANCH   2   3
ENDBRANCH   1   2
BRANCH   1  41
ATOM     41  O   UNL A   1      51.880  22.534  34.179  1.00  0.00    -0.377 OA
BRANCH  41  42
ATOM     42  C   UNL A   1      50.827  23.203  34.842  1.00  0.00     0.188 C 
BRANCH  42  43
ATOM     43  C   UNL A   1      49.413  22.651  34.593  1.00  0.00     0.188 C 
BRANCH  43  44
ATOM     44  O   UNL A   1      48.707  22.307  35.778  1.00  0.00    -0.376 OA
BRANCH  44  45
ATOM     45  C   UNL A   1      47.537  23.059  36.073  1.00  0.00     0.202 C 
BRANCH  45  46
ATOM     46  C   UNL A   1      46.295  22.727  35.244  1.00  0.00     0.261 C 
BRANCH  46  47
ATOM     47  O   UNL A   1      45.088  23.400  35.548  1.00  0.00    -0.460 OA
BRANCH  47  48
ATOM     48  C   UNL A   1      44.143  23.481  34.592  1.00  0.00     0.338 C 
ATOM     49  O   UNL A   1      43.228  22.741  34.387  1.00  0.00    -0.246 OA
BRANCH  48  50
ATOM     50  C   UNL A   1      44.355  24.841  34.049  1.00  0.00     0.060 A 
ATOM     51  C   UNL A   1      44.737  25.033  32.716  1.00  0.00     0.016 A 
ATOM     52  C   UNL A   1      44.309  25.905  34.950  1.00  0.00     0.016 A 
ATOM     53  C   UNL A   1      45.018  26.319  32.266  1.00  0.00     0.010 A 
ATOM     54  C   UNL A   1      44.604  27.188  34.505  1.00  0.00     0.010 A 
ATOM     55  C   UNL A   1      44.916  27.403  33.155  1.00  0.00    -0.014 A 
BRANCH  55  56
ATOM     56  C   UNL A   1      44.868  28.782  32.633  1.00  0.00     0.031 A 
ATOM     57  C   UNL A   1      46.070  29.662  32.591  1.00  0.00     0.074 A 
ATOM     58  C   UNL A   1      43.657  29.238  32.268  1.00  0.00     0.049 A 
ATOM     59  N   UNL A   1      46.165  30.890  32.153  1.00  0.00    -0.248 NA
ATOM     60  C   UNL A   1      47.321  29.105  33.121  1.00  0.00     0.031 C 
ATOM     61  C   UNL A   1      42.421  28.453  32.327  1.00  0.00     0.029 A 
ATOM     62  N   UNL A   1      43.260  30.454  31.789  1.00  0.00    -0.354 N 
ATOM     63  C   UNL A   1      47.492  31.251  32.327  1.00  0.00     0.074 A 
ATOM     64  C   UNL A   1      48.151  30.130  32.967  1.00  0.00     0.031 C 
ATOM     65  C   UNL A   1      41.407  29.200  31.875  1.00  0.00     0.029 A 
ATOM     66  C   UNL A   1      41.917  30.519  31.521  1.00  0.00     0.049 A 
ATOM     67  H   UNL A   1      43.877  31.209  31.649  1.00  0.00     0.167 HD
ATOM     68  C   UNL A   1      48.095  32.408  31.961  1.00  0.00     0.037 A 
ATOM     69  C   UNL A   1      41.177  31.531  31.036  1.00  0.00     0.037 A 
ATOM     70  C   UNL A   1      47.403  33.521  31.357  1.00  0.00     0.049 A 
ATOM     71  C   UNL A   1      41.861  32.818  30.688  1.00  0.00     0.074 A 
ATOM     72  C   UNL A   1      47.923  34.727  30.919  1.00  0.00     0.029 A 
ATOM     73  N   UNL A   1      46.033  33.572  31.122  1.00  0.00    -0.354 N 
ATOM     74  N   UNL A   1      43.132  33.127  30.778  1.00  0.00    -0.248 NA
ATOM     75  C   UNL A   1      41.012  33.894  30.165  1.00  0.00     0.031 C 
ATOM     76  C   UNL A   1      46.863  35.527  30.477  1.00  0.00     0.029 A 
ATOM     77  C   UNL A   1      45.687  34.800  30.579  1.00  0.00     0.049 A 
ATOM     78  H   UNL A   1      45.401  32.841  31.314  1.00  0.00     0.167 HD
ATOM     79  C   UNL A   1      43.243  34.426  30.308  1.00  0.00     0.074 A 
ATOM     80  C   UNL A   1      41.909  34.840  29.917  1.00  0.00     0.031 C 
ATOM     81  C   UNL A   1      44.350  35.202  30.211  1.00  0.00     0.037 A 
BRANCH  68  82
ATOM     82  C   UNL A   1      49.573  32.528  32.201  1.00  0.00     0.064 A 
ATOM     83  C   UNL A   1      50.078  33.121  33.370  1.00  0.00     0.173 A 
ATOM     84  C   UNL A   1      50.497  32.005  31.284  1.00  0.00     0.173 A 
ATOM     85  F   UNL A   1      49.241  33.640  34.280  1.00  0.00    -0.203 F 
ATOM     86  C   UNL A   1      51.449  33.214  33.594  1.00  0.00     0.198 A 
ATOM     87  C   UNL A   1      51.867  32.072  31.527  1.00  0.00     0.198 A 
ATOM     88  F   UNL A   1      50.073  31.418  30.154  1.00  0.00    -0.203 F 
ATOM     89  F   UNL A   1      51.906  33.829  34.695  1.00  0.00    -0.200 F 
ATOM     90  C   UNL A   1      52.343  32.684  32.677  1.00  0.00     0.200 A 
ATOM     91  F   UNL A   1      52.730  31.543  30.647  1.00  0.00    -0.200 F 
ATOM     92  F   UNL A   1      53.662  32.768  32.898  1.00  0.00    -0.200 F 
ENDBRANCH  68  82
BRANCH  69  93
ATOM     93  C   UNL A   1      39.732  31.309  30.794  1.00  0.00     0.064 A 
ATOM     94  C   UNL A   1      39.300  30.682  29.619  1.00  0.00     0.173 A 
ATOM     95  C   UNL A   1      38.768  31.622  31.763  1.00  0.00     0.173 A 
ATOM     96  F   UNL A   1      40.186  30.369  28.661  1.00  0.00    -0.203 F 
ATOM     97  C   UNL A   1      37.956  30.372  29.423  1.00  0.00     0.198 A 
ATOM     98  C   UNL A   1      37.429  31.288  31.578  1.00  0.00     0.198 A 
ATOM     99  F   UNL A   1      39.137  32.205  32.913  1.00  0.00    -0.203 F 
ATOM    100  F   UNL A   1      37.567  29.781  28.285  1.00  0.00    -0.200 F 
ATOM    101  C   UNL A   1      37.024  30.664  30.408  1.00  0.00     0.200 A 
ATOM    102  F   UNL A   1      36.535  31.551  32.541  1.00  0.00    -0.200 F 
ATOM    103  F   UNL A   1      35.736  30.340  30.230  1.00  0.00    -0.200 F 
ENDBRANCH  69  93
BRANCH  81 104
ATOM    104  C   UNL A   1      44.168  36.588  29.660  1.00  0.00     0.064 A 
ATOM    105  C   UNL A   1      43.868  37.674  30.497  1.00  0.00     0.173 A 
ATOM    106  C   UNL A   1      44.357  36.844  28.294  1.00  0.00     0.173 A 
ATOM    107  F   UNL A   1      43.661  37.480  31.807  1.00  0.00    -0.203 F 
ATOM    108  C   UNL A   1      43.750  38.962  29.981  1.00  0.00     0.198 A 
ATOM    109  C   UNL A   1      44.270  38.137  27.787  1.00  0.00     0.198 A 
ATOM    110  F   UNL A   1      44.649  35.841  27.452  1.00  0.00    -0.203 F 
ATOM    111  F   UNL A   1      43.424  39.978  30.792  1.00  0.00    -0.200 F 
ATOM    112  C   UNL A   1      43.963  39.195  28.631  1.00  0.00     0.200 A 
ATOM    113  F   UNL A   1      44.491  38.362  26.485  1.00  0.00    -0.200 F 
ATOM    114  F   UNL A   1      43.866  40.438  28.139  1.00  0.00    -0.200 F 
ENDBRANCH  81 104
ENDBRANCH  55  56
ENDBRANCH  48  50
ENDBRANCH  47  48
ENDBRANCH  46  47
ENDBRANCH  45  46
ENDBRANCH  44  45
ENDBRANCH  43  44
ENDBRANCH  42  43
ENDBRANCH  41  42
ENDBRANCH   1  41
TORSDOF 26
ENDMDL
