MODEL 1
REMARK VINA RESULT:     -11.8      0.000      0.000
REMARK SMILES Cc1ccccc1-c1c(Cl)ccc2c1C=C(C(=O)OCCOCCOCCOCCOC(=O)c1ccc(-c3c4nc(c(-c5c(F)c(F)c(F)c(F)c5F)c5ccc([nH]5)c(-c5c(F)c(F)c(F)c(F)c5F)c5nc(c(-c6c(F)c(F)c(F)c(F)c6F)c6ccc3[nH]6)C=C5)C=C4)cc1)[C@@H](C(F)(F)F)O2
REMARK SMILES IDX 26 1 25 2 24 3 23 4 22 5 21 6 20 7 19 8 17 9 18 10 16 11
REMARK SMILES IDX 8 12 9 13 14 14 10 15 11 16 13 17 15 18 12 19 102 20 97 21
REMARK SMILES IDX 7 22 1 23 2 24 3 25 4 26 6 27 5 28 98 29 99 30 100 31 101 32
REMARK SMILES IDX 27 33 28 34 29 35 30 36 31 37 32 38 33 39 34 40 35 41 96 42
REMARK SMILES IDX 36 43 95 44 37 45 38 46 39 47 89 48 40 49 94 50 88 51 90 52
REMARK SMILES IDX 41 53 93 54 87 55 86 56 42 58 74 59 54 60 73 61 55 62 58 63
REMARK SMILES IDX 72 64 91 65 56 66 57 67 71 69 92 70 59 71 43 72 44 73 52 74
REMARK SMILES IDX 45 75 46 76 50 77 53 78 47 79 48 80 51 81 49 82 75 83 76 84
REMARK SMILES IDX 84 85 77 86 78 87 82 88 85 89 79 90 80 91 83 92 81 93 60 94
REMARK SMILES IDX 61 95 69 96 62 97 63 98 67 99 70 100 64 101 65 102 68 103
REMARK SMILES IDX 66 104
REMARK H PARENT 90 57 58 68
REMARK Flexibility Score: inf
ROOT
ATOM      1  C   UNL A   1      33.645  34.739  28.295  1.00  0.00     0.188 C 
ENDROOT
BRANCH   1   2
ATOM      2  O   UNL A   1      33.182  33.434  27.930  1.00  0.00    -0.377 OA
BRANCH   2   3
ATOM      3  C   UNL A   1      32.005  33.510  27.134  1.00  0.00     0.188 C 
BRANCH   3   4
ATOM      4  C   UNL A   1      31.376  32.176  26.726  1.00  0.00     0.188 C 
BRANCH   4   5
ATOM      5  O   UNL A   1      32.146  30.985  26.809  1.00  0.00    -0.376 OA
BRANCH   5   6
ATOM      6  C   UNL A   1      32.269  30.219  25.611  1.00  0.00     0.202 C 
BRANCH   6   7
ATOM      7  C   UNL A   1      31.403  28.968  25.552  1.00  0.00     0.261 C 
BRANCH   7   8
ATOM      8  O   UNL A   1      31.915  28.060  24.568  1.00  0.00    -0.460 OA
BRANCH   8   9
ATOM      9  C   UNL A   1      32.928  27.312  25.036  1.00  0.00     0.338 C 
ATOM     10  O   UNL A   1      33.193  27.138  26.217  1.00  0.00    -0.246 OA
BRANCH   9  11
ATOM     11  C   UNL A   1      33.442  26.449  23.909  1.00  0.00     0.087 C 
ATOM     12  C   UNL A   1      33.988  23.514  25.877  1.00  0.00     0.012 A 
ATOM     13  C   UNL A   1      33.153  23.115  26.938  1.00  0.00     0.049 A 
ATOM     14  C   UNL A   1      33.411  24.381  24.936  1.00  0.00     0.027 A 
ATOM     15  Cl  UNL A   1      33.759  22.167  28.253  1.00  0.00    -0.084 Cl
ATOM     16  C   UNL A   1      31.795  23.476  26.973  1.00  0.00     0.025 A 
ATOM     17  C   UNL A   1      32.008  24.493  24.817  1.00  0.00     0.128 A 
ATOM     18  C   UNL A   1      34.214  25.376  24.187  1.00  0.00     0.028 C 
ATOM     19  C   UNL A   1      31.203  24.092  25.870  1.00  0.00     0.049 A 
ATOM     20  O   UNL A   1      31.409  25.108  23.729  1.00  0.00    -0.475 OA
ATOM     21  C   UNL A   1      32.221  26.125  23.065  1.00  0.00     0.316 C 
BRANCH  12  22
ATOM     22  C   UNL A   1      35.270  22.826  25.570  1.00  0.00    -0.013 A 
ATOM     23  C   UNL A   1      34.267  20.646  24.683  1.00  0.00     0.045 C 
ATOM     24  C   UNL A   1      35.422  21.535  25.028  1.00  0.00    -0.043 A 
ATOM     25  C   UNL A   1      36.715  20.998  24.854  1.00  0.00     0.004 A 
ATOM     26  C   UNL A   1      37.852  21.724  25.192  1.00  0.00     0.000 A 
ATOM     27  C   UNL A   1      36.447  23.536  25.908  1.00  0.00     0.009 A 
ATOM     28  C   UNL A   1      37.719  22.998  25.722  1.00  0.00     0.001 A 
ENDBRANCH  12  22
BRANCH  21  29
ATOM     29  C   UNL A   1      32.580  25.800  21.612  1.00  0.00     0.430 C 
ATOM     30  F   UNL A   1      33.621  26.548  21.179  1.00  0.00    -0.167 F 
ATOM     31  F   UNL A   1      32.968  24.501  21.497  1.00  0.00    -0.167 F 
ATOM     32  F   UNL A   1      31.552  25.985  20.757  1.00  0.00    -0.167 F 
ENDBRANCH  21  29
ENDBRANCH   9  11
ENDBRANCH   8   9
ENDBRANCH   7   8
ENDBRANCH   6   7
ENDBRANCH   5   6
ENDBRANCH   4   5
ENDBRANCH   3   4
ENDBRANCH   2   3
ENDBRANCH   1   2
BRANCH   1  33
ATOM     33  C   UNL A   1      33.295  35.042  29.745  1.00  0.00     0.188 C 
BRANCH  33  34
ATOM     34  O   UNL A   1      33.627  34.026  30.681  1.00  0.00    -0.376 OA
BRANCH  34  35
ATOM     35  C   UNL A   1      34.999  33.740  30.919  1.00  0.00     0.202 C 
BRANCH  35  36
ATOM     36  C   UNL A   1      35.350  32.246  30.964  1.00  0.00     0.261 C 
BRANCH  36  37
ATOM     37  O   UNL A   1      35.150  31.664  29.662  1.00  0.00    -0.460 OA
BRANCH  37  38
ATOM     38  C   UNL A   1      36.219  31.736  28.823  1.00  0.00     0.338 C 
ATOM     39  O   UNL A   1      36.446  32.653  28.047  1.00  0.00    -0.246 OA
BRANCH  38  40
ATOM     40  C   UNL A   1      36.870  30.396  28.736  1.00  0.00     0.060 A 
ATOM     41  C   UNL A   1      36.758  29.508  29.822  1.00  0.00     0.016 A 
ATOM     42  C   UNL A   1      37.862  30.192  27.784  1.00  0.00     0.016 A 
ATOM     43  C   UNL A   1      37.754  28.546  30.056  1.00  0.00     0.010 A 
ATOM     44  C   UNL A   1      38.885  29.306  28.074  1.00  0.00     0.010 A 
ATOM     45  C   UNL A   1      38.886  28.514  29.239  1.00  0.00    -0.014 A 
BRANCH  45  46
ATOM     46  C   UNL A   1      40.203  27.945  29.629  1.00  0.00     0.031 A 
ATOM     47  C   UNL A   1      40.617  26.583  29.118  1.00  0.00     0.074 A 
ATOM     48  C   UNL A   1      41.148  28.814  30.080  1.00  0.00     0.049 A 
ATOM     49  N   UNL A   1      41.784  26.040  29.264  1.00  0.00    -0.248 NA
ATOM     50  C   UNL A   1      39.707  25.690  28.397  1.00  0.00     0.031 C 
ATOM     51  C   UNL A   1      42.574  28.751  29.766  1.00  0.00     0.029 A 
ATOM     52  N   UNL A   1      41.045  30.024  30.789  1.00  0.00    -0.354 N 
ATOM     53  C   UNL A   1      41.876  24.944  28.417  1.00  0.00     0.074 A 
ATOM     54  C   UNL A   1      40.523  24.712  27.989  1.00  0.00     0.031 C 
ATOM     55  C   UNL A   1      43.214  29.823  30.245  1.00  0.00     0.029 A 
ATOM     56  C   UNL A   1      42.341  30.395  31.224  1.00  0.00     0.049 A 
ATOM     57  H   UNL A   1      40.215  30.527  30.955  1.00  0.00     0.167 HD
ATOM     58  C   UNL A   1      43.108  24.447  28.077  1.00  0.00     0.037 A 
ATOM     59  C   UNL A   1      42.677  30.358  32.552  1.00  0.00     0.037 A 
ATOM     60  C   UNL A   1      44.171  25.057  28.889  1.00  0.00     0.049 A 
ATOM     61  C   UNL A   1      43.617  29.221  32.942  1.00  0.00     0.074 A 
ATOM     62  C   UNL A   1      45.367  25.682  28.589  1.00  0.00     0.029 A 
ATOM     63  N   UNL A   1      44.003  25.191  30.269  1.00  0.00    -0.354 N 
ATOM     64  N   UNL A   1      43.883  28.195  32.167  1.00  0.00    -0.248 NA
ATOM     65  C   UNL A   1      44.355  29.149  34.200  1.00  0.00     0.031 C 
ATOM     66  C   UNL A   1      45.879  26.233  29.787  1.00  0.00     0.029 A 
ATOM     67  C   UNL A   1      45.005  25.956  30.824  1.00  0.00     0.049 A 
ATOM     68  H   UNL A   1      43.263  24.790  30.780  1.00  0.00     0.167 HD
ATOM     69  C   UNL A   1      44.728  27.325  32.799  1.00  0.00     0.074 A 
ATOM     70  C   UNL A   1      45.019  27.984  34.059  1.00  0.00     0.031 C 
ATOM     71  C   UNL A   1      45.108  26.122  32.267  1.00  0.00     0.037 A 
BRANCH  58  72
ATOM     72  C   UNL A   1      43.450  23.548  26.869  1.00  0.00     0.064 A 
ATOM     73  C   UNL A   1      43.112  22.169  26.876  1.00  0.00     0.173 A 
ATOM     74  C   UNL A   1      44.215  23.930  25.744  1.00  0.00     0.173 A 
ATOM     75  F   UNL A   1      42.322  21.649  27.825  1.00  0.00    -0.203 F 
ATOM     76  C   UNL A   1      43.563  21.258  25.907  1.00  0.00     0.198 A 
ATOM     77  C   UNL A   1      44.606  23.030  24.738  1.00  0.00     0.198 A 
ATOM     78  F   UNL A   1      44.661  25.178  25.578  1.00  0.00    -0.203 F 
ATOM     79  F   UNL A   1      43.272  19.953  26.028  1.00  0.00    -0.200 F 
ATOM     80  C   UNL A   1      44.306  21.690  24.833  1.00  0.00     0.200 A 
ATOM     81  F   UNL A   1      45.301  23.480  23.682  1.00  0.00    -0.200 F 
ATOM     82  F   UNL A   1      44.728  20.828  23.897  1.00  0.00    -0.200 F 
ENDBRANCH  58  72
BRANCH  59  83
ATOM     83  C   UNL A   1      41.699  31.149  33.362  1.00  0.00     0.064 A 
ATOM     84  C   UNL A   1      41.685  32.516  33.000  1.00  0.00     0.173 A 
ATOM     85  C   UNL A   1      40.466  30.557  33.683  1.00  0.00     0.173 A 
ATOM     86  F   UNL A   1      42.843  33.144  32.745  1.00  0.00    -0.203 F 
ATOM     87  C   UNL A   1      40.496  33.135  32.620  1.00  0.00     0.198 A 
ATOM     88  C   UNL A   1      39.273  31.199  33.335  1.00  0.00     0.198 A 
ATOM     89  F   UNL A   1      40.420  29.287  34.106  1.00  0.00    -0.203 F 
ATOM     90  F   UNL A   1      40.534  34.321  31.996  1.00  0.00    -0.200 F 
ATOM     91  C   UNL A   1      39.298  32.451  32.733  1.00  0.00     0.200 A 
ATOM     92  F   UNL A   1      38.107  30.543  33.436  1.00  0.00    -0.200 F 
ATOM     93  F   UNL A   1      38.185  32.958  32.183  1.00  0.00    -0.200 F 
ENDBRANCH  59  83
BRANCH  71  94
ATOM     94  C   UNL A   1      45.666  24.961  33.065  1.00  0.00     0.064 A 
ATOM     95  C   UNL A   1      47.018  24.862  33.430  1.00  0.00     0.173 A 
ATOM     96  C   UNL A   1      44.804  24.014  33.674  1.00  0.00     0.173 A 
ATOM     97  F   UNL A   1      47.918  25.772  33.032  1.00  0.00    -0.203 F 
ATOM     98  C   UNL A   1      47.484  23.858  34.283  1.00  0.00     0.198 A 
ATOM     99  C   UNL A   1      45.263  23.050  34.570  1.00  0.00     0.198 A 
ATOM    100  F   UNL A   1      43.482  24.013  33.455  1.00  0.00    -0.203 F 
ATOM    101  F   UNL A   1      48.792  23.790  34.570  1.00  0.00    -0.200 F 
ATOM    102  C   UNL A   1      46.607  22.961  34.862  1.00  0.00     0.200 A 
ATOM    103  F   UNL A   1      44.390  22.230  35.173  1.00  0.00    -0.200 F 
ATOM    104  F   UNL A   1      47.052  22.035  35.720  1.00  0.00    -0.200 F 
ENDBRANCH  71  94
ENDBRANCH  45  46
ENDBRANCH  38  40
ENDBRANCH  37  38
ENDBRANCH  36  37
ENDBRANCH  35  36
ENDBRANCH  34  35
ENDBRANCH  33  34
ENDBRANCH   1  33
TORSDOF 22
ENDMDL
MODEL 2
REMARK VINA RESULT:     -11.5      4.448      9.744
REMARK SMILES Cc1ccccc1-c1c(Cl)ccc2c1C=C(C(=O)OCCOCCOCCOCCOC(=O)c1ccc(-c3c4nc(c(-c5c(F)c(F)c(F)c(F)c5F)c5ccc([nH]5)c(-c5c(F)c(F)c(F)c(F)c5F)c5nc(c(-c6c(F)c(F)c(F)c(F)c6F)c6ccc3[nH]6)C=C5)C=C4)cc1)[C@@H](C(F)(F)F)O2
REMARK SMILES IDX 26 1 25 2 24 3 23 4 22 5 21 6 20 7 19 8 17 9 18 10 16 11
REMARK SMILES IDX 8 12 9 13 14 14 10 15 11 16 13 17 15 18 12 19 102 20 97 21
REMARK SMILES IDX 7 22 1 23 2 24 3 25 4 26 6 27 5 28 98 29 99 30 100 31 101 32
REMARK SMILES IDX 27 33 28 34 29 35 30 36 31 37 32 38 33 39 34 40 35 41 96 42
REMARK SMILES IDX 36 43 95 44 37 45 38 46 39 47 89 48 40 49 94 50 88 51 90 52
REMARK SMILES IDX 41 53 93 54 87 55 86 56 42 58 74 59 54 60 73 61 55 62 58 63
REMARK SMILES IDX 72 64 91 65 56 66 57 67 71 69 92 70 59 71 43 72 44 73 52 74
REMARK SMILES IDX 45 75 46 76 50 77 53 78 47 79 48 80 51 81 49 82 75 83 76 84
REMARK SMILES IDX 84 85 77 86 78 87 82 88 85 89 79 90 80 91 83 92 81 93 60 94
REMARK SMILES IDX 61 95 69 96 62 97 63 98 67 99 70 100 64 101 65 102 68 103
REMARK SMILES IDX 66 104
REMARK H PARENT 90 57 58 68
REMARK Flexibility Score: inf
ROOT
ATOM      1  C   UNL A   1      43.978  22.202  25.581  1.00  0.00     0.188 C 
ENDROOT
BRANCH   1   2
ATOM      2  O   UNL A   1      42.651  21.725  25.331  1.00  0.00    -0.377 OA
BRANCH   2   3
ATOM      3  C   UNL A   1      42.105  21.096  26.484  1.00  0.00     0.188 C 
BRANCH   3   4
ATOM      4  C   UNL A   1      40.701  21.543  26.898  1.00  0.00     0.188 C 
BRANCH   4   5
ATOM      5  O   UNL A   1      39.733  21.827  25.898  1.00  0.00    -0.376 OA
BRANCH   5   6
ATOM      6  C   UNL A   1      38.796  22.862  26.191  1.00  0.00     0.202 C 
BRANCH   6   7
ATOM      7  C   UNL A   1      37.391  22.635  25.648  1.00  0.00     0.261 C 
BRANCH   7   8
ATOM      8  O   UNL A   1      37.100  23.589  24.620  1.00  0.00    -0.460 OA
BRANCH   8   9
ATOM      9  C   UNL A   1      35.957  23.312  23.968  1.00  0.00     0.338 C 
ATOM     10  O   UNL A   1      35.879  22.920  22.813  1.00  0.00    -0.246 OA
BRANCH   9  11
ATOM     11  C   UNL A   1      34.844  23.209  24.983  1.00  0.00     0.087 C 
ATOM     12  C   UNL A   1      33.377  26.394  24.282  1.00  0.00     0.012 A 
ATOM     13  C   UNL A   1      33.301  26.956  22.993  1.00  0.00     0.049 A 
ATOM     14  C   UNL A   1      33.539  25.000  24.335  1.00  0.00     0.027 A 
ATOM     15  Cl  UNL A   1      33.247  28.669  22.760  1.00  0.00    -0.084 Cl
ATOM     16  C   UNL A   1      33.272  26.145  21.845  1.00  0.00     0.025 A 
ATOM     17  C   UNL A   1      33.216  24.190  23.225  1.00  0.00     0.128 A 
ATOM     18  C   UNL A   1      34.257  24.334  25.447  1.00  0.00     0.028 C 
ATOM     19  C   UNL A   1      33.143  24.761  21.965  1.00  0.00     0.049 A 
ATOM     20  O   UNL A   1      33.090  22.813  23.330  1.00  0.00    -0.475 OA
ATOM     21  C   UNL A   1      33.868  22.199  24.405  1.00  0.00     0.316 C 
BRANCH  12  22
ATOM     22  C   UNL A   1      32.985  27.146  25.503  1.00  0.00    -0.013 A 
ATOM     23  C   UNL A   1      30.541  26.395  25.578  1.00  0.00     0.045 C 
ATOM     24  C   UNL A   1      31.714  27.160  26.109  1.00  0.00    -0.043 A 
ATOM     25  C   UNL A   1      31.485  27.979  27.234  1.00  0.00     0.004 A 
ATOM     26  C   UNL A   1      32.496  28.768  27.773  1.00  0.00     0.000 A 
ATOM     27  C   UNL A   1      33.990  27.963  26.073  1.00  0.00     0.009 A 
ATOM     28  C   UNL A   1      33.753  28.761  27.192  1.00  0.00     0.001 A 
ENDBRANCH  12  22
BRANCH  21  29
ATOM     29  C   UNL A   1      33.026  21.512  25.482  1.00  0.00     0.430 C 
ATOM     30  F   UNL A   1      33.710  21.386  26.643  1.00  0.00    -0.167 F 
ATOM     31  F   UNL A   1      31.921  22.253  25.769  1.00  0.00    -0.167 F 
ATOM     32  F   UNL A   1      32.596  20.284  25.118  1.00  0.00    -0.167 F 
ENDBRANCH  21  29
ENDBRANCH   9  11
ENDBRANCH   8   9
ENDBRANCH   7   8
ENDBRANCH   6   7
ENDBRANCH   5   6
ENDBRANCH   4   5
ENDBRANCH   3   4
ENDBRANCH   2   3
ENDBRANCH   1   2
BRANCH   1  33
ATOM     33  C   UNL A   1      44.095  23.673  25.208  1.00  0.00     0.188 C 
BRANCH  33  34
ATOM     34  O   UNL A   1      42.866  24.377  25.099  1.00  0.00    -0.376 OA
BRANCH  34  35
ATOM     35  C   UNL A   1      42.450  25.194  26.185  1.00  0.00     0.202 C 
BRANCH  35  36
ATOM     36  C   UNL A   1      41.586  26.401  25.792  1.00  0.00     0.261 C 
BRANCH  36  37
ATOM     37  O   UNL A   1      40.437  26.474  26.657  1.00  0.00    -0.460 OA
BRANCH  37  38
ATOM     38  C   UNL A   1      40.210  27.693  27.219  1.00  0.00     0.338 C 
ATOM     39  O   UNL A   1      40.141  28.750  26.608  1.00  0.00    -0.246 OA
BRANCH  38  40
ATOM     40  C   UNL A   1      40.406  27.600  28.695  1.00  0.00     0.060 A 
ATOM     41  C   UNL A   1      39.304  27.299  29.516  1.00  0.00     0.016 A 
ATOM     42  C   UNL A   1      41.544  28.167  29.258  1.00  0.00     0.016 A 
ATOM     43  C   UNL A   1      39.268  27.745  30.847  1.00  0.00     0.010 A 
ATOM     44  C   UNL A   1      41.462  28.683  30.540  1.00  0.00     0.010 A 
ATOM     45  C   UNL A   1      40.307  28.540  31.335  1.00  0.00    -0.014 A 
BRANCH  45  46
ATOM     46  C   UNL A   1      40.197  29.478  32.483  1.00  0.00     0.031 A 
ATOM     47  C   UNL A   1      41.014  29.241  33.732  1.00  0.00     0.074 A 
ATOM     48  C   UNL A   1      39.696  30.718  32.228  1.00  0.00     0.049 A 
ATOM     49  N   UNL A   1      41.119  30.051  34.737  1.00  0.00    -0.248 NA
ATOM     50  C   UNL A   1      41.787  28.017  33.960  1.00  0.00     0.031 C 
ATOM     51  C   UNL A   1      40.182  31.964  32.816  1.00  0.00     0.029 A 
ATOM     52  N   UNL A   1      38.752  31.171  31.289  1.00  0.00    -0.354 N 
ATOM     53  C   UNL A   1      42.172  29.635  35.540  1.00  0.00     0.074 A 
ATOM     54  C   UNL A   1      42.475  28.311  35.069  1.00  0.00     0.031 C 
ATOM     55  C   UNL A   1      39.577  33.020  32.260  1.00  0.00     0.029 A 
ATOM     56  C   UNL A   1      38.408  32.505  31.615  1.00  0.00     0.049 A 
ATOM     57  H   UNL A   1      38.393  30.651  30.534  1.00  0.00     0.167 HD
ATOM     58  C   UNL A   1      42.747  30.516  36.420  1.00  0.00     0.037 A 
ATOM     59  C   UNL A   1      37.163  32.815  32.097  1.00  0.00     0.037 A 
ATOM     60  C   UNL A   1      41.961  31.753  36.525  1.00  0.00     0.049 A 
ATOM     61  C   UNL A   1      37.121  33.165  33.582  1.00  0.00     0.074 A 
ATOM     62  C   UNL A   1      42.268  33.096  36.417  1.00  0.00     0.029 A 
ATOM     63  N   UNL A   1      40.571  31.687  36.656  1.00  0.00    -0.354 N 
ATOM     64  N   UNL A   1      38.111  32.937  34.414  1.00  0.00    -0.248 NA
ATOM     65  C   UNL A   1      35.998  33.818  34.250  1.00  0.00     0.031 C 
ATOM     66  C   UNL A   1      41.053  33.821  36.430  1.00  0.00     0.029 A 
ATOM     67  C   UNL A   1      39.996  32.933  36.540  1.00  0.00     0.049 A 
ATOM     68  H   UNL A   1      40.067  30.855  36.810  1.00  0.00     0.167 HD
ATOM     69  C   UNL A   1      37.770  33.324  35.681  1.00  0.00     0.074 A 
ATOM     70  C   UNL A   1      36.446  33.899  35.518  1.00  0.00     0.031 C 
ATOM     71  C   UNL A   1      38.572  33.126  36.772  1.00  0.00     0.037 A 
BRANCH  58  72
ATOM     72  C   UNL A   1      44.142  30.405  37.073  1.00  0.00     0.064 A 
ATOM     73  C   UNL A   1      44.367  30.903  38.384  1.00  0.00     0.173 A 
ATOM     74  C   UNL A   1      45.319  29.953  36.437  1.00  0.00     0.173 A 
ATOM     75  F   UNL A   1      43.352  31.298  39.165  1.00  0.00    -0.203 F 
ATOM     76  C   UNL A   1      45.644  31.013  38.960  1.00  0.00     0.198 A 
ATOM     77  C   UNL A   1      46.587  29.998  37.042  1.00  0.00     0.198 A 
ATOM     78  F   UNL A   1      45.317  29.484  35.187  1.00  0.00    -0.203 F 
ATOM     79  F   UNL A   1      45.786  31.573  40.171  1.00  0.00    -0.200 F 
ATOM     80  C   UNL A   1      46.754  30.555  38.291  1.00  0.00     0.200 A 
ATOM     81  F   UNL A   1      47.652  29.515  36.384  1.00  0.00    -0.200 F 
ATOM     82  F   UNL A   1      47.974  30.646  38.839  1.00  0.00    -0.200 F 
ENDBRANCH  58  72
BRANCH  59  83
ATOM     83  C   UNL A   1      36.102  32.300  31.176  1.00  0.00     0.064 A 
ATOM     84  C   UNL A   1      35.923  33.132  30.047  1.00  0.00     0.173 A 
ATOM     85  C   UNL A   1      36.011  30.914  30.972  1.00  0.00     0.173 A 
ATOM     86  F   UNL A   1      35.938  34.466  30.200  1.00  0.00    -0.203 F 
ATOM     87  C   UNL A   1      36.027  32.611  28.760  1.00  0.00     0.198 A 
ATOM     88  C   UNL A   1      36.076  30.393  29.675  1.00  0.00     0.198 A 
ATOM     89  F   UNL A   1      36.097  30.074  32.013  1.00  0.00    -0.203 F 
ATOM     90  F   UNL A   1      36.158  33.440  27.715  1.00  0.00    -0.200 F 
ATOM     91  C   UNL A   1      36.163  31.245  28.581  1.00  0.00     0.200 A 
ATOM     92  F   UNL A   1      36.214  29.072  29.491  1.00  0.00    -0.200 F 
ATOM     93  F   UNL A   1      36.468  30.757  27.369  1.00  0.00    -0.200 F 
ENDBRANCH  59  83
BRANCH  71  94
ATOM     94  C   UNL A   1      38.093  33.129  38.210  1.00  0.00     0.064 A 
ATOM     95  C   UNL A   1      37.467  32.025  38.811  1.00  0.00     0.173 A 
ATOM     96  C   UNL A   1      38.450  34.178  39.095  1.00  0.00     0.173 A 
ATOM     97  F   UNL A   1      37.196  30.912  38.116  1.00  0.00    -0.203 F 
ATOM     98  C   UNL A   1      37.161  31.998  40.174  1.00  0.00     0.198 A 
ATOM     99  C   UNL A   1      38.196  34.123  40.464  1.00  0.00     0.198 A 
ATOM    100  F   UNL A   1      39.092  35.276  38.672  1.00  0.00    -0.203 F 
ATOM    101  F   UNL A   1      36.532  30.932  40.688  1.00  0.00    -0.200 F 
ATOM    102  C   UNL A   1      37.536  33.039  41.002  1.00  0.00     0.200 A 
ATOM    103  F   UNL A   1      38.624  35.111  41.262  1.00  0.00    -0.200 F 
ATOM    104  F   UNL A   1      37.288  32.983  42.316  1.00  0.00    -0.200 F 
ENDBRANCH  71  94
ENDBRANCH  45  46
ENDBRANCH  38  40
ENDBRANCH  37  38
ENDBRANCH  36  37
ENDBRANCH  35  36
ENDBRANCH  34  35
ENDBRANCH  33  34
ENDBRANCH   1  33
TORSDOF 22
ENDMDL
MODEL 3
REMARK VINA RESULT:     -11.1      4.231      8.049
REMARK SMILES Cc1ccccc1-c1c(Cl)ccc2c1C=C(C(=O)OCCOCCOCCOCCOC(=O)c1ccc(-c3c4nc(c(-c5c(F)c(F)c(F)c(F)c5F)c5ccc([nH]5)c(-c5c(F)c(F)c(F)c(F)c5F)c5nc(c(-c6c(F)c(F)c(F)c(F)c6F)c6ccc3[nH]6)C=C5)C=C4)cc1)[C@@H](C(F)(F)F)O2
REMARK SMILES IDX 26 1 25 2 24 3 23 4 22 5 21 6 20 7 19 8 17 9 18 10 16 11
REMARK SMILES IDX 8 12 9 13 14 14 10 15 11 16 13 17 15 18 12 19 102 20 97 21
REMARK SMILES IDX 7 22 1 23 2 24 3 25 4 26 6 27 5 28 98 29 99 30 100 31 101 32
REMARK SMILES IDX 27 33 28 34 29 35 30 36 31 37 32 38 33 39 34 40 35 41 96 42
REMARK SMILES IDX 36 43 95 44 37 45 38 46 39 47 89 48 40 49 94 50 88 51 90 52
REMARK SMILES IDX 41 53 93 54 87 55 86 56 42 58 74 59 54 60 73 61 55 62 58 63
REMARK SMILES IDX 72 64 91 65 56 66 57 67 71 69 92 70 59 71 43 72 44 73 52 74
REMARK SMILES IDX 45 75 46 76 50 77 53 78 47 79 48 80 51 81 49 82 75 83 76 84
REMARK SMILES IDX 84 85 77 86 78 87 82 88 85 89 79 90 80 91 83 92 81 93 60 94
REMARK SMILES IDX 61 95 69 96 62 97 63 98 67 99 70 100 64 101 65 102 68 103
REMARK SMILES IDX 66 104
REMARK H PARENT 90 57 58 68
REMARK Flexibility Score: inf
ROOT
ATOM      1  C   UNL A   1      34.986  33.604  31.078  1.00  0.00     0.188 C 
ENDROOT
BRANCH   1   2
ATOM      2  O   UNL A   1      34.976  33.737  29.652  1.00  0.00    -0.377 OA
BRANCH   2   3
ATOM      3  C   UNL A   1      34.289  32.651  29.040  1.00  0.00     0.188 C 
BRANCH   3   4
ATOM      4  C   UNL A   1      35.027  31.939  27.903  1.00  0.00     0.188 C 
BRANCH   4   5
ATOM      5  O   UNL A   1      34.343  30.967  27.125  1.00  0.00    -0.376 OA
BRANCH   5   6
ATOM      6  C   UNL A   1      32.920  30.951  27.230  1.00  0.00     0.202 C 
BRANCH   6   7
ATOM      7  C   UNL A   1      32.185  30.484  25.981  1.00  0.00     0.261 C 
BRANCH   7   8
ATOM      8  O   UNL A   1      31.517  29.242  26.238  1.00  0.00    -0.460 OA
BRANCH   8   9
ATOM      9  C   UNL A   1      32.368  28.205  26.313  1.00  0.00     0.338 C 
ATOM     10  O   UNL A   1      32.545  27.505  27.300  1.00  0.00    -0.246 OA
BRANCH   9  11
ATOM     11  C   UNL A   1      32.782  27.827  24.912  1.00  0.00     0.087 C 
ATOM     12  C   UNL A   1      33.466  24.389  25.617  1.00  0.00     0.012 A 
ATOM     13  C   UNL A   1      32.718  23.609  26.520  1.00  0.00     0.049 A 
ATOM     14  C   UNL A   1      32.820  25.527  25.107  1.00  0.00     0.027 A 
ATOM     15  Cl  UNL A   1      33.422  22.261  27.344  1.00  0.00    -0.084 Cl
ATOM     16  C   UNL A   1      31.370  23.901  26.791  1.00  0.00     0.025 A 
ATOM     17  C   UNL A   1      31.413  25.641  25.148  1.00  0.00     0.128 A 
ATOM     18  C   UNL A   1      33.567  26.745  24.716  1.00  0.00     0.028 C 
ATOM     19  C   UNL A   1      30.694  24.864  26.041  1.00  0.00     0.049 A 
ATOM     20  O   UNL A   1      30.731  26.598  24.412  1.00  0.00    -0.475 OA
ATOM     21  C   UNL A   1      31.494  27.806  24.106  1.00  0.00     0.316 C 
BRANCH  12  22
ATOM     22  C   UNL A   1      34.714  23.891  24.980  1.00  0.00    -0.013 A 
ATOM     23  C   UNL A   1      33.640  22.926  22.868  1.00  0.00     0.045 C 
ATOM     24  C   UNL A   1      34.818  23.232  23.739  1.00  0.00    -0.043 A 
ATOM     25  C   UNL A   1      36.074  22.764  23.300  1.00  0.00     0.004 A 
ATOM     26  C   UNL A   1      37.224  22.952  24.062  1.00  0.00     0.000 A 
ATOM     27  C   UNL A   1      35.900  24.062  25.731  1.00  0.00     0.009 A 
ATOM     28  C   UNL A   1      37.138  23.604  25.281  1.00  0.00     0.001 A 
ENDBRANCH  12  22
BRANCH  21  29
ATOM     29  C   UNL A   1      31.731  28.044  22.612  1.00  0.00     0.430 C 
ATOM     30  F   UNL A   1      30.716  28.743  22.054  1.00  0.00    -0.167 F 
ATOM     31  F   UNL A   1      32.856  28.785  22.420  1.00  0.00    -0.167 F 
ATOM     32  F   UNL A   1      31.884  26.901  21.910  1.00  0.00    -0.167 F 
ENDBRANCH  21  29
ENDBRANCH   9  11
ENDBRANCH   8   9
ENDBRANCH   7   8
ENDBRANCH   6   7
ENDBRANCH   5   6
ENDBRANCH   4   5
ENDBRANCH   3   4
ENDBRANCH   2   3
ENDBRANCH   1   2
BRANCH   1  33
ATOM     33  C   UNL A   1      36.378  33.238  31.570  1.00  0.00     0.188 C 
BRANCH  33  34
ATOM     34  O   UNL A   1      36.526  31.911  32.057  1.00  0.00    -0.376 OA
BRANCH  34  35
ATOM     35  C   UNL A   1      36.271  30.828  31.173  1.00  0.00     0.202 C 
BRANCH  35  36
ATOM     36  C   UNL A   1      37.318  29.705  31.207  1.00  0.00     0.261 C 
BRANCH  36  37
ATOM     37  O   UNL A   1      37.406  29.087  29.910  1.00  0.00    -0.460 OA
BRANCH  37  38
ATOM     38  C   UNL A   1      38.458  28.241  29.740  1.00  0.00     0.338 C 
ATOM     39  O   UNL A   1      38.599  27.166  30.306  1.00  0.00    -0.246 OA
BRANCH  38  40
ATOM     40  C   UNL A   1      39.564  28.962  29.046  1.00  0.00     0.060 A 
ATOM     41  C   UNL A   1      39.692  28.839  27.650  1.00  0.00     0.016 A 
ATOM     42  C   UNL A   1      40.643  29.418  29.794  1.00  0.00     0.016 A 
ATOM     43  C   UNL A   1      40.949  28.981  27.038  1.00  0.00     0.010 A 
ATOM     44  C   UNL A   1      41.891  29.464  29.198  1.00  0.00     0.010 A 
ATOM     45  C   UNL A   1      42.080  29.187  27.829  1.00  0.00    -0.014 A 
BRANCH  45  46
ATOM     46  C   UNL A   1      43.474  28.861  27.426  1.00  0.00     0.031 A 
ATOM     47  C   UNL A   1      44.474  29.972  27.202  1.00  0.00     0.074 A 
ATOM     48  C   UNL A   1      43.913  27.595  27.669  1.00  0.00     0.049 A 
ATOM     49  N   UNL A   1      45.743  29.821  26.991  1.00  0.00    -0.248 NA
ATOM     50  C   UNL A   1      44.102  31.389  27.178  1.00  0.00     0.031 C 
ATOM     51  C   UNL A   1      45.250  27.238  28.138  1.00  0.00     0.029 A 
ATOM     52  N   UNL A   1      43.239  26.361  27.700  1.00  0.00    -0.354 N 
ATOM     53  C   UNL A   1      46.371  31.051  27.132  1.00  0.00     0.074 A 
ATOM     54  C   UNL A   1      45.291  32.000  27.138  1.00  0.00     0.031 C 
ATOM     55  C   UNL A   1      45.324  25.932  28.413  1.00  0.00     0.029 A 
ATOM     56  C   UNL A   1      44.207  25.329  27.752  1.00  0.00     0.049 A 
ATOM     57  H   UNL A   1      42.262  26.236  27.689  1.00  0.00     0.167 HD
ATOM     58  C   UNL A   1      47.721  31.105  27.360  1.00  0.00     0.037 A 
ATOM     59  C   UNL A   1      44.406  24.494  26.685  1.00  0.00     0.037 A 
ATOM     60  C   UNL A   1      48.344  29.785  27.186  1.00  0.00     0.049 A 
ATOM     61  C   UNL A   1      45.703  24.736  25.918  1.00  0.00     0.074 A 
ATOM     62  C   UNL A   1      49.179  29.008  27.967  1.00  0.00     0.029 A 
ATOM     63  N   UNL A   1      48.013  28.999  26.080  1.00  0.00    -0.354 N 
ATOM     64  N   UNL A   1      46.451  25.805  26.065  1.00  0.00    -0.248 NA
ATOM     65  C   UNL A   1      46.286  23.803  24.957  1.00  0.00     0.031 C 
ATOM     66  C   UNL A   1      49.298  27.742  27.347  1.00  0.00     0.029 A 
ATOM     67  C   UNL A   1      48.537  27.731  26.190  1.00  0.00     0.049 A 
ATOM     68  H   UNL A   1      47.472  29.312  25.318  1.00  0.00     0.167 HD
ATOM     69  C   UNL A   1      47.527  25.757  25.223  1.00  0.00     0.074 A 
ATOM     70  C   UNL A   1      47.394  24.467  24.571  1.00  0.00     0.031 C 
ATOM     71  C   UNL A   1      48.431  26.778  25.094  1.00  0.00     0.037 A 
BRANCH  58  72
ATOM     72  C   UNL A   1      48.521  32.288  27.949  1.00  0.00     0.064 A 
ATOM     73  C   UNL A   1      48.804  32.348  29.340  1.00  0.00     0.173 A 
ATOM     74  C   UNL A   1      48.921  33.446  27.247  1.00  0.00     0.173 A 
ATOM     75  F   UNL A   1      48.566  31.303  30.146  1.00  0.00    -0.203 F 
ATOM     76  C   UNL A   1      49.350  33.478  29.969  1.00  0.00     0.198 A 
ATOM     77  C   UNL A   1      49.532  34.550  27.868  1.00  0.00     0.198 A 
ATOM     78  F   UNL A   1      48.707  33.594  25.937  1.00  0.00    -0.203 F 
ATOM     79  F   UNL A   1      49.509  33.491  31.302  1.00  0.00    -0.200 F 
ATOM     80  C   UNL A   1      49.720  34.579  29.232  1.00  0.00     0.200 A 
ATOM     81  F   UNL A   1      49.917  35.598  27.124  1.00  0.00    -0.200 F 
ATOM     82  F   UNL A   1      50.253  35.656  29.825  1.00  0.00    -0.200 F 
ENDBRANCH  58  72
BRANCH  59  83
ATOM     83  C   UNL A   1      43.116  23.865  26.263  1.00  0.00     0.064 A 
ATOM     84  C   UNL A   1      42.699  22.850  27.155  1.00  0.00     0.173 A 
ATOM     85  C   UNL A   1      42.119  24.689  25.718  1.00  0.00     0.173 A 
ATOM     86  F   UNL A   1      43.605  21.995  27.655  1.00  0.00    -0.203 F 
ATOM     87  C   UNL A   1      41.439  22.901  27.747  1.00  0.00     0.198 A 
ATOM     88  C   UNL A   1      40.842  24.711  26.289  1.00  0.00     0.198 A 
ATOM     89  F   UNL A   1      42.439  25.621  24.810  1.00  0.00    -0.203 F 
ATOM     90  F   UNL A   1      41.167  22.121  28.803  1.00  0.00    -0.200 F 
ATOM     91  C   UNL A   1      40.534  23.872  27.352  1.00  0.00     0.200 A 
ATOM     92  F   UNL A   1      39.960  25.651  25.918  1.00  0.00    -0.200 F 
ATOM     93  F   UNL A   1      39.405  24.058  28.053  1.00  0.00    -0.200 F 
ENDBRANCH  59  83
BRANCH  71  94
ATOM     94  C   UNL A   1      49.358  26.969  23.911  1.00  0.00     0.064 A 
ATOM     95  C   UNL A   1      48.937  27.519  22.690  1.00  0.00     0.173 A 
ATOM     96  C   UNL A   1      50.759  26.801  24.048  1.00  0.00     0.173 A 
ATOM     97  F   UNL A   1      47.656  27.851  22.478  1.00  0.00    -0.203 F 
ATOM     98  C   UNL A   1      49.835  27.816  21.662  1.00  0.00     0.198 A 
ATOM     99  C   UNL A   1      51.658  27.154  23.043  1.00  0.00     0.198 A 
ATOM    100  F   UNL A   1      51.311  26.328  25.174  1.00  0.00    -0.203 F 
ATOM    101  F   UNL A   1      49.374  28.308  20.504  1.00  0.00    -0.200 F 
ATOM    102  C   UNL A   1      51.195  27.646  21.843  1.00  0.00     0.200 A 
ATOM    103  F   UNL A   1      52.977  27.043  23.259  1.00  0.00    -0.200 F 
ATOM    104  F   UNL A   1      52.055  27.983  20.874  1.00  0.00    -0.200 F 
ENDBRANCH  71  94
ENDBRANCH  45  46
ENDBRANCH  38  40
ENDBRANCH  37  38
ENDBRANCH  36  37
ENDBRANCH  35  36
ENDBRANCH  34  35
ENDBRANCH  33  34
ENDBRANCH   1  33
TORSDOF 22
ENDMDL
