MODEL 1
REMARK VINA RESULT:     -10.7      0.000      0.000
REMARK SMILES Cc1ccc(C)c(Oc2cccc(F)c2C(=O)OCCOCCOCCOCCOC(=O)c2ccc(-c3c4nc(c(-c5c(F)c(F)c(F)c(F)c5F)c5ccc([nH]5)c(-c5c(F)c(F)c(F)c(F)c5F)c5nc(c(-c6c(F)c(F)c(F)c(F)c6F)c6ccc3[nH]6)C=C5)C=C4)cc2)c1
REMARK SMILES IDX 24 1 23 2 22 3 21 4 20 5 19 6 18 7 16 8 17 9 15 10 9 11
REMARK SMILES IDX 10 12 11 13 13 14 12 15 14 16 8 17 7 18 1 19 2 20 3 21 96 22
REMARK SMILES IDX 4 23 5 24 6 25 25 26 26 27 27 28 28 29 29 30 30 31 31 32
REMARK SMILES IDX 32 33 33 34 34 35 95 36 35 37 94 38 36 39 37 40 38 41 88 42
REMARK SMILES IDX 39 43 93 44 87 45 89 46 40 47 92 48 86 49 85 50 41 52 73 53
REMARK SMILES IDX 53 54 72 55 54 56 57 57 71 58 90 59 55 60 56 61 70 63 91 64
REMARK SMILES IDX 58 65 42 66 43 67 51 68 44 69 45 70 49 71 52 72 46 73 47 74
REMARK SMILES IDX 50 75 48 76 74 77 75 78 83 79 76 80 77 81 81 82 84 83 78 84
REMARK SMILES IDX 79 85 82 86 80 87 59 88 60 89 68 90 61 91 62 92 66 93 69 94
REMARK SMILES IDX 63 95 64 96 67 97 65 98
REMARK H PARENT 89 51 57 62
REMARK Flexibility Score: inf
ROOT
ATOM      1  O   UNL A   1      40.625  20.515  27.259  1.00  0.00    -0.377 OA
ENDROOT
BRANCH   1   2
ATOM      2  C   UNL A   1      41.218  21.807  27.254  1.00  0.00     0.188 C 
BRANCH   2   3
ATOM      3  C   UNL A   1      40.373  23.040  27.600  1.00  0.00     0.188 C 
BRANCH   3   4
ATOM      4  O   UNL A   1      39.833  23.824  26.573  1.00  0.00    -0.376 OA
BRANCH   4   5
ATOM      5  C   UNL A   1      38.430  23.990  26.634  1.00  0.00     0.202 C 
BRANCH   5   6
ATOM      6  C   UNL A   1      37.526  23.341  25.561  1.00  0.00     0.261 C 
BRANCH   6   7
ATOM      7  O   UNL A   1      36.376  24.045  24.938  1.00  0.00    -0.459 OA
BRANCH   7   8
ATOM      8  C   UNL A   1      35.443  23.464  24.095  1.00  0.00     0.345 C 
ATOM      9  O   UNL A   1      35.495  23.399  22.863  1.00  0.00    -0.246 OA
BRANCH   8  10
ATOM     10  C   UNL A   1      34.317  22.702  24.617  1.00  0.00     0.138 A 
ATOM     11  C   UNL A   1      32.980  23.275  24.762  1.00  0.00     0.144 A 
ATOM     12  C   UNL A   1      31.948  22.337  24.758  1.00  0.00     0.048 A 
ATOM     13  C   UNL A   1      32.214  20.943  24.776  1.00  0.00     0.007 A 
ATOM     14  C   UNL A   1      34.567  21.325  24.735  1.00  0.00     0.141 A 
ATOM     15  C   UNL A   1      33.516  20.442  24.818  1.00  0.00     0.040 A 
ATOM     16  F   UNL A   1      35.805  20.807  24.685  1.00  0.00    -0.206 F 
BRANCH  11  17
ATOM     17  O   UNL A   1      32.616  24.629  24.531  1.00  0.00    -0.456 OA
BRANCH  17  18
ATOM     18  C   UNL A   1      32.633  25.731  25.422  1.00  0.00     0.130 A 
ATOM     19  C   UNL A   1      34.584  28.751  26.979  1.00  0.00     0.044 C 
ATOM     20  C   UNL A   1      33.508  27.817  26.503  1.00  0.00    -0.047 A 
ATOM     21  C   UNL A   1      32.229  28.257  26.803  1.00  0.00     0.004 A 
ATOM     22  C   UNL A   1      33.693  26.540  25.850  1.00  0.00     0.050 A 
ATOM     23  C   UNL A   1      31.189  27.393  26.592  1.00  0.00     0.007 A 
ATOM     24  C   UNL A   1      31.395  26.130  25.976  1.00  0.00    -0.008 A 
ATOM     25  C   UNL A   1      30.232  25.215  26.127  1.00  0.00     0.048 C 
ENDBRANCH  17  18
ENDBRANCH  11  17
ENDBRANCH   8  10
ENDBRANCH   7   8
ENDBRANCH   6   7
ENDBRANCH   5   6
ENDBRANCH   4   5
ENDBRANCH   3   4
ENDBRANCH   2   3
ENDBRANCH   1   2
BRANCH   1  26
ATOM     26  C   UNL A   1      41.016  19.620  26.230  1.00  0.00     0.188 C 
BRANCH  26  27
ATOM     27  C   UNL A   1      42.223  18.723  26.542  1.00  0.00     0.188 C 
BRANCH  27  28
ATOM     28  O   UNL A   1      42.973  18.385  25.397  1.00  0.00    -0.376 OA
BRANCH  28  29
ATOM     29  C   UNL A   1      44.376  18.574  25.402  1.00  0.00     0.202 C 
BRANCH  29  30
ATOM     30  C   UNL A   1      44.662  19.695  24.414  1.00  0.00     0.261 C 
BRANCH  30  31
ATOM     31  O   UNL A   1      44.141  20.954  24.935  1.00  0.00    -0.460 OA
BRANCH  31  32
ATOM     32  C   UNL A   1      45.030  21.854  25.473  1.00  0.00     0.338 C 
ATOM     33  O   UNL A   1      46.215  21.650  25.630  1.00  0.00    -0.246 OA
BRANCH  32  34
ATOM     34  C   UNL A   1      44.276  23.089  25.942  1.00  0.00     0.060 A 
ATOM     35  C   UNL A   1      43.472  23.882  25.099  1.00  0.00     0.016 A 
ATOM     36  C   UNL A   1      44.570  23.616  27.189  1.00  0.00     0.016 A 
ATOM     37  C   UNL A   1      43.072  25.224  25.469  1.00  0.00     0.010 A 
ATOM     38  C   UNL A   1      44.260  24.956  27.475  1.00  0.00     0.010 A 
ATOM     39  C   UNL A   1      43.545  25.845  26.644  1.00  0.00    -0.014 A 
BRANCH  39  40
ATOM     40  C   UNL A   1      43.122  27.219  27.334  1.00  0.00     0.031 A 
ATOM     41  C   UNL A   1      44.336  27.993  27.046  1.00  0.00     0.074 A 
ATOM     42  C   UNL A   1      42.462  27.755  28.471  1.00  0.00     0.049 A 
ATOM     43  N   UNL A   1      45.247  28.175  27.945  1.00  0.00    -0.248 NA
ATOM     44  C   UNL A   1      44.805  28.276  25.673  1.00  0.00     0.031 C 
ATOM     45  C   UNL A   1      42.239  27.131  29.757  1.00  0.00     0.029 A 
ATOM     46  N   UNL A   1      41.530  28.856  28.665  1.00  0.00    -0.354 N 
ATOM     47  C   UNL A   1      46.040  29.116  27.356  1.00  0.00     0.074 A 
ATOM     48  C   UNL A   1      45.968  28.876  25.938  1.00  0.00     0.031 C 
ATOM     49  C   UNL A   1      41.097  27.538  30.358  1.00  0.00     0.029 A 
ATOM     50  C   UNL A   1      40.459  28.649  29.644  1.00  0.00     0.049 A 
ATOM     51  H   UNL A   1      41.614  29.698  28.162  1.00  0.00     0.167 HD
ATOM     52  C   UNL A   1      46.114  30.280  28.047  1.00  0.00     0.037 A 
ATOM     53  C   UNL A   1      39.595  29.458  30.412  1.00  0.00     0.037 A 
ATOM     54  C   UNL A   1      45.980  30.055  29.482  1.00  0.00     0.049 A 
ATOM     55  C   UNL A   1      40.509  30.218  31.304  1.00  0.00     0.074 A 
ATOM     56  C   UNL A   1      46.767  29.297  30.338  1.00  0.00     0.029 A 
ATOM     57  N   UNL A   1      44.730  30.120  30.085  1.00  0.00    -0.354 N 
ATOM     58  N   UNL A   1      41.185  29.675  32.277  1.00  0.00    -0.248 NA
ATOM     59  C   UNL A   1      41.058  31.468  30.784  1.00  0.00     0.031 C 
ATOM     60  C   UNL A   1      45.973  28.891  31.438  1.00  0.00     0.029 A 
ATOM     61  C   UNL A   1      44.724  29.473  31.322  1.00  0.00     0.049 A 
ATOM     62  H   UNL A   1      43.947  30.567  29.690  1.00  0.00     0.167 HD
ATOM     63  C   UNL A   1      42.461  30.136  32.003  1.00  0.00     0.074 A 
ATOM     64  C   UNL A   1      42.308  31.340  31.217  1.00  0.00     0.031 C 
ATOM     65  C   UNL A   1      43.536  29.320  32.129  1.00  0.00     0.037 A 
BRANCH  52  66
ATOM     66  C   UNL A   1      46.050  31.567  27.301  1.00  0.00     0.064 A 
ATOM     67  C   UNL A   1      47.197  32.272  26.861  1.00  0.00     0.173 A 
ATOM     68  C   UNL A   1      44.820  32.125  26.970  1.00  0.00     0.173 A 
ATOM     69  F   UNL A   1      48.429  31.761  26.984  1.00  0.00    -0.203 F 
ATOM     70  C   UNL A   1      47.123  33.509  26.234  1.00  0.00     0.198 A 
ATOM     71  C   UNL A   1      44.742  33.340  26.284  1.00  0.00     0.198 A 
ATOM     72  F   UNL A   1      43.685  31.498  27.308  1.00  0.00    -0.203 F 
ATOM     73  F   UNL A   1      48.249  34.158  25.901  1.00  0.00    -0.200 F 
ATOM     74  C   UNL A   1      45.889  34.041  25.937  1.00  0.00     0.200 A 
ATOM     75  F   UNL A   1      43.543  33.832  25.949  1.00  0.00    -0.200 F 
ATOM     76  F   UNL A   1      45.806  35.210  25.288  1.00  0.00    -0.200 F 
ENDBRANCH  52  66
BRANCH  53  77
ATOM     77  C   UNL A   1      38.167  30.012  30.183  1.00  0.00     0.064 A 
ATOM     78  C   UNL A   1      37.692  30.367  28.921  1.00  0.00     0.173 A 
ATOM     79  C   UNL A   1      37.183  30.221  31.163  1.00  0.00     0.173 A 
ATOM     80  F   UNL A   1      38.165  29.698  27.877  1.00  0.00    -0.203 F 
ATOM     81  C   UNL A   1      36.682  31.336  28.715  1.00  0.00     0.198 A 
ATOM     82  C   UNL A   1      36.110  31.131  30.982  1.00  0.00     0.198 A 
ATOM     83  F   UNL A   1      37.289  29.653  32.371  1.00  0.00    -0.203 F 
ATOM     84  F   UNL A   1      36.487  31.882  27.504  1.00  0.00    -0.200 F 
ATOM     85  C   UNL A   1      35.954  31.797  29.786  1.00  0.00     0.200 A 
ATOM     86  F   UNL A   1      35.331  31.457  32.023  1.00  0.00    -0.200 F 
ATOM     87  F   UNL A   1      35.120  32.841  29.671  1.00  0.00    -0.200 F 
ENDBRANCH  53  77
BRANCH  65  88
ATOM     88  C   UNL A   1      43.456  28.398  33.320  1.00  0.00     0.064 A 
ATOM     89  C   UNL A   1      43.354  29.044  34.558  1.00  0.00     0.173 A 
ATOM     90  C   UNL A   1      43.360  26.996  33.344  1.00  0.00     0.173 A 
ATOM     91  F   UNL A   1      43.479  30.379  34.624  1.00  0.00    -0.203 F 
ATOM     92  C   UNL A   1      43.119  28.341  35.736  1.00  0.00     0.198 A 
ATOM     93  C   UNL A   1      43.068  26.295  34.516  1.00  0.00     0.198 A 
ATOM     94  F   UNL A   1      43.601  26.240  32.275  1.00  0.00    -0.203 F 
ATOM     95  F   UNL A   1      43.054  29.002  36.899  1.00  0.00    -0.200 F 
ATOM     96  C   UNL A   1      42.942  26.970  35.712  1.00  0.00     0.200 A 
ATOM     97  F   UNL A   1      42.922  24.962  34.479  1.00  0.00    -0.200 F 
ATOM     98  F   UNL A   1      42.678  26.298  36.841  1.00  0.00    -0.200 F 
ENDBRANCH  65  88
ENDBRANCH  39  40
ENDBRANCH  32  34
ENDBRANCH  31  32
ENDBRANCH  30  31
ENDBRANCH  29  30
ENDBRANCH  28  29
ENDBRANCH  27  28
ENDBRANCH  26  27
ENDBRANCH   1  26
TORSDOF 22
ENDMDL
MODEL 2
REMARK VINA RESULT:     -10.4      1.276      2.344
REMARK SMILES Cc1ccc(C)c(Oc2cccc(F)c2C(=O)OCCOCCOCCOCCOC(=O)c2ccc(-c3c4nc(c(-c5c(F)c(F)c(F)c(F)c5F)c5ccc([nH]5)c(-c5c(F)c(F)c(F)c(F)c5F)c5nc(c(-c6c(F)c(F)c(F)c(F)c6F)c6ccc3[nH]6)C=C5)C=C4)cc2)c1
REMARK SMILES IDX 24 1 23 2 22 3 21 4 20 5 19 6 18 7 16 8 17 9 15 10 9 11
REMARK SMILES IDX 10 12 11 13 13 14 12 15 14 16 8 17 7 18 1 19 2 20 3 21 96 22
REMARK SMILES IDX 4 23 5 24 6 25 25 26 26 27 27 28 28 29 29 30 30 31 31 32
REMARK SMILES IDX 32 33 33 34 34 35 95 36 35 37 94 38 36 39 37 40 38 41 88 42
REMARK SMILES IDX 39 43 93 44 87 45 89 46 40 47 92 48 86 49 85 50 41 52 73 53
REMARK SMILES IDX 53 54 72 55 54 56 57 57 71 58 90 59 55 60 56 61 70 63 91 64
REMARK SMILES IDX 58 65 42 66 43 67 51 68 44 69 45 70 49 71 52 72 46 73 47 74
REMARK SMILES IDX 50 75 48 76 74 77 75 78 83 79 76 80 77 81 81 82 84 83 78 84
REMARK SMILES IDX 79 85 82 86 80 87 59 88 60 89 68 90 61 91 62 92 66 93 69 94
REMARK SMILES IDX 63 95 64 96 67 97 65 98
REMARK H PARENT 89 51 57 62
REMARK Flexibility Score: inf
ROOT
ATOM      1  O   UNL A   1      40.791  21.965  26.285  1.00  0.00    -0.377 OA
ENDROOT
BRANCH   1   2
ATOM      2  C   UNL A   1      40.327  23.181  26.859  1.00  0.00     0.188 C 
BRANCH   2   3
ATOM      3  C   UNL A   1      38.867  23.611  26.665  1.00  0.00     0.188 C 
BRANCH   3   4
ATOM      4  O   UNL A   1      38.010  22.831  25.878  1.00  0.00    -0.376 OA
BRANCH   4   5
ATOM      5  C   UNL A   1      37.141  23.571  25.044  1.00  0.00     0.202 C 
BRANCH   5   6
ATOM      6  C   UNL A   1      36.064  22.844  24.208  1.00  0.00     0.261 C 
BRANCH   6   7
ATOM      7  O   UNL A   1      35.847  21.375  24.267  1.00  0.00    -0.459 OA
BRANCH   7   8
ATOM      8  C   UNL A   1      35.115  20.713  25.237  1.00  0.00     0.345 C 
ATOM      9  O   UNL A   1      34.894  21.095  26.391  1.00  0.00    -0.246 OA
BRANCH   8  10
ATOM     10  C   UNL A   1      34.370  19.499  24.931  1.00  0.00     0.138 A 
ATOM     11  C   UNL A   1      32.924  19.496  24.716  1.00  0.00     0.144 A 
ATOM     12  C   UNL A   1      32.457  18.433  23.944  1.00  0.00     0.048 A 
ATOM     13  C   UNL A   1      33.314  17.371  23.552  1.00  0.00     0.007 A 
ATOM     14  C   UNL A   1      35.182  18.396  24.622  1.00  0.00     0.141 A 
ATOM     15  C   UNL A   1      34.655  17.327  23.935  1.00  0.00     0.040 A 
ATOM     16  F   UNL A   1      36.497  18.365  24.895  1.00  0.00    -0.206 F 
BRANCH  11  17
ATOM     17  O   UNL A   1      32.049  20.605  24.876  1.00  0.00    -0.456 OA
BRANCH  17  18
ATOM     18  C   UNL A   1      32.170  21.927  24.382  1.00  0.00     0.130 A 
ATOM     19  C   UNL A   1      32.748  25.734  25.106  1.00  0.00     0.044 C 
ATOM     20  C   UNL A   1      32.659  24.385  24.451  1.00  0.00    -0.047 A 
ATOM     21  C   UNL A   1      33.001  24.405  23.109  1.00  0.00     0.004 A 
ATOM     22  C   UNL A   1      32.211  23.152  25.060  1.00  0.00     0.050 A 
ATOM     23  C   UNL A   1      32.765  23.276  22.372  1.00  0.00     0.007 A 
ATOM     24  C   UNL A   1      32.296  22.083  22.983  1.00  0.00    -0.008 A 
ATOM     25  C   UNL A   1      31.796  21.086  21.999  1.00  0.00     0.048 C 
ENDBRANCH  17  18
ENDBRANCH  11  17
ENDBRANCH   8  10
ENDBRANCH   7   8
ENDBRANCH   6   7
ENDBRANCH   5   6
ENDBRANCH   4   5
ENDBRANCH   3   4
ENDBRANCH   2   3
ENDBRANCH   1   2
BRANCH   1  26
ATOM     26  C   UNL A   1      41.135  20.918  27.179  1.00  0.00     0.188 C 
BRANCH  26  27
ATOM     27  C   UNL A   1      41.357  19.537  26.544  1.00  0.00     0.188 C 
BRANCH  27  28
ATOM     28  O   UNL A   1      42.157  19.583  25.384  1.00  0.00    -0.376 OA
BRANCH  28  29
ATOM     29  C   UNL A   1      43.402  18.910  25.369  1.00  0.00     0.202 C 
BRANCH  29  30
ATOM     30  C   UNL A   1      44.458  19.967  25.085  1.00  0.00     0.261 C 
BRANCH  30  31
ATOM     31  O   UNL A   1      43.985  21.269  25.539  1.00  0.00    -0.460 OA
BRANCH  31  32
ATOM     32  C   UNL A   1      44.008  22.318  24.652  1.00  0.00     0.338 C 
ATOM     33  O   UNL A   1      44.135  22.208  23.450  1.00  0.00    -0.246 OA
BRANCH  32  34
ATOM     34  C   UNL A   1      43.967  23.631  25.419  1.00  0.00     0.060 A 
ATOM     35  C   UNL A   1      44.250  23.742  26.795  1.00  0.00     0.016 A 
ATOM     36  C   UNL A   1      43.393  24.738  24.816  1.00  0.00     0.016 A 
ATOM     37  C   UNL A   1      43.857  24.905  27.562  1.00  0.00     0.010 A 
ATOM     38  C   UNL A   1      42.928  25.804  25.604  1.00  0.00     0.010 A 
ATOM     39  C   UNL A   1      43.085  25.943  26.999  1.00  0.00    -0.014 A 
BRANCH  39  40
ATOM     40  C   UNL A   1      42.682  27.371  27.583  1.00  0.00     0.031 A 
ATOM     41  C   UNL A   1      43.928  28.090  27.290  1.00  0.00     0.074 A 
ATOM     42  C   UNL A   1      42.001  27.998  28.660  1.00  0.00     0.049 A 
ATOM     43  N   UNL A   1      44.814  28.304  28.207  1.00  0.00    -0.248 NA
ATOM     44  C   UNL A   1      44.452  28.268  25.919  1.00  0.00     0.031 C 
ATOM     45  C   UNL A   1      41.716  27.466  29.974  1.00  0.00     0.029 A 
ATOM     46  N   UNL A   1      41.097  29.136  28.749  1.00  0.00    -0.354 N 
ATOM     47  C   UNL A   1      45.654  29.181  27.587  1.00  0.00     0.074 A 
ATOM     48  C   UNL A   1      45.623  28.851  26.186  1.00  0.00     0.031 C 
ATOM     49  C   UNL A   1      40.568  27.944  30.507  1.00  0.00     0.029 A 
ATOM     50  C   UNL A   1      39.988  29.024  29.701  1.00  0.00     0.049 A 
ATOM     51  H   UNL A   1      41.224  29.941  28.196  1.00  0.00     0.167 HD
ATOM     52  C   UNL A   1      45.741  30.385  28.204  1.00  0.00     0.037 A 
ATOM     53  C   UNL A   1      39.124  29.906  30.384  1.00  0.00     0.037 A 
ATOM     54  C   UNL A   1      45.551  30.259  29.645  1.00  0.00     0.049 A 
ATOM     55  C   UNL A   1      40.030  30.696  31.257  1.00  0.00     0.074 A 
ATOM     56  C   UNL A   1      46.286  29.536  30.575  1.00  0.00     0.029 A 
ATOM     57  N   UNL A   1      44.285  30.399  30.197  1.00  0.00    -0.354 N 
ATOM     58  N   UNL A   1      40.656  30.198  32.286  1.00  0.00    -0.248 NA
ATOM     59  C   UNL A   1      40.635  31.893  30.678  1.00  0.00     0.031 C 
ATOM     60  C   UNL A   1      45.443  29.226  31.670  1.00  0.00     0.029 A 
ATOM     61  C   UNL A   1      44.218  29.834  31.473  1.00  0.00     0.049 A 
ATOM     62  H   UNL A   1      43.530  30.841  29.747  1.00  0.00     0.167 HD
ATOM     63  C   UNL A   1      41.954  30.604  32.029  1.00  0.00     0.074 A 
ATOM     64  C   UNL A   1      41.865  31.758  31.162  1.00  0.00     0.031 C 
ATOM     65  C   UNL A   1      42.999  29.768  32.246  1.00  0.00     0.037 A 
BRANCH  52  66
ATOM     66  C   UNL A   1      45.741  31.622  27.375  1.00  0.00     0.064 A 
ATOM     67  C   UNL A   1      44.604  32.093  26.673  1.00  0.00     0.173 A 
ATOM     68  C   UNL A   1      46.888  32.404  27.283  1.00  0.00     0.173 A 
ATOM     69  F   UNL A   1      43.405  31.513  26.806  1.00  0.00    -0.203 F 
ATOM     70  C   UNL A   1      44.642  33.205  25.843  1.00  0.00     0.198 A 
ATOM     71  C   UNL A   1      46.911  33.559  26.496  1.00  0.00     0.198 A 
ATOM     72  F   UNL A   1      47.994  32.056  27.954  1.00  0.00    -0.203 F 
ATOM     73  F   UNL A   1      43.548  33.561  25.152  1.00  0.00    -0.200 F 
ATOM     74  C   UNL A   1      45.799  33.946  25.761  1.00  0.00     0.200 A 
ATOM     75  F   UNL A   1      48.019  34.309  26.458  1.00  0.00    -0.200 F 
ATOM     76  F   UNL A   1      45.831  35.049  25.002  1.00  0.00    -0.200 F 
ENDBRANCH  52  66
BRANCH  53  77
ATOM     77  C   UNL A   1      37.722  30.484  30.069  1.00  0.00     0.064 A 
ATOM     78  C   UNL A   1      37.351  30.900  28.792  1.00  0.00     0.173 A 
ATOM     79  C   UNL A   1      36.665  30.659  30.978  1.00  0.00     0.173 A 
ATOM     80  F   UNL A   1      37.899  30.273  27.758  1.00  0.00    -0.203 F 
ATOM     81  C   UNL A   1      36.366  31.888  28.551  1.00  0.00     0.198 A 
ATOM     82  C   UNL A   1      35.616  31.587  30.755  1.00  0.00     0.198 A 
ATOM     83  F   UNL A   1      36.673  30.037  32.163  1.00  0.00    -0.203 F 
ATOM     84  F   UNL A   1      36.271  32.489  27.355  1.00  0.00    -0.200 F 
ATOM     85  C   UNL A   1      35.559  32.307  29.582  1.00  0.00     0.200 A 
ATOM     86  F   UNL A   1      34.760  31.874  31.746  1.00  0.00    -0.200 F 
ATOM     87  F   UNL A   1      34.744  33.363  29.449  1.00  0.00    -0.200 F 
ENDBRANCH  53  77
BRANCH  65  88
ATOM     88  C   UNL A   1      42.851  28.929  33.489  1.00  0.00     0.064 A 
ATOM     89  C   UNL A   1      42.689  29.657  34.675  1.00  0.00     0.173 A 
ATOM     90  C   UNL A   1      42.745  27.532  33.603  1.00  0.00     0.173 A 
ATOM     91  F   UNL A   1      42.819  30.993  34.657  1.00  0.00    -0.203 F 
ATOM     92  C   UNL A   1      42.387  29.036  35.883  1.00  0.00     0.198 A 
ATOM     93  C   UNL A   1      42.387  26.912  34.801  1.00  0.00     0.198 A 
ATOM     94  F   UNL A   1      43.036  26.705  32.600  1.00  0.00    -0.203 F 
ATOM     95  F   UNL A   1      42.266  29.774  36.994  1.00  0.00    -0.200 F 
ATOM     96  C   UNL A   1      42.203  27.666  35.941  1.00  0.00     0.200 A 
ATOM     97  F   UNL A   1      42.235  25.580  34.846  1.00  0.00    -0.200 F 
ATOM     98  F   UNL A   1      41.876  27.072  37.097  1.00  0.00    -0.200 F 
ENDBRANCH  65  88
ENDBRANCH  39  40
ENDBRANCH  32  34
ENDBRANCH  31  32
ENDBRANCH  30  31
ENDBRANCH  29  30
ENDBRANCH  28  29
ENDBRANCH  27  28
ENDBRANCH  26  27
ENDBRANCH   1  26
TORSDOF 22
ENDMDL
MODEL 3
REMARK VINA RESULT:     -10.3      3.519      9.561
REMARK SMILES Cc1ccc(C)c(Oc2cccc(F)c2C(=O)OCCOCCOCCOCCOC(=O)c2ccc(-c3c4nc(c(-c5c(F)c(F)c(F)c(F)c5F)c5ccc([nH]5)c(-c5c(F)c(F)c(F)c(F)c5F)c5nc(c(-c6c(F)c(F)c(F)c(F)c6F)c6ccc3[nH]6)C=C5)C=C4)cc2)c1
REMARK SMILES IDX 24 1 23 2 22 3 21 4 20 5 19 6 18 7 16 8 17 9 15 10 9 11
REMARK SMILES IDX 10 12 11 13 13 14 12 15 14 16 8 17 7 18 1 19 2 20 3 21 96 22
REMARK SMILES IDX 4 23 5 24 6 25 25 26 26 27 27 28 28 29 29 30 30 31 31 32
REMARK SMILES IDX 32 33 33 34 34 35 95 36 35 37 94 38 36 39 37 40 38 41 88 42
REMARK SMILES IDX 39 43 93 44 87 45 89 46 40 47 92 48 86 49 85 50 41 52 73 53
REMARK SMILES IDX 53 54 72 55 54 56 57 57 71 58 90 59 55 60 56 61 70 63 91 64
REMARK SMILES IDX 58 65 42 66 43 67 51 68 44 69 45 70 49 71 52 72 46 73 47 74
REMARK SMILES IDX 50 75 48 76 74 77 75 78 83 79 76 80 77 81 81 82 84 83 78 84
REMARK SMILES IDX 79 85 82 86 80 87 59 88 60 89 68 90 61 91 62 92 66 93 69 94
REMARK SMILES IDX 63 95 64 96 67 97 65 98
REMARK H PARENT 89 51 57 62
REMARK Flexibility Score: inf
ROOT
ATOM      1  O   UNL A   1      33.855  30.487  27.206  1.00  0.00    -0.377 OA
ENDROOT
BRANCH   1   2
ATOM      2  C   UNL A   1      32.488  30.117  27.065  1.00  0.00     0.188 C 
BRANCH   2   3
ATOM      3  C   UNL A   1      31.894  29.900  25.668  1.00  0.00     0.188 C 
BRANCH   3   4
ATOM      4  O   UNL A   1      32.223  28.748  24.943  1.00  0.00    -0.376 OA
BRANCH   4   5
ATOM      5  C   UNL A   1      33.240  28.930  23.977  1.00  0.00     0.202 C 
BRANCH   5   6
ATOM      6  C   UNL A   1      33.967  27.706  23.377  1.00  0.00     0.261 C 
BRANCH   6   7
ATOM      7  O   UNL A   1      33.802  27.278  21.964  1.00  0.00    -0.459 OA
BRANCH   7   8
ATOM      8  C   UNL A   1      32.981  26.251  21.530  1.00  0.00     0.345 C 
ATOM      9  O   UNL A   1      33.083  25.613  20.477  1.00  0.00    -0.246 OA
BRANCH   8  10
ATOM     10  C   UNL A   1      31.943  25.694  22.387  1.00  0.00     0.138 A 
ATOM     11  C   UNL A   1      32.126  24.455  23.139  1.00  0.00     0.144 A 
ATOM     12  C   UNL A   1      31.312  24.338  24.265  1.00  0.00     0.048 A 
ATOM     13  C   UNL A   1      30.289  25.283  24.541  1.00  0.00     0.007 A 
ATOM     14  C   UNL A   1      30.865  26.566  22.615  1.00  0.00     0.141 A 
ATOM     15  C   UNL A   1      30.033  26.360  23.691  1.00  0.00     0.040 A 
ATOM     16  F   UNL A   1      30.650  27.662  21.870  1.00  0.00    -0.206 F 
BRANCH  11  17
ATOM     17  O   UNL A   1      33.247  23.585  23.066  1.00  0.00    -0.456 OA
BRANCH  17  18
ATOM     18  C   UNL A   1      33.494  22.373  23.757  1.00  0.00     0.130 A 
ATOM     19  C   UNL A   1      32.516  18.638  24.423  1.00  0.00     0.044 C 
ATOM     20  C   UNL A   1      33.257  19.940  24.313  1.00  0.00    -0.047 A 
ATOM     21  C   UNL A   1      34.558  19.870  24.785  1.00  0.00     0.004 A 
ATOM     22  C   UNL A   1      32.731  21.201  23.842  1.00  0.00     0.050 A 
ATOM     23  C   UNL A   1      35.255  21.041  24.915  1.00  0.00     0.007 A 
ATOM     24  C   UNL A   1      34.710  22.275  24.472  1.00  0.00    -0.008 A 
ATOM     25  C   UNL A   1      35.456  23.455  24.984  1.00  0.00     0.048 C 
ENDBRANCH  17  18
ENDBRANCH  11  17
ENDBRANCH   8  10
ENDBRANCH   7   8
ENDBRANCH   6   7
ENDBRANCH   5   6
ENDBRANCH   4   5
ENDBRANCH   3   4
ENDBRANCH   2   3
ENDBRANCH   1   2
BRANCH   1  26
ATOM     26  C   UNL A   1      34.125  31.762  27.767  1.00  0.00     0.188 C 
BRANCH  26  27
ATOM     27  C   UNL A   1      35.606  32.097  27.993  1.00  0.00     0.188 C 
BRANCH  27  28
ATOM     28  O   UNL A   1      35.800  33.227  28.812  1.00  0.00    -0.376 OA
BRANCH  28  29
ATOM     29  C   UNL A   1      34.675  33.907  29.339  1.00  0.00     0.202 C 
BRANCH  29  30
ATOM     30  C   UNL A   1      34.786  33.811  30.853  1.00  0.00     0.261 C 
BRANCH  30  31
ATOM     31  O   UNL A   1      34.867  32.411  31.253  1.00  0.00    -0.460 OA
BRANCH  31  32
ATOM     32  C   UNL A   1      35.785  32.059  32.213  1.00  0.00     0.338 C 
ATOM     33  O   UNL A   1      35.785  32.466  33.356  1.00  0.00    -0.246 OA
BRANCH  32  34
ATOM     34  C   UNL A   1      36.857  31.179  31.589  1.00  0.00     0.060 A 
ATOM     35  C   UNL A   1      36.649  29.836  31.217  1.00  0.00     0.016 A 
ATOM     36  C   UNL A   1      38.171  31.619  31.600  1.00  0.00     0.016 A 
ATOM     37  C   UNL A   1      37.754  28.932  30.973  1.00  0.00     0.010 A 
ATOM     38  C   UNL A   1      39.221  30.696  31.465  1.00  0.00     0.010 A 
ATOM     39  C   UNL A   1      39.093  29.318  31.189  1.00  0.00    -0.014 A 
BRANCH  39  40
ATOM     40  C   UNL A   1      40.457  28.571  30.838  1.00  0.00     0.031 A 
ATOM     41  C   UNL A   1      41.053  28.556  32.180  1.00  0.00     0.074 A 
ATOM     42  C   UNL A   1      41.477  28.487  29.853  1.00  0.00     0.049 A 
ATOM     43  N   UNL A   1      41.963  29.408  32.522  1.00  0.00    -0.248 NA
ATOM     44  C   UNL A   1      40.424  27.878  33.333  1.00  0.00     0.031 C 
ATOM     45  C   UNL A   1      41.850  29.472  28.861  1.00  0.00     0.029 A 
ATOM     46  N   UNL A   1      42.214  27.379  29.264  1.00  0.00    -0.354 N 
ATOM     47  C   UNL A   1      42.394  28.897  33.711  1.00  0.00     0.074 A 
ATOM     48  C   UNL A   1      41.257  28.248  34.309  1.00  0.00     0.031 C 
ATOM     49  C   UNL A   1      42.324  28.925  27.717  1.00  0.00     0.029 A 
ATOM     50  C   UNL A   1      42.516  27.476  27.832  1.00  0.00     0.049 A 
ATOM     51  H   UNL A   1      42.496  26.603  29.800  1.00  0.00     0.167 HD
ATOM     52  C   UNL A   1      43.705  28.552  33.716  1.00  0.00     0.037 A 
ATOM     53  C   UNL A   1      43.444  26.905  26.935  1.00  0.00     0.037 A 
ATOM     54  C   UNL A   1      44.482  29.404  32.822  1.00  0.00     0.049 A 
ATOM     55  C   UNL A   1      44.762  27.378  27.428  1.00  0.00     0.074 A 
ATOM     56  C   UNL A   1      44.666  30.781  32.848  1.00  0.00     0.029 A 
ATOM     57  N   UNL A   1      44.691  29.024  31.503  1.00  0.00    -0.354 N 
ATOM     58  N   UNL A   1      45.158  28.618  27.357  1.00  0.00    -0.248 NA
ATOM     59  C   UNL A   1      45.414  26.574  28.460  1.00  0.00     0.031 C 
ATOM     60  C   UNL A   1      44.960  31.219  31.533  1.00  0.00     0.029 A 
ATOM     61  C   UNL A   1      45.057  30.113  30.709  1.00  0.00     0.049 A 
ATOM     62  H   UNL A   1      44.594  28.104  31.169  1.00  0.00     0.167 HD
ATOM     63  C   UNL A   1      45.551  28.847  28.664  1.00  0.00     0.074 A 
ATOM     64  C   UNL A   1      45.855  27.556  29.239  1.00  0.00     0.031 C 
ATOM     65  C   UNL A   1      45.260  30.019  29.282  1.00  0.00     0.037 A 
BRANCH  52  66
ATOM     66  C   UNL A   1      44.113  27.276  34.365  1.00  0.00     0.064 A 
ATOM     67  C   UNL A   1      44.478  27.176  35.730  1.00  0.00     0.173 A 
ATOM     68  C   UNL A   1      44.118  26.091  33.638  1.00  0.00     0.173 A 
ATOM     69  F   UNL A   1      44.365  28.215  36.568  1.00  0.00    -0.203 F 
ATOM     70  C   UNL A   1      44.929  25.994  36.301  1.00  0.00     0.198 A 
ATOM     71  C   UNL A   1      44.513  24.886  34.227  1.00  0.00     0.198 A 
ATOM     72  F   UNL A   1      43.741  26.089  32.353  1.00  0.00    -0.203 F 
ATOM     73  F   UNL A   1      45.325  25.979  37.584  1.00  0.00    -0.200 F 
ATOM     74  C   UNL A   1      44.939  24.842  35.548  1.00  0.00     0.200 A 
ATOM     75  F   UNL A   1      44.473  23.757  33.511  1.00  0.00    -0.200 F 
ATOM     76  F   UNL A   1      45.326  23.686  36.103  1.00  0.00    -0.200 F 
ENDBRANCH  52  66
BRANCH  53  77
ATOM     77  C   UNL A   1      43.410  25.661  26.013  1.00  0.00     0.064 A 
ATOM     78  C   UNL A   1      42.315  24.802  25.950  1.00  0.00     0.173 A 
ATOM     79  C   UNL A   1      44.426  25.239  25.138  1.00  0.00     0.173 A 
ATOM     80  F   UNL A   1      41.113  25.323  26.166  1.00  0.00    -0.203 F 
ATOM     81  C   UNL A   1      42.417  23.438  25.588  1.00  0.00     0.198 A 
ATOM     82  C   UNL A   1      44.535  23.899  24.690  1.00  0.00     0.198 A 
ATOM     83  F   UNL A   1      45.414  26.071  24.787  1.00  0.00    -0.203 F 
ATOM     84  F   UNL A   1      41.420  22.578  25.853  1.00  0.00    -0.200 F 
ATOM     85  C   UNL A   1      43.588  22.964  25.046  1.00  0.00     0.200 A 
ATOM     86  F   UNL A   1      45.640  23.501  24.042  1.00  0.00    -0.200 F 
ATOM     87  F   UNL A   1      43.795  21.652  24.860  1.00  0.00    -0.200 F 
ENDBRANCH  53  77
BRANCH  65  88
ATOM     88  C   UNL A   1      45.384  31.221  28.381  1.00  0.00     0.064 A 
ATOM     89  C   UNL A   1      46.660  31.422  27.839  1.00  0.00     0.173 A 
ATOM     90  C   UNL A   1      44.378  32.093  27.930  1.00  0.00     0.173 A 
ATOM     91  F   UNL A   1      47.684  30.658  28.252  1.00  0.00    -0.203 F 
ATOM     92  C   UNL A   1      46.904  32.393  26.872  1.00  0.00     0.198 A 
ATOM     93  C   UNL A   1      44.608  33.029  26.921  1.00  0.00     0.198 A 
ATOM     94  F   UNL A   1      43.163  32.130  28.473  1.00  0.00    -0.203 F 
ATOM     95  F   UNL A   1      48.147  32.562  26.404  1.00  0.00    -0.200 F 
ATOM     96  C   UNL A   1      45.871  33.175  26.388  1.00  0.00     0.200 A 
ATOM     97  F   UNL A   1      43.600  33.796  26.477  1.00  0.00    -0.200 F 
ATOM     98  F   UNL A   1      46.099  34.084  25.430  1.00  0.00    -0.200 F 
ENDBRANCH  65  88
ENDBRANCH  39  40
ENDBRANCH  32  34
ENDBRANCH  31  32
ENDBRANCH  30  31
ENDBRANCH  29  30
ENDBRANCH  28  29
ENDBRANCH  27  28
ENDBRANCH  26  27
ENDBRANCH   1  26
TORSDOF 22
ENDMDL
