MODEL 1
REMARK VINA RESULT:     -11.1      0.000      0.000
REMARK SMILES Cc1ccc(F)c(C(=O)N[C@@H]2C=C[C@@H](C(=O)OCCOCCOCCOCCOC(=O)c3ccc(-c4c5nc(c(-c6c(F)c(F)c(F)c(F)c6F)c6ccc([nH]6)c(-c6c(F)c(F)c(F)c(F)c6F)c6nc(c(-c7c(F)c(F)c(F)c(F)c7F)c7ccc4[nH]7)C=C6)C=C5)cc3)C2)c1
REMARK SMILES IDX 23 1 22 2 21 3 20 4 19 5 18 6 17 7 15 8 16 9 14 10 11 11
REMARK SMILES IDX 12 12 95 13 13 14 10 15 8 16 9 17 7 19 1 20 2 21 3 22 96 23
REMARK SMILES IDX 4 24 5 25 6 26 24 27 25 28 26 29 27 30 28 31 29 32 30 33
REMARK SMILES IDX 31 34 32 35 33 36 94 37 34 38 93 39 35 40 36 41 37 42 87 43
REMARK SMILES IDX 38 44 92 45 86 46 88 47 39 48 91 49 85 50 84 51 40 53 72 54
REMARK SMILES IDX 52 55 71 56 53 57 56 58 70 59 89 60 54 61 55 62 69 64 90 65
REMARK SMILES IDX 57 66 41 67 42 68 50 69 43 70 44 71 48 72 51 73 45 74 46 75
REMARK SMILES IDX 49 76 47 77 73 78 74 79 82 80 75 81 76 82 80 83 83 84 77 85
REMARK SMILES IDX 78 86 81 87 79 88 58 89 59 90 67 91 60 92 61 93 65 94 68 95
REMARK SMILES IDX 62 96 63 97 66 98 64 99
REMARK H PARENT 10 18 88 52 56 63
REMARK Flexibility Score: inf
ROOT
ATOM      1  O   UNL A   1      33.811  30.360  27.030  1.00  0.00    -0.377 OA
ENDROOT
BRANCH   1   2
ATOM      2  C   UNL A   1      32.626  30.524  26.279  1.00  0.00     0.188 C 
BRANCH   2   3
ATOM      3  C   UNL A   1      32.375  29.655  25.052  1.00  0.00     0.188 C 
BRANCH   3   4
ATOM      4  O   UNL A   1      31.053  29.187  24.956  1.00  0.00    -0.376 OA
BRANCH   4   5
ATOM      5  C   UNL A   1      30.648  28.508  23.781  1.00  0.00     0.202 C 
BRANCH   5   6
ATOM      6  C   UNL A   1      30.743  26.977  23.557  1.00  0.00     0.261 C 
BRANCH   6   7
ATOM      7  O   UNL A   1      29.862  26.105  24.295  1.00  0.00    -0.463 OA
BRANCH   7   8
ATOM      8  C   UNL A   1      30.336  25.633  25.479  1.00  0.00     0.312 C 
ATOM      9  O   UNL A   1      30.329  26.292  26.519  1.00  0.00    -0.252 OA
BRANCH   8  10
ATOM     10  C   UNL A   1      30.840  24.181  25.468  1.00  0.00     0.124 C 
ATOM     11  C   UNL A   1      32.516  22.660  26.499  1.00  0.00     0.106 C 
ATOM     12  C   UNL A   1      31.215  22.661  27.234  1.00  0.00    -0.006 C 
ATOM     13  C   UNL A   1      32.337  23.852  25.537  1.00  0.00     0.048 C 
ATOM     14  C   UNL A   1      30.306  23.466  26.674  1.00  0.00    -0.014 C 
BRANCH  11  15
ATOM     15  N   UNL A   1      32.683  21.323  25.927  1.00  0.00    -0.346 N 
ATOM     16  C   UNL A   1      33.714  20.661  25.293  1.00  0.00     0.254 C 
ATOM     17  O   UNL A   1      33.627  19.446  25.138  1.00  0.00    -0.269 OA
ATOM     18  H   UNL A   1      31.872  20.769  26.013  1.00  0.00     0.164 HD
BRANCH  16  19
ATOM     19  C   UNL A   1      34.882  21.376  24.756  1.00  0.00     0.075 A 
ATOM     20  C   UNL A   1      38.332  22.145  25.920  1.00  0.00     0.044 C 
ATOM     21  C   UNL A   1      37.116  22.164  25.079  1.00  0.00    -0.050 A 
ATOM     22  C   UNL A   1      36.988  23.055  24.013  1.00  0.00     0.006 A 
ATOM     23  C   UNL A   1      36.110  21.257  25.376  1.00  0.00     0.020 A 
ATOM     24  C   UNL A   1      35.812  23.066  23.277  1.00  0.00     0.040 A 
ATOM     25  C   UNL A   1      34.755  22.243  23.664  1.00  0.00     0.135 A 
ATOM     26  F   UNL A   1      33.608  22.341  22.980  1.00  0.00    -0.206 F 
ENDBRANCH  16  19
ENDBRANCH  11  15
ENDBRANCH   8  10
ENDBRANCH   7   8
ENDBRANCH   6   7
ENDBRANCH   5   6
ENDBRANCH   4   5
ENDBRANCH   3   4
ENDBRANCH   2   3
ENDBRANCH   1   2
BRANCH   1  27
ATOM     27  C   UNL A   1      34.090  31.220  28.121  1.00  0.00     0.188 C 
BRANCH  27  28
ATOM     28  C   UNL A   1      34.271  32.748  27.975  1.00  0.00     0.188 C 
BRANCH  28  29
ATOM     29  O   UNL A   1      35.208  33.491  28.735  1.00  0.00    -0.376 OA
BRANCH  29  30
ATOM     30  C   UNL A   1      35.427  33.308  30.128  1.00  0.00     0.202 C 
BRANCH  30  31
ATOM     31  C   UNL A   1      36.780  32.831  30.620  1.00  0.00     0.261 C 
BRANCH  31  32
ATOM     32  O   UNL A   1      36.833  31.418  30.434  1.00  0.00    -0.460 OA
BRANCH  32  33
ATOM     33  C   UNL A   1      37.845  31.040  29.633  1.00  0.00     0.338 C 
ATOM     34  O   UNL A   1      38.918  31.592  29.543  1.00  0.00    -0.246 OA
BRANCH  33  35
ATOM     35  C   UNL A   1      37.476  29.774  28.894  1.00  0.00     0.060 A 
ATOM     36  C   UNL A   1      37.415  28.746  29.838  1.00  0.00     0.016 A 
ATOM     37  C   UNL A   1      38.304  29.614  27.796  1.00  0.00     0.016 A 
ATOM     38  C   UNL A   1      38.615  28.144  30.133  1.00  0.00     0.010 A 
ATOM     39  C   UNL A   1      39.521  29.087  28.061  1.00  0.00     0.010 A 
ATOM     40  C   UNL A   1      39.680  28.461  29.297  1.00  0.00    -0.014 A 
BRANCH  40  41
ATOM     41  C   UNL A   1      41.021  28.034  29.513  1.00  0.00     0.031 A 
ATOM     42  C   UNL A   1      41.299  26.710  28.973  1.00  0.00     0.074 A 
ATOM     43  C   UNL A   1      41.877  28.990  29.918  1.00  0.00     0.049 A 
ATOM     44  N   UNL A   1      42.332  26.021  29.260  1.00  0.00    -0.248 NA
ATOM     45  C   UNL A   1      40.345  26.001  28.111  1.00  0.00     0.031 C 
ATOM     46  C   UNL A   1      43.324  29.030  29.828  1.00  0.00     0.029 A 
ATOM     47  N   UNL A   1      41.544  30.100  30.716  1.00  0.00    -0.354 N 
ATOM     48  C   UNL A   1      42.364  24.986  28.355  1.00  0.00     0.074 A 
ATOM     49  C   UNL A   1      41.030  24.893  27.832  1.00  0.00     0.031 C 
ATOM     50  C   UNL A   1      43.781  29.877  30.772  1.00  0.00     0.029 A 
ATOM     51  C   UNL A   1      42.639  30.274  31.588  1.00  0.00     0.049 A 
ATOM     52  H   UNL A   1      40.722  30.640  30.674  1.00  0.00     0.167 HD
ATOM     53  C   UNL A   1      43.587  24.483  28.043  1.00  0.00     0.037 A 
ATOM     54  C   UNL A   1      42.463  29.925  32.899  1.00  0.00     0.037 A 
ATOM     55  C   UNL A   1      44.593  25.089  28.926  1.00  0.00     0.049 A 
ATOM     56  C   UNL A   1      43.199  28.653  33.289  1.00  0.00     0.074 A 
ATOM     57  C   UNL A   1      45.448  26.172  28.820  1.00  0.00     0.029 A 
ATOM     58  N   UNL A   1      44.478  24.834  30.280  1.00  0.00    -0.354 N 
ATOM     59  N   UNL A   1      43.772  27.837  32.445  1.00  0.00    -0.248 NA
ATOM     60  C   UNL A   1      43.286  28.176  34.668  1.00  0.00     0.031 C 
ATOM     61  C   UNL A   1      45.765  26.610  30.150  1.00  0.00     0.029 A 
ATOM     62  C   UNL A   1      45.116  25.782  31.053  1.00  0.00     0.049 A 
ATOM     63  H   UNL A   1      43.994  24.061  30.651  1.00  0.00     0.167 HD
ATOM     64  C   UNL A   1      44.277  26.757  33.114  1.00  0.00     0.074 A 
ATOM     65  C   UNL A   1      43.923  27.004  34.504  1.00  0.00     0.031 C 
ATOM     66  C   UNL A   1      44.931  25.727  32.498  1.00  0.00     0.037 A 
BRANCH  53  67
ATOM     67  C   UNL A   1      43.929  23.617  26.858  1.00  0.00     0.064 A 
ATOM     68  C   UNL A   1      43.398  22.313  26.798  1.00  0.00     0.173 A 
ATOM     69  C   UNL A   1      44.789  23.950  25.789  1.00  0.00     0.173 A 
ATOM     70  F   UNL A   1      42.549  21.863  27.732  1.00  0.00    -0.203 F 
ATOM     71  C   UNL A   1      43.722  21.414  25.779  1.00  0.00     0.198 A 
ATOM     72  C   UNL A   1      45.102  23.055  24.763  1.00  0.00     0.198 A 
ATOM     73  F   UNL A   1      45.379  25.138  25.672  1.00  0.00    -0.203 F 
ATOM     74  F   UNL A   1      43.202  20.180  25.797  1.00  0.00    -0.200 F 
ATOM     75  C   UNL A   1      44.575  21.784  24.761  1.00  0.00     0.200 A 
ATOM     76  F   UNL A   1      45.930  23.440  23.781  1.00  0.00    -0.200 F 
ATOM     77  F   UNL A   1      44.885  20.925  23.783  1.00  0.00    -0.200 F 
ENDBRANCH  53  67
BRANCH  54  78
ATOM     78  C   UNL A   1      41.122  30.333  33.424  1.00  0.00     0.064 A 
ATOM     79  C   UNL A   1      40.897  31.696  33.716  1.00  0.00     0.173 A 
ATOM     80  C   UNL A   1      39.993  29.510  33.317  1.00  0.00     0.173 A 
ATOM     81  F   UNL A   1      41.937  32.540  33.813  1.00  0.00    -0.203 F 
ATOM     82  C   UNL A   1      39.609  32.221  33.818  1.00  0.00     0.198 A 
ATOM     83  C   UNL A   1      38.703  30.036  33.432  1.00  0.00     0.198 A 
ATOM     84  F   UNL A   1      40.129  28.210  33.016  1.00  0.00    -0.203 F 
ATOM     85  F   UNL A   1      39.436  33.541  33.983  1.00  0.00    -0.200 F 
ATOM     86  C   UNL A   1      38.510  31.391  33.672  1.00  0.00     0.200 A 
ATOM     87  F   UNL A   1      37.639  29.241  33.232  1.00  0.00    -0.200 F 
ATOM     88  F   UNL A   1      37.271  31.905  33.692  1.00  0.00    -0.200 F 
ENDBRANCH  54  78
BRANCH  66  89
ATOM     89  C   UNL A   1      45.440  24.540  33.262  1.00  0.00     0.064 A 
ATOM     90  C   UNL A   1      44.608  23.457  33.579  1.00  0.00     0.173 A 
ATOM     91  C   UNL A   1      46.754  24.485  33.778  1.00  0.00     0.173 A 
ATOM     92  F   UNL A   1      43.322  23.448  33.198  1.00  0.00    -0.203 F 
ATOM     93  C   UNL A   1      45.082  22.359  34.298  1.00  0.00     0.198 A 
ATOM     94  C   UNL A   1      47.198  23.428  34.564  1.00  0.00     0.198 A 
ATOM     95  F   UNL A   1      47.661  25.432  33.505  1.00  0.00    -0.203 F 
ATOM     96  F   UNL A   1      44.282  21.303  34.498  1.00  0.00    -0.200 F 
ATOM     97  C   UNL A   1      46.371  22.351  34.800  1.00  0.00     0.200 A 
ATOM     98  F   UNL A   1      48.439  23.456  35.071  1.00  0.00    -0.200 F 
ATOM     99  F   UNL A   1      46.821  21.303  35.501  1.00  0.00    -0.200 F 
ENDBRANCH  66  89
ENDBRANCH  40  41
ENDBRANCH  33  35
ENDBRANCH  32  33
ENDBRANCH  31  32
ENDBRANCH  30  31
ENDBRANCH  29  30
ENDBRANCH  28  29
ENDBRANCH  27  28
ENDBRANCH   1  27
TORSDOF 22
ENDMDL
MODEL 2
REMARK VINA RESULT:     -11.0      1.857      3.617
REMARK SMILES Cc1ccc(F)c(C(=O)N[C@@H]2C=C[C@@H](C(=O)OCCOCCOCCOCCOC(=O)c3ccc(-c4c5nc(c(-c6c(F)c(F)c(F)c(F)c6F)c6ccc([nH]6)c(-c6c(F)c(F)c(F)c(F)c6F)c6nc(c(-c7c(F)c(F)c(F)c(F)c7F)c7ccc4[nH]7)C=C6)C=C5)cc3)C2)c1
REMARK SMILES IDX 23 1 22 2 21 3 20 4 19 5 18 6 17 7 15 8 16 9 14 10 11 11
REMARK SMILES IDX 12 12 95 13 13 14 10 15 8 16 9 17 7 19 1 20 2 21 3 22 96 23
REMARK SMILES IDX 4 24 5 25 6 26 24 27 25 28 26 29 27 30 28 31 29 32 30 33
REMARK SMILES IDX 31 34 32 35 33 36 94 37 34 38 93 39 35 40 36 41 37 42 87 43
REMARK SMILES IDX 38 44 92 45 86 46 88 47 39 48 91 49 85 50 84 51 40 53 72 54
REMARK SMILES IDX 52 55 71 56 53 57 56 58 70 59 89 60 54 61 55 62 69 64 90 65
REMARK SMILES IDX 57 66 41 67 42 68 50 69 43 70 44 71 48 72 51 73 45 74 46 75
REMARK SMILES IDX 49 76 47 77 73 78 74 79 82 80 75 81 76 82 80 83 83 84 77 85
REMARK SMILES IDX 78 86 81 87 79 88 58 89 59 90 67 91 60 92 61 93 65 94 68 95
REMARK SMILES IDX 62 96 63 97 66 98 64 99
REMARK H PARENT 10 18 88 52 56 63
REMARK Flexibility Score: inf
ROOT
ATOM      1  O   UNL A   1      33.625  36.350  32.401  1.00  0.00    -0.377 OA
ENDROOT
BRANCH   1   2
ATOM      2  C   UNL A   1      32.924  36.328  31.174  1.00  0.00     0.188 C 
BRANCH   2   3
ATOM      3  C   UNL A   1      33.491  35.558  29.986  1.00  0.00     0.188 C 
BRANCH   3   4
ATOM      4  O   UNL A   1      32.518  35.187  29.042  1.00  0.00    -0.376 OA
BRANCH   4   5
ATOM      5  C   UNL A   1      32.908  34.417  27.918  1.00  0.00     0.202 C 
BRANCH   5   6
ATOM      6  C   UNL A   1      33.712  33.093  27.981  1.00  0.00     0.261 C 
BRANCH   6   7
ATOM      7  O   UNL A   1      32.997  31.840  27.991  1.00  0.00    -0.463 OA
BRANCH   7   8
ATOM      8  C   UNL A   1      33.462  30.874  27.155  1.00  0.00     0.312 C 
ATOM      9  O   UNL A   1      34.659  30.635  27.000  1.00  0.00    -0.252 OA
BRANCH   8  10
ATOM     10  C   UNL A   1      32.390  30.039  26.435  1.00  0.00     0.124 C 
ATOM     11  C   UNL A   1      32.067  27.982  25.076  1.00  0.00     0.106 C 
ATOM     12  C   UNL A   1      31.901  27.732  26.539  1.00  0.00    -0.006 C 
ATOM     13  C   UNL A   1      32.653  29.409  25.062  1.00  0.00     0.048 C 
ATOM     14  C   UNL A   1      32.059  28.839  27.273  1.00  0.00    -0.014 C 
BRANCH  11  15
ATOM     15  N   UNL A   1      30.759  27.761  24.453  1.00  0.00    -0.346 N 
ATOM     16  C   UNL A   1      30.106  26.664  23.933  1.00  0.00     0.254 C 
ATOM     17  O   UNL A   1      28.905  26.751  23.695  1.00  0.00    -0.269 OA
ATOM     18  H   UNL A   1      30.224  28.586  24.392  1.00  0.00     0.164 HD
BRANCH  16  19
ATOM     19  C   UNL A   1      30.817  25.417  23.611  1.00  0.00     0.075 A 
ATOM     20  C   UNL A   1      31.467  22.174  25.316  1.00  0.00     0.044 C 
ATOM     21  C   UNL A   1      31.545  23.247  24.302  1.00  0.00    -0.050 A 
ATOM     22  C   UNL A   1      32.480  23.198  23.268  1.00  0.00     0.006 A 
ATOM     23  C   UNL A   1      30.648  24.300  24.404  1.00  0.00     0.020 A 
ATOM     24  C   UNL A   1      32.545  24.247  22.363  1.00  0.00     0.040 A 
ATOM     25  C   UNL A   1      31.729  25.363  22.550  1.00  0.00     0.135 A 
ATOM     26  F   UNL A   1      31.878  26.391  21.704  1.00  0.00    -0.206 F 
ENDBRANCH  16  19
ENDBRANCH  11  15
ENDBRANCH   8  10
ENDBRANCH   7   8
ENDBRANCH   6   7
ENDBRANCH   5   6
ENDBRANCH   4   5
ENDBRANCH   3   4
ENDBRANCH   2   3
ENDBRANCH   1   2
BRANCH   1  27
ATOM     27  C   UNL A   1      34.518  35.301  32.731  1.00  0.00     0.188 C 
BRANCH  27  28
ATOM     28  C   UNL A   1      34.063  33.846  32.989  1.00  0.00     0.188 C 
BRANCH  28  29
ATOM     29  O   UNL A   1      34.314  32.786  32.084  1.00  0.00    -0.376 OA
BRANCH  29  30
ATOM     30  C   UNL A   1      35.413  32.754  31.182  1.00  0.00     0.202 C 
BRANCH  30  31
ATOM     31  C   UNL A   1      35.846  31.435  30.572  1.00  0.00     0.261 C 
BRANCH  31  32
ATOM     32  O   UNL A   1      36.765  31.726  29.520  1.00  0.00    -0.460 OA
BRANCH  32  33
ATOM     33  C   UNL A   1      37.821  30.895  29.513  1.00  0.00     0.338 C 
ATOM     34  O   UNL A   1      38.882  31.096  30.060  1.00  0.00    -0.246 OA
BRANCH  33  35
ATOM     35  C   UNL A   1      37.475  29.626  28.769  1.00  0.00     0.060 A 
ATOM     36  C   UNL A   1      37.400  28.598  29.712  1.00  0.00     0.016 A 
ATOM     37  C   UNL A   1      38.327  29.469  27.688  1.00  0.00     0.016 A 
ATOM     38  C   UNL A   1      38.597  28.003  30.033  1.00  0.00     0.010 A 
ATOM     39  C   UNL A   1      39.541  28.949  27.979  1.00  0.00     0.010 A 
ATOM     40  C   UNL A   1      39.677  28.326  29.220  1.00  0.00    -0.014 A 
BRANCH  40  41
ATOM     41  C   UNL A   1      41.016  27.906  29.465  1.00  0.00     0.031 A 
ATOM     42  C   UNL A   1      41.312  26.582  28.935  1.00  0.00     0.074 A 
ATOM     43  C   UNL A   1      41.858  28.868  29.885  1.00  0.00     0.049 A 
ATOM     44  N   UNL A   1      42.342  25.900  29.245  1.00  0.00    -0.248 NA
ATOM     45  C   UNL A   1      40.380  25.866  28.055  1.00  0.00     0.031 C 
ATOM     46  C   UNL A   1      43.306  28.916  29.824  1.00  0.00     0.029 A 
ATOM     47  N   UNL A   1      41.503  29.978  30.672  1.00  0.00    -0.354 N 
ATOM     48  C   UNL A   1      42.399  24.862  28.344  1.00  0.00     0.074 A 
ATOM     49  C   UNL A   1      41.076  24.761  27.794  1.00  0.00     0.031 C 
ATOM     50  C   UNL A   1      43.739  29.767  30.775  1.00  0.00     0.029 A 
ATOM     51  C   UNL A   1      42.579  30.161  31.566  1.00  0.00     0.049 A 
ATOM     52  H   UNL A   1      40.679  30.514  30.611  1.00  0.00     0.167 HD
ATOM     53  C   UNL A   1      43.630  24.364  28.059  1.00  0.00     0.037 A 
ATOM     54  C   UNL A   1      42.378  29.815  32.874  1.00  0.00     0.037 A 
ATOM     55  C   UNL A   1      44.615  24.979  28.961  1.00  0.00     0.049 A 
ATOM     56  C   UNL A   1      43.112  28.548  33.283  1.00  0.00     0.074 A 
ATOM     57  C   UNL A   1      45.466  26.066  28.868  1.00  0.00     0.029 A 
ATOM     58  N   UNL A   1      44.473  24.727  30.313  1.00  0.00    -0.354 N 
ATOM     59  N   UNL A   1      43.707  27.732  32.453  1.00  0.00    -0.248 NA
ATOM     60  C   UNL A   1      43.173  28.075  34.665  1.00  0.00     0.031 C 
ATOM     61  C   UNL A   1      45.753  26.509  30.204  1.00  0.00     0.029 A 
ATOM     62  C   UNL A   1      45.090  25.681  31.095  1.00  0.00     0.049 A 
ATOM     63  H   UNL A   1      43.986  23.952  30.676  1.00  0.00     0.167 HD
ATOM     64  C   UNL A   1      44.204  26.657  33.136  1.00  0.00     0.074 A 
ATOM     65  C   UNL A   1      43.820  26.906  34.518  1.00  0.00     0.031 C 
ATOM     66  C   UNL A   1      44.876  25.629  32.536  1.00  0.00     0.037 A 
BRANCH  53  67
ATOM     67  C   UNL A   1      44.002  23.498  26.884  1.00  0.00     0.064 A 
ATOM     68  C   UNL A   1      43.450  22.203  26.798  1.00  0.00     0.173 A 
ATOM     69  C   UNL A   1      44.907  23.818  25.850  1.00  0.00     0.173 A 
ATOM     70  F   UNL A   1      42.558  21.765  27.697  1.00  0.00    -0.203 F 
ATOM     71  C   UNL A   1      43.796  21.303  25.788  1.00  0.00     0.198 A 
ATOM     72  C   UNL A   1      45.243  22.922  24.832  1.00  0.00     0.198 A 
ATOM     73  F   UNL A   1      45.523  24.996  25.760  1.00  0.00    -0.203 F 
ATOM     74  F   UNL A   1      43.253  20.079  25.780  1.00  0.00    -0.200 F 
ATOM     75  C   UNL A   1      44.693  21.661  24.804  1.00  0.00     0.200 A 
ATOM     76  F   UNL A   1      46.114  23.296  23.884  1.00  0.00    -0.200 F 
ATOM     77  F   UNL A   1      45.025  20.800  23.835  1.00  0.00    -0.200 F 
ENDBRANCH  53  67
BRANCH  54  78
ATOM     78  C   UNL A   1      41.024  30.217  33.370  1.00  0.00     0.064 A 
ATOM     79  C   UNL A   1      40.779  31.582  33.632  1.00  0.00     0.173 A 
ATOM     80  C   UNL A   1      39.906  29.379  33.261  1.00  0.00     0.173 A 
ATOM     81  F   UNL A   1      41.808  32.441  33.730  1.00  0.00    -0.203 F 
ATOM     82  C   UNL A   1      39.484  32.094  33.704  1.00  0.00     0.198 A 
ATOM     83  C   UNL A   1      38.608  29.892  33.345  1.00  0.00     0.198 A 
ATOM     84  F   UNL A   1      40.062  28.076  32.987  1.00  0.00    -0.203 F 
ATOM     85  F   UNL A   1      39.293  33.416  33.841  1.00  0.00    -0.200 F 
ATOM     86  C   UNL A   1      38.397  31.249  33.557  1.00  0.00     0.200 A 
ATOM     87  F   UNL A   1      37.557  29.082  33.144  1.00  0.00    -0.200 F 
ATOM     88  F   UNL A   1      37.151  31.749  33.547  1.00  0.00    -0.200 F 
ENDBRANCH  54  78
BRANCH  66  89
ATOM     89  C   UNL A   1      45.375  24.447  33.315  1.00  0.00     0.064 A 
ATOM     90  C   UNL A   1      46.720  24.330  33.694  1.00  0.00     0.173 A 
ATOM     91  C   UNL A   1      44.542  23.350  33.631  1.00  0.00     0.173 A 
ATOM     92  F   UNL A   1      47.606  25.284  33.375  1.00  0.00    -0.203 F 
ATOM     93  C   UNL A   1      47.181  23.225  34.410  1.00  0.00     0.198 A 
ATOM     94  C   UNL A   1      45.025  22.214  34.272  1.00  0.00     0.198 A 
ATOM     95  F   UNL A   1      43.229  23.360  33.369  1.00  0.00    -0.203 F 
ATOM     96  F   UNL A   1      48.451  23.196  34.836  1.00  0.00    -0.200 F 
ATOM     97  C   UNL A   1      46.338  22.163  34.687  1.00  0.00     0.200 A 
ATOM     98  F   UNL A   1      44.199  21.182  34.499  1.00  0.00    -0.200 F 
ATOM     99  F   UNL A   1      46.786  21.097  35.362  1.00  0.00    -0.200 F 
ENDBRANCH  66  89
ENDBRANCH  40  41
ENDBRANCH  33  35
ENDBRANCH  32  33
ENDBRANCH  31  32
ENDBRANCH  30  31
ENDBRANCH  29  30
ENDBRANCH  28  29
ENDBRANCH  27  28
ENDBRANCH   1  27
TORSDOF 22
ENDMDL
MODEL 3
REMARK VINA RESULT:     -10.7      1.621      3.195
REMARK SMILES Cc1ccc(F)c(C(=O)N[C@@H]2C=C[C@@H](C(=O)OCCOCCOCCOCCOC(=O)c3ccc(-c4c5nc(c(-c6c(F)c(F)c(F)c(F)c6F)c6ccc([nH]6)c(-c6c(F)c(F)c(F)c(F)c6F)c6nc(c(-c7c(F)c(F)c(F)c(F)c7F)c7ccc4[nH]7)C=C6)C=C5)cc3)C2)c1
REMARK SMILES IDX 23 1 22 2 21 3 20 4 19 5 18 6 17 7 15 8 16 9 14 10 11 11
REMARK SMILES IDX 12 12 95 13 13 14 10 15 8 16 9 17 7 19 1 20 2 21 3 22 96 23
REMARK SMILES IDX 4 24 5 25 6 26 24 27 25 28 26 29 27 30 28 31 29 32 30 33
REMARK SMILES IDX 31 34 32 35 33 36 94 37 34 38 93 39 35 40 36 41 37 42 87 43
REMARK SMILES IDX 38 44 92 45 86 46 88 47 39 48 91 49 85 50 84 51 40 53 72 54
REMARK SMILES IDX 52 55 71 56 53 57 56 58 70 59 89 60 54 61 55 62 69 64 90 65
REMARK SMILES IDX 57 66 41 67 42 68 50 69 43 70 44 71 48 72 51 73 45 74 46 75
REMARK SMILES IDX 49 76 47 77 73 78 74 79 82 80 75 81 76 82 80 83 83 84 77 85
REMARK SMILES IDX 78 86 81 87 79 88 58 89 59 90 67 91 60 92 61 93 65 94 68 95
REMARK SMILES IDX 62 96 63 97 66 98 64 99
REMARK H PARENT 10 18 88 52 56 63
REMARK Flexibility Score: inf
ROOT
ATOM      1  O   UNL A   1      32.879  35.251  29.606  1.00  0.00    -0.377 OA
ENDROOT
BRANCH   1   2
ATOM      2  C   UNL A   1      33.867  35.305  28.598  1.00  0.00     0.188 C 
BRANCH   2   3
ATOM      3  C   UNL A   1      34.233  34.044  27.822  1.00  0.00     0.188 C 
BRANCH   3   4
ATOM      4  O   UNL A   1      33.600  32.885  28.304  1.00  0.00    -0.376 OA
BRANCH   4   5
ATOM      5  C   UNL A   1      33.638  31.705  27.521  1.00  0.00     0.202 C 
BRANCH   5   6
ATOM      6  C   UNL A   1      32.428  30.775  27.251  1.00  0.00     0.261 C 
BRANCH   6   7
ATOM      7  O   UNL A   1      32.360  30.059  26.000  1.00  0.00    -0.463 OA
BRANCH   7   8
ATOM      8  C   UNL A   1      32.226  28.708  26.086  1.00  0.00     0.312 C 
ATOM      9  O   UNL A   1      31.757  28.139  27.070  1.00  0.00    -0.252 OA
BRANCH   8  10
ATOM     10  C   UNL A   1      32.650  27.914  24.840  1.00  0.00     0.124 C 
ATOM     11  C   UNL A   1      32.779  28.044  22.360  1.00  0.00     0.106 C 
ATOM     12  C   UNL A   1      34.034  28.511  23.023  1.00  0.00    -0.006 C 
ATOM     13  C   UNL A   1      31.811  27.931  23.555  1.00  0.00     0.048 C 
ATOM     14  C   UNL A   1      33.974  28.428  24.356  1.00  0.00    -0.014 C 
BRANCH  11  15
ATOM     15  N   UNL A   1      33.115  26.826  21.618  1.00  0.00    -0.346 N 
ATOM     16  C   UNL A   1      33.176  25.485  21.934  1.00  0.00     0.254 C 
ATOM     17  O   UNL A   1      33.259  24.668  21.020  1.00  0.00    -0.269 OA
ATOM     18  H   UNL A   1      33.353  27.007  20.679  1.00  0.00     0.164 HD
BRANCH  16  19
ATOM     19  C   UNL A   1      33.194  25.014  23.327  1.00  0.00     0.075 A 
ATOM     20  C   UNL A   1      35.791  23.955  25.772  1.00  0.00     0.044 C 
ATOM     21  C   UNL A   1      34.456  24.201  25.188  1.00  0.00    -0.050 A 
ATOM     22  C   UNL A   1      33.298  23.722  25.802  1.00  0.00     0.006 A 
ATOM     23  C   UNL A   1      34.389  24.937  24.014  1.00  0.00     0.020 A 
ATOM     24  C   UNL A   1      32.069  23.942  25.197  1.00  0.00     0.040 A 
ATOM     25  C   UNL A   1      32.024  24.567  23.951  1.00  0.00     0.135 A 
ATOM     26  F   UNL A   1      30.828  24.688  23.360  1.00  0.00    -0.206 F 
ENDBRANCH  16  19
ENDBRANCH  11  15
ENDBRANCH   8  10
ENDBRANCH   7   8
ENDBRANCH   6   7
ENDBRANCH   5   6
ENDBRANCH   4   5
ENDBRANCH   3   4
ENDBRANCH   2   3
ENDBRANCH   1   2
BRANCH   1  27
ATOM     27  C   UNL A   1      33.073  35.930  30.834  1.00  0.00     0.188 C 
BRANCH  27  28
ATOM     28  C   UNL A   1      33.854  35.329  32.024  1.00  0.00     0.188 C 
BRANCH  28  29
ATOM     29  O   UNL A   1      34.342  33.999  32.035  1.00  0.00    -0.376 OA
BRANCH  29  30
ATOM     30  C   UNL A   1      35.521  33.578  31.360  1.00  0.00     0.202 C 
BRANCH  30  31
ATOM     31  C   UNL A   1      35.685  32.123  30.968  1.00  0.00     0.261 C 
BRANCH  31  32
ATOM     32  O   UNL A   1      36.423  32.085  29.748  1.00  0.00    -0.460 OA
BRANCH  32  33
ATOM     33  C   UNL A   1      37.466  31.239  29.802  1.00  0.00     0.338 C 
ATOM     34  O   UNL A   1      38.510  31.442  30.381  1.00  0.00    -0.246 OA
BRANCH  33  35
ATOM     35  C   UNL A   1      37.129  29.953  29.083  1.00  0.00     0.060 A 
ATOM     36  C   UNL A   1      37.086  28.940  30.043  1.00  0.00     0.016 A 
ATOM     37  C   UNL A   1      37.966  29.793  27.992  1.00  0.00     0.016 A 
ATOM     38  C   UNL A   1      38.296  28.369  30.354  1.00  0.00     0.010 A 
ATOM     39  C   UNL A   1      39.192  29.297  28.270  1.00  0.00     0.010 A 
ATOM     40  C   UNL A   1      39.358  28.696  29.518  1.00  0.00    -0.014 A 
BRANCH  40  41
ATOM     41  C   UNL A   1      40.707  28.301  29.747  1.00  0.00     0.031 A 
ATOM     42  C   UNL A   1      41.027  26.991  29.196  1.00  0.00     0.074 A 
ATOM     43  C   UNL A   1      41.532  29.275  30.174  1.00  0.00     0.049 A 
ATOM     44  N   UNL A   1      42.074  26.327  29.489  1.00  0.00    -0.248 NA
ATOM     45  C   UNL A   1      40.104  26.268  28.313  1.00  0.00     0.031 C 
ATOM     46  C   UNL A   1      42.979  29.354  30.104  1.00  0.00     0.029 A 
ATOM     47  N   UNL A   1      41.160  30.366  30.980  1.00  0.00    -0.354 N 
ATOM     48  C   UNL A   1      42.146  25.303  28.573  1.00  0.00     0.074 A 
ATOM     49  C   UNL A   1      40.821  25.181  28.031  1.00  0.00     0.031 C 
ATOM     50  C   UNL A   1      43.401  30.201  31.064  1.00  0.00     0.029 A 
ATOM     51  C   UNL A   1      42.238  30.559  31.869  1.00  0.00     0.049 A 
ATOM     52  H   UNL A   1      40.325  30.885  30.933  1.00  0.00     0.167 HD
ATOM     53  C   UNL A   1      43.385  24.836  28.273  1.00  0.00     0.037 A 
ATOM     54  C   UNL A   1      42.055  30.191  33.173  1.00  0.00     0.037 A 
ATOM     55  C   UNL A   1      44.363  25.458  29.176  1.00  0.00     0.049 A 
ATOM     56  C   UNL A   1      42.818  28.934  33.558  1.00  0.00     0.074 A 
ATOM     57  C   UNL A   1      45.191  26.565  29.093  1.00  0.00     0.029 A 
ATOM     58  N   UNL A   1      44.237  25.185  30.525  1.00  0.00    -0.354 N 
ATOM     59  N   UNL A   1      43.424  28.143  32.713  1.00  0.00    -0.248 NA
ATOM     60  C   UNL A   1      42.900  28.443  34.933  1.00  0.00     0.031 C 
ATOM     61  C   UNL A   1      45.479  26.995  30.432  1.00  0.00     0.029 A 
ATOM     62  C   UNL A   1      44.840  26.140  31.317  1.00  0.00     0.049 A 
ATOM     63  H   UNL A   1      43.769  24.395  30.880  1.00  0.00     0.167 HD
ATOM     64  C   UNL A   1      43.948  27.069  33.377  1.00  0.00     0.074 A 
ATOM     65  C   UNL A   1      43.570  27.291  34.765  1.00  0.00     0.031 C 
ATOM     66  C   UNL A   1      44.638  26.064  32.758  1.00  0.00     0.037 A 
BRANCH  53  67
ATOM     67  C   UNL A   1      43.766  23.994  27.082  1.00  0.00     0.064 A 
ATOM     68  C   UNL A   1      44.681  24.519  26.148  1.00  0.00     0.173 A 
ATOM     69  C   UNL A   1      43.260  22.718  26.752  1.00  0.00     0.173 A 
ATOM     70  F   UNL A   1      45.263  25.712  26.338  1.00  0.00    -0.203 F 
ATOM     71  C   UNL A   1      45.034  23.844  24.977  1.00  0.00     0.198 A 
ATOM     72  C   UNL A   1      43.622  22.037  25.587  1.00  0.00     0.198 A 
ATOM     73  F   UNL A   1      42.390  22.060  27.517  1.00  0.00    -0.203 F 
ATOM     74  F   UNL A   1      45.890  24.413  24.119  1.00  0.00    -0.200 F 
ATOM     75  C   UNL A   1      44.504  22.603  24.695  1.00  0.00     0.200 A 
ATOM     76  F   UNL A   1      43.097  20.829  25.338  1.00  0.00    -0.200 F 
ATOM     77  F   UNL A   1      44.841  21.954  23.574  1.00  0.00    -0.200 F 
ENDBRANCH  53  67
BRANCH  54  78
ATOM     78  C   UNL A   1      40.697  30.557  33.685  1.00  0.00     0.064 A 
ATOM     79  C   UNL A   1      40.447  31.901  34.037  1.00  0.00     0.173 A 
ATOM     80  C   UNL A   1      39.580  29.728  33.509  1.00  0.00     0.173 A 
ATOM     81  F   UNL A   1      41.474  32.751  34.201  1.00  0.00    -0.203 F 
ATOM     82  C   UNL A   1      39.151  32.406  34.134  1.00  0.00     0.198 A 
ATOM     83  C   UNL A   1      38.281  30.233  33.618  1.00  0.00     0.198 A 
ATOM     84  F   UNL A   1      39.740  28.446  33.148  1.00  0.00    -0.203 F 
ATOM     85  F   UNL A   1      38.957  33.715  34.359  1.00  0.00    -0.200 F 
ATOM     86  C   UNL A   1      38.066  31.572  33.920  1.00  0.00     0.200 A 
ATOM     87  F   UNL A   1      37.233  29.437  33.353  1.00  0.00    -0.200 F 
ATOM     88  F   UNL A   1      36.820  32.071  33.935  1.00  0.00    -0.200 F 
ENDBRANCH  54  78
BRANCH  66  89
ATOM     89  C   UNL A   1      45.167  24.882  33.516  1.00  0.00     0.064 A 
ATOM     90  C   UNL A   1      46.526  24.765  33.842  1.00  0.00     0.173 A 
ATOM     91  C   UNL A   1      44.348  23.785  33.865  1.00  0.00     0.173 A 
ATOM     92  F   UNL A   1      47.399  25.720  33.489  1.00  0.00    -0.203 F 
ATOM     93  C   UNL A   1      47.016  23.660  34.539  1.00  0.00     0.198 A 
ATOM     94  C   UNL A   1      44.856  22.649  34.486  1.00  0.00     0.198 A 
ATOM     95  F   UNL A   1      43.025  23.794  33.655  1.00  0.00    -0.203 F 
ATOM     96  F   UNL A   1      48.302  23.631  34.914  1.00  0.00    -0.200 F 
ATOM     97  C   UNL A   1      46.185  22.598  34.849  1.00  0.00     0.200 A 
ATOM     98  F   UNL A   1      44.040  21.616  34.745  1.00  0.00    -0.200 F 
ATOM     99  F   UNL A   1      46.659  21.533  35.506  1.00  0.00    -0.200 F 
ENDBRANCH  66  89
ENDBRANCH  40  41
ENDBRANCH  33  35
ENDBRANCH  32  33
ENDBRANCH  31  32
ENDBRANCH  30  31
ENDBRANCH  29  30
ENDBRANCH  28  29
ENDBRANCH  27  28
ENDBRANCH   1  27
TORSDOF 22
ENDMDL
