MODEL 1
REMARK VINA RESULT:     -10.0      0.000      0.000
REMARK SMILES CC1(C)CCC[C@@](C)(CCC(=O)OCCOCCOCCOCCOC(=O)c2ccc(-c3c4nc(c(-c5c(F)c(F)c(F)c(F)c5F)c5ccc([nH]5)c(-c5c(F)c(F)c(F)c(F)c5F)c5nc(c(-c6c(F)c(F)c(F)c(F)c6F)c6ccc3[nH]6)C=C5)C=C4)cc2)C1=O
REMARK SMILES IDX 19 1 18 2 17 3 16 4 15 5 14 6 13 7 11 8 12 9 10 10 9 11 7 12
REMARK SMILES IDX 1 13 2 14 3 15 4 16 91 17 5 18 92 19 6 20 8 21 20 22 21 23
REMARK SMILES IDX 22 24 23 25 24 26 25 27 26 28 27 29 28 30 29 31 90 32 30 33
REMARK SMILES IDX 89 34 31 35 32 36 33 37 83 38 34 39 88 40 82 41 84 42 35 43
REMARK SMILES IDX 87 44 81 45 80 46 36 48 68 49 48 50 67 51 49 52 52 53 66 54
REMARK SMILES IDX 85 55 50 56 51 57 65 59 86 60 53 61 37 62 38 63 46 64 39 65
REMARK SMILES IDX 40 66 44 67 47 68 41 69 42 70 45 71 43 72 69 73 70 74 78 75
REMARK SMILES IDX 71 76 72 77 76 78 79 79 73 80 74 81 77 82 75 83 54 84 55 85
REMARK SMILES IDX 63 86 56 87 57 88 61 89 64 90 58 91 59 92 62 93 60 94
REMARK H PARENT 84 47 52 58
REMARK Flexibility Score: inf
ROOT
ATOM      1  O   UNL A   1      34.075  22.848  27.023  1.00  0.00    -0.377 OA
ENDROOT
BRANCH   1   2
ATOM      2  C   UNL A   1      33.221  21.772  26.634  1.00  0.00     0.188 C 
BRANCH   2   3
ATOM      3  C   UNL A   1      33.939  20.704  25.803  1.00  0.00     0.188 C 
BRANCH   3   4
ATOM      4  O   UNL A   1      33.693  20.753  24.399  1.00  0.00    -0.376 OA
BRANCH   4   5
ATOM      5  C   UNL A   1      32.368  21.136  24.003  1.00  0.00     0.202 C 
BRANCH   5   6
ATOM      6  C   UNL A   1      32.307  21.929  22.694  1.00  0.00     0.261 C 
BRANCH   6   7
ATOM      7  O   UNL A   1      32.514  23.330  22.977  1.00  0.00    -0.463 OA
BRANCH   7   8
ATOM      8  C   UNL A   1      33.073  24.069  21.992  1.00  0.00     0.305 C 
ATOM      9  O   UNL A   1      33.307  23.657  20.863  1.00  0.00    -0.252 OA
BRANCH   8  10
ATOM     10  C   UNL A   1      33.328  25.507  22.394  1.00  0.00     0.124 C 
BRANCH  10  11
ATOM     11  C   UNL A   1      32.829  26.010  23.755  1.00  0.00     0.026 C 
BRANCH  11  12
ATOM     12  C   UNL A   1      31.666  27.049  23.839  1.00  0.00     0.027 C 
ATOM     13  C   UNL A   1      33.752  27.635  26.434  1.00  0.00     0.019 C 
ATOM     14  C   UNL A   1      32.520  28.425  25.962  1.00  0.00     0.024 C 
ATOM     15  C   UNL A   1      31.890  29.074  27.215  1.00  0.00     0.019 C 
ATOM     16  C   UNL A   1      32.902  29.562  24.996  1.00  0.00     0.014 C 
ATOM     17  C   UNL A   1      31.496  27.456  25.328  1.00  0.00     0.144 C 
ATOM     18  C   UNL A   1      33.095  29.139  23.546  1.00  0.00     0.002 C 
ATOM     19  O   UNL A   1      30.615  26.940  26.024  1.00  0.00    -0.298 OA
ATOM     20  C   UNL A   1      31.894  28.349  23.048  1.00  0.00     0.014 C 
ATOM     21  C   UNL A   1      30.339  26.433  23.345  1.00  0.00     0.020 C 
ENDBRANCH  11  12
ENDBRANCH  10  11
ENDBRANCH   8  10
ENDBRANCH   7   8
ENDBRANCH   6   7
ENDBRANCH   5   6
ENDBRANCH   4   5
ENDBRANCH   3   4
ENDBRANCH   2   3
ENDBRANCH   1   2
BRANCH   1  22
ATOM     22  C   UNL A   1      34.102  23.881  26.040  1.00  0.00     0.188 C 
BRANCH  22  23
ATOM     23  C   UNL A   1      35.442  24.017  25.304  1.00  0.00     0.188 C 
BRANCH  23  24
ATOM     24  O   UNL A   1      35.604  23.242  24.122  1.00  0.00    -0.376 OA
BRANCH  24  25
ATOM     25  C   UNL A   1      36.932  22.781  23.843  1.00  0.00     0.202 C 
BRANCH  25  26
ATOM     26  C   UNL A   1      37.319  21.462  24.519  1.00  0.00     0.261 C 
BRANCH  26  27
ATOM     27  O   UNL A   1      37.727  21.700  25.885  1.00  0.00    -0.460 OA
BRANCH  27  28
ATOM     28  C   UNL A   1      39.048  21.604  26.138  1.00  0.00     0.338 C 
ATOM     29  O   UNL A   1      39.821  20.737  25.754  1.00  0.00    -0.246 OA
BRANCH  28  30
ATOM     30  C   UNL A   1      39.510  22.806  26.851  1.00  0.00     0.060 A 
ATOM     31  C   UNL A   1      38.919  24.033  26.528  1.00  0.00     0.016 A 
ATOM     32  C   UNL A   1      40.608  22.746  27.711  1.00  0.00     0.016 A 
ATOM     33  C   UNL A   1      39.479  25.219  27.003  1.00  0.00     0.010 A 
ATOM     34  C   UNL A   1      41.169  23.936  28.184  1.00  0.00     0.010 A 
ATOM     35  C   UNL A   1      40.641  25.178  27.785  1.00  0.00    -0.014 A 
BRANCH  35  36
ATOM     36  C   UNL A   1      41.428  26.419  27.993  1.00  0.00     0.031 A 
ATOM     37  C   UNL A   1      40.779  27.566  28.723  1.00  0.00     0.074 A 
ATOM     38  C   UNL A   1      42.698  26.524  27.570  1.00  0.00     0.049 A 
ATOM     39  N   UNL A   1      41.248  28.760  28.984  1.00  0.00    -0.248 NA
ATOM     40  C   UNL A   1      39.415  27.333  29.225  1.00  0.00     0.031 C 
ATOM     41  C   UNL A   1      43.453  25.475  26.890  1.00  0.00     0.029 A 
ATOM     42  N   UNL A   1      43.575  27.578  27.646  1.00  0.00    -0.354 N 
ATOM     43  C   UNL A   1      40.235  29.421  29.670  1.00  0.00     0.074 A 
ATOM     44  C   UNL A   1      39.117  28.507  29.760  1.00  0.00     0.031 C 
ATOM     45  C   UNL A   1      44.679  25.942  26.597  1.00  0.00     0.029 A 
ATOM     46  C   UNL A   1      44.783  27.332  27.043  1.00  0.00     0.049 A 
ATOM     47  H   UNL A   1      43.358  28.429  28.091  1.00  0.00     0.167 HD
ATOM     48  C   UNL A   1      40.239  30.671  30.187  1.00  0.00     0.037 A 
ATOM     49  C   UNL A   1      45.842  28.145  26.856  1.00  0.00     0.037 A 
ATOM     50  C   UNL A   1      41.352  31.580  30.106  1.00  0.00     0.049 A 
ATOM     51  C   UNL A   1      45.797  29.558  27.382  1.00  0.00     0.074 A 
ATOM     52  C   UNL A   1      41.460  32.862  30.617  1.00  0.00     0.029 A 
ATOM     53  N   UNL A   1      42.548  31.303  29.462  1.00  0.00    -0.354 N 
ATOM     54  N   UNL A   1      44.847  30.165  28.052  1.00  0.00    -0.248 NA
ATOM     55  C   UNL A   1      46.978  30.396  27.127  1.00  0.00     0.031 C 
ATOM     56  C   UNL A   1      42.706  33.377  30.245  1.00  0.00     0.029 A 
ATOM     57  C   UNL A   1      43.391  32.399  29.544  1.00  0.00     0.049 A 
ATOM     58  H   UNL A   1      42.766  30.454  29.015  1.00  0.00     0.167 HD
ATOM     59  C   UNL A   1      45.325  31.441  28.321  1.00  0.00     0.074 A 
ATOM     60  C   UNL A   1      46.654  31.520  27.753  1.00  0.00     0.031 C 
ATOM     61  C   UNL A   1      44.717  32.457  28.984  1.00  0.00     0.037 A 
BRANCH  48  62
ATOM     62  C   UNL A   1      38.990  31.141  30.873  1.00  0.00     0.064 A 
ATOM     63  C   UNL A   1      37.954  31.769  30.165  1.00  0.00     0.173 A 
ATOM     64  C   UNL A   1      38.814  30.933  32.248  1.00  0.00     0.173 A 
ATOM     65  F   UNL A   1      38.080  32.006  28.851  1.00  0.00    -0.203 F 
ATOM     66  C   UNL A   1      36.798  32.192  30.816  1.00  0.00     0.198 A 
ATOM     67  C   UNL A   1      37.646  31.332  32.891  1.00  0.00     0.198 A 
ATOM     68  F   UNL A   1      39.774  30.333  32.969  1.00  0.00    -0.203 F 
ATOM     69  F   UNL A   1      35.840  32.829  30.129  1.00  0.00    -0.200 F 
ATOM     70  C   UNL A   1      36.642  31.968  32.176  1.00  0.00     0.200 A 
ATOM     71  F   UNL A   1      37.493  31.105  34.203  1.00  0.00    -0.200 F 
ATOM     72  F   UNL A   1      35.526  32.369  32.798  1.00  0.00    -0.200 F 
ENDBRANCH  48  62
BRANCH  49  73
ATOM     73  C   UNL A   1      47.037  27.650  26.127  1.00  0.00     0.064 A 
ATOM     74  C   UNL A   1      48.132  27.110  26.815  1.00  0.00     0.173 A 
ATOM     75  C   UNL A   1      47.118  27.728  24.729  1.00  0.00     0.173 A 
ATOM     76  F   UNL A   1      48.111  27.040  28.154  1.00  0.00    -0.203 F 
ATOM     77  C   UNL A   1      49.270  26.682  26.134  1.00  0.00     0.198 A 
ATOM     78  C   UNL A   1      48.246  27.276  24.047  1.00  0.00     0.198 A 
ATOM     79  F   UNL A   1      46.098  28.239  24.024  1.00  0.00    -0.203 F 
ATOM     80  F   UNL A   1      50.320  26.212  26.820  1.00  0.00    -0.200 F 
ATOM     81  C   UNL A   1      49.324  26.761  24.750  1.00  0.00     0.200 A 
ATOM     82  F   UNL A   1      48.289  27.343  22.710  1.00  0.00    -0.200 F 
ATOM     83  F   UNL A   1      50.418  26.348  24.096  1.00  0.00    -0.200 F 
ENDBRANCH  49  73
BRANCH  61  84
ATOM     84  C   UNL A   1      45.495  33.729  29.165  1.00  0.00     0.064 A 
ATOM     85  C   UNL A   1      46.345  33.922  30.262  1.00  0.00     0.173 A 
ATOM     86  C   UNL A   1      45.424  34.745  28.199  1.00  0.00     0.173 A 
ATOM     87  F   UNL A   1      46.436  32.987  31.219  1.00  0.00    -0.203 F 
ATOM     88  C   UNL A   1      47.080  35.098  30.399  1.00  0.00     0.198 A 
ATOM     89  C   UNL A   1      46.182  35.907  28.325  1.00  0.00     0.198 A 
ATOM     90  F   UNL A   1      44.633  34.605  27.126  1.00  0.00    -0.203 F 
ATOM     91  F   UNL A   1      47.854  35.280  31.478  1.00  0.00    -0.200 F 
ATOM     92  C   UNL A   1      47.004  36.085  29.427  1.00  0.00     0.200 A 
ATOM     93  F   UNL A   1      46.117  36.853  27.378  1.00  0.00    -0.200 F 
ATOM     94  F   UNL A   1      47.718  37.211  29.557  1.00  0.00    -0.200 F 
ENDBRANCH  61  84
ENDBRANCH  35  36
ENDBRANCH  28  30
ENDBRANCH  27  28
ENDBRANCH  26  27
ENDBRANCH  25  26
ENDBRANCH  24  25
ENDBRANCH  23  24
ENDBRANCH  22  23
ENDBRANCH   1  22
TORSDOF 22
ENDMDL
MODEL 2
REMARK VINA RESULT:     -10.0      4.428      7.492
REMARK SMILES CC1(C)CCC[C@@](C)(CCC(=O)OCCOCCOCCOCCOC(=O)c2ccc(-c3c4nc(c(-c5c(F)c(F)c(F)c(F)c5F)c5ccc([nH]5)c(-c5c(F)c(F)c(F)c(F)c5F)c5nc(c(-c6c(F)c(F)c(F)c(F)c6F)c6ccc3[nH]6)C=C5)C=C4)cc2)C1=O
REMARK SMILES IDX 19 1 18 2 17 3 16 4 15 5 14 6 13 7 11 8 12 9 10 10 9 11 7 12
REMARK SMILES IDX 1 13 2 14 3 15 4 16 91 17 5 18 92 19 6 20 8 21 20 22 21 23
REMARK SMILES IDX 22 24 23 25 24 26 25 27 26 28 27 29 28 30 29 31 90 32 30 33
REMARK SMILES IDX 89 34 31 35 32 36 33 37 83 38 34 39 88 40 82 41 84 42 35 43
REMARK SMILES IDX 87 44 81 45 80 46 36 48 68 49 48 50 67 51 49 52 52 53 66 54
REMARK SMILES IDX 85 55 50 56 51 57 65 59 86 60 53 61 37 62 38 63 46 64 39 65
REMARK SMILES IDX 40 66 44 67 47 68 41 69 42 70 45 71 43 72 69 73 70 74 78 75
REMARK SMILES IDX 71 76 72 77 76 78 79 79 73 80 74 81 77 82 75 83 54 84 55 85
REMARK SMILES IDX 63 86 56 87 57 88 61 89 64 90 58 91 59 92 62 93 60 94
REMARK H PARENT 84 47 52 58
REMARK Flexibility Score: inf
ROOT
ATOM      1  O   UNL A   1      42.503  19.571  25.461  1.00  0.00    -0.377 OA
ENDROOT
BRANCH   1   2
ATOM      2  C   UNL A   1      42.282  20.383  26.614  1.00  0.00     0.188 C 
BRANCH   2   3
ATOM      3  C   UNL A   1      40.797  20.654  26.884  1.00  0.00     0.188 C 
BRANCH   3   4
ATOM      4  O   UNL A   1      40.060  21.177  25.780  1.00  0.00    -0.376 OA
BRANCH   4   5
ATOM      5  C   UNL A   1      38.768  21.722  26.086  1.00  0.00     0.202 C 
BRANCH   5   6
ATOM      6  C   UNL A   1      37.738  21.565  24.965  1.00  0.00     0.261 C 
BRANCH   6   7
ATOM      7  O   UNL A   1      36.453  21.244  25.541  1.00  0.00    -0.463 OA
BRANCH   7   8
ATOM      8  C   UNL A   1      35.366  21.527  24.789  1.00  0.00     0.305 C 
ATOM      9  O   UNL A   1      34.334  20.868  24.784  1.00  0.00    -0.252 OA
BRANCH   8  10
ATOM     10  C   UNL A   1      35.511  22.803  23.984  1.00  0.00     0.124 C 
BRANCH  10  11
ATOM     11  C   UNL A   1      34.986  24.124  24.561  1.00  0.00     0.026 C 
BRANCH  11  12
ATOM     12  C   UNL A   1      33.662  24.754  24.025  1.00  0.00     0.027 C 
ATOM     13  C   UNL A   1      32.987  23.350  27.025  1.00  0.00     0.019 C 
ATOM     14  C   UNL A   1      32.091  24.205  26.114  1.00  0.00     0.024 C 
ATOM     15  C   UNL A   1      30.636  23.737  26.339  1.00  0.00     0.019 C 
ATOM     16  C   UNL A   1      32.158  25.700  26.478  1.00  0.00     0.014 C 
ATOM     17  C   UNL A   1      32.475  23.960  24.635  1.00  0.00     0.144 C 
ATOM     18  C   UNL A   1      33.345  26.454  25.896  1.00  0.00     0.002 C 
ATOM     19  O   UNL A   1      31.907  23.078  23.984  1.00  0.00    -0.298 OA
ATOM     20  C   UNL A   1      33.445  26.232  24.394  1.00  0.00     0.014 C 
ATOM     21  C   UNL A   1      33.583  24.645  22.486  1.00  0.00     0.020 C 
ENDBRANCH  11  12
ENDBRANCH  10  11
ENDBRANCH   8  10
ENDBRANCH   7   8
ENDBRANCH   6   7
ENDBRANCH   5   6
ENDBRANCH   4   5
ENDBRANCH   3   4
ENDBRANCH   2   3
ENDBRANCH   1   2
BRANCH   1  22
ATOM     22  C   UNL A   1      43.835  19.064  25.421  1.00  0.00     0.188 C 
BRANCH  22  23
ATOM     23  C   UNL A   1      44.477  19.085  24.027  1.00  0.00     0.188 C 
BRANCH  23  24
ATOM     24  O   UNL A   1      44.741  20.364  23.463  1.00  0.00    -0.376 OA
BRANCH  24  25
ATOM     25  C   UNL A   1      45.017  21.421  24.390  1.00  0.00     0.202 C 
BRANCH  25  26
ATOM     26  C   UNL A   1      44.141  22.668  24.237  1.00  0.00     0.261 C 
BRANCH  26  27
ATOM     27  O   UNL A   1      44.104  23.409  25.477  1.00  0.00    -0.460 OA
BRANCH  27  28
ATOM     28  C   UNL A   1      44.466  24.707  25.407  1.00  0.00     0.338 C 
ATOM     29  O   UNL A   1      45.315  25.207  24.681  1.00  0.00    -0.246 OA
BRANCH  28  30
ATOM     30  C   UNL A   1      43.575  25.521  26.247  1.00  0.00     0.060 A 
ATOM     31  C   UNL A   1      43.850  26.889  26.370  1.00  0.00     0.016 A 
ATOM     32  C   UNL A   1      42.578  24.922  27.020  1.00  0.00     0.016 A 
ATOM     33  C   UNL A   1      43.180  27.649  27.329  1.00  0.00     0.010 A 
ATOM     34  C   UNL A   1      41.910  25.684  27.982  1.00  0.00     0.010 A 
ATOM     35  C   UNL A   1      42.250  27.036  28.179  1.00  0.00    -0.014 A 
BRANCH  35  36
ATOM     36  C   UNL A   1      41.805  27.740  29.407  1.00  0.00     0.031 A 
ATOM     37  C   UNL A   1      40.544  28.562  29.346  1.00  0.00     0.074 A 
ATOM     38  C   UNL A   1      42.485  27.637  30.561  1.00  0.00     0.049 A 
ATOM     39  N   UNL A   1      39.983  29.299  30.271  1.00  0.00    -0.248 NA
ATOM     40  C   UNL A   1      39.818  28.551  28.065  1.00  0.00     0.031 C 
ATOM     41  C   UNL A   1      43.693  26.842  30.762  1.00  0.00     0.029 A 
ATOM     42  N   UNL A   1      42.253  28.219  31.783  1.00  0.00    -0.354 N 
ATOM     43  C   UNL A   1      38.848  29.844  29.682  1.00  0.00     0.074 A 
ATOM     44  C   UNL A   1      38.813  29.378  28.313  1.00  0.00     0.031 C 
ATOM     45  C   UNL A   1      44.108  26.997  32.032  1.00  0.00     0.029 A 
ATOM     46  C   UNL A   1      43.209  27.924  32.722  1.00  0.00     0.049 A 
ATOM     47  H   UNL A   1      41.475  28.793  31.968  1.00  0.00     0.167 HD
ATOM     48  C   UNL A   1      37.913  30.652  30.234  1.00  0.00     0.037 A 
ATOM     49  C   UNL A   1      43.351  28.369  33.986  1.00  0.00     0.037 A 
ATOM     50  C   UNL A   1      37.940  31.113  31.597  1.00  0.00     0.049 A 
ATOM     51  C   UNL A   1      42.333  29.322  34.558  1.00  0.00     0.074 A 
ATOM     52  C   UNL A   1      37.027  31.918  32.255  1.00  0.00     0.029 A 
ATOM     53  N   UNL A   1      38.941  30.814  32.508  1.00  0.00    -0.354 N 
ATOM     54  N   UNL A   1      41.250  29.811  34.004  1.00  0.00    -0.248 NA
ATOM     55  C   UNL A   1      42.559  29.784  35.936  1.00  0.00     0.031 C 
ATOM     56  C   UNL A   1      37.498  32.142  33.553  1.00  0.00     0.029 A 
ATOM     57  C   UNL A   1      38.679  31.437  33.717  1.00  0.00     0.049 A 
ATOM     58  H   UNL A   1      39.721  30.242  32.325  1.00  0.00     0.167 HD
ATOM     59  C   UNL A   1      40.653  30.611  34.970  1.00  0.00     0.074 A 
ATOM     60  C   UNL A   1      41.486  30.535  36.151  1.00  0.00     0.031 C 
ATOM     61  C   UNL A   1      39.513  31.342  34.888  1.00  0.00     0.037 A 
BRANCH  48  62
ATOM     62  C   UNL A   1      36.787  31.109  29.354  1.00  0.00     0.064 A 
ATOM     63  C   UNL A   1      36.740  32.412  28.835  1.00  0.00     0.173 A 
ATOM     64  C   UNL A   1      35.758  30.224  29.002  1.00  0.00     0.173 A 
ATOM     65  F   UNL A   1      37.692  33.301  29.155  1.00  0.00    -0.203 F 
ATOM     66  C   UNL A   1      35.692  32.817  28.014  1.00  0.00     0.198 A 
ATOM     67  C   UNL A   1      34.725  30.624  28.158  1.00  0.00     0.198 A 
ATOM     68  F   UNL A   1      35.758  28.966  29.469  1.00  0.00    -0.203 F 
ATOM     69  F   UNL A   1      35.644  34.079  27.565  1.00  0.00    -0.200 F 
ATOM     70  C   UNL A   1      34.689  31.922  27.671  1.00  0.00     0.200 A 
ATOM     71  F   UNL A   1      33.763  29.755  27.820  1.00  0.00    -0.200 F 
ATOM     72  F   UNL A   1      33.685  32.312  26.875  1.00  0.00    -0.200 F 
ENDBRANCH  48  62
BRANCH  49  73
ATOM     73  C   UNL A   1      44.511  27.926  34.802  1.00  0.00     0.064 A 
ATOM     74  C   UNL A   1      44.465  26.735  35.538  1.00  0.00     0.173 A 
ATOM     75  C   UNL A   1      45.679  28.698  34.880  1.00  0.00     0.173 A 
ATOM     76  F   UNL A   1      43.358  25.977  35.516  1.00  0.00    -0.203 F 
ATOM     77  C   UNL A   1      45.538  26.340  36.335  1.00  0.00     0.198 A 
ATOM     78  C   UNL A   1      46.762  28.289  35.656  1.00  0.00     0.198 A 
ATOM     79  F   UNL A   1      45.772  29.848  34.196  1.00  0.00    -0.203 F 
ATOM     80  F   UNL A   1      45.450  25.219  37.064  1.00  0.00    -0.200 F 
ATOM     81  C   UNL A   1      46.687  27.115  36.390  1.00  0.00     0.200 A 
ATOM     82  F   UNL A   1      47.874  29.034  35.698  1.00  0.00    -0.200 F 
ATOM     83  F   UNL A   1      47.719  26.734  37.155  1.00  0.00    -0.200 F 
ENDBRANCH  49  73
BRANCH  61  84
ATOM     84  C   UNL A   1      39.077  32.087  36.116  1.00  0.00     0.064 A 
ATOM     85  C   UNL A   1      39.479  33.407  36.358  1.00  0.00     0.173 A 
ATOM     86  C   UNL A   1      38.204  31.485  37.036  1.00  0.00     0.173 A 
ATOM     87  F   UNL A   1      40.323  34.021  35.516  1.00  0.00    -0.203 F 
ATOM     88  C   UNL A   1      39.042  34.092  37.490  1.00  0.00     0.198 A 
ATOM     89  C   UNL A   1      37.748  32.182  38.152  1.00  0.00     0.198 A 
ATOM     90  F   UNL A   1      37.783  30.226  36.846  1.00  0.00    -0.203 F 
ATOM     91  F   UNL A   1      39.474  35.339  37.724  1.00  0.00    -0.200 F 
ATOM     92  C   UNL A   1      38.171  33.482  38.381  1.00  0.00     0.200 A 
ATOM     93  F   UNL A   1      36.895  31.596  39.004  1.00  0.00    -0.200 F 
ATOM     94  F   UNL A   1      37.746  34.146  39.465  1.00  0.00    -0.200 F 
ENDBRANCH  61  84
ENDBRANCH  35  36
ENDBRANCH  28  30
ENDBRANCH  27  28
ENDBRANCH  26  27
ENDBRANCH  25  26
ENDBRANCH  24  25
ENDBRANCH  23  24
ENDBRANCH  22  23
ENDBRANCH   1  22
TORSDOF 22
ENDMDL
MODEL 3
REMARK VINA RESULT:      -9.9      0.624      7.287
REMARK SMILES CC1(C)CCC[C@@](C)(CCC(=O)OCCOCCOCCOCCOC(=O)c2ccc(-c3c4nc(c(-c5c(F)c(F)c(F)c(F)c5F)c5ccc([nH]5)c(-c5c(F)c(F)c(F)c(F)c5F)c5nc(c(-c6c(F)c(F)c(F)c(F)c6F)c6ccc3[nH]6)C=C5)C=C4)cc2)C1=O
REMARK SMILES IDX 19 1 18 2 17 3 16 4 15 5 14 6 13 7 11 8 12 9 10 10 9 11 7 12
REMARK SMILES IDX 1 13 2 14 3 15 4 16 91 17 5 18 92 19 6 20 8 21 20 22 21 23
REMARK SMILES IDX 22 24 23 25 24 26 25 27 26 28 27 29 28 30 29 31 90 32 30 33
REMARK SMILES IDX 89 34 31 35 32 36 33 37 83 38 34 39 88 40 82 41 84 42 35 43
REMARK SMILES IDX 87 44 81 45 80 46 36 48 68 49 48 50 67 51 49 52 52 53 66 54
REMARK SMILES IDX 85 55 50 56 51 57 65 59 86 60 53 61 37 62 38 63 46 64 39 65
REMARK SMILES IDX 40 66 44 67 47 68 41 69 42 70 45 71 43 72 69 73 70 74 78 75
REMARK SMILES IDX 71 76 72 77 76 78 79 79 73 80 74 81 77 82 75 83 54 84 55 85
REMARK SMILES IDX 63 86 56 87 57 88 61 89 64 90 58 91 59 92 62 93 60 94
REMARK H PARENT 84 47 52 58
REMARK Flexibility Score: inf
ROOT
ATOM      1  O   UNL A   1      34.363  22.621  27.129  1.00  0.00    -0.377 OA
ENDROOT
BRANCH   1   2
ATOM      2  C   UNL A   1      33.379  21.631  26.832  1.00  0.00     0.188 C 
BRANCH   2   3
ATOM      3  C   UNL A   1      33.928  20.466  26.001  1.00  0.00     0.188 C 
BRANCH   3   4
ATOM      4  O   UNL A   1      33.378  20.335  24.691  1.00  0.00    -0.376 OA
BRANCH   4   5
ATOM      5  C   UNL A   1      32.209  21.120  24.417  1.00  0.00     0.202 C 
BRANCH   5   6
ATOM      6  C   UNL A   1      32.241  21.849  23.071  1.00  0.00     0.261 C 
BRANCH   6   7
ATOM      7  O   UNL A   1      32.707  23.201  23.273  1.00  0.00    -0.463 OA
BRANCH   7   8
ATOM      8  C   UNL A   1      33.017  23.905  22.162  1.00  0.00     0.305 C 
ATOM      9  O   UNL A   1      33.282  23.407  21.075  1.00  0.00    -0.252 OA
BRANCH   8  10
ATOM     10  C   UNL A   1      32.940  25.405  22.363  1.00  0.00     0.124 C 
BRANCH  10  11
ATOM     11  C   UNL A   1      32.682  25.966  23.769  1.00  0.00     0.026 C 
BRANCH  11  12
ATOM     12  C   UNL A   1      31.257  26.455  24.178  1.00  0.00     0.027 C 
ATOM     13  C   UNL A   1      33.464  27.775  26.373  1.00  0.00     0.019 C 
ATOM     14  C   UNL A   1      31.952  28.019  26.228  1.00  0.00     0.024 C 
ATOM     15  C   UNL A   1      31.408  28.341  27.637  1.00  0.00     0.019 C 
ATOM     16  C   UNL A   1      31.648  29.230  25.327  1.00  0.00     0.014 C 
ATOM     17  C   UNL A   1      31.269  26.734  25.706  1.00  0.00     0.144 C 
ATOM     18  C   UNL A   1      31.672  28.945  23.832  1.00  0.00     0.002 C 
ATOM     19  O   UNL A   1      30.828  25.898  26.501  1.00  0.00    -0.298 OA
ATOM     20  C   UNL A   1      30.790  27.752  23.494  1.00  0.00     0.014 C 
ATOM     21  C   UNL A   1      30.197  25.370  23.887  1.00  0.00     0.020 C 
ENDBRANCH  11  12
ENDBRANCH  10  11
ENDBRANCH   8  10
ENDBRANCH   7   8
ENDBRANCH   6   7
ENDBRANCH   5   6
ENDBRANCH   4   5
ENDBRANCH   3   4
ENDBRANCH   2   3
ENDBRANCH   1   2
BRANCH   1  22
ATOM     22  C   UNL A   1      34.354  23.678  26.172  1.00  0.00     0.188 C 
BRANCH  22  23
ATOM     23  C   UNL A   1      35.582  23.709  25.252  1.00  0.00     0.188 C 
BRANCH  23  24
ATOM     24  O   UNL A   1      35.696  22.656  24.302  1.00  0.00    -0.376 OA
BRANCH  24  25
ATOM     25  C   UNL A   1      37.027  22.300  23.907  1.00  0.00     0.202 C 
BRANCH  25  26
ATOM     26  C   UNL A   1      37.617  21.084  24.627  1.00  0.00     0.261 C 
BRANCH  26  27
ATOM     27  O   UNL A   1      38.034  21.446  25.962  1.00  0.00    -0.460 OA
BRANCH  27  28
ATOM     28  C   UNL A   1      39.363  21.562  26.161  1.00  0.00     0.338 C 
ATOM     29  O   UNL A   1      40.250  20.846  25.716  1.00  0.00    -0.246 OA
BRANCH  28  30
ATOM     30  C   UNL A   1      39.652  22.803  26.897  1.00  0.00     0.060 A 
ATOM     31  C   UNL A   1      38.899  23.943  26.592  1.00  0.00     0.016 A 
ATOM     32  C   UNL A   1      40.744  22.879  27.764  1.00  0.00     0.016 A 
ATOM     33  C   UNL A   1      39.288  25.186  27.091  1.00  0.00     0.010 A 
ATOM     34  C   UNL A   1      41.134  24.126  28.262  1.00  0.00     0.010 A 
ATOM     35  C   UNL A   1      40.442  25.291  27.880  1.00  0.00    -0.014 A 
BRANCH  35  36
ATOM     36  C   UNL A   1      41.050  26.624  28.115  1.00  0.00     0.031 A 
ATOM     37  C   UNL A   1      42.475  26.850  27.681  1.00  0.00     0.074 A 
ATOM     38  C   UNL A   1      40.353  27.624  28.678  1.00  0.00     0.049 A 
ATOM     39  N   UNL A   1      43.231  27.909  27.820  1.00  0.00    -0.248 NA
ATOM     40  C   UNL A   1      43.135  25.726  26.997  1.00  0.00     0.031 C 
ATOM     41  C   UNL A   1      38.957  27.548  29.104  1.00  0.00     0.029 A 
ATOM     42  N   UNL A   1      40.735  28.905  28.996  1.00  0.00    -0.354 N 
ATOM     43  C   UNL A   1      44.455  27.575  27.251  1.00  0.00     0.074 A 
ATOM     44  C   UNL A   1      44.351  26.208  26.791  1.00  0.00     0.031 C 
ATOM     45  C   UNL A   1      38.602  28.728  29.642  1.00  0.00     0.029 A 
ATOM     46  C   UNL A   1      39.754  29.631  29.624  1.00  0.00     0.049 A 
ATOM     47  H   UNL A   1      41.627  29.267  28.792  1.00  0.00     0.167 HD
ATOM     48  C   UNL A   1      45.562  28.342  27.115  1.00  0.00     0.037 A 
ATOM     49  C   UNL A   1      39.792  30.875  30.141  1.00  0.00     0.037 A 
ATOM     50  C   UNL A   1      45.667  29.705  27.565  1.00  0.00     0.049 A 
ATOM     51  C   UNL A   1      41.059  31.686  30.037  1.00  0.00     0.074 A 
ATOM     52  C   UNL A   1      46.740  30.571  27.454  1.00  0.00     0.029 A 
ATOM     53  N   UNL A   1      44.660  30.396  28.221  1.00  0.00    -0.354 N 
ATOM     54  N   UNL A   1      42.201  31.373  29.476  1.00  0.00    -0.248 NA
ATOM     55  C   UNL A   1      41.037  33.027  30.640  1.00  0.00     0.031 C 
ATOM     56  C   UNL A   1      46.398  31.773  28.082  1.00  0.00     0.029 A 
ATOM     57  C   UNL A   1      45.095  31.671  28.541  1.00  0.00     0.049 A 
ATOM     58  H   UNL A   1      43.768  30.035  28.428  1.00  0.00     0.167 HD
ATOM     59  C   UNL A   1      43.021  32.483  29.631  1.00  0.00     0.074 A 
ATOM     60  C   UNL A   1      42.243  33.484  30.330  1.00  0.00     0.031 C 
ATOM     61  C   UNL A   1      44.304  32.660  29.227  1.00  0.00     0.037 A 
BRANCH  48  62
ATOM     62  C   UNL A   1      46.762  27.716  26.468  1.00  0.00     0.064 A 
ATOM     63  C   UNL A   1      47.741  27.050  27.221  1.00  0.00     0.173 A 
ATOM     64  C   UNL A   1      46.919  27.756  25.075  1.00  0.00     0.173 A 
ATOM     65  F   UNL A   1      47.645  26.999  28.558  1.00  0.00    -0.203 F 
ATOM     66  C   UNL A   1      48.845  26.469  26.604  1.00  0.00     0.198 A 
ATOM     67  C   UNL A   1      48.009  27.149  24.459  1.00  0.00     0.198 A 
ATOM     68  F   UNL A   1      46.008  28.377  24.309  1.00  0.00    -0.203 F 
ATOM     69  F   UNL A   1      49.790  25.876  27.346  1.00  0.00    -0.200 F 
ATOM     70  C   UNL A   1      48.975  26.512  25.224  1.00  0.00     0.200 A 
ATOM     71  F   UNL A   1      48.128  27.183  23.124  1.00  0.00    -0.200 F 
ATOM     72  F   UNL A   1      50.034  25.945  24.631  1.00  0.00    -0.200 F 
ENDBRANCH  48  62
BRANCH  49  73
ATOM     73  C   UNL A   1      38.592  31.433  30.817  1.00  0.00     0.064 A 
ATOM     74  C   UNL A   1      37.643  32.179  30.106  1.00  0.00     0.173 A 
ATOM     75  C   UNL A   1      38.384  31.251  32.192  1.00  0.00     0.173 A 
ATOM     76  F   UNL A   1      37.814  32.403  28.794  1.00  0.00    -0.203 F 
ATOM     77  C   UNL A   1      36.539  32.737  30.747  1.00  0.00     0.198 A 
ATOM     78  C   UNL A   1      37.266  31.786  32.827  1.00  0.00     0.198 A 
ATOM     79  F   UNL A   1      39.265  30.546  32.917  1.00  0.00    -0.203 F 
ATOM     80  F   UNL A   1      35.671  33.484  30.053  1.00  0.00    -0.200 F 
ATOM     81  C   UNL A   1      36.349  32.537  32.107  1.00  0.00     0.200 A 
ATOM     82  F   UNL A   1      37.080  31.581  34.138  1.00  0.00    -0.200 F 
ATOM     83  F   UNL A   1      35.286  33.071  32.723  1.00  0.00    -0.200 F 
ENDBRANCH  49  73
BRANCH  61  84
ATOM     84  C   UNL A   1      44.937  33.995  29.496  1.00  0.00     0.064 A 
ATOM     85  C   UNL A   1      45.671  34.240  30.665  1.00  0.00     0.173 A 
ATOM     86  C   UNL A   1      44.849  35.024  28.546  1.00  0.00     0.173 A 
ATOM     87  F   UNL A   1      45.773  33.293  31.609  1.00  0.00    -0.203 F 
ATOM     88  C   UNL A   1      46.274  35.477  30.884  1.00  0.00     0.198 A 
ATOM     89  C   UNL A   1      45.477  36.249  28.756  1.00  0.00     0.198 A 
ATOM     90  F   UNL A   1      44.166  34.837  27.407  1.00  0.00    -0.203 F 
ATOM     91  F   UNL A   1      46.935  35.704  32.027  1.00  0.00    -0.200 F 
ATOM     92  C   UNL A   1      46.184  36.476  29.926  1.00  0.00     0.200 A 
ATOM     93  F   UNL A   1      45.400  37.209  27.823  1.00  0.00    -0.200 F 
ATOM     94  F   UNL A   1      46.772  37.662  30.136  1.00  0.00    -0.200 F 
ENDBRANCH  61  84
ENDBRANCH  35  36
ENDBRANCH  28  30
ENDBRANCH  27  28
ENDBRANCH  26  27
ENDBRANCH  25  26
ENDBRANCH  24  25
ENDBRANCH  23  24
ENDBRANCH  22  23
ENDBRANCH   1  22
TORSDOF 22
ENDMDL
