MODEL 1
REMARK VINA RESULT:     -11.1      0.000      0.000
REMARK SMILES CC(C)CCc1cc2c(cc1Cl)C=C(C(=O)OCCOCCOCCOCCOC(=O)c1ccc(-c3c4nc(c(-c5c(F)c(F)c(F)c(F)c5F)c5ccc([nH]5)c(-c5c(F)c(F)c(F)c(F)c5F)c5nc(c(-c6c(F)c(F)c(F)c(F)c6F)c6ccc3[nH]6)C=C5)C=C4)cc1)[C@H](C(F)(F)F)O2
REMARK SMILES IDX 22 1 21 2 20 3 19 4 18 5 17 6 15 7 16 8 14 9 6 10 7 11 11 12
REMARK SMILES IDX 8 13 10 14 12 15 9 16 100 17 13 18 95 19 5 20 4 21 2 22 1 23
REMARK SMILES IDX 3 24 96 25 97 26 98 27 99 28 23 29 24 30 25 31 26 32 27 33
REMARK SMILES IDX 28 34 29 35 30 36 31 37 32 38 33 39 94 40 34 41 93 42 35 43
REMARK SMILES IDX 36 44 37 45 87 46 38 47 92 48 86 49 88 50 39 51 91 52 85 53
REMARK SMILES IDX 84 54 40 56 72 57 52 58 71 59 53 60 56 61 70 62 89 63 54 64
REMARK SMILES IDX 55 65 69 67 90 68 57 69 41 70 42 71 50 72 43 73 44 74 48 75
REMARK SMILES IDX 51 76 45 77 46 78 49 79 47 80 73 81 74 82 82 83 75 84 76 85
REMARK SMILES IDX 80 86 83 87 77 88 78 89 81 90 79 91 58 92 59 93 67 94 60 95
REMARK SMILES IDX 61 96 65 97 68 98 62 99 63 100 66 101 64 102
REMARK H PARENT 88 55 56 66
REMARK Flexibility Score: inf
ROOT
ATOM      1  C   UNL A   1      39.764  21.705  26.453  1.00  0.00     0.188 C 
ENDROOT
BRANCH   1   2
ATOM      2  C   UNL A   1      39.467  23.196  26.666  1.00  0.00     0.188 C 
BRANCH   2   3
ATOM      3  O   UNL A   1      38.163  23.695  26.398  1.00  0.00    -0.376 OA
BRANCH   3   4
ATOM      4  C   UNL A   1      37.301  22.989  25.503  1.00  0.00     0.202 C 
BRANCH   4   5
ATOM      5  C   UNL A   1      36.004  22.353  26.029  1.00  0.00     0.261 C 
BRANCH   5   6
ATOM      6  O   UNL A   1      35.186  23.268  26.784  1.00  0.00    -0.460 OA
BRANCH   6   7
ATOM      7  C   UNL A   1      33.871  22.985  26.813  1.00  0.00     0.338 C 
ATOM      8  O   UNL A   1      33.286  22.364  27.688  1.00  0.00    -0.246 OA
BRANCH   7   9
ATOM      9  C   UNL A   1      33.152  23.703  25.747  1.00  0.00     0.087 C 
ATOM     10  C   UNL A   1      30.341  27.481  23.952  1.00  0.00    -0.026 A 
ATOM     11  C   UNL A   1      30.370  26.074  23.757  1.00  0.00     0.052 A 
ATOM     12  C   UNL A   1      31.355  28.035  24.750  1.00  0.00     0.045 A 
ATOM     13  C   UNL A   1      31.342  25.261  24.346  1.00  0.00     0.128 A 
ATOM     14  C   UNL A   1      32.390  27.232  25.243  1.00  0.00     0.032 A 
ATOM     15  Cl  UNL A   1      31.398  29.650  25.356  1.00  0.00    -0.084 Cl
ATOM     16  C   UNL A   1      32.362  25.850  25.077  1.00  0.00     0.019 A 
ATOM     17  O   UNL A   1      31.171  23.909  24.248  1.00  0.00    -0.475 OA
ATOM     18  C   UNL A   1      33.276  25.032  25.841  1.00  0.00     0.027 C 
ATOM     19  C   UNL A   1      32.188  23.021  24.816  1.00  0.00     0.316 C 
BRANCH  10  20
ATOM     20  C   UNL A   1      29.152  28.180  23.315  1.00  0.00     0.037 C 
BRANCH  20  21
ATOM     21  C   UNL A   1      29.285  29.443  22.457  1.00  0.00     0.008 C 
BRANCH  21  22
ATOM     22  C   UNL A   1      27.994  30.267  22.274  1.00  0.00    -0.017 C 
ATOM     23  C   UNL A   1      27.671  31.127  23.494  1.00  0.00     0.007 C 
ATOM     24  C   UNL A   1      28.124  31.152  21.029  1.00  0.00     0.007 C 
ENDBRANCH  21  22
ENDBRANCH  20  21
ENDBRANCH  10  20
BRANCH  19  25
ATOM     25  C   UNL A   1      32.829  22.248  23.651  1.00  0.00     0.430 C 
ATOM     26  F   UNL A   1      32.028  22.197  22.565  1.00  0.00    -0.167 F 
ATOM     27  F   UNL A   1      33.971  22.863  23.245  1.00  0.00    -0.167 F 
ATOM     28  F   UNL A   1      33.170  20.984  23.990  1.00  0.00    -0.167 F 
ENDBRANCH  19  25
ENDBRANCH   7   9
ENDBRANCH   6   7
ENDBRANCH   5   6
ENDBRANCH   4   5
ENDBRANCH   3   4
ENDBRANCH   2   3
ENDBRANCH   1   2
BRANCH   1  29
ATOM     29  O   UNL A   1      40.396  21.103  27.559  1.00  0.00    -0.377 OA
BRANCH  29  30
ATOM     30  C   UNL A   1      41.710  20.613  27.347  1.00  0.00     0.188 C 
BRANCH  30  31
ATOM     31  C   UNL A   1      42.390  20.948  26.009  1.00  0.00     0.188 C 
BRANCH  31  32
ATOM     32  O   UNL A   1      43.786  20.758  25.873  1.00  0.00    -0.376 OA
BRANCH  32  33
ATOM     33  C   UNL A   1      44.585  21.335  24.856  1.00  0.00     0.202 C 
BRANCH  33  34
ATOM     34  C   UNL A   1      44.274  22.603  24.040  1.00  0.00     0.261 C 
BRANCH  34  35
ATOM     35  O   UNL A   1      43.641  23.694  24.692  1.00  0.00    -0.460 OA
BRANCH  35  36
ATOM     36  C   UNL A   1      44.454  24.700  25.093  1.00  0.00     0.338 C 
ATOM     37  O   UNL A   1      45.525  25.010  24.629  1.00  0.00    -0.246 OA
BRANCH  36  38
ATOM     38  C   UNL A   1      43.709  25.481  26.105  1.00  0.00     0.060 A 
ATOM     39  C   UNL A   1      42.655  24.902  26.819  1.00  0.00     0.016 A 
ATOM     40  C   UNL A   1      44.082  26.809  26.339  1.00  0.00     0.016 A 
ATOM     41  C   UNL A   1      42.011  25.643  27.810  1.00  0.00     0.010 A 
ATOM     42  C   UNL A   1      43.432  27.552  27.324  1.00  0.00     0.010 A 
ATOM     43  C   UNL A   1      42.420  26.959  28.092  1.00  0.00    -0.014 A 
BRANCH  43  44
ATOM     44  C   UNL A   1      41.937  27.625  29.325  1.00  0.00     0.031 A 
ATOM     45  C   UNL A   1      42.635  27.478  30.639  1.00  0.00     0.074 A 
ATOM     46  C   UNL A   1      40.819  28.370  29.228  1.00  0.00     0.049 A 
ATOM     47  N   UNL A   1      42.376  28.078  31.774  1.00  0.00    -0.248 NA
ATOM     48  C   UNL A   1      43.759  26.535  30.696  1.00  0.00     0.031 C 
ATOM     49  C   UNL A   1      40.035  28.539  28.003  1.00  0.00     0.029 A 
ATOM     50  N   UNL A   1      40.157  29.129  30.157  1.00  0.00    -0.354 N 
ATOM     51  C   UNL A   1      43.319  27.609  32.675  1.00  0.00     0.074 A 
ATOM     52  C   UNL A   1      44.123  26.630  31.969  1.00  0.00     0.031 C 
ATOM     53  C   UNL A   1      39.022  29.384  28.245  1.00  0.00     0.029 A 
ATOM     54  C   UNL A   1      39.068  29.791  29.645  1.00  0.00     0.049 A 
ATOM     55  H   UNL A   1      40.434  29.193  31.100  1.00  0.00     0.167 HD
ATOM     56  C   UNL A   1      43.504  27.983  33.965  1.00  0.00     0.037 A 
ATOM     57  C   UNL A   1      38.209  30.643  30.233  1.00  0.00     0.037 A 
ATOM     58  C   UNL A   1      42.681  28.943  34.658  1.00  0.00     0.049 A 
ATOM     59  C   UNL A   1      38.412  31.007  31.676  1.00  0.00     0.074 A 
ATOM     60  C   UNL A   1      42.812  29.414  35.954  1.00  0.00     0.029 A 
ATOM     61  N   UNL A   1      41.563  29.568  34.121  1.00  0.00    -0.354 N 
ATOM     62  N   UNL A   1      39.361  30.627  32.496  1.00  0.00    -0.248 NA
ATOM     63  C   UNL A   1      37.432  31.923  32.274  1.00  0.00     0.031 C 
ATOM     64  C   UNL A   1      41.744  30.275  36.220  1.00  0.00     0.029 A 
ATOM     65  C   UNL A   1      40.979  30.393  35.070  1.00  0.00     0.049 A 
ATOM     66  H   UNL A   1      41.233  29.443  33.203  1.00  0.00     0.167 HD
ATOM     67  C   UNL A   1      39.109  31.272  33.697  1.00  0.00     0.074 A 
ATOM     68  C   UNL A   1      37.925  32.082  33.496  1.00  0.00     0.031 C 
ATOM     69  C   UNL A   1      39.800  31.198  34.860  1.00  0.00     0.037 A 
BRANCH  56  70
ATOM     70  C   UNL A   1      44.650  27.371  34.717  1.00  0.00     0.064 A 
ATOM     71  C   UNL A   1      44.490  26.183  35.446  1.00  0.00     0.173 A 
ATOM     72  C   UNL A   1      45.940  27.919  34.634  1.00  0.00     0.173 A 
ATOM     73  F   UNL A   1      43.279  25.617  35.560  1.00  0.00    -0.203 F 
ATOM     74  C   UNL A   1      45.573  25.576  36.078  1.00  0.00     0.198 A 
ATOM     75  C   UNL A   1      47.026  27.293  35.241  1.00  0.00     0.198 A 
ATOM     76  F   UNL A   1      46.152  29.046  33.940  1.00  0.00    -0.203 F 
ATOM     77  F   UNL A   1      45.388  24.458  36.793  1.00  0.00    -0.200 F 
ATOM     78  C   UNL A   1      46.841  26.125  35.966  1.00  0.00     0.200 A 
ATOM     79  F   UNL A   1      48.254  27.815  35.117  1.00  0.00    -0.200 F 
ATOM     80  F   UNL A   1      47.887  25.528  36.556  1.00  0.00    -0.200 F 
ENDBRANCH  56  70
BRANCH  57  81
ATOM     81  C   UNL A   1      37.117  31.246  29.428  1.00  0.00     0.064 A 
ATOM     82  C   UNL A   1      35.979  30.502  29.092  1.00  0.00     0.173 A 
ATOM     83  C   UNL A   1      37.164  32.589  29.021  1.00  0.00     0.173 A 
ATOM     84  F   UNL A   1      35.895  29.211  29.446  1.00  0.00    -0.203 F 
ATOM     85  C   UNL A   1      34.931  31.075  28.375  1.00  0.00     0.198 A 
ATOM     86  C   UNL A   1      36.103  33.168  28.331  1.00  0.00     0.198 A 
ATOM     87  F   UNL A   1      38.228  33.346  29.328  1.00  0.00    -0.203 F 
ATOM     88  F   UNL A   1      33.865  30.333  28.043  1.00  0.00    -0.200 F 
ATOM     89  C   UNL A   1      34.989  32.410  28.004  1.00  0.00     0.200 A 
ATOM     90  F   UNL A   1      36.155  34.463  27.992  1.00  0.00    -0.200 F 
ATOM     91  F   UNL A   1      33.972  32.965  27.331  1.00  0.00    -0.200 F 
ENDBRANCH  57  81
BRANCH  69  92
ATOM     92  C   UNL A   1      39.312  32.026  36.015  1.00  0.00     0.064 A 
ATOM     93  C   UNL A   1      39.789  33.326  36.241  1.00  0.00     0.173 A 
ATOM     94  C   UNL A   1      38.296  31.544  36.855  1.00  0.00     0.173 A 
ATOM     95  F   UNL A   1      40.772  33.826  35.476  1.00  0.00    -0.203 F 
ATOM     96  C   UNL A   1      39.271  34.110  37.267  1.00  0.00     0.198 A 
ATOM     97  C   UNL A   1      37.759  32.342  37.862  1.00  0.00     0.198 A 
ATOM     98  F   UNL A   1      37.801  30.311  36.679  1.00  0.00    -0.203 F 
ATOM     99  F   UNL A   1      39.763  35.337  37.483  1.00  0.00    -0.200 F 
ATOM    100  C   UNL A   1      38.249  33.623  38.069  1.00  0.00     0.200 A 
ATOM    101  F   UNL A   1      36.759  31.876  38.623  1.00  0.00    -0.200 F 
ATOM    102  F   UNL A   1      37.736  34.389  39.041  1.00  0.00    -0.200 F 
ENDBRANCH  69  92
ENDBRANCH  43  44
ENDBRANCH  36  38
ENDBRANCH  35  36
ENDBRANCH  34  35
ENDBRANCH  33  34
ENDBRANCH  32  33
ENDBRANCH  31  32
ENDBRANCH  30  31
ENDBRANCH  29  30
ENDBRANCH   1  29
TORSDOF 24
ENDMDL
MODEL 2
REMARK VINA RESULT:     -11.1      0.733      7.060
REMARK SMILES CC(C)CCc1cc2c(cc1Cl)C=C(C(=O)OCCOCCOCCOCCOC(=O)c1ccc(-c3c4nc(c(-c5c(F)c(F)c(F)c(F)c5F)c5ccc([nH]5)c(-c5c(F)c(F)c(F)c(F)c5F)c5nc(c(-c6c(F)c(F)c(F)c(F)c6F)c6ccc3[nH]6)C=C5)C=C4)cc1)[C@H](C(F)(F)F)O2
REMARK SMILES IDX 22 1 21 2 20 3 19 4 18 5 17 6 15 7 16 8 14 9 6 10 7 11 11 12
REMARK SMILES IDX 8 13 10 14 12 15 9 16 100 17 13 18 95 19 5 20 4 21 2 22 1 23
REMARK SMILES IDX 3 24 96 25 97 26 98 27 99 28 23 29 24 30 25 31 26 32 27 33
REMARK SMILES IDX 28 34 29 35 30 36 31 37 32 38 33 39 94 40 34 41 93 42 35 43
REMARK SMILES IDX 36 44 37 45 87 46 38 47 92 48 86 49 88 50 39 51 91 52 85 53
REMARK SMILES IDX 84 54 40 56 72 57 52 58 71 59 53 60 56 61 70 62 89 63 54 64
REMARK SMILES IDX 55 65 69 67 90 68 57 69 41 70 42 71 50 72 43 73 44 74 48 75
REMARK SMILES IDX 51 76 45 77 46 78 49 79 47 80 73 81 74 82 82 83 75 84 76 85
REMARK SMILES IDX 80 86 83 87 77 88 78 89 81 90 79 91 58 92 59 93 67 94 60 95
REMARK SMILES IDX 61 96 65 97 68 98 62 99 63 100 66 101 64 102
REMARK H PARENT 88 55 56 66
REMARK Flexibility Score: inf
ROOT
ATOM      1  C   UNL A   1      39.759  21.726  26.515  1.00  0.00     0.188 C 
ENDROOT
BRANCH   1   2
ATOM      2  C   UNL A   1      39.534  23.223  26.770  1.00  0.00     0.188 C 
BRANCH   2   3
ATOM      3  O   UNL A   1      38.263  23.796  26.493  1.00  0.00    -0.376 OA
BRANCH   3   4
ATOM      4  C   UNL A   1      37.404  23.190  25.525  1.00  0.00     0.202 C 
BRANCH   4   5
ATOM      5  C   UNL A   1      36.109  22.495  25.977  1.00  0.00     0.261 C 
BRANCH   5   6
ATOM      6  O   UNL A   1      35.225  23.362  26.714  1.00  0.00    -0.460 OA
BRANCH   6   7
ATOM      7  C   UNL A   1      33.928  23.004  26.719  1.00  0.00     0.338 C 
ATOM      8  O   UNL A   1      33.367  22.336  27.575  1.00  0.00    -0.246 OA
BRANCH   7   9
ATOM      9  C   UNL A   1      33.185  23.696  25.653  1.00  0.00     0.087 C 
ATOM     10  C   UNL A   1      30.328  27.430  23.836  1.00  0.00    -0.026 A 
ATOM     11  C   UNL A   1      30.356  26.018  23.671  1.00  0.00     0.052 A 
ATOM     12  C   UNL A   1      31.359  28.002  24.599  1.00  0.00     0.045 A 
ATOM     13  C   UNL A   1      31.342  25.221  24.258  1.00  0.00     0.128 A 
ATOM     14  C   UNL A   1      32.406  27.212  25.087  1.00  0.00     0.032 A 
ATOM     15  Cl  UNL A   1      31.412  29.631  25.167  1.00  0.00    -0.084 Cl
ATOM     16  C   UNL A   1      32.377  25.828  24.952  1.00  0.00     0.019 A 
ATOM     17  O   UNL A   1      31.171  23.867  24.193  1.00  0.00    -0.475 OA
ATOM     18  C   UNL A   1      33.308  25.028  25.714  1.00  0.00     0.027 C 
ATOM     19  C   UNL A   1      32.202  22.992  24.759  1.00  0.00     0.316 C 
BRANCH  10  20
ATOM     20  C   UNL A   1      29.124  28.113  23.209  1.00  0.00     0.037 C 
BRANCH  20  21
ATOM     21  C   UNL A   1      29.232  29.377  22.350  1.00  0.00     0.008 C 
BRANCH  21  22
ATOM     22  C   UNL A   1      27.950  30.227  22.244  1.00  0.00    -0.017 C 
ATOM     23  C   UNL A   1      27.673  31.030  23.512  1.00  0.00     0.007 C 
ATOM     24  C   UNL A   1      28.058  31.169  21.039  1.00  0.00     0.007 C 
ENDBRANCH  21  22
ENDBRANCH  20  21
ENDBRANCH  10  20
BRANCH  19  25
ATOM     25  C   UNL A   1      32.819  22.195  23.597  1.00  0.00     0.430 C 
ATOM     26  F   UNL A   1      31.998  22.127  22.527  1.00  0.00    -0.167 F 
ATOM     27  F   UNL A   1      33.956  22.797  23.159  1.00  0.00    -0.167 F 
ATOM     28  F   UNL A   1      33.161  20.936  23.955  1.00  0.00    -0.167 F 
ENDBRANCH  19  25
ENDBRANCH   7   9
ENDBRANCH   6   7
ENDBRANCH   5   6
ENDBRANCH   4   5
ENDBRANCH   3   4
ENDBRANCH   2   3
ENDBRANCH   1   2
BRANCH   1  29
ATOM     29  O   UNL A   1      40.399  21.072  27.587  1.00  0.00    -0.377 OA
BRANCH  29  30
ATOM     30  C   UNL A   1      41.709  20.588  27.341  1.00  0.00     0.188 C 
BRANCH  30  31
ATOM     31  C   UNL A   1      42.349  20.916  25.981  1.00  0.00     0.188 C 
BRANCH  31  32
ATOM     32  O   UNL A   1      43.758  20.898  25.855  1.00  0.00    -0.376 OA
BRANCH  32  33
ATOM     33  C   UNL A   1      44.492  21.626  24.886  1.00  0.00     0.202 C 
BRANCH  33  34
ATOM     34  C   UNL A   1      44.060  22.921  24.175  1.00  0.00     0.261 C 
BRANCH  34  35
ATOM     35  O   UNL A   1      43.432  23.940  24.940  1.00  0.00    -0.460 OA
BRANCH  35  36
ATOM     36  C   UNL A   1      44.193  25.021  25.229  1.00  0.00     0.338 C 
ATOM     37  O   UNL A   1      45.242  25.339  24.722  1.00  0.00    -0.246 OA
BRANCH  36  38
ATOM     38  C   UNL A   1      43.415  25.858  26.169  1.00  0.00     0.060 A 
ATOM     39  C   UNL A   1      42.520  25.275  27.071  1.00  0.00     0.016 A 
ATOM     40  C   UNL A   1      43.598  27.245  26.144  1.00  0.00     0.016 A 
ATOM     41  C   UNL A   1      41.846  26.083  27.987  1.00  0.00     0.010 A 
ATOM     42  C   UNL A   1      42.918  28.053  27.056  1.00  0.00     0.010 A 
ATOM     43  C   UNL A   1      42.069  27.472  28.007  1.00  0.00    -0.014 A 
BRANCH  43  44
ATOM     44  C   UNL A   1      41.585  28.272  29.158  1.00  0.00     0.031 A 
ATOM     45  C   UNL A   1      40.310  29.050  29.111  1.00  0.00     0.074 A 
ATOM     46  C   UNL A   1      42.352  28.287  30.265  1.00  0.00     0.049 A 
ATOM     47  N   UNL A   1      39.722  29.715  30.074  1.00  0.00    -0.248 NA
ATOM     48  C   UNL A   1      39.606  29.101  27.823  1.00  0.00     0.031 C 
ATOM     49  C   UNL A   1      43.638  27.600  30.397  1.00  0.00     0.029 A 
ATOM     50  N   UNL A   1      42.164  28.883  31.485  1.00  0.00    -0.354 N 
ATOM     51  C   UNL A   1      38.565  30.242  29.521  1.00  0.00     0.074 A 
ATOM     52  C   UNL A   1      38.562  29.866  28.120  1.00  0.00     0.031 C 
ATOM     53  C   UNL A   1      44.104  27.779  31.642  1.00  0.00     0.029 A 
ATOM     54  C   UNL A   1      43.166  28.615  32.384  1.00  0.00     0.049 A 
ATOM     55  H   UNL A   1      41.386  29.450  31.695  1.00  0.00     0.167 HD
ATOM     56  C   UNL A   1      37.590  30.953  30.138  1.00  0.00     0.037 A 
ATOM     57  C   UNL A   1      43.309  28.988  33.669  1.00  0.00     0.037 A 
ATOM     58  C   UNL A   1      37.620  31.337  31.528  1.00  0.00     0.049 A 
ATOM     59  C   UNL A   1      42.234  29.813  34.315  1.00  0.00     0.074 A 
ATOM     60  C   UNL A   1      36.662  32.027  32.252  1.00  0.00     0.029 A 
ATOM     61  N   UNL A   1      38.668  31.080  32.402  1.00  0.00    -0.354 N 
ATOM     62  N   UNL A   1      41.099  30.231  33.808  1.00  0.00    -0.248 NA
ATOM     63  C   UNL A   1      42.451  30.211  35.712  1.00  0.00     0.031 C 
ATOM     64  C   UNL A   1      37.154  32.238  33.543  1.00  0.00     0.029 A 
ATOM     65  C   UNL A   1      38.392  31.626  33.647  1.00  0.00     0.049 A 
ATOM     66  H   UNL A   1      39.487  30.584  32.172  1.00  0.00     0.167 HD
ATOM     67  C   UNL A   1      40.457  30.920  34.826  1.00  0.00     0.074 A 
ATOM     68  C   UNL A   1      41.322  30.852  35.986  1.00  0.00     0.031 C 
ATOM     69  C   UNL A   1      39.258  31.551  34.798  1.00  0.00     0.037 A 
BRANCH  56  70
ATOM     70  C   UNL A   1      36.392  31.355  29.326  1.00  0.00     0.064 A 
ATOM     71  C   UNL A   1      36.217  32.679  28.895  1.00  0.00     0.173 A 
ATOM     72  C   UNL A   1      35.463  30.397  28.893  1.00  0.00     0.173 A 
ATOM     73  F   UNL A   1      37.075  33.635  29.281  1.00  0.00    -0.203 F 
ATOM     74  C   UNL A   1      35.146  33.032  28.077  1.00  0.00     0.198 A 
ATOM     75  C   UNL A   1      34.410  30.748  28.051  1.00  0.00     0.198 A 
ATOM     76  F   UNL A   1      35.589  29.115  29.265  1.00  0.00    -0.203 F 
ATOM     77  F   UNL A   1      34.983  34.309  27.704  1.00  0.00    -0.200 F 
ATOM     78  C   UNL A   1      34.250  32.065  27.647  1.00  0.00     0.200 A 
ATOM     79  F   UNL A   1      33.556  29.809  27.621  1.00  0.00    -0.200 F 
ATOM     80  F   UNL A   1      33.233  32.402  26.842  1.00  0.00    -0.200 F 
ENDBRANCH  56  70
BRANCH  57  81
ATOM     81  C   UNL A   1      44.497  28.528  34.431  1.00  0.00     0.064 A 
ATOM     82  C   UNL A   1      45.673  29.289  34.455  1.00  0.00     0.173 A 
ATOM     83  C   UNL A   1      44.466  27.348  35.191  1.00  0.00     0.173 A 
ATOM     84  F   UNL A   1      45.754  30.417  33.734  1.00  0.00    -0.203 F 
ATOM     85  C   UNL A   1      46.775  28.887  35.205  1.00  0.00     0.198 A 
ATOM     86  C   UNL A   1      45.558  26.962  35.963  1.00  0.00     0.198 A 
ATOM     87  F   UNL A   1      43.360  26.590  35.209  1.00  0.00    -0.203 F 
ATOM     88  F   UNL A   1      47.897  29.619  35.189  1.00  0.00    -0.200 F 
ATOM     89  C   UNL A   1      46.714  27.729  35.967  1.00  0.00     0.200 A 
ATOM     90  F   UNL A   1      45.487  25.854  36.713  1.00  0.00    -0.200 F 
ATOM     91  F   UNL A   1      47.768  27.352  36.702  1.00  0.00    -0.200 F 
ENDBRANCH  57  81
BRANCH  69  92
ATOM     92  C   UNL A   1      38.788  32.211  36.062  1.00  0.00     0.064 A 
ATOM     93  C   UNL A   1      38.087  31.498  37.046  1.00  0.00     0.173 A 
ATOM     94  C   UNL A   1      39.115  33.550  36.329  1.00  0.00     0.173 A 
ATOM     95  F   UNL A   1      37.737  30.221  36.833  1.00  0.00    -0.203 F 
ATOM     96  C   UNL A   1      37.726  32.103  38.247  1.00  0.00     0.198 A 
ATOM     97  C   UNL A   1      38.778  34.142  37.543  1.00  0.00     0.198 A 
ATOM     98  F   UNL A   1      39.788  34.275  35.424  1.00  0.00    -0.203 F 
ATOM     99  F   UNL A   1      37.031  31.411  39.160  1.00  0.00    -0.200 F 
ATOM    100  C   UNL A   1      38.082  33.419  38.500  1.00  0.00     0.200 A 
ATOM    101  F   UNL A   1      39.140  35.409  37.792  1.00  0.00    -0.200 F 
ATOM    102  F   UNL A   1      37.754  33.991  39.666  1.00  0.00    -0.200 F 
ENDBRANCH  69  92
ENDBRANCH  43  44
ENDBRANCH  36  38
ENDBRANCH  35  36
ENDBRANCH  34  35
ENDBRANCH  33  34
ENDBRANCH  32  33
ENDBRANCH  31  32
ENDBRANCH  30  31
ENDBRANCH  29  30
ENDBRANCH   1  29
TORSDOF 24
ENDMDL
MODEL 3
REMARK VINA RESULT:     -10.4      1.518      7.147
REMARK SMILES CC(C)CCc1cc2c(cc1Cl)C=C(C(=O)OCCOCCOCCOCCOC(=O)c1ccc(-c3c4nc(c(-c5c(F)c(F)c(F)c(F)c5F)c5ccc([nH]5)c(-c5c(F)c(F)c(F)c(F)c5F)c5nc(c(-c6c(F)c(F)c(F)c(F)c6F)c6ccc3[nH]6)C=C5)C=C4)cc1)[C@H](C(F)(F)F)O2
REMARK SMILES IDX 22 1 21 2 20 3 19 4 18 5 17 6 15 7 16 8 14 9 6 10 7 11 11 12
REMARK SMILES IDX 8 13 10 14 12 15 9 16 100 17 13 18 95 19 5 20 4 21 2 22 1 23
REMARK SMILES IDX 3 24 96 25 97 26 98 27 99 28 23 29 24 30 25 31 26 32 27 33
REMARK SMILES IDX 28 34 29 35 30 36 31 37 32 38 33 39 94 40 34 41 93 42 35 43
REMARK SMILES IDX 36 44 37 45 87 46 38 47 92 48 86 49 88 50 39 51 91 52 85 53
REMARK SMILES IDX 84 54 40 56 72 57 52 58 71 59 53 60 56 61 70 62 89 63 54 64
REMARK SMILES IDX 55 65 69 67 90 68 57 69 41 70 42 71 50 72 43 73 44 74 48 75
REMARK SMILES IDX 51 76 45 77 46 78 49 79 47 80 73 81 74 82 82 83 75 84 76 85
REMARK SMILES IDX 80 86 83 87 77 88 78 89 81 90 79 91 58 92 59 93 67 94 60 95
REMARK SMILES IDX 61 96 65 97 68 98 62 99 63 100 66 101 64 102
REMARK H PARENT 88 55 56 66
REMARK Flexibility Score: inf
ROOT
ATOM      1  C   UNL A   1      37.647  20.046  24.915  1.00  0.00     0.188 C 
ENDROOT
BRANCH   1   2
ATOM      2  C   UNL A   1      36.423  20.938  25.164  1.00  0.00     0.188 C 
BRANCH   2   3
ATOM      3  O   UNL A   1      35.120  20.409  24.961  1.00  0.00    -0.376 OA
BRANCH   3   4
ATOM      4  C   UNL A   1      34.018  20.924  25.712  1.00  0.00     0.202 C 
BRANCH   4   5
ATOM      5  C   UNL A   1      32.578  20.643  25.250  1.00  0.00     0.261 C 
BRANCH   5   6
ATOM      6  O   UNL A   1      31.821  21.840  24.984  1.00  0.00    -0.460 OA
BRANCH   6   7
ATOM      7  C   UNL A   1      32.217  22.553  23.914  1.00  0.00     0.338 C 
ATOM      8  O   UNL A   1      32.478  22.107  22.806  1.00  0.00    -0.246 OA
BRANCH   7   9
ATOM      9  C   UNL A   1      32.102  23.999  24.170  1.00  0.00     0.087 C 
ATOM     10  C   UNL A   1      29.978  28.531  23.583  1.00  0.00    -0.026 A 
ATOM     11  C   UNL A   1      31.314  28.054  23.664  1.00  0.00     0.052 A 
ATOM     12  C   UNL A   1      28.953  27.594  23.793  1.00  0.00     0.045 A 
ATOM     13  C   UNL A   1      31.610  26.711  23.915  1.00  0.00     0.128 A 
ATOM     14  C   UNL A   1      29.257  26.277  24.157  1.00  0.00     0.032 A 
ATOM     15  Cl  UNL A   1      27.273  27.847  23.492  1.00  0.00    -0.084 Cl
ATOM     16  C   UNL A   1      30.574  25.829  24.177  1.00  0.00     0.019 A 
ATOM     17  O   UNL A   1      32.914  26.324  23.786  1.00  0.00    -0.475 OA
ATOM     18  C   UNL A   1      30.832  24.410  24.266  1.00  0.00     0.027 C 
ATOM     19  C   UNL A   1      33.276  24.935  24.080  1.00  0.00     0.316 C 
BRANCH  10  20
ATOM     20  C   UNL A   1      29.855  29.997  23.202  1.00  0.00     0.037 C 
BRANCH  20  21
ATOM     21  C   UNL A   1      28.970  30.492  22.053  1.00  0.00     0.008 C 
BRANCH  21  22
ATOM     22  C   UNL A   1      27.989  31.629  22.405  1.00  0.00    -0.017 C 
ATOM     23  C   UNL A   1      27.322  31.426  23.763  1.00  0.00     0.007 C 
ATOM     24  C   UNL A   1      28.730  32.971  22.379  1.00  0.00     0.007 C 
ENDBRANCH  21  22
ENDBRANCH  20  21
ENDBRANCH  10  20
BRANCH  19  25
ATOM     25  C   UNL A   1      34.205  24.949  25.306  1.00  0.00     0.430 C 
ATOM     26  F   UNL A   1      34.381  26.192  25.804  1.00  0.00    -0.167 F 
ATOM     27  F   UNL A   1      33.670  24.214  26.316  1.00  0.00    -0.167 F 
ATOM     28  F   UNL A   1      35.421  24.418  25.043  1.00  0.00    -0.167 F 
ENDBRANCH  19  25
ENDBRANCH   7   9
ENDBRANCH   6   7
ENDBRANCH   5   6
ENDBRANCH   4   5
ENDBRANCH   3   4
ENDBRANCH   2   3
ENDBRANCH   1   2
BRANCH   1  29
ATOM     29  O   UNL A   1      38.822  20.536  25.520  1.00  0.00    -0.377 OA
BRANCH  29  30
ATOM     30  C   UNL A   1      39.848  19.590  25.769  1.00  0.00     0.188 C 
BRANCH  30  31
ATOM     31  C   UNL A   1      41.251  20.127  26.100  1.00  0.00     0.188 C 
BRANCH  31  32
ATOM     32  O   UNL A   1      42.373  19.609  25.411  1.00  0.00    -0.376 OA
BRANCH  32  33
ATOM     33  C   UNL A   1      43.660  20.200  25.405  1.00  0.00     0.202 C 
BRANCH  33  34
ATOM     34  C   UNL A   1      44.005  21.671  25.112  1.00  0.00     0.261 C 
BRANCH  34  35
ATOM     35  O   UNL A   1      43.516  22.673  25.992  1.00  0.00    -0.460 OA
BRANCH  35  36
ATOM     36  C   UNL A   1      43.748  23.954  25.622  1.00  0.00     0.338 C 
ATOM     37  O   UNL A   1      43.954  24.372  24.508  1.00  0.00    -0.246 OA
BRANCH  36  38
ATOM     38  C   UNL A   1      43.526  24.796  26.818  1.00  0.00     0.060 A 
ATOM     39  C   UNL A   1      44.117  26.059  26.922  1.00  0.00     0.016 A 
ATOM     40  C   UNL A   1      42.708  24.307  27.843  1.00  0.00     0.016 A 
ATOM     41  C   UNL A   1      43.841  26.855  28.033  1.00  0.00     0.010 A 
ATOM     42  C   UNL A   1      42.439  25.101  28.958  1.00  0.00     0.010 A 
ATOM     43  C   UNL A   1      42.972  26.395  29.039  1.00  0.00    -0.014 A 
BRANCH  43  44
ATOM     44  C   UNL A   1      42.458  27.348  30.052  1.00  0.00     0.031 A 
ATOM     45  C   UNL A   1      41.242  28.184  29.818  1.00  0.00     0.074 A 
ATOM     46  C   UNL A   1      43.142  27.449  31.207  1.00  0.00     0.049 A 
ATOM     47  N   UNL A   1      40.629  28.988  30.651  1.00  0.00    -0.248 NA
ATOM     48  C   UNL A   1      40.637  28.124  28.481  1.00  0.00     0.031 C 
ATOM     49  C   UNL A   1      44.369  26.712  31.516  1.00  0.00     0.029 A 
ATOM     50  N   UNL A   1      42.905  28.193  32.335  1.00  0.00    -0.354 N 
ATOM     51  C   UNL A   1      39.551  29.510  29.954  1.00  0.00     0.074 A 
ATOM     52  C   UNL A   1      39.625  28.975  28.607  1.00  0.00     0.031 C 
ATOM     53  C   UNL A   1      44.754  27.009  32.766  1.00  0.00     0.029 A 
ATOM     54  C   UNL A   1      43.821  27.975  33.334  1.00  0.00     0.049 A 
ATOM     55  H   UNL A   1      42.152  28.821  32.419  1.00  0.00     0.167 HD
ATOM     56  C   UNL A   1      38.582  30.340  30.408  1.00  0.00     0.037 A 
ATOM     57  C   UNL A   1      43.894  28.487  34.577  1.00  0.00     0.037 A 
ATOM     58  C   UNL A   1      38.535  30.881  31.745  1.00  0.00     0.049 A 
ATOM     59  C   UNL A   1      42.829  29.439  35.040  1.00  0.00     0.074 A 
ATOM     60  C   UNL A   1      37.573  31.701  32.309  1.00  0.00     0.029 A 
ATOM     61  N   UNL A   1      39.499  30.669  32.722  1.00  0.00    -0.354 N 
ATOM     62  N   UNL A   1      41.764  29.856  34.402  1.00  0.00    -0.248 NA
ATOM     63  C   UNL A   1      42.970  29.984  36.397  1.00  0.00     0.031 C 
ATOM     64  C   UNL A   1      37.983  32.033  33.603  1.00  0.00     0.029 A 
ATOM     65  C   UNL A   1      39.169  31.370  33.873  1.00  0.00     0.049 A 
ATOM     66  H   UNL A   1      40.299  30.106  32.614  1.00  0.00     0.167 HD
ATOM     67  C   UNL A   1      41.095  30.693  35.283  1.00  0.00     0.074 A 
ATOM     68  C   UNL A   1      41.867  30.713  36.508  1.00  0.00     0.031 C 
ATOM     69  C   UNL A   1      39.944  31.382  35.090  1.00  0.00     0.037 A 
BRANCH  56  70
ATOM     70  C   UNL A   1      37.473  30.711  29.465  1.00  0.00     0.064 A 
ATOM     71  C   UNL A   1      36.425  29.821  29.189  1.00  0.00     0.173 A 
ATOM     72  C   UNL A   1      37.404  31.997  28.908  1.00  0.00     0.173 A 
ATOM     73  F   UNL A   1      36.441  28.578  29.695  1.00  0.00    -0.203 F 
ATOM     74  C   UNL A   1      35.358  30.198  28.376  1.00  0.00     0.198 A 
ATOM     75  C   UNL A   1      36.321  32.381  28.119  1.00  0.00     0.198 A 
ATOM     76  F   UNL A   1      38.373  32.892  29.148  1.00  0.00    -0.203 F 
ATOM     77  F   UNL A   1      34.384  29.318  28.103  1.00  0.00    -0.200 F 
ATOM     78  C   UNL A   1      35.301  31.479  27.851  1.00  0.00     0.200 A 
ATOM     79  F   UNL A   1      36.259  33.625  27.628  1.00  0.00    -0.200 F 
ATOM     80  F   UNL A   1      34.264  31.847  27.087  1.00  0.00    -0.200 F 
ENDBRANCH  56  70
BRANCH  57  81
ATOM     81  C   UNL A   1      44.992  28.053  35.477  1.00  0.00     0.064 A 
ATOM     82  C   UNL A   1      46.146  28.833  35.627  1.00  0.00     0.173 A 
ATOM     83  C   UNL A   1      44.890  26.882  36.243  1.00  0.00     0.173 A 
ATOM     84  F   UNL A   1      46.295  29.954  34.906  1.00  0.00    -0.203 F 
ATOM     85  C   UNL A   1      47.160  28.456  36.504  1.00  0.00     0.198 A 
ATOM     86  C   UNL A   1      45.891  26.521  37.141  1.00  0.00     0.198 A 
ATOM     87  F   UNL A   1      43.800  26.107  36.143  1.00  0.00    -0.203 F 
ATOM     88  F   UNL A   1      48.266  29.205  36.609  1.00  0.00    -0.200 F 
ATOM     89  C   UNL A   1      47.027  27.305  37.269  1.00  0.00     0.200 A 
ATOM     90  F   UNL A   1      45.749  25.420  37.892  1.00  0.00    -0.200 F 
ATOM     91  F   UNL A   1      47.995  26.953  38.126  1.00  0.00    -0.200 F 
ENDBRANCH  57  81
BRANCH  69  92
ATOM     92  C   UNL A   1      39.426  32.209  36.231  1.00  0.00     0.064 A 
ATOM     93  C   UNL A   1      39.921  33.496  36.489  1.00  0.00     0.173 A 
ATOM     94  C   UNL A   1      38.364  31.744  37.023  1.00  0.00     0.173 A 
ATOM     95  F   UNL A   1      40.946  33.982  35.771  1.00  0.00    -0.203 F 
ATOM     96  C   UNL A   1      39.378  34.282  37.501  1.00  0.00     0.198 A 
ATOM     97  C   UNL A   1      37.804  32.544  38.014  1.00  0.00     0.198 A 
ATOM     98  F   UNL A   1      37.850  30.523  36.814  1.00  0.00    -0.203 F 
ATOM     99  F   UNL A   1      39.887  35.497  37.749  1.00  0.00    -0.200 F 
ATOM    100  C   UNL A   1      38.312  33.811  38.254  1.00  0.00     0.200 A 
ATOM    101  F   UNL A   1      36.762  32.094  38.728  1.00  0.00    -0.200 F 
ATOM    102  F   UNL A   1      37.776  34.580  39.211  1.00  0.00    -0.200 F 
ENDBRANCH  69  92
ENDBRANCH  43  44
ENDBRANCH  36  38
ENDBRANCH  35  36
ENDBRANCH  34  35
ENDBRANCH  33  34
ENDBRANCH  32  33
ENDBRANCH  31  32
ENDBRANCH  30  31
ENDBRANCH  29  30
ENDBRANCH   1  29
TORSDOF 24
ENDMDL
