MODEL 1
REMARK VINA RESULT:     -11.2      0.000      0.000
REMARK SMILES CC[C@@](C)(NC(=O)Nc1c(C)cccc1Cl)C(=O)OCCOCCOCCOCCOC(=O)c1ccc(-c2c3nc(c(-c4c(F)c(F)c(F)c(F)c4F)c4ccc([nH]4)c(-c4c(F)c(F)c(F)c(F)c4F)c4nc(c(-c5c(F)c(F)c(F)c(F)c5F)c5ccc2[nH]5)C=C4)C=C3)cc1
REMARK SMILES IDX 25 1 24 2 23 3 22 4 21 5 20 6 19 7 17 8 18 9 3 10 4 11 2 12
REMARK SMILES IDX 1 13 5 14 6 15 7 17 8 18 9 20 10 21 15 22 11 23 12 24 14 25
REMARK SMILES IDX 16 26 13 27 26 28 27 29 28 30 29 31 30 32 31 33 32 34 33 35
REMARK SMILES IDX 34 36 35 37 96 38 36 39 95 40 37 41 38 42 39 43 89 44 40 45
REMARK SMILES IDX 94 46 88 47 90 48 41 49 93 50 87 51 86 52 42 54 74 55 54 56
REMARK SMILES IDX 73 57 55 58 58 59 72 60 91 61 56 62 57 63 71 65 92 66 59 67
REMARK SMILES IDX 43 68 44 69 52 70 45 71 46 72 50 73 53 74 47 75 48 76 51 77
REMARK SMILES IDX 49 78 75 79 76 80 84 81 77 82 78 83 82 84 85 85 79 86 80 87
REMARK SMILES IDX 83 88 81 89 60 90 61 91 69 92 62 93 63 94 67 95 70 96 64 97
REMARK SMILES IDX 65 98 68 99 66 100
REMARK H PARENT 5 16 8 19 90 53 58 64
REMARK Flexibility Score: inf
ROOT
ATOM      1  O   UNL A   1      34.775  31.508  28.408  1.00  0.00    -0.377 OA
ENDROOT
BRANCH   1   2
ATOM      2  C   UNL A   1      34.878  30.417  27.517  1.00  0.00     0.188 C 
BRANCH   2   3
ATOM      3  C   UNL A   1      33.607  29.580  27.204  1.00  0.00     0.188 C 
BRANCH   3   4
ATOM      4  O   UNL A   1      33.009  29.476  25.876  1.00  0.00    -0.376 OA
BRANCH   4   5
ATOM      5  C   UNL A   1      31.724  29.600  25.148  1.00  0.00     0.202 C 
BRANCH   5   6
ATOM      6  C   UNL A   1      30.981  28.783  23.833  1.00  0.00     0.261 C 
BRANCH   6   7
ATOM      7  O   UNL A   1      30.307  27.257  23.812  1.00  0.00    -0.462 OA
BRANCH   7   8
ATOM      8  C   UNL A   1      29.854  26.054  24.440  1.00  0.00     0.331 C 
ATOM      9  O   UNL A   1      28.670  25.960  24.788  1.00  0.00    -0.249 OA
BRANCH   8  10
ATOM     10  C   UNL A   1      30.823  24.871  24.845  1.00  0.00     0.136 C 
ATOM     11  C   UNL A   1      30.649  23.807  23.754  1.00  0.00     0.047 C 
BRANCH  10  12
ATOM     12  C   UNL A   1      32.310  24.781  25.339  1.00  0.00     0.037 C 
ATOM     13  C   UNL A   1      32.960  25.894  26.111  1.00  0.00     0.007 C 
ENDBRANCH  10  12
BRANCH  10  14
ATOM     14  N   UNL A   1      30.131  24.586  26.005  1.00  0.00    -0.322 N 
ATOM     15  C   UNL A   1      30.259  23.369  26.511  1.00  0.00     0.320 C 
ATOM     16  H   UNL A   1      29.563  25.262  26.440  1.00  0.00     0.166 HD
ATOM     17  O   UNL A   1      29.623  23.351  27.561  1.00  0.00    -0.248 OA
ATOM     18  N   UNL A   1      31.050  22.330  26.001  1.00  0.00    -0.306 N 
ATOM     19  H   UNL A   1      30.436  21.560  25.962  1.00  0.00     0.171 HD
BRANCH  18  20
ATOM     20  C   UNL A   1      32.352  21.783  25.483  1.00  0.00     0.064 A 
ATOM     21  C   UNL A   1      32.869  21.348  24.210  1.00  0.00    -0.026 A 
ATOM     22  C   UNL A   1      33.392  21.888  26.488  1.00  0.00     0.064 A 
ATOM     23  C   UNL A   1      32.536  21.731  22.756  1.00  0.00     0.046 C 
ATOM     24  C   UNL A   1      34.164  20.734  24.160  1.00  0.00     0.005 A 
ATOM     25  C   UNL A   1      34.708  21.440  26.337  1.00  0.00     0.023 A 
ATOM     26  Cl  UNL A   1      33.162  22.630  28.041  1.00  0.00    -0.082 Cl
ATOM     27  C   UNL A   1      35.073  20.783  25.196  1.00  0.00     0.002 A 
ENDBRANCH  18  20
ENDBRANCH  10  14
ENDBRANCH   8  10
ENDBRANCH   7   8
ENDBRANCH   6   7
ENDBRANCH   5   6
ENDBRANCH   4   5
ENDBRANCH   3   4
ENDBRANCH   2   3
ENDBRANCH   1   2
BRANCH   1  28
ATOM     28  C   UNL A   1      35.847  32.434  28.370  1.00  0.00     0.188 C 
BRANCH  28  29
ATOM     29  C   UNL A   1      35.572  33.752  29.118  1.00  0.00     0.188 C 
BRANCH  29  30
ATOM     30  O   UNL A   1      35.134  34.897  28.392  1.00  0.00    -0.376 OA
BRANCH  30  31
ATOM     31  C   UNL A   1      33.743  35.120  28.247  1.00  0.00     0.202 C 
BRANCH  31  32
ATOM     32  C   UNL A   1      33.097  35.960  29.368  1.00  0.00     0.261 C 
BRANCH  32  33
ATOM     33  O   UNL A   1      32.447  35.236  30.435  1.00  0.00    -0.460 OA
BRANCH  33  34
ATOM     34  C   UNL A   1      32.559  35.705  31.699  1.00  0.00     0.338 C 
ATOM     35  O   UNL A   1      31.797  36.475  32.272  1.00  0.00    -0.246 OA
BRANCH  34  36
ATOM     36  C   UNL A   1      33.695  35.017  32.379  1.00  0.00     0.060 A 
ATOM     37  C   UNL A   1      34.976  35.594  32.349  1.00  0.00     0.016 A 
ATOM     38  C   UNL A   1      33.505  33.814  33.062  1.00  0.00     0.016 A 
ATOM     39  C   UNL A   1      36.065  34.963  32.963  1.00  0.00     0.010 A 
ATOM     40  C   UNL A   1      34.604  33.152  33.628  1.00  0.00     0.010 A 
ATOM     41  C   UNL A   1      35.898  33.703  33.548  1.00  0.00    -0.014 A 
BRANCH  41  42
ATOM     42  C   UNL A   1      37.087  32.852  33.825  1.00  0.00     0.031 A 
ATOM     43  C   UNL A   1      37.853  33.116  35.098  1.00  0.00     0.074 A 
ATOM     44  C   UNL A   1      37.490  31.868  32.999  1.00  0.00     0.049 A 
ATOM     45  N   UNL A   1      38.991  32.617  35.509  1.00  0.00    -0.248 NA
ATOM     46  C   UNL A   1      37.246  34.077  36.035  1.00  0.00     0.031 C 
ATOM     47  C   UNL A   1      36.804  31.449  31.780  1.00  0.00     0.029 A 
ATOM     48  N   UNL A   1      38.597  31.051  33.061  1.00  0.00    -0.354 N 
ATOM     49  C   UNL A   1      39.245  33.222  36.734  1.00  0.00     0.074 A 
ATOM     50  C   UNL A   1      38.150  34.124  37.002  1.00  0.00     0.031 C 
ATOM     51  C   UNL A   1      37.524  30.478  31.188  1.00  0.00     0.029 A 
ATOM     52  C   UNL A   1      38.745  30.240  31.961  1.00  0.00     0.049 A 
ATOM     53  H   UNL A   1      39.223  31.048  33.820  1.00  0.00     0.167 HD
ATOM     54  C   UNL A   1      40.302  33.043  37.560  1.00  0.00     0.037 A 
ATOM     55  C   UNL A   1      39.769  29.438  31.599  1.00  0.00     0.037 A 
ATOM     56  C   UNL A   1      41.387  32.134  37.305  1.00  0.00     0.049 A 
ATOM     57  C   UNL A   1      40.983  29.331  32.494  1.00  0.00     0.074 A 
ATOM     58  C   UNL A   1      42.484  31.858  38.102  1.00  0.00     0.029 A 
ATOM     59  N   UNL A   1      41.518  31.362  36.162  1.00  0.00    -0.354 N 
ATOM     60  N   UNL A   1      41.208  29.885  33.660  1.00  0.00    -0.248 NA
ATOM     61  C   UNL A   1      42.094  28.491  32.014  1.00  0.00     0.031 C 
ATOM     62  C   UNL A   1      43.314  30.972  37.411  1.00  0.00     0.029 A 
ATOM     63  C   UNL A   1      42.702  30.645  36.212  1.00  0.00     0.049 A 
ATOM     64  H   UNL A   1      40.867  31.328  35.424  1.00  0.00     0.167 HD
ATOM     65  C   UNL A   1      42.466  29.446  34.060  1.00  0.00     0.074 A 
ATOM     66  C   UNL A   1      42.947  28.557  33.026  1.00  0.00     0.031 C 
ATOM     67  C   UNL A   1      43.166  29.757  35.180  1.00  0.00     0.037 A 
BRANCH  54  68
ATOM     68  C   UNL A   1      40.372  33.874  38.807  1.00  0.00     0.064 A 
ATOM     69  C   UNL A   1      41.063  35.093  38.850  1.00  0.00     0.173 A 
ATOM     70  C   UNL A   1      39.663  33.478  39.952  1.00  0.00     0.173 A 
ATOM     71  F   UNL A   1      41.767  35.508  37.786  1.00  0.00    -0.203 F 
ATOM     72  C   UNL A   1      41.045  35.884  39.997  1.00  0.00     0.198 A 
ATOM     73  C   UNL A   1      39.624  34.284  41.085  1.00  0.00     0.198 A 
ATOM     74  F   UNL A   1      38.983  32.321  39.960  1.00  0.00    -0.203 F 
ATOM     75  F   UNL A   1      41.732  37.034  40.026  1.00  0.00    -0.200 F 
ATOM     76  C   UNL A   1      40.316  35.485  41.108  1.00  0.00     0.200 A 
ATOM     77  F   UNL A   1      38.906  33.905  42.151  1.00  0.00    -0.200 F 
ATOM     78  F   UNL A   1      40.280  36.260  42.201  1.00  0.00    -0.200 F 
ENDBRANCH  54  68
BRANCH  55  79
ATOM     79  C   UNL A   1      39.744  28.719  30.291  1.00  0.00     0.064 A 
ATOM     80  C   UNL A   1      39.239  27.415  30.183  1.00  0.00     0.173 A 
ATOM     81  C   UNL A   1      40.301  29.294  29.139  1.00  0.00     0.173 A 
ATOM     82  F   UNL A   1      38.727  26.804  31.262  1.00  0.00    -0.203 F 
ATOM     83  C   UNL A   1      39.322  26.705  28.987  1.00  0.00     0.198 A 
ATOM     84  C   UNL A   1      40.350  28.597  27.933  1.00  0.00     0.198 A 
ATOM     85  F   UNL A   1      40.811  30.534  29.184  1.00  0.00    -0.203 F 
ATOM     86  F   UNL A   1      38.900  25.435  28.934  1.00  0.00    -0.200 F 
ATOM     87  C   UNL A   1      39.873  27.298  27.861  1.00  0.00     0.200 A 
ATOM     88  F   UNL A   1      40.874  29.180  26.846  1.00  0.00    -0.200 F 
ATOM     89  F   UNL A   1      39.961  26.612  26.713  1.00  0.00    -0.200 F 
ENDBRANCH  55  79
BRANCH  67  90
ATOM     90  C   UNL A   1      44.513  29.117  35.363  1.00  0.00     0.064 A 
ATOM     91  C   UNL A   1      44.655  27.867  35.984  1.00  0.00     0.173 A 
ATOM     92  C   UNL A   1      45.670  29.733  34.860  1.00  0.00     0.173 A 
ATOM     93  F   UNL A   1      43.584  27.241  36.495  1.00  0.00    -0.203 F 
ATOM     94  C   UNL A   1      45.907  27.270  36.116  1.00  0.00     0.198 A 
ATOM     95  C   UNL A   1      46.915  29.117  34.962  1.00  0.00     0.198 A 
ATOM     96  F   UNL A   1      45.590  30.924  34.246  1.00  0.00    -0.203 F 
ATOM     97  F   UNL A   1      46.024  26.098  36.755  1.00  0.00    -0.200 F 
ATOM     98  C   UNL A   1      47.033  27.891  35.597  1.00  0.00     0.200 A 
ATOM     99  F   UNL A   1      47.999  29.710  34.442  1.00  0.00    -0.200 F 
ATOM    100  F   UNL A   1      48.235  27.307  35.713  1.00  0.00    -0.200 F 
ENDBRANCH  67  90
ENDBRANCH  41  42
ENDBRANCH  34  36
ENDBRANCH  33  34
ENDBRANCH  32  33
ENDBRANCH  31  32
ENDBRANCH  30  31
ENDBRANCH  29  30
ENDBRANCH  28  29
ENDBRANCH   1  28
TORSDOF 23
ENDMDL
MODEL 2
REMARK VINA RESULT:     -11.2      3.874      9.558
REMARK SMILES CC[C@@](C)(NC(=O)Nc1c(C)cccc1Cl)C(=O)OCCOCCOCCOCCOC(=O)c1ccc(-c2c3nc(c(-c4c(F)c(F)c(F)c(F)c4F)c4ccc([nH]4)c(-c4c(F)c(F)c(F)c(F)c4F)c4nc(c(-c5c(F)c(F)c(F)c(F)c5F)c5ccc2[nH]5)C=C4)C=C3)cc1
REMARK SMILES IDX 25 1 24 2 23 3 22 4 21 5 20 6 19 7 17 8 18 9 3 10 4 11 2 12
REMARK SMILES IDX 1 13 5 14 6 15 7 17 8 18 9 20 10 21 15 22 11 23 12 24 14 25
REMARK SMILES IDX 16 26 13 27 26 28 27 29 28 30 29 31 30 32 31 33 32 34 33 35
REMARK SMILES IDX 34 36 35 37 96 38 36 39 95 40 37 41 38 42 39 43 89 44 40 45
REMARK SMILES IDX 94 46 88 47 90 48 41 49 93 50 87 51 86 52 42 54 74 55 54 56
REMARK SMILES IDX 73 57 55 58 58 59 72 60 91 61 56 62 57 63 71 65 92 66 59 67
REMARK SMILES IDX 43 68 44 69 52 70 45 71 46 72 50 73 53 74 47 75 48 76 51 77
REMARK SMILES IDX 49 78 75 79 76 80 84 81 77 82 78 83 82 84 85 85 79 86 80 87
REMARK SMILES IDX 83 88 81 89 60 90 61 91 69 92 62 93 63 94 67 95 70 96 64 97
REMARK SMILES IDX 65 98 68 99 66 100
REMARK H PARENT 5 16 8 19 90 53 58 64
REMARK Flexibility Score: inf
ROOT
ATOM      1  O   UNL A   1      37.925  20.113  25.011  1.00  0.00    -0.377 OA
ENDROOT
BRANCH   1   2
ATOM      2  C   UNL A   1      36.856  20.890  25.508  1.00  0.00     0.188 C 
BRANCH   2   3
ATOM      3  C   UNL A   1      35.607  21.114  24.611  1.00  0.00     0.188 C 
BRANCH   3   4
ATOM      4  O   UNL A   1      34.433  20.246  24.622  1.00  0.00    -0.376 OA
BRANCH   4   5
ATOM      5  C   UNL A   1      32.963  20.254  24.811  1.00  0.00     0.202 C 
BRANCH   5   6
ATOM      6  C   UNL A   1      31.786  21.447  25.187  1.00  0.00     0.261 C 
BRANCH   6   7
ATOM      7  O   UNL A   1      32.023  23.065  25.519  1.00  0.00    -0.462 OA
BRANCH   7   8
ATOM      8  C   UNL A   1      31.699  24.292  26.178  1.00  0.00     0.331 C 
ATOM      9  O   UNL A   1      31.417  24.279  27.384  1.00  0.00    -0.249 OA
BRANCH   8  10
ATOM     10  C   UNL A   1      31.545  25.670  25.415  1.00  0.00     0.136 C 
ATOM     11  C   UNL A   1      30.085  25.718  24.949  1.00  0.00     0.047 C 
BRANCH  10  12
ATOM     12  C   UNL A   1      31.983  27.148  25.705  1.00  0.00     0.037 C 
ATOM     13  C   UNL A   1      31.409  27.938  26.846  1.00  0.00     0.007 C 
ENDBRANCH  10  12
BRANCH  10  14
ATOM     14  N   UNL A   1      32.429  25.313  24.415  1.00  0.00    -0.322 N 
ATOM     15  C   UNL A   1      32.131  25.677  23.177  1.00  0.00     0.320 C 
ATOM     16  H   UNL A   1      33.249  24.807  24.615  1.00  0.00     0.166 HD
ATOM     17  O   UNL A   1      33.067  25.322  22.467  1.00  0.00    -0.248 OA
ATOM     18  N   UNL A   1      31.011  26.414  22.767  1.00  0.00    -0.306 N 
ATOM     19  H   UNL A   1      30.636  25.886  22.026  1.00  0.00     0.171 HD
BRANCH  18  20
ATOM     20  C   UNL A   1      30.087  27.596  22.877  1.00  0.00     0.064 A 
ATOM     21  C   UNL A   1      28.681  27.802  23.118  1.00  0.00    -0.026 A 
ATOM     22  C   UNL A   1      30.837  28.836  22.921  1.00  0.00     0.064 A 
ATOM     23  C   UNL A   1      27.617  26.994  23.883  1.00  0.00     0.046 C 
ATOM     24  C   UNL A   1      28.143  29.126  22.994  1.00  0.00     0.005 A 
ATOM     25  C   UNL A   1      30.277  30.116  22.987  1.00  0.00     0.023 A 
ATOM     26  Cl  UNL A   1      32.572  28.914  22.935  1.00  0.00    -0.082 Cl
ATOM     27  C   UNL A   1      28.920  30.265  22.939  1.00  0.00     0.002 A 
ENDBRANCH  18  20
ENDBRANCH  10  14
ENDBRANCH   8  10
ENDBRANCH   7   8
ENDBRANCH   6   7
ENDBRANCH   5   6
ENDBRANCH   4   5
ENDBRANCH   3   4
ENDBRANCH   2   3
ENDBRANCH   1   2
BRANCH   1  28
ATOM     28  C   UNL A   1      39.207  20.437  25.519  1.00  0.00     0.188 C 
BRANCH  28  29
ATOM     29  C   UNL A   1      40.110  19.217  25.783  1.00  0.00     0.188 C 
BRANCH  29  30
ATOM     30  O   UNL A   1      41.526  19.365  25.739  1.00  0.00    -0.376 OA
BRANCH  30  31
ATOM     31  C   UNL A   1      42.118  20.459  26.419  1.00  0.00     0.202 C 
BRANCH  31  32
ATOM     32  C   UNL A   1      43.118  21.281  25.582  1.00  0.00     0.261 C 
BRANCH  32  33
ATOM     33  O   UNL A   1      42.625  22.501  24.986  1.00  0.00    -0.460 OA
BRANCH  33  34
ATOM     34  C   UNL A   1      43.402  23.608  25.037  1.00  0.00     0.338 C 
ATOM     35  O   UNL A   1      44.433  23.817  24.408  1.00  0.00    -0.246 OA
BRANCH  34  36
ATOM     36  C   UNL A   1      42.731  24.640  25.880  1.00  0.00     0.060 A 
ATOM     37  C   UNL A   1      43.078  25.993  25.728  1.00  0.00     0.016 A 
ATOM     38  C   UNL A   1      41.748  24.288  26.807  1.00  0.00     0.016 A 
ATOM     39  C   UNL A   1      42.478  26.983  26.517  1.00  0.00     0.010 A 
ATOM     40  C   UNL A   1      41.189  25.269  27.638  1.00  0.00     0.010 A 
ATOM     41  C   UNL A   1      41.578  26.618  27.524  1.00  0.00    -0.014 A 
BRANCH  41  42
ATOM     42  C   UNL A   1      41.260  27.578  28.616  1.00  0.00     0.031 A 
ATOM     43  C   UNL A   1      42.083  27.499  29.878  1.00  0.00     0.074 A 
ATOM     44  C   UNL A   1      40.286  28.502  28.516  1.00  0.00     0.049 A 
ATOM     45  N   UNL A   1      41.928  28.119  31.020  1.00  0.00    -0.248 NA
ATOM     46  C   UNL A   1      43.245  26.593  29.840  1.00  0.00     0.031 C 
ATOM     47  C   UNL A   1      39.466  28.746  27.333  1.00  0.00     0.029 A 
ATOM     48  N   UNL A   1      39.812  29.401  29.445  1.00  0.00    -0.354 N 
ATOM     49  C   UNL A   1      42.952  27.659  31.839  1.00  0.00     0.074 A 
ATOM     50  C   UNL A   1      43.722  26.709  31.070  1.00  0.00     0.031 C 
ATOM     51  C   UNL A   1      38.565  29.704  27.618  1.00  0.00     0.029 A 
ATOM     52  C   UNL A   1      38.712  30.108  29.017  1.00  0.00     0.049 A 
ATOM     53  H   UNL A   1      40.220  29.525  30.332  1.00  0.00     0.167 HD
ATOM     54  C   UNL A   1      43.223  27.997  33.121  1.00  0.00     0.037 A 
ATOM     55  C   UNL A   1      37.895  30.943  29.693  1.00  0.00     0.037 A 
ATOM     56  C   UNL A   1      42.468  28.954  33.885  1.00  0.00     0.049 A 
ATOM     57  C   UNL A   1      38.163  31.228  31.154  1.00  0.00     0.074 A 
ATOM     58  C   UNL A   1      42.690  29.388  35.180  1.00  0.00     0.029 A 
ATOM     59  N   UNL A   1      41.341  29.617  33.428  1.00  0.00    -0.354 N 
ATOM     60  N   UNL A   1      39.144  30.811  31.916  1.00  0.00    -0.248 NA
ATOM     61  C   UNL A   1      37.200  32.096  31.852  1.00  0.00     0.031 C 
ATOM     62  C   UNL A   1      41.657  30.260  35.531  1.00  0.00     0.029 A 
ATOM     63  C   UNL A   1      40.828  30.421  34.433  1.00  0.00     0.049 A 
ATOM     64  H   UNL A   1      40.960  29.528  32.524  1.00  0.00     0.167 HD
ATOM     65  C   UNL A   1      38.930  31.379  33.168  1.00  0.00     0.074 A 
ATOM     66  C   UNL A   1      37.740  32.195  33.058  1.00  0.00     0.031 C 
ATOM     67  C   UNL A   1      39.648  31.234  34.309  1.00  0.00     0.037 A 
BRANCH  54  68
ATOM     68  C   UNL A   1      44.359  27.301  33.809  1.00  0.00     0.064 A 
ATOM     69  C   UNL A   1      44.163  26.164  34.604  1.00  0.00     0.173 A 
ATOM     70  C   UNL A   1      45.677  27.737  33.597  1.00  0.00     0.173 A 
ATOM     71  F   UNL A   1      42.922  25.716  34.848  1.00  0.00    -0.203 F 
ATOM     72  C   UNL A   1      45.245  25.489  35.167  1.00  0.00     0.198 A 
ATOM     73  C   UNL A   1      46.757  27.045  34.137  1.00  0.00     0.198 A 
ATOM     74  F   UNL A   1      45.919  28.819  32.842  1.00  0.00    -0.203 F 
ATOM     75  F   UNL A   1      45.034  24.418  35.943  1.00  0.00    -0.200 F 
ATOM     76  C   UNL A   1      46.540  25.923  34.922  1.00  0.00     0.200 A 
ATOM     77  F   UNL A   1      48.008  27.456  33.886  1.00  0.00    -0.200 F 
ATOM     78  F   UNL A   1      47.580  25.258  35.444  1.00  0.00    -0.200 F 
ENDBRANCH  54  68
BRANCH  55  79
ATOM     79  C   UNL A   1      36.690  31.525  29.032  1.00  0.00     0.064 A 
ATOM     80  C   UNL A   1      36.607  32.894  28.737  1.00  0.00     0.173 A 
ATOM     81  C   UNL A   1      35.564  30.735  28.755  1.00  0.00     0.173 A 
ATOM     82  F   UNL A   1      37.642  33.702  29.014  1.00  0.00    -0.203 F 
ATOM     83  C   UNL A   1      35.438  33.453  28.225  1.00  0.00     0.198 A 
ATOM     84  C   UNL A   1      34.408  31.288  28.208  1.00  0.00     0.198 A 
ATOM     85  F   UNL A   1      35.580  29.421  29.027  1.00  0.00    -0.203 F 
ATOM     86  F   UNL A   1      35.362  34.775  28.025  1.00  0.00    -0.200 F 
ATOM     87  C   UNL A   1      34.341  32.649  27.956  1.00  0.00     0.200 A 
ATOM     88  F   UNL A   1      33.354  30.504  27.941  1.00  0.00    -0.200 F 
ATOM     89  F   UNL A   1      33.213  33.189  27.472  1.00  0.00    -0.200 F 
ENDBRANCH  55  79
BRANCH  67  90
ATOM     90  C   UNL A   1      39.189  31.987  35.525  1.00  0.00     0.064 A 
ATOM     91  C   UNL A   1      39.532  33.331  35.732  1.00  0.00     0.173 A 
ATOM     92  C   UNL A   1      38.346  31.375  36.468  1.00  0.00     0.173 A 
ATOM     93  F   UNL A   1      40.345  33.960  34.869  1.00  0.00    -0.203 F 
ATOM     94  C   UNL A   1      39.070  34.027  36.847  1.00  0.00     0.198 A 
ATOM     95  C   UNL A   1      37.858  32.083  37.563  1.00  0.00     0.198 A 
ATOM     96  F   UNL A   1      37.978  30.094  36.313  1.00  0.00    -0.203 F 
ATOM     97  F   UNL A   1      39.449  35.296  37.047  1.00  0.00    -0.200 F 
ATOM     98  C   UNL A   1      38.226  33.405  37.755  1.00  0.00     0.200 A 
ATOM     99  F   UNL A   1      37.027  31.486  38.428  1.00  0.00    -0.200 F 
ATOM    100  F   UNL A   1      37.772  34.081  38.820  1.00  0.00    -0.200 F 
ENDBRANCH  67  90
ENDBRANCH  41  42
ENDBRANCH  34  36
ENDBRANCH  33  34
ENDBRANCH  32  33
ENDBRANCH  31  32
ENDBRANCH  30  31
ENDBRANCH  29  30
ENDBRANCH  28  29
ENDBRANCH   1  28
TORSDOF 23
ENDMDL
MODEL 3
REMARK VINA RESULT:     -11.2      5.101      9.677
REMARK SMILES CC[C@@](C)(NC(=O)Nc1c(C)cccc1Cl)C(=O)OCCOCCOCCOCCOC(=O)c1ccc(-c2c3nc(c(-c4c(F)c(F)c(F)c(F)c4F)c4ccc([nH]4)c(-c4c(F)c(F)c(F)c(F)c4F)c4nc(c(-c5c(F)c(F)c(F)c(F)c5F)c5ccc2[nH]5)C=C4)C=C3)cc1
REMARK SMILES IDX 25 1 24 2 23 3 22 4 21 5 20 6 19 7 17 8 18 9 3 10 4 11 2 12
REMARK SMILES IDX 1 13 5 14 6 15 7 17 8 18 9 20 10 21 15 22 11 23 12 24 14 25
REMARK SMILES IDX 16 26 13 27 26 28 27 29 28 30 29 31 30 32 31 33 32 34 33 35
REMARK SMILES IDX 34 36 35 37 96 38 36 39 95 40 37 41 38 42 39 43 89 44 40 45
REMARK SMILES IDX 94 46 88 47 90 48 41 49 93 50 87 51 86 52 42 54 74 55 54 56
REMARK SMILES IDX 73 57 55 58 58 59 72 60 91 61 56 62 57 63 71 65 92 66 59 67
REMARK SMILES IDX 43 68 44 69 52 70 45 71 46 72 50 73 53 74 47 75 48 76 51 77
REMARK SMILES IDX 49 78 75 79 76 80 84 81 77 82 78 83 82 84 85 85 79 86 80 87
REMARK SMILES IDX 83 88 81 89 60 90 61 91 69 92 62 93 63 94 67 95 70 96 64 97
REMARK SMILES IDX 65 98 68 99 66 100
REMARK H PARENT 5 16 8 19 90 53 58 64
REMARK Flexibility Score: inf
ROOT
ATOM      1  O   UNL A   1      35.521  32.429  29.312  1.00  0.00    -0.377 OA
ENDROOT
BRANCH   1   2
ATOM      2  C   UNL A   1      34.378  32.227  28.507  1.00  0.00     0.188 C 
BRANCH   2   3
ATOM      3  C   UNL A   1      34.288  30.942  27.638  1.00  0.00     0.188 C 
BRANCH   3   4
ATOM      4  O   UNL A   1      33.313  30.749  26.569  1.00  0.00    -0.376 OA
BRANCH   4   5
ATOM      5  C   UNL A   1      31.904  30.367  26.313  1.00  0.00     0.202 C 
BRANCH   5   6
ATOM      6  C   UNL A   1      30.880  30.328  24.935  1.00  0.00     0.261 C 
BRANCH   6   7
ATOM      7  O   UNL A   1      30.429  29.009  24.019  1.00  0.00    -0.462 OA
BRANCH   7   8
ATOM      8  C   UNL A   1      30.680  27.972  23.067  1.00  0.00     0.331 C 
ATOM      9  O   UNL A   1      30.182  28.051  21.936  1.00  0.00    -0.249 OA
BRANCH   8  10
ATOM     10  C   UNL A   1      31.456  26.640  23.422  1.00  0.00     0.136 C 
ATOM     11  C   UNL A   1      30.519  25.853  24.347  1.00  0.00     0.047 C 
BRANCH  10  12
ATOM     12  C   UNL A   1      32.277  25.586  22.598  1.00  0.00     0.037 C 
ATOM     13  C   UNL A   1      33.065  25.969  21.378  1.00  0.00     0.007 C 
ENDBRANCH  10  12
BRANCH  10  14
ATOM     14  N   UNL A   1      32.463  27.304  24.096  1.00  0.00    -0.322 N 
ATOM     15  C   UNL A   1      33.209  26.598  24.932  1.00  0.00     0.320 C 
ATOM     16  H   UNL A   1      32.620  28.266  23.960  1.00  0.00     0.166 HD
ATOM     17  O   UNL A   1      34.070  27.356  25.368  1.00  0.00    -0.248 OA
ATOM     18  N   UNL A   1      33.100  25.225  25.196  1.00  0.00    -0.306 N 
ATOM     19  H   UNL A   1      33.071  25.172  26.179  1.00  0.00     0.171 HD
BRANCH  18  20
ATOM     20  C   UNL A   1      33.005  23.791  24.752  1.00  0.00     0.064 A 
ATOM     21  C   UNL A   1      33.696  22.942  23.814  1.00  0.00    -0.026 A 
ATOM     22  C   UNL A   1      32.109  23.043  25.611  1.00  0.00     0.064 A 
ATOM     23  C   UNL A   1      35.130  22.942  23.255  1.00  0.00     0.046 C 
ATOM     24  C   UNL A   1      33.188  21.623  23.569  1.00  0.00     0.005 A 
ATOM     25  C   UNL A   1      31.776  21.694  25.449  1.00  0.00     0.023 A 
ATOM     26  Cl  UNL A   1      31.331  23.713  27.011  1.00  0.00    -0.082 Cl
ATOM     27  C   UNL A   1      32.253  21.003  24.372  1.00  0.00     0.002 A 
ENDBRANCH  18  20
ENDBRANCH  10  14
ENDBRANCH   8  10
ENDBRANCH   7   8
ENDBRANCH   6   7
ENDBRANCH   5   6
ENDBRANCH   4   5
ENDBRANCH   3   4
ENDBRANCH   2   3
ENDBRANCH   1   2
BRANCH   1  28
ATOM     28  C   UNL A   1      35.601  33.688  29.957  1.00  0.00     0.188 C 
BRANCH  28  29
ATOM     29  C   UNL A   1      34.333  34.080  30.739  1.00  0.00     0.188 C 
BRANCH  29  30
ATOM     30  O   UNL A   1      34.037  33.434  31.973  1.00  0.00    -0.376 OA
BRANCH  30  31
ATOM     31  C   UNL A   1      34.372  34.091  33.183  1.00  0.00     0.202 C 
BRANCH  31  32
ATOM     32  C   UNL A   1      35.523  33.443  33.980  1.00  0.00     0.261 C 
BRANCH  32  33
ATOM     33  O   UNL A   1      36.113  32.250  33.422  1.00  0.00    -0.460 OA
BRANCH  33  34
ATOM     34  C   UNL A   1      37.229  31.747  34.000  1.00  0.00     0.338 C 
ATOM     35  O   UNL A   1      37.473  31.678  35.199  1.00  0.00    -0.246 OA
BRANCH  34  36
ATOM     36  C   UNL A   1      38.088  31.126  32.950  1.00  0.00     0.060 A 
ATOM     37  C   UNL A   1      39.224  30.390  33.328  1.00  0.00     0.016 A 
ATOM     38  C   UNL A   1      37.774  31.248  31.595  1.00  0.00     0.016 A 
ATOM     39  C   UNL A   1      40.059  29.810  32.365  1.00  0.00     0.010 A 
ATOM     40  C   UNL A   1      38.641  30.718  30.627  1.00  0.00     0.010 A 
ATOM     41  C   UNL A   1      39.809  30.029  31.005  1.00  0.00    -0.014 A 
BRANCH  41  42
ATOM     42  C   UNL A   1      40.885  29.786  30.005  1.00  0.00     0.031 A 
ATOM     43  C   UNL A   1      40.930  28.430  29.345  1.00  0.00     0.074 A 
ATOM     44  C   UNL A   1      41.796  30.718  29.671  1.00  0.00     0.049 A 
ATOM     45  N   UNL A   1      41.833  27.916  28.550  1.00  0.00    -0.248 NA
ATOM     46  C   UNL A   1      39.795  27.533  29.623  1.00  0.00     0.031 C 
ATOM     47  C   UNL A   1      41.827  32.091  30.167  1.00  0.00     0.029 A 
ATOM     48  N   UNL A   1      42.890  30.636  28.839  1.00  0.00    -0.354 N 
ATOM     49  C   UNL A   1      41.387  26.633  28.256  1.00  0.00     0.074 A 
ATOM     50  C   UNL A   1      40.138  26.442  28.956  1.00  0.00     0.031 C 
ATOM     51  C   UNL A   1      42.907  32.713  29.659  1.00  0.00     0.029 A 
ATOM     52  C   UNL A   1      43.670  31.769  28.840  1.00  0.00     0.049 A 
ATOM     53  H   UNL A   1      43.095  29.842  28.295  1.00  0.00     0.167 HD
ATOM     54  C   UNL A   1      41.971  25.696  27.474  1.00  0.00     0.037 A 
ATOM     55  C   UNL A   1      44.879  31.996  28.285  1.00  0.00     0.037 A 
ATOM     56  C   UNL A   1      43.207  25.887  26.763  1.00  0.00     0.049 A 
ATOM     57  C   UNL A   1      45.557  30.897  27.498  1.00  0.00     0.074 A 
ATOM     58  C   UNL A   1      43.858  25.006  25.917  1.00  0.00     0.029 A 
ATOM     59  N   UNL A   1      43.983  27.033  26.823  1.00  0.00    -0.354 N 
ATOM     60  N   UNL A   1      45.122  29.696  27.203  1.00  0.00    -0.248 NA
ATOM     61  C   UNL A   1      46.901  31.184  26.972  1.00  0.00     0.031 C 
ATOM     62  C   UNL A   1      45.062  25.591  25.520  1.00  0.00     0.029 A 
ATOM     63  C   UNL A   1      45.131  26.863  26.065  1.00  0.00     0.049 A 
ATOM     64  H   UNL A   1      43.753  27.845  27.328  1.00  0.00     0.167 HD
ATOM     65  C   UNL A   1      46.123  29.098  26.445  1.00  0.00     0.074 A 
ATOM     66  C   UNL A   1      47.178  30.076  26.299  1.00  0.00     0.031 C 
ATOM     67  C   UNL A   1      46.170  27.848  25.922  1.00  0.00     0.037 A 
BRANCH  54  68
ATOM     68  C   UNL A   1      41.313  24.352  27.371  1.00  0.00     0.064 A 
ATOM     69  C   UNL A   1      40.157  24.146  26.605  1.00  0.00     0.173 A 
ATOM     70  C   UNL A   1      41.903  23.235  27.986  1.00  0.00     0.173 A 
ATOM     71  F   UNL A   1      39.549  25.183  26.010  1.00  0.00    -0.203 F 
ATOM     72  C   UNL A   1      39.612  22.872  26.462  1.00  0.00     0.198 A 
ATOM     73  C   UNL A   1      41.372  21.960  27.817  1.00  0.00     0.198 A 
ATOM     74  F   UNL A   1      43.012  23.378  28.728  1.00  0.00    -0.203 F 
ATOM     75  F   UNL A   1      38.493  22.701  25.745  1.00  0.00    -0.200 F 
ATOM     76  C   UNL A   1      40.227  21.780  27.057  1.00  0.00     0.200 A 
ATOM     77  F   UNL A   1      41.976  20.905  28.379  1.00  0.00    -0.200 F 
ATOM     78  F   UNL A   1      39.714  20.551  26.897  1.00  0.00    -0.200 F 
ENDBRANCH  54  68
BRANCH  55  79
ATOM     79  C   UNL A   1      45.584  33.293  28.507  1.00  0.00     0.064 A 
ATOM     80  C   UNL A   1      45.413  34.377  27.633  1.00  0.00     0.173 A 
ATOM     81  C   UNL A   1      46.506  33.446  29.554  1.00  0.00     0.173 A 
ATOM     82  F   UNL A   1      44.570  34.273  26.595  1.00  0.00    -0.203 F 
ATOM     83  C   UNL A   1      46.158  35.546  27.778  1.00  0.00     0.198 A 
ATOM     84  C   UNL A   1      47.224  34.629  29.720  1.00  0.00     0.198 A 
ATOM     85  F   UNL A   1      46.721  32.439  30.414  1.00  0.00    -0.203 F 
ATOM     86  F   UNL A   1      46.028  36.535  26.884  1.00  0.00    -0.200 F 
ATOM     87  C   UNL A   1      47.059  35.673  28.824  1.00  0.00     0.200 A 
ATOM     88  F   UNL A   1      48.086  34.749  30.738  1.00  0.00    -0.200 F 
ATOM     89  F   UNL A   1      47.782  36.794  28.957  1.00  0.00    -0.200 F 
ENDBRANCH  55  79
BRANCH  67  90
ATOM     90  C   UNL A   1      47.385  27.468  25.123  1.00  0.00     0.064 A 
ATOM     91  C   UNL A   1      47.502  27.792  23.764  1.00  0.00     0.173 A 
ATOM     92  C   UNL A   1      48.471  26.824  25.738  1.00  0.00     0.173 A 
ATOM     93  F   UNL A   1      46.488  28.395  23.124  1.00  0.00    -0.203 F 
ATOM     94  C   UNL A   1      48.649  27.465  23.044  1.00  0.00     0.198 A 
ATOM     95  C   UNL A   1      49.630  26.530  25.025  1.00  0.00     0.198 A 
ATOM     96  F   UNL A   1      48.417  26.502  27.040  1.00  0.00    -0.203 F 
ATOM     97  F   UNL A   1      48.719  27.742  21.735  1.00  0.00    -0.200 F 
ATOM     98  C   UNL A   1      49.715  26.844  23.678  1.00  0.00     0.200 A 
ATOM     99  F   UNL A   1      50.666  25.948  25.645  1.00  0.00    -0.200 F 
ATOM    100  F   UNL A   1      50.823  26.542  22.987  1.00  0.00    -0.200 F 
ENDBRANCH  67  90
ENDBRANCH  41  42
ENDBRANCH  34  36
ENDBRANCH  33  34
ENDBRANCH  32  33
ENDBRANCH  31  32
ENDBRANCH  30  31
ENDBRANCH  29  30
ENDBRANCH  28  29
ENDBRANCH   1  28
TORSDOF 23
ENDMDL
