MODEL 1
REMARK VINA RESULT:      -9.2      0.000      0.000
REMARK SMILES C[N@H+](CCC(=O)Nc1sccc1C#N)CC(=O)OCCOCCOCCOCCOC(=O)c1ccc(-c2c3nc(c(-c4c(F)c(F)c(F)c(F)c4F)c4ccc([nH]4)c(-c4c(F)c(F)c(F)c(F)c4F)c4nc(c(-c5c(F)c(F)c(F)c(F)c5F)c5ccc2[nH]5)C=C4)C=C3)cc1
REMARK SMILES IDX 22 1 21 2 20 3 19 4 18 5 16 6 17 7 15 8 2 9 1 10 3 12 4 13
REMARK SMILES IDX 5 14 6 15 7 16 8 18 9 19 12 20 10 21 11 22 13 23 14 24 23 25
REMARK SMILES IDX 24 26 25 27 26 28 27 29 28 30 29 31 30 32 31 33 32 34 33 35
REMARK SMILES IDX 34 36 95 37 35 38 94 39 36 40 37 41 38 42 88 43 39 44 93 45
REMARK SMILES IDX 87 46 89 47 40 48 92 49 86 50 85 51 41 53 73 54 53 55 72 56
REMARK SMILES IDX 54 57 57 58 71 59 90 60 55 61 56 62 70 64 91 65 58 66 42 67
REMARK SMILES IDX 43 68 51 69 44 70 45 71 49 72 52 73 46 74 47 75 50 76 48 77
REMARK SMILES IDX 74 78 75 79 83 80 76 81 77 82 81 83 84 84 78 85 79 86 82 87
REMARK SMILES IDX 80 88 59 89 60 90 68 91 61 92 62 93 66 94 69 95 63 96 64 97
REMARK SMILES IDX 67 98 65 99
REMARK H PARENT 2 11 7 17 89 52 57 63
REMARK Flexibility Score: inf
ROOT
ATOM      1  C   UNL A   1      39.606  20.427  26.061  1.00  0.00     0.188 C 
ENDROOT
BRANCH   1   2
ATOM      2  O   UNL A   1      39.211  21.637  26.680  1.00  0.00    -0.376 OA
BRANCH   2   3
ATOM      3  C   UNL A   1      39.090  22.823  25.896  1.00  0.00     0.202 C 
BRANCH   3   4
ATOM      4  C   UNL A   1      37.878  23.770  25.989  1.00  0.00     0.261 C 
BRANCH   4   5
ATOM      5  O   UNL A   1      36.806  23.452  25.082  1.00  0.00    -0.459 OA
BRANCH   5   6
ATOM      6  C   UNL A   1      35.777  22.774  25.653  1.00  0.00     0.361 C 
ATOM      7  O   UNL A   1      35.888  21.617  26.059  1.00  0.00    -0.245 OA
BRANCH   6   8
ATOM      8  C   UNL A   1      34.485  23.558  25.869  1.00  0.00     0.386 C 
BRANCH   8   9
ATOM      9  N   UNL A   1      33.394  23.385  24.906  1.00  0.00    -0.328 N 
ATOM     10  C   UNL A   1      32.797  22.049  25.129  1.00  0.00     0.333 C 
ATOM     11  H   UNL A   1      32.694  24.116  25.034  1.00  0.00     0.348 HD
BRANCH   9  12
ATOM     12  C   UNL A   1      33.912  23.480  23.523  1.00  0.00     0.272 C 
BRANCH  12  13
ATOM     13  C   UNL A   1      33.002  24.069  22.444  1.00  0.00     0.161 C 
BRANCH  13  14
ATOM     14  C   UNL A   1      32.956  25.472  21.792  1.00  0.00     0.230 C 
ATOM     15  O   UNL A   1      33.096  25.458  20.550  1.00  0.00    -0.274 OA
ATOM     16  N   UNL A   1      32.615  26.700  22.261  1.00  0.00    -0.316 N 
ATOM     17  H   UNL A   1      32.421  27.322  21.524  1.00  0.00     0.170 HD
BRANCH  16  18
ATOM     18  C   UNL A   1      32.467  27.313  23.484  1.00  0.00     0.113 A 
ATOM     19  S   UNL A   1      33.532  28.661  23.658  1.00  0.00    -0.125 S 
ATOM     20  C   UNL A   1      31.676  27.182  24.602  1.00  0.00     0.087 A 
ATOM     21  C   UNL A   1      32.553  29.334  24.893  1.00  0.00     0.068 A 
ATOM     22  C   UNL A   1      31.672  28.392  25.382  1.00  0.00     0.033 A 
BRANCH  20  23
ATOM     23  C   UNL A   1      30.898  26.026  24.917  1.00  0.00     0.102 C 
ATOM     24  N   UNL A   1      30.280  25.088  25.187  1.00  0.00    -0.192 NA
ENDBRANCH  20  23
ENDBRANCH  16  18
ENDBRANCH  13  14
ENDBRANCH  12  13
ENDBRANCH   9  12
ENDBRANCH   8   9
ENDBRANCH   6   8
ENDBRANCH   5   6
ENDBRANCH   4   5
ENDBRANCH   3   4
ENDBRANCH   2   3
ENDBRANCH   1   2
BRANCH   1  25
ATOM     25  C   UNL A   1      41.013  20.027  26.505  1.00  0.00     0.188 C 
BRANCH  25  26
ATOM     26  O   UNL A   1      41.859  19.546  25.475  1.00  0.00    -0.377 OA
BRANCH  26  27
ATOM     27  C   UNL A   1      43.084  18.896  25.758  1.00  0.00     0.188 C 
BRANCH  27  28
ATOM     28  C   UNL A   1      44.069  18.919  24.605  1.00  0.00     0.188 C 
BRANCH  28  29
ATOM     29  O   UNL A   1      44.543  20.198  24.180  1.00  0.00    -0.376 OA
BRANCH  29  30
ATOM     30  C   UNL A   1      44.762  21.219  25.148  1.00  0.00     0.202 C 
BRANCH  30  31
ATOM     31  C   UNL A   1      43.934  22.488  24.967  1.00  0.00     0.261 C 
BRANCH  31  32
ATOM     32  O   UNL A   1      44.139  23.443  26.017  1.00  0.00    -0.460 OA
BRANCH  32  33
ATOM     33  C   UNL A   1      44.271  24.723  25.602  1.00  0.00     0.338 C 
ATOM     34  O   UNL A   1      44.901  25.141  24.647  1.00  0.00    -0.246 OA
BRANCH  33  35
ATOM     35  C   UNL A   1      43.449  25.595  26.451  1.00  0.00     0.060 A 
ATOM     36  C   UNL A   1      43.831  26.930  26.640  1.00  0.00     0.016 A 
ATOM     37  C   UNL A   1      42.390  25.040  27.171  1.00  0.00     0.016 A 
ATOM     38  C   UNL A   1      43.195  27.699  27.608  1.00  0.00     0.010 A 
ATOM     39  C   UNL A   1      41.761  25.809  28.145  1.00  0.00     0.010 A 
ATOM     40  C   UNL A   1      42.198  27.120  28.400  1.00  0.00    -0.014 A 
BRANCH  40  41
ATOM     41  C   UNL A   1      41.737  27.808  29.623  1.00  0.00     0.031 A 
ATOM     42  C   UNL A   1      40.498  28.653  29.544  1.00  0.00     0.074 A 
ATOM     43  C   UNL A   1      42.420  27.683  30.772  1.00  0.00     0.049 A 
ATOM     44  N   UNL A   1      39.967  29.437  30.447  1.00  0.00    -0.248 NA
ATOM     45  C   UNL A   1      39.763  28.620  28.269  1.00  0.00     0.031 C 
ATOM     46  C   UNL A   1      43.602  26.845  30.963  1.00  0.00     0.029 A 
ATOM     47  N   UNL A   1      42.221  28.277  31.989  1.00  0.00    -0.354 N 
ATOM     48  C   UNL A   1      38.853  30.004  29.841  1.00  0.00     0.074 A 
ATOM     49  C   UNL A   1      38.798  29.499  28.488  1.00  0.00     0.031 C 
ATOM     50  C   UNL A   1      44.033  26.989  32.227  1.00  0.00     0.029 A 
ATOM     51  C   UNL A   1      43.187  27.963  32.912  1.00  0.00     0.049 A 
ATOM     52  H   UNL A   1      41.460  28.871  32.184  1.00  0.00     0.167 HD
ATOM     53  C   UNL A   1      37.957  30.866  30.377  1.00  0.00     0.037 A 
ATOM     54  C   UNL A   1      43.377  28.441  34.155  1.00  0.00     0.037 A 
ATOM     55  C   UNL A   1      38.031  31.356  31.729  1.00  0.00     0.049 A 
ATOM     56  C   UNL A   1      42.413  29.464  34.697  1.00  0.00     0.074 A 
ATOM     57  C   UNL A   1      37.165  32.212  32.384  1.00  0.00     0.029 A 
ATOM     58  N   UNL A   1      39.041  31.041  32.628  1.00  0.00    -0.354 N 
ATOM     59  N   UNL A   1      41.346  29.982  34.135  1.00  0.00    -0.248 NA
ATOM     60  C   UNL A   1      42.678  29.968  36.051  1.00  0.00     0.031 C 
ATOM     61  C   UNL A   1      37.692  32.477  33.652  1.00  0.00     0.029 A 
ATOM     62  C   UNL A   1      38.839  31.718  33.820  1.00  0.00     0.049 A 
ATOM     63  H   UNL A   1      39.789  30.428  32.445  1.00  0.00     0.167 HD
ATOM     64  C   UNL A   1      40.792  30.838  35.078  1.00  0.00     0.074 A 
ATOM     65  C   UNL A   1      41.635  30.759  36.253  1.00  0.00     0.031 C 
ATOM     66  C   UNL A   1      39.685  31.618  34.983  1.00  0.00     0.037 A 
BRANCH  53  67
ATOM     67  C   UNL A   1      36.851  31.367  29.493  1.00  0.00     0.064 A 
ATOM     68  C   UNL A   1      35.803  30.536  29.066  1.00  0.00     0.173 A 
ATOM     69  C   UNL A   1      36.818  32.714  29.100  1.00  0.00     0.173 A 
ATOM     70  F   UNL A   1      35.790  29.238  29.401  1.00  0.00    -0.203 F 
ATOM     71  C   UNL A   1      34.783  31.029  28.255  1.00  0.00     0.198 A 
ATOM     72  C   UNL A   1      35.778  33.211  28.320  1.00  0.00     0.198 A 
ATOM     73  F   UNL A   1      37.793  33.554  29.480  1.00  0.00    -0.203 F 
ATOM     74  F   UNL A   1      33.822  30.204  27.814  1.00  0.00    -0.200 F 
ATOM     75  C   UNL A   1      34.766  32.367  27.891  1.00  0.00     0.200 A 
ATOM     76  F   UNL A   1      35.755  34.509  27.985  1.00  0.00    -0.200 F 
ATOM     77  F   UNL A   1      33.776  32.842  27.122  1.00  0.00    -0.200 F 
ENDBRANCH  53  67
BRANCH  54  78
ATOM     78  C   UNL A   1      44.525  27.963  34.970  1.00  0.00     0.064 A 
ATOM     79  C   UNL A   1      44.443  26.766  35.694  1.00  0.00     0.173 A 
ATOM     80  C   UNL A   1      45.717  28.698  35.058  1.00  0.00     0.173 A 
ATOM     81  F   UNL A   1      43.318  26.038  35.658  1.00  0.00    -0.203 F 
ATOM     82  C   UNL A   1      45.497  26.337  36.499  1.00  0.00     0.198 A 
ATOM     83  C   UNL A   1      46.784  28.249  35.833  1.00  0.00     0.198 A 
ATOM     84  F   UNL A   1      45.850  29.849  34.383  1.00  0.00    -0.203 F 
ATOM     85  F   UNL A   1      45.367  25.220  37.227  1.00  0.00    -0.200 F 
ATOM     86  C   UNL A   1      46.668  27.076  36.562  1.00  0.00     0.200 A 
ATOM     87  F   UNL A   1      47.921  28.956  35.878  1.00  0.00    -0.200 F 
ATOM     88  F   UNL A   1      47.682  26.661  37.335  1.00  0.00    -0.200 F 
ENDBRANCH  54  78
BRANCH  66  89
ATOM     89  C   UNL A   1      39.287  32.404  36.201  1.00  0.00     0.064 A 
ATOM     90  C   UNL A   1      39.796  33.685  36.460  1.00  0.00     0.173 A 
ATOM     91  C   UNL A   1      38.346  31.879  37.103  1.00  0.00     0.173 A 
ATOM     92  F   UNL A   1      40.705  34.230  35.638  1.00  0.00    -0.203 F 
ATOM     93  C   UNL A   1      39.407  34.394  37.594  1.00  0.00     0.198 A 
ATOM     94  C   UNL A   1      37.927  32.608  38.211  1.00  0.00     0.198 A 
ATOM     95  F   UNL A   1      37.818  30.663  36.898  1.00  0.00    -0.203 F 
ATOM     96  F   UNL A   1      39.955  35.590  37.854  1.00  0.00    -0.200 F 
ATOM     97  C   UNL A   1      38.467  33.860  38.463  1.00  0.00     0.200 A 
ATOM     98  F   UNL A   1      37.001  32.100  39.034  1.00  0.00    -0.200 F 
ATOM     99  F   UNL A   1      38.085  34.549  39.546  1.00  0.00    -0.200 F 
ENDBRANCH  66  89
ENDBRANCH  40  41
ENDBRANCH  33  35
ENDBRANCH  32  33
ENDBRANCH  31  32
ENDBRANCH  30  31
ENDBRANCH  29  30
ENDBRANCH  28  29
ENDBRANCH  27  28
ENDBRANCH  26  27
ENDBRANCH  25  26
ENDBRANCH   1  25
TORSDOF 26
ENDMDL
MODEL 2
REMARK VINA RESULT:      -8.6      1.292      1.987
REMARK SMILES C[N@H+](CCC(=O)Nc1sccc1C#N)CC(=O)OCCOCCOCCOCCOC(=O)c1ccc(-c2c3nc(c(-c4c(F)c(F)c(F)c(F)c4F)c4ccc([nH]4)c(-c4c(F)c(F)c(F)c(F)c4F)c4nc(c(-c5c(F)c(F)c(F)c(F)c5F)c5ccc2[nH]5)C=C4)C=C3)cc1
REMARK SMILES IDX 22 1 21 2 20 3 19 4 18 5 16 6 17 7 15 8 2 9 1 10 3 12 4 13
REMARK SMILES IDX 5 14 6 15 7 16 8 18 9 19 12 20 10 21 11 22 13 23 14 24 23 25
REMARK SMILES IDX 24 26 25 27 26 28 27 29 28 30 29 31 30 32 31 33 32 34 33 35
REMARK SMILES IDX 34 36 95 37 35 38 94 39 36 40 37 41 38 42 88 43 39 44 93 45
REMARK SMILES IDX 87 46 89 47 40 48 92 49 86 50 85 51 41 53 73 54 53 55 72 56
REMARK SMILES IDX 54 57 57 58 71 59 90 60 55 61 56 62 70 64 91 65 58 66 42 67
REMARK SMILES IDX 43 68 51 69 44 70 45 71 49 72 52 73 46 74 47 75 50 76 48 77
REMARK SMILES IDX 74 78 75 79 83 80 76 81 77 82 81 83 84 84 78 85 79 86 82 87
REMARK SMILES IDX 80 88 59 89 60 90 68 91 61 92 62 93 66 94 69 95 63 96 64 97
REMARK SMILES IDX 67 98 65 99
REMARK H PARENT 2 11 7 17 89 52 57 63
REMARK Flexibility Score: inf
ROOT
ATOM      1  C   UNL A   1      40.152  20.272  26.097  1.00  0.00     0.188 C 
ENDROOT
BRANCH   1   2
ATOM      2  O   UNL A   1      39.797  21.410  26.860  1.00  0.00    -0.376 OA
BRANCH   2   3
ATOM      3  C   UNL A   1      39.526  22.646  26.199  1.00  0.00     0.202 C 
BRANCH   3   4
ATOM      4  C   UNL A   1      38.099  23.181  25.976  1.00  0.00     0.261 C 
BRANCH   4   5
ATOM      5  O   UNL A   1      37.208  22.244  25.341  1.00  0.00    -0.459 OA
BRANCH   5   6
ATOM      6  C   UNL A   1      35.932  22.691  25.209  1.00  0.00     0.361 C 
ATOM      7  O   UNL A   1      35.156  22.775  26.161  1.00  0.00    -0.245 OA
BRANCH   6   8
ATOM      8  C   UNL A   1      35.528  23.194  23.825  1.00  0.00     0.386 C 
BRANCH   8   9
ATOM      9  N   UNL A   1      34.190  23.764  23.653  1.00  0.00    -0.328 N 
ATOM     10  C   UNL A   1      33.475  22.952  22.642  1.00  0.00     0.333 C 
ATOM     11  H   UNL A   1      33.688  23.755  24.540  1.00  0.00     0.348 HD
BRANCH   9  12
ATOM     12  C   UNL A   1      34.286  25.168  23.193  1.00  0.00     0.272 C 
BRANCH  12  13
ATOM     13  C   UNL A   1      33.762  26.273  24.110  1.00  0.00     0.161 C 
BRANCH  13  14
ATOM     14  C   UNL A   1      33.512  26.307  25.638  1.00  0.00     0.230 C 
ATOM     15  O   UNL A   1      34.283  27.069  26.260  1.00  0.00    -0.274 OA
ATOM     16  N   UNL A   1      32.516  25.823  26.424  1.00  0.00    -0.316 N 
ATOM     17  H   UNL A   1      32.514  26.260  27.306  1.00  0.00     0.170 HD
BRANCH  16  18
ATOM     18  C   UNL A   1      31.508  24.892  26.326  1.00  0.00     0.113 A 
ATOM     19  S   UNL A   1      31.946  23.395  27.068  1.00  0.00    -0.125 S 
ATOM     20  C   UNL A   1      30.224  24.824  25.837  1.00  0.00     0.087 A 
ATOM     21  C   UNL A   1      30.301  22.937  27.222  1.00  0.00     0.068 A 
ATOM     22  C   UNL A   1      29.501  23.725  26.420  1.00  0.00     0.033 A 
BRANCH  20  23
ATOM     23  C   UNL A   1      29.651  25.763  24.926  1.00  0.00     0.102 C 
ATOM     24  N   UNL A   1      29.206  26.528  24.182  1.00  0.00    -0.192 NA
ENDBRANCH  20  23
ENDBRANCH  16  18
ENDBRANCH  13  14
ENDBRANCH  12  13
ENDBRANCH   9  12
ENDBRANCH   8   9
ENDBRANCH   6   8
ENDBRANCH   5   6
ENDBRANCH   4   5
ENDBRANCH   3   4
ENDBRANCH   2   3
ENDBRANCH   1   2
BRANCH   1  25
ATOM     25  C   UNL A   1      41.575  19.823  26.424  1.00  0.00     0.188 C 
BRANCH  25  26
ATOM     26  O   UNL A   1      42.395  19.544  25.303  1.00  0.00    -0.377 OA
BRANCH  26  27
ATOM     27  C   UNL A   1      43.612  18.832  25.426  1.00  0.00     0.188 C 
BRANCH  27  28
ATOM     28  C   UNL A   1      44.545  19.004  24.242  1.00  0.00     0.188 C 
BRANCH  28  29
ATOM     29  O   UNL A   1      45.003  20.328  23.963  1.00  0.00    -0.376 OA
BRANCH  29  30
ATOM     30  C   UNL A   1      45.153  21.255  25.033  1.00  0.00     0.202 C 
BRANCH  30  31
ATOM     31  C   UNL A   1      44.299  22.516  24.938  1.00  0.00     0.261 C 
BRANCH  31  32
ATOM     32  O   UNL A   1      44.578  23.460  25.982  1.00  0.00    -0.460 OA
BRANCH  32  33
ATOM     33  C   UNL A   1      44.652  24.747  25.577  1.00  0.00     0.338 C 
ATOM     34  O   UNL A   1      45.271  25.204  24.633  1.00  0.00    -0.246 OA
BRANCH  33  35
ATOM     35  C   UNL A   1      43.778  25.571  26.423  1.00  0.00     0.060 A 
ATOM     36  C   UNL A   1      44.098  26.919  26.635  1.00  0.00     0.016 A 
ATOM     37  C   UNL A   1      42.732  24.962  27.117  1.00  0.00     0.016 A 
ATOM     38  C   UNL A   1      43.413  27.647  27.601  1.00  0.00     0.010 A 
ATOM     39  C   UNL A   1      42.054  25.689  28.090  1.00  0.00     0.010 A 
ATOM     40  C   UNL A   1      42.429  27.014  28.369  1.00  0.00    -0.014 A 
BRANCH  40  41
ATOM     41  C   UNL A   1      41.918  27.665  29.593  1.00  0.00     0.031 A 
ATOM     42  C   UNL A   1      40.652  28.467  29.500  1.00  0.00     0.074 A 
ATOM     43  C   UNL A   1      42.580  27.545  30.754  1.00  0.00     0.049 A 
ATOM     44  N   UNL A   1      40.074  29.217  30.403  1.00  0.00    -0.248 NA
ATOM     45  C   UNL A   1      39.946  28.430  28.208  1.00  0.00     0.031 C 
ATOM     46  C   UNL A   1      43.786  26.746  30.957  1.00  0.00     0.029 A 
ATOM     47  N   UNL A   1      42.334  28.112  31.976  1.00  0.00    -0.354 N 
ATOM     48  C   UNL A   1      38.954  29.755  29.782  1.00  0.00     0.074 A 
ATOM     49  C   UNL A   1      38.946  29.271  28.420  1.00  0.00     0.031 C 
ATOM     50  C   UNL A   1      44.185  26.884  32.233  1.00  0.00     0.029 A 
ATOM     51  C   UNL A   1      43.290  27.816  32.914  1.00  0.00     0.049 A 
ATOM     52  H   UNL A   1      41.548  28.675  32.163  1.00  0.00     0.167 HD
ATOM     53  C   UNL A   1      38.017  30.576  30.312  1.00  0.00     0.037 A 
ATOM     54  C   UNL A   1      43.437  28.280  34.169  1.00  0.00     0.037 A 
ATOM     55  C   UNL A   1      38.044  31.046  31.672  1.00  0.00     0.049 A 
ATOM     56  C   UNL A   1      42.425  29.260  34.706  1.00  0.00     0.074 A 
ATOM     57  C   UNL A   1      37.134  31.860  32.322  1.00  0.00     0.029 A 
ATOM     58  N   UNL A   1      39.045  30.751  32.589  1.00  0.00    -0.354 N 
ATOM     59  N   UNL A   1      41.353  29.749  34.129  1.00  0.00    -0.248 NA
ATOM     60  C   UNL A   1      42.643  29.750  36.073  1.00  0.00     0.031 C 
ATOM     61  C   UNL A   1      37.624  32.122  33.605  1.00  0.00     0.029 A 
ATOM     62  C   UNL A   1      38.793  31.401  33.786  1.00  0.00     0.049 A 
ATOM     63  H   UNL A   1      39.818  30.167  32.412  1.00  0.00     0.167 HD
ATOM     64  C   UNL A   1      40.749  30.569  35.073  1.00  0.00     0.074 A 
ATOM     65  C   UNL A   1      41.569  30.500  36.265  1.00  0.00     0.031 C 
ATOM     66  C   UNL A   1      39.618  31.311  34.966  1.00  0.00     0.037 A 
BRANCH  53  67
ATOM     67  C   UNL A   1      36.912  31.052  29.412  1.00  0.00     0.064 A 
ATOM     68  C   UNL A   1      36.901  32.345  28.865  1.00  0.00     0.173 A 
ATOM     69  C   UNL A   1      35.868  30.184  29.058  1.00  0.00     0.173 A 
ATOM     70  F   UNL A   1      37.866  33.221  29.179  1.00  0.00    -0.203 F 
ATOM     71  C   UNL A   1      35.869  32.758  28.024  1.00  0.00     0.198 A 
ATOM     72  C   UNL A   1      34.859  30.588  28.187  1.00  0.00     0.198 A 
ATOM     73  F   UNL A   1      35.828  28.936  29.549  1.00  0.00    -0.203 F 
ATOM     74  F   UNL A   1      35.851  34.015  27.557  1.00  0.00    -0.200 F 
ATOM     75  C   UNL A   1      34.856  31.877  27.678  1.00  0.00     0.200 A 
ATOM     76  F   UNL A   1      33.891  29.729  27.840  1.00  0.00    -0.200 F 
ATOM     77  F   UNL A   1      33.873  32.273  26.857  1.00  0.00    -0.200 F 
ENDBRANCH  53  67
BRANCH  54  78
ATOM     78  C   UNL A   1      44.583  27.829  35.002  1.00  0.00     0.064 A 
ATOM     79  C   UNL A   1      44.510  26.642  35.742  1.00  0.00     0.173 A 
ATOM     80  C   UNL A   1      45.764  28.581  35.090  1.00  0.00     0.173 A 
ATOM     81  F   UNL A   1      43.395  25.898  35.706  1.00  0.00    -0.203 F 
ATOM     82  C   UNL A   1      45.562  26.238  36.562  1.00  0.00     0.198 A 
ATOM     83  C   UNL A   1      46.830  28.157  35.881  1.00  0.00     0.198 A 
ATOM     84  F   UNL A   1      45.888  29.724  34.400  1.00  0.00    -0.203 F 
ATOM     85  F   UNL A   1      45.441  25.130  37.305  1.00  0.00    -0.200 F 
ATOM     86  C   UNL A   1      46.723  26.993  36.626  1.00  0.00     0.200 A 
ATOM     87  F   UNL A   1      47.957  28.881  35.926  1.00  0.00    -0.200 F 
ATOM     88  F   UNL A   1      47.735  26.603  37.414  1.00  0.00    -0.200 F 
ENDBRANCH  54  78
BRANCH  66  89
ATOM     89  C   UNL A   1      39.165  32.062  36.188  1.00  0.00     0.064 A 
ATOM     90  C   UNL A   1      39.609  33.362  36.469  1.00  0.00     0.173 A 
ATOM     91  C   UNL A   1      38.238  31.482  37.069  1.00  0.00     0.173 A 
ATOM     92  F   UNL A   1      40.503  33.960  35.666  1.00  0.00    -0.203 F 
ATOM     93  C   UNL A   1      39.172  34.038  37.605  1.00  0.00     0.198 A 
ATOM     94  C   UNL A   1      37.771  32.177  38.180  1.00  0.00     0.198 A 
ATOM     95  F   UNL A   1      37.772  30.245  36.842  1.00  0.00    -0.203 F 
ATOM     96  F   UNL A   1      39.658  35.255  37.886  1.00  0.00    -0.200 F 
ATOM     97  C   UNL A   1      38.246  33.450  38.454  1.00  0.00     0.200 A 
ATOM     98  F   UNL A   1      36.858  31.615  38.984  1.00  0.00    -0.200 F 
ATOM     99  F   UNL A   1      37.817  34.107  39.539  1.00  0.00    -0.200 F 
ENDBRANCH  66  89
ENDBRANCH  40  41
ENDBRANCH  33  35
ENDBRANCH  32  33
ENDBRANCH  31  32
ENDBRANCH  30  31
ENDBRANCH  29  30
ENDBRANCH  28  29
ENDBRANCH  27  28
ENDBRANCH  26  27
ENDBRANCH  25  26
ENDBRANCH   1  25
TORSDOF 26
ENDMDL
MODEL 3
REMARK VINA RESULT:      -8.4      8.359     13.819
REMARK SMILES C[N@H+](CCC(=O)Nc1sccc1C#N)CC(=O)OCCOCCOCCOCCOC(=O)c1ccc(-c2c3nc(c(-c4c(F)c(F)c(F)c(F)c4F)c4ccc([nH]4)c(-c4c(F)c(F)c(F)c(F)c4F)c4nc(c(-c5c(F)c(F)c(F)c(F)c5F)c5ccc2[nH]5)C=C4)C=C3)cc1
REMARK SMILES IDX 22 1 21 2 20 3 19 4 18 5 16 6 17 7 15 8 2 9 1 10 3 12 4 13
REMARK SMILES IDX 5 14 6 15 7 16 8 18 9 19 12 20 10 21 11 22 13 23 14 24 23 25
REMARK SMILES IDX 24 26 25 27 26 28 27 29 28 30 29 31 30 32 31 33 32 34 33 35
REMARK SMILES IDX 34 36 95 37 35 38 94 39 36 40 37 41 38 42 88 43 39 44 93 45
REMARK SMILES IDX 87 46 89 47 40 48 92 49 86 50 85 51 41 53 73 54 53 55 72 56
REMARK SMILES IDX 54 57 57 58 71 59 90 60 55 61 56 62 70 64 91 65 58 66 42 67
REMARK SMILES IDX 43 68 51 69 44 70 45 71 49 72 52 73 46 74 47 75 50 76 48 77
REMARK SMILES IDX 74 78 75 79 83 80 76 81 77 82 81 83 84 84 78 85 79 86 82 87
REMARK SMILES IDX 80 88 59 89 60 90 68 91 61 92 62 93 66 94 69 95 63 96 64 97
REMARK SMILES IDX 67 98 65 99
REMARK H PARENT 2 11 7 17 89 52 57 63
REMARK Flexibility Score: inf
ROOT
ATOM      1  C   UNL A   1      45.378  18.109  37.853  1.00  0.00     0.188 C 
ENDROOT
BRANCH   1   2
ATOM      2  O   UNL A   1      44.153  17.410  37.737  1.00  0.00    -0.376 OA
BRANCH   2   3
ATOM      3  C   UNL A   1      43.883  16.313  38.610  1.00  0.00     0.202 C 
BRANCH   3   4
ATOM      4  C   UNL A   1      43.594  16.490  40.113  1.00  0.00     0.261 C 
BRANCH   4   5
ATOM      5  O   UNL A   1      44.760  16.771  40.911  1.00  0.00    -0.459 OA
BRANCH   5   6
ATOM      6  C   UNL A   1      44.660  17.895  41.665  1.00  0.00     0.361 C 
ATOM      7  O   UNL A   1      45.060  18.993  41.277  1.00  0.00    -0.245 OA
BRANCH   6   8
ATOM      8  C   UNL A   1      43.922  17.758  42.994  1.00  0.00     0.386 C 
BRANCH   8   9
ATOM      9  N   UNL A   1      44.712  17.629  44.222  1.00  0.00    -0.328 N 
ATOM     10  C   UNL A   1      45.284  18.958  44.537  1.00  0.00     0.333 C 
ATOM     11  H   UNL A   1      44.122  17.303  44.986  1.00  0.00     0.348 HD
BRANCH   9  12
ATOM     12  C   UNL A   1      45.802  16.646  44.029  1.00  0.00     0.272 C 
BRANCH  12  13
ATOM     13  C   UNL A   1      45.431  15.173  43.855  1.00  0.00     0.161 C 
BRANCH  13  14
ATOM     14  C   UNL A   1      45.299  14.019  44.878  1.00  0.00     0.230 C 
ATOM     15  O   UNL A   1      46.061  14.127  45.863  1.00  0.00    -0.274 OA
ATOM     16  N   UNL A   1      44.404  13.009  45.023  1.00  0.00    -0.316 N 
ATOM     17  H   UNL A   1      44.440  12.628  45.930  1.00  0.00     0.170 HD
BRANCH  16  18
ATOM     18  C   UNL A   1      43.460  12.371  44.251  1.00  0.00     0.113 A 
ATOM     19  S   UNL A   1      43.820  10.694  44.054  1.00  0.00    -0.125 S 
ATOM     20  C   UNL A   1      42.278  12.684  43.619  1.00  0.00     0.087 A 
ATOM     21  C   UNL A   1      42.190  10.343  43.658  1.00  0.00     0.068 A 
ATOM     22  C   UNL A   1      41.507  11.500  43.342  1.00  0.00     0.033 A 
BRANCH  20  23
ATOM     23  C   UNL A   1      41.833  14.011  43.338  1.00  0.00     0.102 C 
ATOM     24  N   UNL A   1      41.454  15.079  43.110  1.00  0.00    -0.192 NA
ENDBRANCH  20  23
ENDBRANCH  16  18
ENDBRANCH  13  14
ENDBRANCH  12  13
ENDBRANCH   9  12
ENDBRANCH   8   9
ENDBRANCH   6   8
ENDBRANCH   5   6
ENDBRANCH   4   5
ENDBRANCH   3   4
ENDBRANCH   2   3
ENDBRANCH   1   2
BRANCH   1  25
ATOM     25  C   UNL A   1      45.640  18.953  36.607  1.00  0.00     0.188 C 
BRANCH  25  26
ATOM     26  O   UNL A   1      46.391  20.135  36.822  1.00  0.00    -0.377 OA
BRANCH  26  27
ATOM     27  C   UNL A   1      46.229  20.921  37.988  1.00  0.00     0.188 C 
BRANCH  27  28
ATOM     28  C   UNL A   1      47.532  21.455  38.552  1.00  0.00     0.188 C 
BRANCH  28  29
ATOM     29  O   UNL A   1      47.533  22.804  39.022  1.00  0.00    -0.376 OA
BRANCH  29  30
ATOM     30  C   UNL A   1      48.711  23.592  38.885  1.00  0.00     0.202 C 
BRANCH  30  31
ATOM     31  C   UNL A   1      48.484  25.071  38.586  1.00  0.00     0.261 C 
BRANCH  31  32
ATOM     32  O   UNL A   1      47.547  25.288  37.521  1.00  0.00    -0.460 OA
BRANCH  32  33
ATOM     33  C   UNL A   1      47.689  26.466  36.874  1.00  0.00     0.338 C 
ATOM     34  O   UNL A   1      48.581  27.287  36.993  1.00  0.00    -0.246 OA
BRANCH  33  35
ATOM     35  C   UNL A   1      46.607  26.610  35.890  1.00  0.00     0.060 A 
ATOM     36  C   UNL A   1      46.804  27.421  34.765  1.00  0.00     0.016 A 
ATOM     37  C   UNL A   1      45.356  26.059  36.170  1.00  0.00     0.016 A 
ATOM     38  C   UNL A   1      45.726  27.743  33.948  1.00  0.00     0.010 A 
ATOM     39  C   UNL A   1      44.276  26.388  35.357  1.00  0.00     0.010 A 
ATOM     40  C   UNL A   1      44.450  27.272  34.279  1.00  0.00    -0.014 A 
BRANCH  40  41
ATOM     41  C   UNL A   1      43.260  27.849  33.620  1.00  0.00     0.031 A 
ATOM     42  C   UNL A   1      43.022  27.535  32.171  1.00  0.00     0.074 A 
ATOM     43  C   UNL A   1      42.420  28.640  34.305  1.00  0.00     0.049 A 
ATOM     44  N   UNL A   1      42.118  28.010  31.354  1.00  0.00    -0.248 NA
ATOM     45  C   UNL A   1      43.937  26.560  31.553  1.00  0.00     0.031 C 
ATOM     46  C   UNL A   1      42.535  28.960  35.726  1.00  0.00     0.029 A 
ATOM     47  N   UNL A   1      41.313  29.329  33.887  1.00  0.00    -0.354 N 
ATOM     48  C   UNL A   1      42.369  27.411  30.127  1.00  0.00     0.074 A 
ATOM     49  C   UNL A   1      43.526  26.560  30.295  1.00  0.00     0.031 C 
ATOM     50  C   UNL A   1      41.540  29.798  36.062  1.00  0.00     0.029 A 
ATOM     51  C   UNL A   1      40.754  30.106  34.870  1.00  0.00     0.049 A 
ATOM     52  H   UNL A   1      40.953  29.272  32.972  1.00  0.00     0.167 HD
ATOM     53  C   UNL A   1      41.687  27.560  28.967  1.00  0.00     0.037 A 
ATOM     54  C   UNL A   1      39.743  30.991  34.796  1.00  0.00     0.037 A 
ATOM     55  C   UNL A   1      40.537  28.413  28.822  1.00  0.00     0.049 A 
ATOM     56  C   UNL A   1      39.054  31.201  33.471  1.00  0.00     0.074 A 
ATOM     57  C   UNL A   1      39.753  28.621  27.701  1.00  0.00     0.029 A 
ATOM     58  N   UNL A   1      40.014  29.211  29.830  1.00  0.00    -0.354 N 
ATOM     59  N   UNL A   1      39.275  30.617  32.317  1.00  0.00    -0.248 NA
ATOM     60  C   UNL A   1      37.971  32.192  33.441  1.00  0.00     0.031 C 
ATOM     61  C   UNL A   1      38.807  29.603  28.008  1.00  0.00     0.029 A 
ATOM     62  C   UNL A   1      38.942  29.943  29.345  1.00  0.00     0.049 A 
ATOM     63  H   UNL A   1      40.355  29.251  30.753  1.00  0.00     0.167 HD
ATOM     64  C   UNL A   1      38.336  31.139  31.437  1.00  0.00     0.074 A 
ATOM     65  C   UNL A   1      37.535  32.077  32.195  1.00  0.00     0.031 C 
ATOM     66  C   UNL A   1      38.150  30.865  30.120  1.00  0.00     0.037 A 
BRANCH  53  67
ATOM     67  C   UNL A   1      42.189  26.822  27.758  1.00  0.00     0.064 A 
ATOM     68  C   UNL A   1      43.068  27.412  26.837  1.00  0.00     0.173 A 
ATOM     69  C   UNL A   1      41.815  25.487  27.541  1.00  0.00     0.173 A 
ATOM     70  F   UNL A   1      43.450  28.689  26.987  1.00  0.00    -0.203 F 
ATOM     71  C   UNL A   1      43.528  26.702  25.729  1.00  0.00     0.198 A 
ATOM     72  C   UNL A   1      42.306  24.769  26.454  1.00  0.00     0.198 A 
ATOM     73  F   UNL A   1      40.978  24.872  28.391  1.00  0.00    -0.203 F 
ATOM     74  F   UNL A   1      44.324  27.303  24.833  1.00  0.00    -0.200 F 
ATOM     75  C   UNL A   1      43.154  25.380  25.544  1.00  0.00     0.200 A 
ATOM     76  F   UNL A   1      41.957  23.486  26.288  1.00  0.00    -0.200 F 
ATOM     77  F   UNL A   1      43.609  24.695  24.485  1.00  0.00    -0.200 F 
ENDBRANCH  53  67
BRANCH  54  78
ATOM     78  C   UNL A   1      39.322  31.746  36.005  1.00  0.00     0.064 A 
ATOM     79  C   UNL A   1      38.282  31.278  36.819  1.00  0.00     0.173 A 
ATOM     80  C   UNL A   1      39.935  32.956  36.363  1.00  0.00     0.173 A 
ATOM     81  F   UNL A   1      37.651  30.136  36.508  1.00  0.00    -0.203 F 
ATOM     82  C   UNL A   1      37.850  32.005  37.927  1.00  0.00     0.198 A 
ATOM     83  C   UNL A   1      39.528  33.664  37.492  1.00  0.00     0.198 A 
ATOM     84  F   UNL A   1      40.938  33.449  35.620  1.00  0.00    -0.203 F 
ATOM     85  F   UNL A   1      36.813  31.564  38.651  1.00  0.00    -0.200 F 
ATOM     86  C   UNL A   1      38.478  33.194  38.265  1.00  0.00     0.200 A 
ATOM     87  F   UNL A   1      40.149  34.804  37.826  1.00  0.00    -0.200 F 
ATOM     88  F   UNL A   1      38.063  33.892  39.331  1.00  0.00    -0.200 F 
ENDBRANCH  54  78
BRANCH  66  89
ATOM     89  C   UNL A   1      37.001  31.545  29.429  1.00  0.00     0.064 A 
ATOM     90  C   UNL A   1      35.828  30.858  29.085  1.00  0.00     0.173 A 
ATOM     91  C   UNL A   1      37.063  32.919  29.143  1.00  0.00     0.173 A 
ATOM     92  F   UNL A   1      35.719  29.543  29.326  1.00  0.00    -0.203 F 
ATOM     93  C   UNL A   1      34.776  31.512  28.449  1.00  0.00     0.198 A 
ATOM     94  C   UNL A   1      35.993  33.578  28.546  1.00  0.00     0.198 A 
ATOM     95  F   UNL A   1      38.157  33.627  29.460  1.00  0.00    -0.203 F 
ATOM     96  F   UNL A   1      33.690  30.822  28.073  1.00  0.00    -0.200 F 
ATOM     97  C   UNL A   1      34.855  32.872  28.188  1.00  0.00     0.200 A 
ATOM     98  F   UNL A   1      36.064  34.896  28.318  1.00  0.00    -0.200 F 
ATOM     99  F   UNL A   1      33.837  33.502  27.587  1.00  0.00    -0.200 F 
ENDBRANCH  66  89
ENDBRANCH  40  41
ENDBRANCH  33  35
ENDBRANCH  32  33
ENDBRANCH  31  32
ENDBRANCH  30  31
ENDBRANCH  29  30
ENDBRANCH  28  29
ENDBRANCH  27  28
ENDBRANCH  26  27
ENDBRANCH  25  26
ENDBRANCH   1  25
TORSDOF 26
ENDMDL
