MODEL 1
REMARK VINA RESULT:      -9.8      0.000      0.000
REMARK SMILES N#C/C(=C/c1cccc(OC2CCCC2)c1)C(=O)OCCOCCOCCOCCOC(=O)c1ccc(-c2c3nc(c(-c4c(F)c(F)c(F)c(F)c4F)c4ccc([nH]4)c(-c4c(F)c(F)c(F)c(F)c4F)c4nc(c(-c5c(F)c(F)c(F)c(F)c5F)c5ccc2[nH]5)C=C4)C=C3)cc1
REMARK SMILES IDX 24 1 23 2 22 3 21 4 20 5 19 6 17 7 18 8 3 9 4 10 2 11 1 12
REMARK SMILES IDX 5 13 6 14 16 15 7 16 9 17 8 18 10 19 11 20 12 21 15 22 13 23
REMARK SMILES IDX 14 24 25 25 26 26 27 27 28 28 29 29 30 30 31 31 32 32 33 33
REMARK SMILES IDX 34 34 35 35 96 36 36 37 95 38 37 39 38 40 39 41 89 42 40 43
REMARK SMILES IDX 94 44 88 45 90 46 41 47 93 48 87 49 86 50 42 52 74 53 54 54
REMARK SMILES IDX 73 55 55 56 58 57 72 58 91 59 56 60 57 61 71 63 92 64 59 65
REMARK SMILES IDX 43 66 44 67 52 68 45 69 46 70 50 71 53 72 47 73 48 74 51 75
REMARK SMILES IDX 49 76 75 77 76 78 84 79 77 80 78 81 82 82 85 83 79 84 80 85
REMARK SMILES IDX 83 86 81 87 60 88 61 89 69 90 62 91 63 92 67 93 70 94 64 95
REMARK SMILES IDX 65 96 68 97 66 98
REMARK H PARENT 90 51 58 62
REMARK Flexibility Score: inf
ROOT
ATOM      1  C   UNL A   1      38.886  24.029  26.847  1.00  0.00     0.188 C 
ENDROOT
BRANCH   1   2
ATOM      2  C   UNL A   1      37.726  23.694  25.881  1.00  0.00     0.188 C 
BRANCH   2   3
ATOM      3  O   UNL A   1      37.769  22.517  25.096  1.00  0.00    -0.376 OA
BRANCH   3   4
ATOM      4  C   UNL A   1      36.828  22.250  24.073  1.00  0.00     0.202 C 
BRANCH   4   5
ATOM      5  C   UNL A   1      35.540  23.039  23.854  1.00  0.00     0.261 C 
BRANCH   5   6
ATOM      6  O   UNL A   1      34.432  22.654  24.665  1.00  0.00    -0.459 OA
BRANCH   6   7
ATOM      7  C   UNL A   1      33.292  22.354  24.010  1.00  0.00     0.348 C 
ATOM      8  O   UNL A   1      33.154  22.325  22.795  1.00  0.00    -0.245 OA
BRANCH   7   9
ATOM      9  C   UNL A   1      32.228  21.894  24.949  1.00  0.00     0.137 C 
ATOM     10  C   UNL A   1      31.202  22.665  25.355  1.00  0.00     0.035 C 
BRANCH   9  11
ATOM     11  C   UNL A   1      32.198  20.375  24.995  1.00  0.00     0.107 C 
ATOM     12  N   UNL A   1      32.174  19.114  25.033  1.00  0.00    -0.192 NA
ENDBRANCH   9  11
BRANCH  10  13
ATOM     13  C   UNL A   1      31.029  24.106  25.068  1.00  0.00    -0.020 A 
ATOM     14  C   UNL A   1      30.516  24.485  23.826  1.00  0.00     0.008 A 
ATOM     15  C   UNL A   1      31.394  25.116  25.985  1.00  0.00     0.054 A 
ATOM     16  C   UNL A   1      30.299  25.834  23.537  1.00  0.00     0.004 A 
ATOM     17  C   UNL A   1      31.127  26.462  25.732  1.00  0.00     0.120 A 
ATOM     18  C   UNL A   1      30.584  26.810  24.493  1.00  0.00     0.046 A 
BRANCH  17  19
ATOM     19  O   UNL A   1      31.350  27.519  26.568  1.00  0.00    -0.490 OA
BRANCH  19  20
ATOM     20  C   UNL A   1      32.359  28.504  26.354  1.00  0.00     0.173 C 
ATOM     21  C   UNL A   1      32.324  29.722  27.265  1.00  0.00     0.045 C 
ATOM     22  C   UNL A   1      33.800  27.992  26.360  1.00  0.00     0.045 C 
ATOM     23  C   UNL A   1      33.732  30.288  27.199  1.00  0.00     0.004 C 
ATOM     24  C   UNL A   1      34.630  29.065  27.066  1.00  0.00     0.004 C 
ENDBRANCH  19  20
ENDBRANCH  17  19
ENDBRANCH  10  13
ENDBRANCH   7   9
ENDBRANCH   6   7
ENDBRANCH   5   6
ENDBRANCH   4   5
ENDBRANCH   3   4
ENDBRANCH   2   3
ENDBRANCH   1   2
BRANCH   1  25
ATOM     25  O   UNL A   1      40.135  23.406  26.630  1.00  0.00    -0.377 OA
BRANCH  25  26
ATOM     26  C   UNL A   1      40.657  22.497  27.589  1.00  0.00     0.188 C 
BRANCH  26  27
ATOM     27  C   UNL A   1      40.800  20.988  27.292  1.00  0.00     0.188 C 
BRANCH  27  28
ATOM     28  O   UNL A   1      42.109  20.470  27.395  1.00  0.00    -0.376 OA
BRANCH  28  29
ATOM     29  C   UNL A   1      42.319  19.078  27.231  1.00  0.00     0.202 C 
BRANCH  29  30
ATOM     30  C   UNL A   1      42.977  18.582  25.932  1.00  0.00     0.261 C 
BRANCH  30  31
ATOM     31  O   UNL A   1      43.171  19.562  24.901  1.00  0.00    -0.460 OA
BRANCH  31  32
ATOM     32  C   UNL A   1      44.421  19.715  24.423  1.00  0.00     0.338 C 
ATOM     33  O   UNL A   1      45.037  18.944  23.701  1.00  0.00    -0.246 OA
BRANCH  32  34
ATOM     34  C   UNL A   1      44.874  21.076  24.765  1.00  0.00     0.060 A 
ATOM     35  C   UNL A   1      45.316  21.344  26.069  1.00  0.00     0.016 A 
ATOM     36  C   UNL A   1      44.847  22.088  23.803  1.00  0.00     0.016 A 
ATOM     37  C   UNL A   1      45.689  22.638  26.427  1.00  0.00     0.010 A 
ATOM     38  C   UNL A   1      45.194  23.389  24.171  1.00  0.00     0.010 A 
ATOM     39  C   UNL A   1      45.575  23.675  25.495  1.00  0.00    -0.014 A 
BRANCH  39  40
ATOM     40  C   UNL A   1      45.618  25.083  25.957  1.00  0.00     0.031 A 
ATOM     41  C   UNL A   1      46.940  25.800  25.908  1.00  0.00     0.074 A 
ATOM     42  C   UNL A   1      44.516  25.717  26.393  1.00  0.00     0.049 A 
ATOM     43  N   UNL A   1      47.257  26.997  26.325  1.00  0.00    -0.248 NA
ATOM     44  C   UNL A   1      48.062  25.056  25.309  1.00  0.00     0.031 C 
ATOM     45  C   UNL A   1      43.171  25.148  26.431  1.00  0.00     0.029 A 
ATOM     46  N   UNL A   1      44.364  26.982  26.901  1.00  0.00    -0.354 N 
ATOM     47  C   UNL A   1      48.612  27.142  26.059  1.00  0.00     0.074 A 
ATOM     48  C   UNL A   1      49.066  25.905  25.464  1.00  0.00     0.031 C 
ATOM     49  C   UNL A   1      42.329  26.061  26.949  1.00  0.00     0.029 A 
ATOM     50  C   UNL A   1      43.084  27.259  27.314  1.00  0.00     0.049 A 
ATOM     51  H   UNL A   1      45.102  27.631  26.962  1.00  0.00     0.167 HD
ATOM     52  C   UNL A   1      49.407  28.213  26.290  1.00  0.00     0.037 A 
ATOM     53  C   UNL A   1      42.594  28.345  27.943  1.00  0.00     0.037 A 
ATOM     54  C   UNL A   1      48.947  29.445  26.875  1.00  0.00     0.049 A 
ATOM     55  C   UNL A   1      43.521  29.493  28.263  1.00  0.00     0.074 A 
ATOM     56  C   UNL A   1      49.665  30.602  27.121  1.00  0.00     0.029 A 
ATOM     57  N   UNL A   1      47.653  29.673  27.315  1.00  0.00    -0.354 N 
ATOM     58  N   UNL A   1      44.794  29.638  27.983  1.00  0.00    -0.248 NA
ATOM     59  C   UNL A   1      42.939  30.632  28.990  1.00  0.00     0.031 C 
ATOM     60  C   UNL A   1      48.822  31.505  27.775  1.00  0.00     0.029 A 
ATOM     61  C   UNL A   1      47.560  30.941  27.867  1.00  0.00     0.049 A 
ATOM     62  H   UNL A   1      46.910  29.032  27.246  1.00  0.00     0.167 HD
ATOM     63  C   UNL A   1      45.153  30.894  28.461  1.00  0.00     0.074 A 
ATOM     64  C   UNL A   1      43.960  31.475  29.038  1.00  0.00     0.031 C 
ATOM     65  C   UNL A   1      46.360  31.512  28.422  1.00  0.00     0.037 A 
BRANCH  52  66
ATOM     66  C   UNL A   1      50.864  28.089  25.950  1.00  0.00     0.064 A 
ATOM     67  C   UNL A   1      51.831  27.775  26.917  1.00  0.00     0.173 A 
ATOM     68  C   UNL A   1      51.291  28.246  24.623  1.00  0.00     0.173 A 
ATOM     69  F   UNL A   1      51.479  27.632  28.203  1.00  0.00    -0.203 F 
ATOM     70  C   UNL A   1      53.174  27.646  26.570  1.00  0.00     0.198 A 
ATOM     71  C   UNL A   1      52.628  28.082  24.273  1.00  0.00     0.198 A 
ATOM     72  F   UNL A   1      50.407  28.547  23.659  1.00  0.00    -0.203 F 
ATOM     73  F   UNL A   1      54.087  27.392  27.517  1.00  0.00    -0.200 F 
ATOM     74  C   UNL A   1      53.570  27.788  25.248  1.00  0.00     0.200 A 
ATOM     75  F   UNL A   1      53.005  28.207  22.994  1.00  0.00    -0.200 F 
ATOM     76  F   UNL A   1      54.860  27.650  24.914  1.00  0.00    -0.200 F 
ENDBRANCH  52  66
BRANCH  53  77
ATOM     77  C   UNL A   1      41.158  28.407  28.331  1.00  0.00     0.064 A 
ATOM     78  C   UNL A   1      40.198  28.947  27.463  1.00  0.00     0.173 A 
ATOM     79  C   UNL A   1      40.723  27.975  29.592  1.00  0.00     0.173 A 
ATOM     80  F   UNL A   1      40.567  29.399  26.256  1.00  0.00    -0.203 F 
ATOM     81  C   UNL A   1      38.867  29.079  27.852  1.00  0.00     0.198 A 
ATOM     82  C   UNL A   1      39.385  28.077  29.968  1.00  0.00     0.198 A 
ATOM     83  F   UNL A   1      41.599  27.455  30.465  1.00  0.00    -0.203 F 
ATOM     84  F   UNL A   1      37.984  29.658  27.027  1.00  0.00    -0.200 F 
ATOM     85  C   UNL A   1      38.461  28.640  29.103  1.00  0.00     0.200 A 
ATOM     86  F   UNL A   1      38.995  27.641  31.174  1.00  0.00    -0.200 F 
ATOM     87  F   UNL A   1      37.182  28.773  29.480  1.00  0.00    -0.200 F 
ENDBRANCH  53  77
BRANCH  65  88
ATOM     88  C   UNL A   1      46.443  32.911  28.967  1.00  0.00     0.064 A 
ATOM     89  C   UNL A   1      46.798  33.171  30.299  1.00  0.00     0.173 A 
ATOM     90  C   UNL A   1      46.208  34.012  28.126  1.00  0.00     0.173 A 
ATOM     91  F   UNL A   1      47.023  32.156  31.148  1.00  0.00    -0.203 F 
ATOM     92  C   UNL A   1      46.884  34.477  30.776  1.00  0.00     0.198 A 
ATOM     93  C   UNL A   1      46.332  35.316  28.597  1.00  0.00     0.198 A 
ATOM     94  F   UNL A   1      45.876  33.821  26.840  1.00  0.00    -0.203 F 
ATOM     95  F   UNL A   1      47.170  34.699  32.066  1.00  0.00    -0.200 F 
ATOM     96  C   UNL A   1      46.659  35.547  29.923  1.00  0.00     0.200 A 
ATOM     97  F   UNL A   1      46.134  36.347  27.765  1.00  0.00    -0.200 F 
ATOM     98  F   UNL A   1      46.753  36.803  30.382  1.00  0.00    -0.200 F 
ENDBRANCH  65  88
ENDBRANCH  39  40
ENDBRANCH  32  34
ENDBRANCH  31  32
ENDBRANCH  30  31
ENDBRANCH  29  30
ENDBRANCH  28  29
ENDBRANCH  27  28
ENDBRANCH  26  27
ENDBRANCH  25  26
ENDBRANCH   1  25
TORSDOF 24
ENDMDL
MODEL 2
REMARK VINA RESULT:      -9.7      1.666      3.492
REMARK SMILES N#C/C(=C/c1cccc(OC2CCCC2)c1)C(=O)OCCOCCOCCOCCOC(=O)c1ccc(-c2c3nc(c(-c4c(F)c(F)c(F)c(F)c4F)c4ccc([nH]4)c(-c4c(F)c(F)c(F)c(F)c4F)c4nc(c(-c5c(F)c(F)c(F)c(F)c5F)c5ccc2[nH]5)C=C4)C=C3)cc1
REMARK SMILES IDX 24 1 23 2 22 3 21 4 20 5 19 6 17 7 18 8 3 9 4 10 2 11 1 12
REMARK SMILES IDX 5 13 6 14 16 15 7 16 9 17 8 18 10 19 11 20 12 21 15 22 13 23
REMARK SMILES IDX 14 24 25 25 26 26 27 27 28 28 29 29 30 30 31 31 32 32 33 33
REMARK SMILES IDX 34 34 35 35 96 36 36 37 95 38 37 39 38 40 39 41 89 42 40 43
REMARK SMILES IDX 94 44 88 45 90 46 41 47 93 48 87 49 86 50 42 52 74 53 54 54
REMARK SMILES IDX 73 55 55 56 58 57 72 58 91 59 56 60 57 61 71 63 92 64 59 65
REMARK SMILES IDX 43 66 44 67 52 68 45 69 46 70 50 71 53 72 47 73 48 74 51 75
REMARK SMILES IDX 49 76 75 77 76 78 84 79 77 80 78 81 82 82 85 83 79 84 80 85
REMARK SMILES IDX 83 86 81 87 60 88 61 89 69 90 62 91 63 92 67 93 70 94 64 95
REMARK SMILES IDX 65 96 68 97 66 98
REMARK H PARENT 90 51 58 62
REMARK Flexibility Score: inf
ROOT
ATOM      1  C   UNL A   1      38.609  23.974  26.767  1.00  0.00     0.188 C 
ENDROOT
BRANCH   1   2
ATOM      2  C   UNL A   1      37.495  23.872  25.700  1.00  0.00     0.188 C 
BRANCH   2   3
ATOM      3  O   UNL A   1      36.814  22.650  25.493  1.00  0.00    -0.376 OA
BRANCH   3   4
ATOM      4  C   UNL A   1      36.202  22.318  24.261  1.00  0.00     0.202 C 
BRANCH   4   5
ATOM      5  C   UNL A   1      35.806  23.331  23.190  1.00  0.00     0.261 C 
BRANCH   5   6
ATOM      6  O   UNL A   1      34.668  24.135  23.488  1.00  0.00    -0.459 OA
BRANCH   6   7
ATOM      7  C   UNL A   1      33.597  23.973  22.684  1.00  0.00     0.348 C 
ATOM      8  O   UNL A   1      33.596  23.394  21.607  1.00  0.00    -0.245 OA
BRANCH   7   9
ATOM      9  C   UNL A   1      32.345  24.453  23.337  1.00  0.00     0.137 C 
ATOM     10  C   UNL A   1      31.970  24.106  24.582  1.00  0.00     0.035 C 
BRANCH   9  11
ATOM     11  C   UNL A   1      31.832  25.695  22.627  1.00  0.00     0.107 C 
ATOM     12  N   UNL A   1      31.407  26.725  22.038  1.00  0.00    -0.192 NA
ENDBRANCH   9  11
BRANCH  10  13
ATOM     13  C   UNL A   1      32.635  23.105  25.446  1.00  0.00    -0.020 A 
ATOM     14  C   UNL A   1      33.219  23.533  26.641  1.00  0.00     0.008 A 
ATOM     15  C   UNL A   1      32.735  21.742  25.097  1.00  0.00     0.054 A 
ATOM     16  C   UNL A   1      33.817  22.611  27.501  1.00  0.00     0.004 A 
ATOM     17  C   UNL A   1      33.277  20.801  25.974  1.00  0.00     0.120 A 
ATOM     18  C   UNL A   1      33.825  21.253  27.175  1.00  0.00     0.046 A 
BRANCH  17  19
ATOM     19  O   UNL A   1      33.352  19.449  25.791  1.00  0.00    -0.490 OA
BRANCH  19  20
ATOM     20  C   UNL A   1      33.699  18.830  24.553  1.00  0.00     0.173 C 
ATOM     21  C   UNL A   1      34.065  17.355  24.609  1.00  0.00     0.045 C 
ATOM     22  C   UNL A   1      32.681  18.988  23.423  1.00  0.00     0.045 C 
ATOM     23  C   UNL A   1      33.856  16.857  23.190  1.00  0.00     0.004 C 
ATOM     24  C   UNL A   1      32.664  17.654  22.677  1.00  0.00     0.004 C 
ENDBRANCH  19  20
ENDBRANCH  17  19
ENDBRANCH  10  13
ENDBRANCH   7   9
ENDBRANCH   6   7
ENDBRANCH   5   6
ENDBRANCH   4   5
ENDBRANCH   3   4
ENDBRANCH   2   3
ENDBRANCH   1   2
BRANCH   1  25
ATOM     25  O   UNL A   1      39.858  23.375  26.485  1.00  0.00    -0.377 OA
BRANCH  25  26
ATOM     26  C   UNL A   1      40.459  22.498  27.427  1.00  0.00     0.188 C 
BRANCH  26  27
ATOM     27  C   UNL A   1      40.716  21.008  27.108  1.00  0.00     0.188 C 
BRANCH  27  28
ATOM     28  O   UNL A   1      42.027  20.550  27.363  1.00  0.00    -0.376 OA
BRANCH  28  29
ATOM     29  C   UNL A   1      42.304  19.162  27.284  1.00  0.00     0.202 C 
BRANCH  29  30
ATOM     30  C   UNL A   1      42.839  18.594  25.959  1.00  0.00     0.261 C 
BRANCH  30  31
ATOM     31  O   UNL A   1      43.087  19.544  24.912  1.00  0.00    -0.460 OA
BRANCH  31  32
ATOM     32  C   UNL A   1      44.357  19.670  24.482  1.00  0.00     0.338 C 
ATOM     33  O   UNL A   1      44.994  18.872  23.809  1.00  0.00    -0.246 OA
BRANCH  32  34
ATOM     34  C   UNL A   1      44.811  21.036  24.802  1.00  0.00     0.060 A 
ATOM     35  C   UNL A   1      45.317  21.308  26.082  1.00  0.00     0.016 A 
ATOM     36  C   UNL A   1      44.723  22.048  23.845  1.00  0.00     0.016 A 
ATOM     37  C   UNL A   1      45.692  22.606  26.423  1.00  0.00     0.010 A 
ATOM     38  C   UNL A   1      45.072  23.354  24.197  1.00  0.00     0.010 A 
ATOM     39  C   UNL A   1      45.518  23.643  25.499  1.00  0.00    -0.014 A 
BRANCH  39  40
ATOM     40  C   UNL A   1      45.568  25.050  25.961  1.00  0.00     0.031 A 
ATOM     41  C   UNL A   1      46.893  25.763  25.904  1.00  0.00     0.074 A 
ATOM     42  C   UNL A   1      44.471  25.687  26.404  1.00  0.00     0.049 A 
ATOM     43  N   UNL A   1      47.216  26.959  26.319  1.00  0.00    -0.248 NA
ATOM     44  C   UNL A   1      48.008  25.015  25.297  1.00  0.00     0.031 C 
ATOM     45  C   UNL A   1      43.125  25.123  26.450  1.00  0.00     0.029 A 
ATOM     46  N   UNL A   1      44.326  26.954  26.912  1.00  0.00    -0.354 N 
ATOM     47  C   UNL A   1      48.570  27.100  26.044  1.00  0.00     0.074 A 
ATOM     48  C   UNL A   1      49.016  25.861  25.447  1.00  0.00     0.031 C 
ATOM     49  C   UNL A   1      42.289  26.038  26.973  1.00  0.00     0.029 A 
ATOM     50  C   UNL A   1      43.049  27.234  27.334  1.00  0.00     0.049 A 
ATOM     51  H   UNL A   1      45.067  27.600  26.969  1.00  0.00     0.167 HD
ATOM     52  C   UNL A   1      49.369  28.169  26.270  1.00  0.00     0.037 A 
ATOM     53  C   UNL A   1      42.567  28.322  27.965  1.00  0.00     0.037 A 
ATOM     54  C   UNL A   1      48.917  29.402  26.858  1.00  0.00     0.049 A 
ATOM     55  C   UNL A   1      43.499  29.467  28.279  1.00  0.00     0.074 A 
ATOM     56  C   UNL A   1      49.639  30.556  27.099  1.00  0.00     0.029 A 
ATOM     57  N   UNL A   1      47.626  29.634  27.305  1.00  0.00    -0.354 N 
ATOM     58  N   UNL A   1      44.771  29.608  27.991  1.00  0.00    -0.248 NA
ATOM     59  C   UNL A   1      42.926  30.608  29.009  1.00  0.00     0.031 C 
ATOM     60  C   UNL A   1      48.804  31.463  27.758  1.00  0.00     0.029 A 
ATOM     61  C   UNL A   1      47.541  30.902  27.858  1.00  0.00     0.049 A 
ATOM     62  H   UNL A   1      46.881  28.995  27.241  1.00  0.00     0.167 HD
ATOM     63  C   UNL A   1      45.137  30.863  28.466  1.00  0.00     0.074 A 
ATOM     64  C   UNL A   1      43.949  31.448  29.051  1.00  0.00     0.031 C 
ATOM     65  C   UNL A   1      46.346  31.478  28.421  1.00  0.00     0.037 A 
BRANCH  52  66
ATOM     66  C   UNL A   1      50.824  28.040  25.921  1.00  0.00     0.064 A 
ATOM     67  C   UNL A   1      51.302  28.267  24.622  1.00  0.00     0.173 A 
ATOM     68  C   UNL A   1      51.760  27.726  26.918  1.00  0.00     0.173 A 
ATOM     69  F   UNL A   1      50.447  28.554  23.628  1.00  0.00    -0.203 F 
ATOM     70  C   UNL A   1      52.660  28.162  24.330  1.00  0.00     0.198 A 
ATOM     71  C   UNL A   1      53.120  27.655  26.631  1.00  0.00     0.198 A 
ATOM     72  F   UNL A   1      51.356  27.500  28.178  1.00  0.00    -0.203 F 
ATOM     73  F   UNL A   1      53.088  28.336  23.072  1.00  0.00    -0.200 F 
ATOM     74  C   UNL A   1      53.569  27.866  25.336  1.00  0.00     0.200 A 
ATOM     75  F   UNL A   1      53.996  27.383  27.607  1.00  0.00    -0.200 F 
ATOM     76  F   UNL A   1      54.875  27.779  25.056  1.00  0.00    -0.200 F 
ENDBRANCH  52  66
BRANCH  53  77
ATOM     77  C   UNL A   1      41.134  28.388  28.362  1.00  0.00     0.064 A 
ATOM     78  C   UNL A   1      40.171  28.937  27.502  1.00  0.00     0.173 A 
ATOM     79  C   UNL A   1      40.704  27.952  29.624  1.00  0.00     0.173 A 
ATOM     80  F   UNL A   1      40.535  29.394  26.295  1.00  0.00    -0.203 F 
ATOM     81  C   UNL A   1      38.843  29.074  27.900  1.00  0.00     0.198 A 
ATOM     82  C   UNL A   1      39.369  28.058  30.008  1.00  0.00     0.198 A 
ATOM     83  F   UNL A   1      41.583  27.424  30.488  1.00  0.00    -0.203 F 
ATOM     84  F   UNL A   1      37.958  29.660  27.083  1.00  0.00    -0.200 F 
ATOM     85  C   UNL A   1      38.442  28.630  29.151  1.00  0.00     0.200 A 
ATOM     86  F   UNL A   1      38.984  27.617  31.214  1.00  0.00    -0.200 F 
ATOM     87  F   UNL A   1      37.166  28.766  29.536  1.00  0.00    -0.200 F 
ENDBRANCH  53  77
BRANCH  65  88
ATOM     88  C   UNL A   1      46.437  32.876  28.964  1.00  0.00     0.064 A 
ATOM     89  C   UNL A   1      46.792  33.135  30.297  1.00  0.00     0.173 A 
ATOM     90  C   UNL A   1      46.209  33.978  28.123  1.00  0.00     0.173 A 
ATOM     91  F   UNL A   1      47.009  32.119  31.147  1.00  0.00    -0.203 F 
ATOM     92  C   UNL A   1      46.885  34.440  30.773  1.00  0.00     0.198 A 
ATOM     93  C   UNL A   1      46.340  35.281  28.593  1.00  0.00     0.198 A 
ATOM     94  F   UNL A   1      45.877  33.789  26.836  1.00  0.00    -0.203 F 
ATOM     95  F   UNL A   1      47.171  34.661  32.063  1.00  0.00    -0.200 F 
ATOM     96  C   UNL A   1      46.667  35.511  29.919  1.00  0.00     0.200 A 
ATOM     97  F   UNL A   1      46.149  36.314  27.760  1.00  0.00    -0.200 F 
ATOM     98  F   UNL A   1      46.768  36.767  30.377  1.00  0.00    -0.200 F 
ENDBRANCH  65  88
ENDBRANCH  39  40
ENDBRANCH  32  34
ENDBRANCH  31  32
ENDBRANCH  30  31
ENDBRANCH  29  30
ENDBRANCH  28  29
ENDBRANCH  27  28
ENDBRANCH  26  27
ENDBRANCH  25  26
ENDBRANCH   1  25
TORSDOF 24
ENDMDL
MODEL 3
REMARK VINA RESULT:      -8.9      1.368      2.363
REMARK SMILES N#C/C(=C/c1cccc(OC2CCCC2)c1)C(=O)OCCOCCOCCOCCOC(=O)c1ccc(-c2c3nc(c(-c4c(F)c(F)c(F)c(F)c4F)c4ccc([nH]4)c(-c4c(F)c(F)c(F)c(F)c4F)c4nc(c(-c5c(F)c(F)c(F)c(F)c5F)c5ccc2[nH]5)C=C4)C=C3)cc1
REMARK SMILES IDX 24 1 23 2 22 3 21 4 20 5 19 6 17 7 18 8 3 9 4 10 2 11 1 12
REMARK SMILES IDX 5 13 6 14 16 15 7 16 9 17 8 18 10 19 11 20 12 21 15 22 13 23
REMARK SMILES IDX 14 24 25 25 26 26 27 27 28 28 29 29 30 30 31 31 32 32 33 33
REMARK SMILES IDX 34 34 35 35 96 36 36 37 95 38 37 39 38 40 39 41 89 42 40 43
REMARK SMILES IDX 94 44 88 45 90 46 41 47 93 48 87 49 86 50 42 52 74 53 54 54
REMARK SMILES IDX 73 55 55 56 58 57 72 58 91 59 56 60 57 61 71 63 92 64 59 65
REMARK SMILES IDX 43 66 44 67 52 68 45 69 46 70 50 71 53 72 47 73 48 74 51 75
REMARK SMILES IDX 49 76 75 77 76 78 84 79 77 80 78 81 82 82 85 83 79 84 80 85
REMARK SMILES IDX 83 86 81 87 60 88 61 89 69 90 62 91 63 92 67 93 70 94 64 95
REMARK SMILES IDX 65 96 68 97 66 98
REMARK H PARENT 90 51 58 62
REMARK Flexibility Score: inf
ROOT
ATOM      1  C   UNL A   1      38.778  23.382  26.229  1.00  0.00     0.188 C 
ENDROOT
BRANCH   1   2
ATOM      2  C   UNL A   1      37.362  23.055  25.703  1.00  0.00     0.188 C 
BRANCH   2   3
ATOM      3  O   UNL A   1      36.270  23.895  26.026  1.00  0.00    -0.376 OA
BRANCH   3   4
ATOM      4  C   UNL A   1      35.338  24.338  25.057  1.00  0.00     0.202 C 
BRANCH   4   5
ATOM      5  C   UNL A   1      35.066  23.632  23.731  1.00  0.00     0.261 C 
BRANCH   5   6
ATOM      6  O   UNL A   1      34.481  24.435  22.709  1.00  0.00    -0.459 OA
BRANCH   6   7
ATOM      7  C   UNL A   1      33.252  24.068  22.293  1.00  0.00     0.348 C 
ATOM      8  O   UNL A   1      32.769  22.949  22.398  1.00  0.00    -0.245 OA
BRANCH   7   9
ATOM      9  C   UNL A   1      32.462  25.241  21.821  1.00  0.00     0.137 C 
ATOM     10  C   UNL A   1      31.994  26.206  22.634  1.00  0.00     0.035 C 
BRANCH   9  11
ATOM     11  C   UNL A   1      32.665  25.436  20.327  1.00  0.00     0.107 C 
ATOM     12  N   UNL A   1      32.834  25.597  19.088  1.00  0.00    -0.192 NA
ENDBRANCH   9  11
BRANCH  10  13
ATOM     13  C   UNL A   1      32.052  26.203  24.113  1.00  0.00    -0.020 A 
ATOM     14  C   UNL A   1      32.505  27.350  24.768  1.00  0.00     0.008 A 
ATOM     15  C   UNL A   1      31.701  25.076  24.888  1.00  0.00     0.054 A 
ATOM     16  C   UNL A   1      32.532  27.398  26.163  1.00  0.00     0.004 A 
ATOM     17  C   UNL A   1      31.667  25.131  26.282  1.00  0.00     0.120 A 
ATOM     18  C   UNL A   1      32.096  26.302  26.911  1.00  0.00     0.046 A 
BRANCH  17  19
ATOM     19  O   UNL A   1      31.266  24.145  27.137  1.00  0.00    -0.490 OA
BRANCH  19  20
ATOM     20  C   UNL A   1      31.708  22.791  27.055  1.00  0.00     0.173 C 
ATOM     21  C   UNL A   1      31.659  22.141  25.681  1.00  0.00     0.045 C 
ATOM     22  C   UNL A   1      33.098  22.510  27.626  1.00  0.00     0.045 C 
ATOM     23  C   UNL A   1      32.638  20.983  25.773  1.00  0.00     0.004 C 
ATOM     24  C   UNL A   1      33.745  21.489  26.688  1.00  0.00     0.004 C 
ENDBRANCH  19  20
ENDBRANCH  17  19
ENDBRANCH  10  13
ENDBRANCH   7   9
ENDBRANCH   6   7
ENDBRANCH   5   6
ENDBRANCH   4   5
ENDBRANCH   3   4
ENDBRANCH   2   3
ENDBRANCH   1   2
BRANCH   1  25
ATOM     25  O   UNL A   1      39.785  22.400  26.086  1.00  0.00    -0.377 OA
BRANCH  25  26
ATOM     26  C   UNL A   1      40.384  21.818  27.235  1.00  0.00     0.188 C 
BRANCH  26  27
ATOM     27  C   UNL A   1      40.699  20.308  27.316  1.00  0.00     0.188 C 
BRANCH  27  28
ATOM     28  O   UNL A   1      42.035  19.982  27.635  1.00  0.00    -0.376 OA
BRANCH  28  29
ATOM     29  C   UNL A   1      42.501  18.664  27.406  1.00  0.00     0.202 C 
BRANCH  29  30
ATOM     30  C   UNL A   1      43.156  18.341  26.052  1.00  0.00     0.261 C 
BRANCH  30  31
ATOM     31  O   UNL A   1      43.231  19.418  25.107  1.00  0.00    -0.460 OA
BRANCH  31  32
ATOM     32  C   UNL A   1      44.423  19.642  24.520  1.00  0.00     0.338 C 
ATOM     33  O   UNL A   1      45.060  18.869  23.820  1.00  0.00    -0.246 OA
BRANCH  32  34
ATOM     34  C   UNL A   1      44.761  21.065  24.709  1.00  0.00     0.060 A 
ATOM     35  C   UNL A   1      45.843  21.409  25.532  1.00  0.00     0.016 A 
ATOM     36  C   UNL A   1      44.000  22.056  24.086  1.00  0.00     0.016 A 
ATOM     37  C   UNL A   1      46.139  22.750  25.772  1.00  0.00     0.010 A 
ATOM     38  C   UNL A   1      44.280  23.398  24.350  1.00  0.00     0.010 A 
ATOM     39  C   UNL A   1      45.323  23.748  25.227  1.00  0.00    -0.014 A 
BRANCH  39  40
ATOM     40  C   UNL A   1      45.403  25.129  25.757  1.00  0.00     0.031 A 
ATOM     41  C   UNL A   1      46.741  25.819  25.726  1.00  0.00     0.074 A 
ATOM     42  C   UNL A   1      44.321  25.764  26.239  1.00  0.00     0.049 A 
ATOM     43  N   UNL A   1      47.089  26.987  26.197  1.00  0.00    -0.248 NA
ATOM     44  C   UNL A   1      47.838  25.081  25.076  1.00  0.00     0.031 C 
ATOM     45  C   UNL A   1      42.965  25.223  26.267  1.00  0.00     0.029 A 
ATOM     46  N   UNL A   1      44.204  27.006  26.809  1.00  0.00    -0.354 N 
ATOM     47  C   UNL A   1      48.444  27.115  25.920  1.00  0.00     0.074 A 
ATOM     48  C   UNL A   1      48.862  25.900  25.259  1.00  0.00     0.031 C 
ATOM     49  C   UNL A   1      42.149  26.128  26.839  1.00  0.00     0.029 A 
ATOM     50  C   UNL A   1      42.935  27.290  27.253  1.00  0.00     0.049 A 
ATOM     51  H   UNL A   1      44.957  27.635  26.893  1.00  0.00     0.167 HD
ATOM     52  C   UNL A   1      49.265  28.157  26.193  1.00  0.00     0.037 A 
ATOM     53  C   UNL A   1      42.477  28.354  27.941  1.00  0.00     0.037 A 
ATOM     54  C   UNL A   1      48.840  29.368  26.844  1.00  0.00     0.049 A 
ATOM     55  C   UNL A   1      43.433  29.464  28.305  1.00  0.00     0.074 A 
ATOM     56  C   UNL A   1      49.586  30.495  27.137  1.00  0.00     0.029 A 
ATOM     57  N   UNL A   1      47.556  29.602  27.311  1.00  0.00    -0.354 N 
ATOM     58  N   UNL A   1      44.706  29.595  28.015  1.00  0.00    -0.248 NA
ATOM     59  C   UNL A   1      42.886  30.578  29.094  1.00  0.00     0.031 C 
ATOM     60  C   UNL A   1      48.772  31.383  27.845  1.00  0.00     0.029 A 
ATOM     61  C   UNL A   1      47.498  30.842  27.926  1.00  0.00     0.049 A 
ATOM     62  H   UNL A   1      46.798  28.980  27.221  1.00  0.00     0.167 HD
ATOM     63  C   UNL A   1      45.098  30.818  28.549  1.00  0.00     0.074 A 
ATOM     64  C   UNL A   1      43.925  31.395  29.170  1.00  0.00     0.031 C 
ATOM     65  C   UNL A   1      46.318  31.412  28.525  1.00  0.00     0.037 A 
BRANCH  52  66
ATOM     66  C   UNL A   1      50.715  28.018  25.828  1.00  0.00     0.064 A 
ATOM     67  C   UNL A   1      51.693  27.681  26.775  1.00  0.00     0.173 A 
ATOM     68  C   UNL A   1      51.122  28.184  24.496  1.00  0.00     0.173 A 
ATOM     69  F   UNL A   1      51.360  27.528  28.066  1.00  0.00    -0.203 F 
ATOM     70  C   UNL A   1      53.029  27.539  26.405  1.00  0.00     0.198 A 
ATOM     71  C   UNL A   1      52.451  28.008  24.123  1.00  0.00     0.198 A 
ATOM     72  F   UNL A   1      50.226  28.507  23.550  1.00  0.00    -0.203 F 
ATOM     73  F   UNL A   1      53.953  27.263  27.335  1.00  0.00    -0.200 F 
ATOM     74  C   UNL A   1      53.405  27.691  25.078  1.00  0.00     0.200 A 
ATOM     75  F   UNL A   1      52.809  28.142  22.838  1.00  0.00    -0.200 F 
ATOM     76  F   UNL A   1      54.687  27.540  24.722  1.00  0.00    -0.200 F 
ENDBRANCH  52  66
BRANCH  53  77
ATOM     77  C   UNL A   1      41.048  28.427  28.351  1.00  0.00     0.064 A 
ATOM     78  C   UNL A   1      40.076  28.958  27.490  1.00  0.00     0.173 A 
ATOM     79  C   UNL A   1      40.631  28.016  29.625  1.00  0.00     0.173 A 
ATOM     80  F   UNL A   1      40.428  29.391  26.270  1.00  0.00    -0.203 F 
ATOM     81  C   UNL A   1      38.752  29.102  27.898  1.00  0.00     0.198 A 
ATOM     82  C   UNL A   1      39.300  28.129  30.020  1.00  0.00     0.198 A 
ATOM     83  F   UNL A   1      41.519  27.506  30.491  1.00  0.00    -0.203 F 
ATOM     84  F   UNL A   1      37.859  29.671  27.078  1.00  0.00    -0.200 F 
ATOM     85  C   UNL A   1      38.364  28.684  29.162  1.00  0.00     0.200 A 
ATOM     86  F   UNL A   1      38.927  27.713  31.239  1.00  0.00    -0.200 F 
ATOM     87  F   UNL A   1      37.091  28.827  29.556  1.00  0.00    -0.200 F 
ENDBRANCH  53  77
BRANCH  65  88
ATOM     88  C   UNL A   1      46.439  32.779  29.137  1.00  0.00     0.064 A 
ATOM     89  C   UNL A   1      46.813  32.965  30.476  1.00  0.00     0.173 A 
ATOM     90  C   UNL A   1      46.221  33.925  28.353  1.00  0.00     0.173 A 
ATOM     91  F   UNL A   1      47.022  31.905  31.271  1.00  0.00    -0.203 F 
ATOM     92  C   UNL A   1      46.934  34.244  31.015  1.00  0.00     0.198 A 
ATOM     93  C   UNL A   1      46.380  35.201  28.886  1.00  0.00     0.198 A 
ATOM     94  F   UNL A   1      45.872  33.806  27.063  1.00  0.00    -0.203 F 
ATOM     95  F   UNL A   1      47.237  34.395  32.311  1.00  0.00    -0.200 F 
ATOM     96  C   UNL A   1      46.725  35.359  30.218  1.00  0.00     0.200 A 
ATOM     97  F   UNL A   1      46.198  36.277  28.108  1.00  0.00    -0.200 F 
ATOM     98  F   UNL A   1      46.853  36.589  30.737  1.00  0.00    -0.200 F 
ENDBRANCH  65  88
ENDBRANCH  39  40
ENDBRANCH  32  34
ENDBRANCH  31  32
ENDBRANCH  30  31
ENDBRANCH  29  30
ENDBRANCH  28  29
ENDBRANCH  27  28
ENDBRANCH  26  27
ENDBRANCH  25  26
ENDBRANCH   1  25
TORSDOF 24
ENDMDL
