MODEL 1
REMARK VINA RESULT:      -9.8      0.000      0.000
REMARK SMILES COc1cc(NS(=O)(=O)c2ccc(F)cc2)c(C(=O)OCCOCCOCCOCCOC(=O)c2ccc(-c3c4nc(c(-c5c(F)c(F)c(F)c(F)c5F)c5ccc([nH]5)c(-c5c(F)c(F)c(F)c(F)c5F)c5nc(c(-c6c(F)c(F)c(F)c(F)c6F)c6ccc3[nH]6)C=C5)C=C4)cc2)cc1OC
REMARK SMILES IDX 25 1 24 2 23 3 22 4 21 5 20 6 18 7 19 8 17 9 3 10 4 11 99 12
REMARK SMILES IDX 5 13 98 14 2 15 1 16 100 17 101 18 6 19 7 21 8 22 9 23 10 24
REMARK SMILES IDX 11 25 16 26 12 27 15 28 13 29 14 30 26 31 27 32 28 33 29 34
REMARK SMILES IDX 30 35 31 36 32 37 33 38 34 39 35 40 36 41 97 42 37 43 96 44
REMARK SMILES IDX 38 45 39 46 40 47 90 48 41 49 95 50 89 51 91 52 42 53 94 54
REMARK SMILES IDX 88 55 87 56 43 58 75 59 55 60 74 61 56 62 59 63 73 64 92 65
REMARK SMILES IDX 57 66 58 67 72 69 93 70 60 71 44 72 45 73 53 74 46 75 47 76
REMARK SMILES IDX 51 77 54 78 48 79 49 80 52 81 50 82 76 83 77 84 85 85 78 86
REMARK SMILES IDX 79 87 83 88 86 89 80 90 81 91 84 92 82 93 61 94 62 95 70 96
REMARK SMILES IDX 63 97 64 98 68 99 71 100 65 101 66 102 69 103 67 104
REMARK H PARENT 6 20 91 57 59 68
REMARK Flexibility Score: inf
ROOT
ATOM      1  C   UNL A   1      40.843  23.466  26.671  1.00  0.00     0.188 C 
ENDROOT
BRANCH   1   2
ATOM      2  C   UNL A   1      39.438  22.884  26.888  1.00  0.00     0.188 C 
BRANCH   2   3
ATOM      3  O   UNL A   1      38.942  22.181  25.745  1.00  0.00    -0.376 OA
BRANCH   3   4
ATOM      4  C   UNL A   1      37.527  22.075  25.643  1.00  0.00     0.202 C 
BRANCH   4   5
ATOM      5  C   UNL A   1      36.782  23.407  25.491  1.00  0.00     0.261 C 
BRANCH   5   6
ATOM      6  O   UNL A   1      35.393  23.307  25.144  1.00  0.00    -0.460 OA
BRANCH   6   7
ATOM      7  C   UNL A   1      34.567  22.633  25.969  1.00  0.00     0.340 C 
ATOM      8  O   UNL A   1      34.326  22.874  27.140  1.00  0.00    -0.246 OA
BRANCH   7   9
ATOM      9  C   UNL A   1      33.843  21.625  25.166  1.00  0.00     0.088 A 
ATOM     10  C   UNL A   1      32.525  19.664  23.701  1.00  0.00     0.162 A 
ATOM     11  C   UNL A   1      32.315  21.025  23.427  1.00  0.00     0.078 A 
ATOM     12  C   UNL A   1      33.465  19.268  24.649  1.00  0.00     0.161 A 
ATOM     13  C   UNL A   1      32.937  22.028  24.172  1.00  0.00     0.067 A 
ATOM     14  C   UNL A   1      34.128  20.263  25.371  1.00  0.00     0.068 A 
BRANCH  10  15
ATOM     15  O   UNL A   1      31.771  18.762  22.997  1.00  0.00    -0.493 OA
ATOM     16  C   UNL A   1      32.568  18.105  22.003  1.00  0.00     0.278 C 
ENDBRANCH  10  15
BRANCH  12  17
ATOM     17  O   UNL A   1      33.842  18.005  25.004  1.00  0.00    -0.493 OA
ATOM     18  C   UNL A   1      32.928  17.202  25.737  1.00  0.00     0.278 C 
ENDBRANCH  12  17
BRANCH  13  19
ATOM     19  N   UNL A   1      32.581  23.412  24.032  1.00  0.00    -0.279 N 
ATOM     20  H   UNL A   1      33.222  23.999  23.569  1.00  0.00     0.180 HD
BRANCH  19  21
ATOM     21  S   UNL A   1      31.163  24.110  24.591  1.00  0.00     0.261 S 
ATOM     22  O   UNL A   1      30.294  24.283  23.448  1.00  0.00    -0.201 OA
ATOM     23  O   UNL A   1      30.741  23.377  25.765  1.00  0.00    -0.201 OA
BRANCH  21  24
ATOM     24  C   UNL A   1      31.670  25.742  25.099  1.00  0.00     0.088 A 
ATOM     25  C   UNL A   1      31.547  26.105  26.447  1.00  0.00     0.025 A 
ATOM     26  C   UNL A   1      31.953  26.701  24.117  1.00  0.00     0.025 A 
ATOM     27  C   UNL A   1      31.638  27.450  26.801  1.00  0.00     0.040 A 
ATOM     28  C   UNL A   1      32.049  28.044  24.483  1.00  0.00     0.040 A 
ATOM     29  C   UNL A   1      31.871  28.406  25.816  1.00  0.00     0.123 A 
ATOM     30  F   UNL A   1      31.882  29.703  26.151  1.00  0.00    -0.207 F 
ENDBRANCH  21  24
ENDBRANCH  19  21
ENDBRANCH  13  19
ENDBRANCH   7   9
ENDBRANCH   6   7
ENDBRANCH   5   6
ENDBRANCH   4   5
ENDBRANCH   3   4
ENDBRANCH   2   3
ENDBRANCH   1   2
BRANCH   1  31
ATOM     31  O   UNL A   1      41.875  22.624  27.162  1.00  0.00    -0.377 OA
BRANCH  31  32
ATOM     32  C   UNL A   1      42.125  21.404  26.467  1.00  0.00     0.188 C 
BRANCH  32  33
ATOM     33  C   UNL A   1      43.393  21.204  25.609  1.00  0.00     0.188 C 
BRANCH  33  34
ATOM     34  O   UNL A   1      43.594  22.210  24.619  1.00  0.00    -0.376 OA
BRANCH  34  35
ATOM     35  C   UNL A   1      44.933  22.635  24.399  1.00  0.00     0.202 C 
BRANCH  35  36
ATOM     36  C   UNL A   1      45.821  22.510  25.643  1.00  0.00     0.261 C 
BRANCH  36  37
ATOM     37  O   UNL A   1      46.275  23.764  26.177  1.00  0.00    -0.460 OA
BRANCH  37  38
ATOM     38  C   UNL A   1      45.957  24.876  25.481  1.00  0.00     0.338 C 
ATOM     39  O   UNL A   1      46.226  25.132  24.322  1.00  0.00    -0.246 OA
BRANCH  38  40
ATOM     40  C   UNL A   1      45.052  25.684  26.317  1.00  0.00     0.060 A 
ATOM     41  C   UNL A   1      45.158  27.080  26.270  1.00  0.00     0.016 A 
ATOM     42  C   UNL A   1      44.115  25.066  27.149  1.00  0.00     0.016 A 
ATOM     43  C   UNL A   1      44.352  27.863  27.095  1.00  0.00     0.010 A 
ATOM     44  C   UNL A   1      43.323  25.849  27.987  1.00  0.00     0.010 A 
ATOM     45  C   UNL A   1      43.465  27.247  27.989  1.00  0.00    -0.014 A 
BRANCH  45  46
ATOM     46  C   UNL A   1      42.843  28.039  29.073  1.00  0.00     0.031 A 
ATOM     47  C   UNL A   1      43.572  28.140  30.384  1.00  0.00     0.074 A 
ATOM     48  C   UNL A   1      41.656  28.646  28.904  1.00  0.00     0.049 A 
ATOM     49  N   UNL A   1      43.212  28.730  31.494  1.00  0.00    -0.248 NA
ATOM     50  C   UNL A   1      44.887  27.481  30.450  1.00  0.00     0.031 C 
ATOM     51  C   UNL A   1      40.869  28.640  27.675  1.00  0.00     0.029 A 
ATOM     52  N   UNL A   1      40.902  29.378  29.787  1.00  0.00    -0.354 N 
ATOM     53  C   UNL A   1      44.254  28.515  32.386  1.00  0.00     0.074 A 
ATOM     54  C   UNL A   1      45.246  27.716  31.702  1.00  0.00     0.031 C 
ATOM     55  C   UNL A   1      39.730  29.324  27.885  1.00  0.00     0.029 A 
ATOM     56  C   UNL A   1      39.700  29.792  29.269  1.00  0.00     0.049 A 
ATOM     57  H   UNL A   1      41.195  29.586  30.703  1.00  0.00     0.167 HD
ATOM     58  C   UNL A   1      44.376  28.953  33.660  1.00  0.00     0.037 A 
ATOM     59  C   UNL A   1      38.688  30.458  29.860  1.00  0.00     0.037 A 
ATOM     60  C   UNL A   1      43.384  29.735  34.345  1.00  0.00     0.049 A 
ATOM     61  C   UNL A   1      38.818  30.873  31.304  1.00  0.00     0.074 A 
ATOM     62  C   UNL A   1      43.419  30.238  35.633  1.00  0.00     0.029 A 
ATOM     63  N   UNL A   1      42.171  30.120  33.795  1.00  0.00    -0.354 N 
ATOM     64  N   UNL A   1      39.821  30.699  32.130  1.00  0.00    -0.248 NA
ATOM     65  C   UNL A   1      37.673  31.580  31.896  1.00  0.00     0.031 C 
ATOM     66  C   UNL A   1      42.205  30.891  35.878  1.00  0.00     0.029 A 
ATOM     67  C   UNL A   1      41.437  30.835  34.726  1.00  0.00     0.049 A 
ATOM     68  H   UNL A   1      41.875  29.915  32.878  1.00  0.00     0.167 HD
ATOM     69  C   UNL A   1      39.442  31.299  33.325  1.00  0.00     0.074 A 
ATOM     70  C   UNL A   1      38.120  31.850  33.114  1.00  0.00     0.031 C 
ATOM     71  C   UNL A   1      40.127  31.386  34.493  1.00  0.00     0.037 A 
BRANCH  58  72
ATOM     72  C   UNL A   1      45.622  28.572  34.400  1.00  0.00     0.064 A 
ATOM     73  C   UNL A   1      45.698  27.385  35.144  1.00  0.00     0.173 A 
ATOM     74  C   UNL A   1      46.758  29.394  34.352  1.00  0.00     0.173 A 
ATOM     75  F   UNL A   1      44.632  26.577  35.237  1.00  0.00    -0.203 F 
ATOM     76  C   UNL A   1      46.861  27.046  35.830  1.00  0.00     0.198 A 
ATOM     77  C   UNL A   1      47.927  29.037  35.018  1.00  0.00     0.198 A 
ATOM     78  F   UNL A   1      46.733  30.540  33.656  1.00  0.00    -0.203 F 
ATOM     79  F   UNL A   1      46.899  25.928  36.570  1.00  0.00    -0.200 F 
ATOM     80  C   UNL A   1      47.976  27.868  35.761  1.00  0.00     0.200 A 
ATOM     81  F   UNL A   1      49.005  29.830  34.944  1.00  0.00    -0.200 F 
ATOM     82  F   UNL A   1      49.096  27.537  36.418  1.00  0.00    -0.200 F 
ENDBRANCH  58  72
BRANCH  59  83
ATOM     83  C   UNL A   1      37.453  30.768  29.094  1.00  0.00     0.064 A 
ATOM     84  C   UNL A   1      37.171  32.077  28.679  1.00  0.00     0.173 A 
ATOM     85  C   UNL A   1      36.517  29.769  28.789  1.00  0.00     0.173 A 
ATOM     86  F   UNL A   1      38.022  33.070  28.973  1.00  0.00    -0.203 F 
ATOM     87  C   UNL A   1      35.990  32.379  28.004  1.00  0.00     0.198 A 
ATOM     88  C   UNL A   1      35.348  30.068  28.093  1.00  0.00     0.198 A 
ATOM     89  F   UNL A   1      36.737  28.502  29.170  1.00  0.00    -0.203 F 
ATOM     90  F   UNL A   1      35.722  33.646  27.663  1.00  0.00    -0.200 F 
ATOM     91  C   UNL A   1      35.081  31.373  27.708  1.00  0.00     0.200 A 
ATOM     92  F   UNL A   1      34.476  29.093  27.802  1.00  0.00    -0.200 F 
ATOM     93  F   UNL A   1      33.944  31.664  27.062  1.00  0.00    -0.200 F 
ENDBRANCH  59  83
BRANCH  71  94
ATOM     94  C   UNL A   1      39.480  32.135  35.619  1.00  0.00     0.064 A 
ATOM     95  C   UNL A   1      39.685  33.510  35.802  1.00  0.00     0.173 A 
ATOM     96  C   UNL A   1      38.601  31.479  36.495  1.00  0.00     0.173 A 
ATOM     97  F   UNL A   1      40.526  34.180  35.001  1.00  0.00    -0.203 F 
ATOM     98  C   UNL A   1      39.049  34.196  36.834  1.00  0.00     0.198 A 
ATOM     99  C   UNL A   1      37.947  32.173  37.507  1.00  0.00     0.198 A 
ATOM    100  F   UNL A   1      38.365  30.164  36.356  1.00  0.00    -0.203 F 
ATOM    101  F   UNL A   1      39.290  35.502  37.016  1.00  0.00    -0.200 F 
ATOM    102  C   UNL A   1      38.175  33.529  37.680  1.00  0.00     0.200 A 
ATOM    103  F   UNL A   1      37.093  31.530  38.315  1.00  0.00    -0.200 F 
ATOM    104  F   UNL A   1      37.557  34.193  38.666  1.00  0.00    -0.200 F 
ENDBRANCH  71  94
ENDBRANCH  45  46
ENDBRANCH  38  40
ENDBRANCH  37  38
ENDBRANCH  36  37
ENDBRANCH  35  36
ENDBRANCH  34  35
ENDBRANCH  33  34
ENDBRANCH  32  33
ENDBRANCH  31  32
ENDBRANCH   1  31
TORSDOF 25
ENDMDL
MODEL 2
REMARK VINA RESULT:      -9.7      1.671      7.166
REMARK SMILES COc1cc(NS(=O)(=O)c2ccc(F)cc2)c(C(=O)OCCOCCOCCOCCOC(=O)c2ccc(-c3c4nc(c(-c5c(F)c(F)c(F)c(F)c5F)c5ccc([nH]5)c(-c5c(F)c(F)c(F)c(F)c5F)c5nc(c(-c6c(F)c(F)c(F)c(F)c6F)c6ccc3[nH]6)C=C5)C=C4)cc2)cc1OC
REMARK SMILES IDX 25 1 24 2 23 3 22 4 21 5 20 6 18 7 19 8 17 9 3 10 4 11 99 12
REMARK SMILES IDX 5 13 98 14 2 15 1 16 100 17 101 18 6 19 7 21 8 22 9 23 10 24
REMARK SMILES IDX 11 25 16 26 12 27 15 28 13 29 14 30 26 31 27 32 28 33 29 34
REMARK SMILES IDX 30 35 31 36 32 37 33 38 34 39 35 40 36 41 97 42 37 43 96 44
REMARK SMILES IDX 38 45 39 46 40 47 90 48 41 49 95 50 89 51 91 52 42 53 94 54
REMARK SMILES IDX 88 55 87 56 43 58 75 59 55 60 74 61 56 62 59 63 73 64 92 65
REMARK SMILES IDX 57 66 58 67 72 69 93 70 60 71 44 72 45 73 53 74 46 75 47 76
REMARK SMILES IDX 51 77 54 78 48 79 49 80 52 81 50 82 76 83 77 84 85 85 78 86
REMARK SMILES IDX 79 87 83 88 86 89 80 90 81 91 84 92 82 93 61 94 62 95 70 96
REMARK SMILES IDX 63 97 64 98 68 99 71 100 65 101 66 102 69 103 67 104
REMARK H PARENT 6 20 91 57 59 68
REMARK Flexibility Score: inf
ROOT
ATOM      1  C   UNL A   1      39.312  23.447  26.332  1.00  0.00     0.188 C 
ENDROOT
BRANCH   1   2
ATOM      2  C   UNL A   1      37.960  22.749  26.118  1.00  0.00     0.188 C 
BRANCH   2   3
ATOM      3  O   UNL A   1      37.982  21.811  25.038  1.00  0.00    -0.376 OA
BRANCH   3   4
ATOM      4  C   UNL A   1      36.798  21.735  24.253  1.00  0.00     0.202 C 
BRANCH   4   5
ATOM      5  C   UNL A   1      36.497  22.976  23.403  1.00  0.00     0.261 C 
BRANCH   5   6
ATOM      6  O   UNL A   1      35.118  23.365  23.336  1.00  0.00    -0.460 OA
BRANCH   6   7
ATOM      7  C   UNL A   1      34.626  24.175  24.294  1.00  0.00     0.340 C 
ATOM      8  O   UNL A   1      35.048  25.269  24.630  1.00  0.00    -0.246 OA
BRANCH   7   9
ATOM      9  C   UNL A   1      33.356  23.594  24.775  1.00  0.00     0.088 A 
ATOM     10  C   UNL A   1      31.007  22.420  25.688  1.00  0.00     0.162 A 
ATOM     11  C   UNL A   1      31.032  23.773  25.312  1.00  0.00     0.078 A 
ATOM     12  C   UNL A   1      32.132  21.617  25.525  1.00  0.00     0.161 A 
ATOM     13  C   UNL A   1      32.207  24.394  24.886  1.00  0.00     0.067 A 
ATOM     14  C   UNL A   1      33.303  22.216  25.055  1.00  0.00     0.068 A 
BRANCH  10  15
ATOM     15  O   UNL A   1      29.836  21.939  26.212  1.00  0.00    -0.493 OA
ATOM     16  C   UNL A   1      29.396  22.757  27.304  1.00  0.00     0.278 C 
ENDBRANCH  10  15
BRANCH  12  17
ATOM     17  O   UNL A   1      32.276  20.283  25.777  1.00  0.00    -0.493 OA
ATOM     18  C   UNL A   1      33.260  19.556  25.058  1.00  0.00     0.278 C 
ENDBRANCH  12  17
BRANCH  13  19
ATOM     19  N   UNL A   1      32.289  25.814  24.689  1.00  0.00    -0.279 N 
ATOM     20  H   UNL A   1      32.342  26.380  25.492  1.00  0.00     0.180 HD
BRANCH  19  21
ATOM     21  S   UNL A   1      32.304  26.586  23.200  1.00  0.00     0.261 S 
ATOM     22  O   UNL A   1      33.436  27.486  23.199  1.00  0.00    -0.201 OA
ATOM     23  O   UNL A   1      32.130  25.579  22.177  1.00  0.00    -0.201 OA
BRANCH  21  24
ATOM     24  C   UNL A   1      30.842  27.605  23.241  1.00  0.00     0.088 A 
ATOM     25  C   UNL A   1      29.637  27.050  23.694  1.00  0.00     0.025 A 
ATOM     26  C   UNL A   1      30.865  28.853  22.604  1.00  0.00     0.025 A 
ATOM     27  C   UNL A   1      28.441  27.720  23.442  1.00  0.00     0.040 A 
ATOM     28  C   UNL A   1      29.664  29.519  22.363  1.00  0.00     0.040 A 
ATOM     29  C   UNL A   1      28.464  28.937  22.765  1.00  0.00     0.123 A 
ATOM     30  F   UNL A   1      27.306  29.538  22.459  1.00  0.00    -0.207 F 
ENDBRANCH  21  24
ENDBRANCH  19  21
ENDBRANCH  13  19
ENDBRANCH   7   9
ENDBRANCH   6   7
ENDBRANCH   5   6
ENDBRANCH   4   5
ENDBRANCH   3   4
ENDBRANCH   2   3
ENDBRANCH   1   2
BRANCH   1  31
ATOM     31  O   UNL A   1      40.127  22.795  27.294  1.00  0.00    -0.377 OA
BRANCH  31  32
ATOM     32  C   UNL A   1      40.459  21.428  27.065  1.00  0.00     0.188 C 
BRANCH  32  33
ATOM     33  C   UNL A   1      41.762  21.018  26.344  1.00  0.00     0.188 C 
BRANCH  33  34
ATOM     34  O   UNL A   1      42.249  21.988  25.421  1.00  0.00    -0.376 OA
BRANCH  34  35
ATOM     35  C   UNL A   1      43.658  22.053  25.240  1.00  0.00     0.202 C 
BRANCH  35  36
ATOM     36  C   UNL A   1      44.416  22.433  26.518  1.00  0.00     0.261 C 
BRANCH  36  37
ATOM     37  O   UNL A   1      45.112  23.688  26.444  1.00  0.00    -0.460 OA
BRANCH  37  38
ATOM     38  C   UNL A   1      44.518  24.676  25.741  1.00  0.00     0.338 C 
ATOM     39  O   UNL A   1      44.457  24.797  24.531  1.00  0.00    -0.246 OA
BRANCH  38  40
ATOM     40  C   UNL A   1      43.780  25.523  26.694  1.00  0.00     0.060 A 
ATOM     41  C   UNL A   1      44.143  26.870  26.820  1.00  0.00     0.016 A 
ATOM     42  C   UNL A   1      42.746  24.987  27.465  1.00  0.00     0.016 A 
ATOM     43  C   UNL A   1      43.498  27.677  27.756  1.00  0.00     0.010 A 
ATOM     44  C   UNL A   1      42.114  25.789  28.414  1.00  0.00     0.010 A 
ATOM     45  C   UNL A   1      42.513  27.125  28.587  1.00  0.00    -0.014 A 
BRANCH  45  46
ATOM     46  C   UNL A   1      42.050  27.874  29.778  1.00  0.00     0.031 A 
ATOM     47  C   UNL A   1      40.792  28.687  29.658  1.00  0.00     0.074 A 
ATOM     48  C   UNL A   1      42.734  27.841  30.934  1.00  0.00     0.049 A 
ATOM     49  N   UNL A   1      40.214  29.463  30.537  1.00  0.00    -0.248 NA
ATOM     50  C   UNL A   1      40.092  28.616  28.364  1.00  0.00     0.031 C 
ATOM     51  C   UNL A   1      43.950  27.071  31.177  1.00  0.00     0.029 A 
ATOM     52  N   UNL A   1      42.498  28.490  32.120  1.00  0.00    -0.354 N 
ATOM     53  C   UNL A   1      39.086  29.968  29.906  1.00  0.00     0.074 A 
ATOM     54  C   UNL A   1      39.073  29.438  28.561  1.00  0.00     0.031 C 
ATOM     55  C   UNL A   1      44.367  27.305  32.435  1.00  0.00     0.029 A 
ATOM     56  C   UNL A   1      43.460  28.258  33.072  1.00  0.00     0.049 A 
ATOM     57  H   UNL A   1      41.716  29.066  32.274  1.00  0.00     0.167 HD
ATOM     58  C   UNL A   1      38.139  30.795  30.407  1.00  0.00     0.037 A 
ATOM     59  C   UNL A   1      43.595  28.776  34.309  1.00  0.00     0.037 A 
ATOM     60  C   UNL A   1      38.158  31.333  31.740  1.00  0.00     0.049 A 
ATOM     61  C   UNL A   1      42.564  29.751  34.819  1.00  0.00     0.074 A 
ATOM     62  C   UNL A   1      37.239  32.170  32.347  1.00  0.00     0.029 A 
ATOM     63  N   UNL A   1      39.158  31.090  32.670  1.00  0.00    -0.354 N 
ATOM     64  N   UNL A   1      41.480  30.197  34.230  1.00  0.00    -0.248 NA
ATOM     65  C   UNL A   1      42.776  30.295  36.168  1.00  0.00     0.031 C 
ATOM     66  C   UNL A   1      37.706  32.470  33.631  1.00  0.00     0.029 A 
ATOM     67  C   UNL A   1      38.891  31.781  33.839  1.00  0.00     0.049 A 
ATOM     68  H   UNL A   1      39.942  30.513  32.520  1.00  0.00     0.167 HD
ATOM     69  C   UNL A   1      40.868  31.045  35.145  1.00  0.00     0.074 A 
ATOM     70  C   UNL A   1      41.697  31.046  36.333  1.00  0.00     0.031 C 
ATOM     71  C   UNL A   1      39.722  31.759  35.015  1.00  0.00     0.037 A 
BRANCH  58  72
ATOM     72  C   UNL A   1      37.015  31.183  29.496  1.00  0.00     0.064 A 
ATOM     73  C   UNL A   1      35.994  30.280  29.165  1.00  0.00     0.173 A 
ATOM     74  C   UNL A   1      36.947  32.479  28.962  1.00  0.00     0.173 A 
ATOM     75  F   UNL A   1      36.026  29.024  29.634  1.00  0.00    -0.203 F 
ATOM     76  C   UNL A   1      34.957  30.654  28.315  1.00  0.00     0.198 A 
ATOM     77  C   UNL A   1      35.894  32.856  28.134  1.00  0.00     0.198 A 
ATOM     78  F   UNL A   1      37.900  33.378  29.248  1.00  0.00    -0.203 F 
ATOM     79  F   UNL A   1      34.015  29.762  27.977  1.00  0.00    -0.200 F 
ATOM     80  C   UNL A   1      34.904  31.943  27.806  1.00  0.00     0.200 A 
ATOM     81  F   UNL A   1      35.841  34.105  27.649  1.00  0.00    -0.200 F 
ATOM     82  F   UNL A   1      33.903  32.303  26.992  1.00  0.00    -0.200 F 
ENDBRANCH  58  72
BRANCH  59  83
ATOM     83  C   UNL A   1      44.755  28.395  35.154  1.00  0.00     0.064 A 
ATOM     84  C   UNL A   1      45.929  29.161  35.157  1.00  0.00     0.173 A 
ATOM     85  C   UNL A   1      44.727  27.240  35.950  1.00  0.00     0.173 A 
ATOM     86  F   UNL A   1      46.014  30.257  34.390  1.00  0.00    -0.203 F 
ATOM     87  C   UNL A   1      47.036  28.778  35.910  1.00  0.00     0.198 A 
ATOM     88  C   UNL A   1      45.826  26.872  36.722  1.00  0.00     0.198 A 
ATOM     89  F   UNL A   1      43.629  26.469  35.976  1.00  0.00    -0.203 F 
ATOM     90  F   UNL A   1      48.163  29.502  35.857  1.00  0.00    -0.200 F 
ATOM     91  C   UNL A   1      46.983  27.635  36.695  1.00  0.00     0.200 A 
ATOM     92  F   UNL A   1      45.768  25.771  37.485  1.00  0.00    -0.200 F 
ATOM     93  F   UNL A   1      48.049  27.265  37.417  1.00  0.00    -0.200 F 
ENDBRANCH  59  83
BRANCH  71  94
ATOM     94  C   UNL A   1      39.275  32.570  36.195  1.00  0.00     0.064 A 
ATOM     95  C   UNL A   1      38.413  32.041  37.166  1.00  0.00     0.173 A 
ATOM     96  C   UNL A   1      39.757  33.874  36.383  1.00  0.00     0.173 A 
ATOM     97  F   UNL A   1      37.914  30.804  37.025  1.00  0.00    -0.203 F 
ATOM     98  C   UNL A   1      38.035  32.796  38.273  1.00  0.00     0.198 A 
ATOM     99  C   UNL A   1      39.399  34.616  37.504  1.00  0.00     0.198 A 
ATOM    100  F   UNL A   1      40.591  34.422  35.485  1.00  0.00    -0.203 F 
ATOM    101  F   UNL A   1      37.180  32.286  39.170  1.00  0.00    -0.200 F 
ATOM    102  C   UNL A   1      38.534  34.080  38.445  1.00  0.00     0.200 A 
ATOM    103  F   UNL A   1      39.892  35.850  37.675  1.00  0.00    -0.200 F 
ATOM    104  F   UNL A   1      38.176  34.802  39.516  1.00  0.00    -0.200 F 
ENDBRANCH  71  94
ENDBRANCH  45  46
ENDBRANCH  38  40
ENDBRANCH  37  38
ENDBRANCH  36  37
ENDBRANCH  35  36
ENDBRANCH  34  35
ENDBRANCH  33  34
ENDBRANCH  32  33
ENDBRANCH  31  32
ENDBRANCH   1  31
TORSDOF 25
ENDMDL
MODEL 3
REMARK VINA RESULT:      -9.6      6.229     12.664
REMARK SMILES COc1cc(NS(=O)(=O)c2ccc(F)cc2)c(C(=O)OCCOCCOCCOCCOC(=O)c2ccc(-c3c4nc(c(-c5c(F)c(F)c(F)c(F)c5F)c5ccc([nH]5)c(-c5c(F)c(F)c(F)c(F)c5F)c5nc(c(-c6c(F)c(F)c(F)c(F)c6F)c6ccc3[nH]6)C=C5)C=C4)cc2)cc1OC
REMARK SMILES IDX 25 1 24 2 23 3 22 4 21 5 20 6 18 7 19 8 17 9 3 10 4 11 99 12
REMARK SMILES IDX 5 13 98 14 2 15 1 16 100 17 101 18 6 19 7 21 8 22 9 23 10 24
REMARK SMILES IDX 11 25 16 26 12 27 15 28 13 29 14 30 26 31 27 32 28 33 29 34
REMARK SMILES IDX 30 35 31 36 32 37 33 38 34 39 35 40 36 41 97 42 37 43 96 44
REMARK SMILES IDX 38 45 39 46 40 47 90 48 41 49 95 50 89 51 91 52 42 53 94 54
REMARK SMILES IDX 88 55 87 56 43 58 75 59 55 60 74 61 56 62 59 63 73 64 92 65
REMARK SMILES IDX 57 66 58 67 72 69 93 70 60 71 44 72 45 73 53 74 46 75 47 76
REMARK SMILES IDX 51 77 54 78 48 79 49 80 52 81 50 82 76 83 77 84 85 85 78 86
REMARK SMILES IDX 79 87 83 88 86 89 80 90 81 91 84 92 82 93 61 94 62 95 70 96
REMARK SMILES IDX 63 97 64 98 68 99 71 100 65 101 66 102 69 103 67 104
REMARK H PARENT 6 20 91 57 59 68
REMARK Flexibility Score: inf
ROOT
ATOM      1  C   UNL A   1      37.395  31.819  38.759  1.00  0.00     0.188 C 
ENDROOT
BRANCH   1   2
ATOM      2  C   UNL A   1      38.167  32.342  37.537  1.00  0.00     0.188 C 
BRANCH   2   3
ATOM      3  O   UNL A   1      38.967  31.336  36.910  1.00  0.00    -0.376 OA
BRANCH   3   4
ATOM      4  C   UNL A   1      38.732  31.125  35.523  1.00  0.00     0.202 C 
BRANCH   4   5
ATOM      5  C   UNL A   1      37.731  32.090  34.877  1.00  0.00     0.261 C 
BRANCH   5   6
ATOM      6  O   UNL A   1      37.344  31.777  33.531  1.00  0.00    -0.460 OA
BRANCH   6   7
ATOM      7  C   UNL A   1      37.764  32.581  32.534  1.00  0.00     0.340 C 
ATOM      8  O   UNL A   1      38.913  32.803  32.191  1.00  0.00    -0.246 OA
BRANCH   7   9
ATOM      9  C   UNL A   1      36.574  33.035  31.783  1.00  0.00     0.088 A 
ATOM     10  C   UNL A   1      34.324  33.953  30.434  1.00  0.00     0.162 A 
ATOM     11  C   UNL A   1      35.038  32.840  29.961  1.00  0.00     0.078 A 
ATOM     12  C   UNL A   1      34.674  34.562  31.636  1.00  0.00     0.161 A 
ATOM     13  C   UNL A   1      36.192  32.383  30.600  1.00  0.00     0.067 A 
ATOM     14  C   UNL A   1      35.800  34.085  32.309  1.00  0.00     0.068 A 
BRANCH  10  15
ATOM     15  O   UNL A   1      33.281  34.399  29.665  1.00  0.00    -0.493 OA
ATOM     16  C   UNL A   1      33.723  35.409  28.749  1.00  0.00     0.278 C 
ENDBRANCH  10  15
BRANCH  12  17
ATOM     17  O   UNL A   1      34.068  35.606  32.275  1.00  0.00    -0.493 OA
ATOM     18  C   UNL A   1      34.367  35.832  33.644  1.00  0.00     0.278 C 
ENDBRANCH  12  17
BRANCH  13  19
ATOM     19  N   UNL A   1      37.035  31.376  30.019  1.00  0.00    -0.279 N 
ATOM     20  H   UNL A   1      37.878  31.675  29.609  1.00  0.00     0.180 HD
BRANCH  19  21
ATOM     21  S   UNL A   1      36.700  29.734  29.985  1.00  0.00     0.261 S 
ATOM     22  O   UNL A   1      36.381  29.336  31.338  1.00  0.00    -0.201 OA
ATOM     23  O   UNL A   1      35.793  29.489  28.885  1.00  0.00    -0.201 OA
BRANCH  21  24
ATOM     24  C   UNL A   1      38.273  28.993  29.592  1.00  0.00     0.088 A 
ATOM     25  C   UNL A   1      38.426  28.328  28.367  1.00  0.00     0.025 A 
ATOM     26  C   UNL A   1      39.242  28.881  30.599  1.00  0.00     0.025 A 
ATOM     27  C   UNL A   1      39.523  27.489  28.181  1.00  0.00     0.040 A 
ATOM     28  C   UNL A   1      40.339  28.044  30.399  1.00  0.00     0.040 A 
ATOM     29  C   UNL A   1      40.458  27.342  29.202  1.00  0.00     0.123 A 
ATOM     30  F   UNL A   1      41.469  26.476  29.045  1.00  0.00    -0.207 F 
ENDBRANCH  21  24
ENDBRANCH  19  21
ENDBRANCH  13  19
ENDBRANCH   7   9
ENDBRANCH   6   7
ENDBRANCH   5   6
ENDBRANCH   4   5
ENDBRANCH   3   4
ENDBRANCH   2   3
ENDBRANCH   1   2
BRANCH   1  31
ATOM     31  O   UNL A   1      36.583  32.810  39.368  1.00  0.00    -0.377 OA
BRANCH  31  32
ATOM     32  C   UNL A   1      36.326  32.691  40.766  1.00  0.00     0.188 C 
BRANCH  32  33
ATOM     33  C   UNL A   1      36.937  33.673  41.790  1.00  0.00     0.188 C 
BRANCH  33  34
ATOM     34  O   UNL A   1      37.735  34.702  41.210  1.00  0.00    -0.376 OA
BRANCH  34  35
ATOM     35  C   UNL A   1      39.145  34.577  41.349  1.00  0.00     0.202 C 
BRANCH  35  36
ATOM     36  C   UNL A   1      39.881  34.502  40.006  1.00  0.00     0.261 C 
BRANCH  36  37
ATOM     37  O   UNL A   1      39.527  35.538  39.076  1.00  0.00    -0.460 OA
BRANCH  37  38
ATOM     38  C   UNL A   1      40.527  36.332  38.637  1.00  0.00     0.338 C 
ATOM     39  O   UNL A   1      41.023  37.288  39.203  1.00  0.00    -0.246 OA
BRANCH  38  40
ATOM     40  C   UNL A   1      41.060  35.737  37.398  1.00  0.00     0.060 A 
ATOM     41  C   UNL A   1      40.164  35.373  36.385  1.00  0.00     0.016 A 
ATOM     42  C   UNL A   1      42.433  35.531  37.245  1.00  0.00     0.016 A 
ATOM     43  C   UNL A   1      40.639  34.756  35.229  1.00  0.00     0.010 A 
ATOM     44  C   UNL A   1      42.906  34.898  36.097  1.00  0.00     0.010 A 
ATOM     45  C   UNL A   1      42.007  34.475  35.103  1.00  0.00    -0.014 A 
BRANCH  45  46
ATOM     46  C   UNL A   1      42.475  33.555  34.042  1.00  0.00     0.031 A 
ATOM     47  C   UNL A   1      42.767  34.129  32.685  1.00  0.00     0.074 A 
ATOM     48  C   UNL A   1      42.629  32.241  34.275  1.00  0.00     0.049 A 
ATOM     49  N   UNL A   1      43.138  33.525  31.586  1.00  0.00    -0.248 NA
ATOM     50  C   UNL A   1      42.614  35.588  32.548  1.00  0.00     0.031 C 
ATOM     51  C   UNL A   1      42.402  31.574  35.553  1.00  0.00     0.029 A 
ATOM     52  N   UNL A   1      43.005  31.230  33.426  1.00  0.00    -0.354 N 
ATOM     53  C   UNL A   1      43.265  34.527  30.633  1.00  0.00     0.074 A 
ATOM     54  C   UNL A   1      42.903  35.773  31.269  1.00  0.00     0.031 C 
ATOM     55  C   UNL A   1      42.627  30.257  35.402  1.00  0.00     0.029 A 
ATOM     56  C   UNL A   1      42.990  29.988  34.012  1.00  0.00     0.049 A 
ATOM     57  H   UNL A   1      43.260  31.380  32.488  1.00  0.00     0.167 HD
ATOM     58  C   UNL A   1      43.658  34.416  29.343  1.00  0.00     0.037 A 
ATOM     59  C   UNL A   1      43.225  28.776  33.473  1.00  0.00     0.037 A 
ATOM     60  C   UNL A   1      44.005  33.176  28.706  1.00  0.00     0.049 A 
ATOM     61  C   UNL A   1      43.592  28.672  32.014  1.00  0.00     0.074 A 
ATOM     62  C   UNL A   1      44.427  32.960  27.406  1.00  0.00     0.029 A 
ATOM     63  N   UNL A   1      43.960  31.936  29.326  1.00  0.00    -0.354 N 
ATOM     64  N   UNL A   1      43.746  29.626  31.128  1.00  0.00    -0.248 NA
ATOM     65  C   UNL A   1      43.818  27.321  31.482  1.00  0.00     0.031 C 
ATOM     66  C   UNL A   1      44.595  31.583  27.227  1.00  0.00     0.029 A 
ATOM     67  C   UNL A   1      44.324  30.947  28.428  1.00  0.00     0.049 A 
ATOM     68  H   UNL A   1      43.707  31.782  30.265  1.00  0.00     0.167 HD
ATOM     69  C   UNL A   1      44.116  28.995  29.946  1.00  0.00     0.074 A 
ATOM     70  C   UNL A   1      44.172  27.577  30.230  1.00  0.00     0.031 C 
ATOM     71  C   UNL A   1      44.386  29.541  28.734  1.00  0.00     0.037 A 
BRANCH  58  72
ATOM     72  C   UNL A   1      43.709  35.675  28.531  1.00  0.00     0.064 A 
ATOM     73  C   UNL A   1      44.905  36.388  28.360  1.00  0.00     0.173 A 
ATOM     74  C   UNL A   1      42.555  36.164  27.903  1.00  0.00     0.173 A 
ATOM     75  F   UNL A   1      46.031  35.971  28.958  1.00  0.00    -0.203 F 
ATOM     76  C   UNL A   1      44.938  37.557  27.605  1.00  0.00     0.198 A 
ATOM     77  C   UNL A   1      42.598  37.319  27.128  1.00  0.00     0.198 A 
ATOM     78  F   UNL A   1      41.387  35.518  28.038  1.00  0.00    -0.203 F 
ATOM     79  F   UNL A   1      46.082  38.247  27.489  1.00  0.00    -0.200 F 
ATOM     80  C   UNL A   1      43.786  38.018  26.984  1.00  0.00     0.200 A 
ATOM     81  F   UNL A   1      41.485  37.758  26.523  1.00  0.00    -0.200 F 
ATOM     82  F   UNL A   1      43.820  39.140  26.254  1.00  0.00    -0.200 F 
ENDBRANCH  58  72
BRANCH  59  83
ATOM     83  C   UNL A   1      43.113  27.554  34.311  1.00  0.00     0.064 A 
ATOM     84  C   UNL A   1      44.240  26.998  34.931  1.00  0.00     0.173 A 
ATOM     85  C   UNL A   1      41.883  26.901  34.484  1.00  0.00     0.173 A 
ATOM     86  F   UNL A   1      45.442  27.570  34.770  1.00  0.00    -0.203 F 
ATOM     87  C   UNL A   1      44.146  25.824  35.676  1.00  0.00     0.198 A 
ATOM     88  C   UNL A   1      41.786  25.742  35.250  1.00  0.00     0.198 A 
ATOM     89  F   UNL A   1      40.776  27.390  33.906  1.00  0.00    -0.203 F 
ATOM     90  F   UNL A   1      45.248  25.287  36.216  1.00  0.00    -0.200 F 
ATOM     91  C   UNL A   1      42.918  25.199  35.838  1.00  0.00     0.200 A 
ATOM     92  F   UNL A   1      40.597  25.145  35.411  1.00  0.00    -0.200 F 
ATOM     93  F   UNL A   1      42.829  24.069  36.552  1.00  0.00    -0.200 F 
ENDBRANCH  59  83
BRANCH  71  94
ATOM     94  C   UNL A   1      44.803  28.610  27.634  1.00  0.00     0.064 A 
ATOM     95  C   UNL A   1      43.871  28.054  26.748  1.00  0.00     0.173 A 
ATOM     96  C   UNL A   1      46.160  28.313  27.434  1.00  0.00     0.173 A 
ATOM     97  F   UNL A   1      42.561  28.296  26.906  1.00  0.00    -0.203 F 
ATOM     98  C   UNL A   1      44.279  27.218  25.712  1.00  0.00     0.198 A 
ATOM     99  C   UNL A   1      46.567  27.500  26.382  1.00  0.00     0.198 A 
ATOM    100  F   UNL A   1      47.093  28.828  28.251  1.00  0.00    -0.203 F 
ATOM    101  F   UNL A   1      43.368  26.666  24.899  1.00  0.00    -0.200 F 
ATOM    102  C   UNL A   1      45.627  26.948  25.525  1.00  0.00     0.200 A 
ATOM    103  F   UNL A   1      47.871  27.250  26.194  1.00  0.00    -0.200 F 
ATOM    104  F   UNL A   1      46.020  26.151  24.522  1.00  0.00    -0.200 F 
ENDBRANCH  71  94
ENDBRANCH  45  46
ENDBRANCH  38  40
ENDBRANCH  37  38
ENDBRANCH  36  37
ENDBRANCH  35  36
ENDBRANCH  34  35
ENDBRANCH  33  34
ENDBRANCH  32  33
ENDBRANCH  31  32
ENDBRANCH   1  31
TORSDOF 25
ENDMDL
