MODEL 1
REMARK VINA RESULT:     -10.2      0.000      0.000
REMARK SMILES C[C@@H](Sc1nc2ccccc2c(=O)n1N)C(=O)OCCOCCOCCOCCOC(=O)c1ccc(-c2c3nc(c(-c4c(F)c(F)c(F)c(F)c4F)c4ccc([nH]4)c(-c4c(F)c(F)c(F)c(F)c4F)c4nc(c(-c5c(F)c(F)c(F)c(F)c5F)c5ccc2[nH]5)C=C4)C=C3)cc1
REMARK SMILES IDX 23 1 22 2 21 3 20 4 19 5 18 6 16 7 17 8 2 9 1 10 3 11 4 12
REMARK SMILES IDX 5 13 14 14 6 15 12 16 7 17 11 18 13 19 8 20 10 21 9 22 15 23
REMARK SMILES IDX 24 26 25 27 26 28 27 29 28 30 29 31 30 32 31 33 32 34 33 35
REMARK SMILES IDX 34 36 95 37 35 38 94 39 36 40 37 41 38 42 88 43 39 44 93 45
REMARK SMILES IDX 87 46 89 47 40 48 92 49 86 50 85 51 41 53 73 54 53 55 72 56
REMARK SMILES IDX 54 57 57 58 71 59 90 60 55 61 56 62 70 64 91 65 58 66 42 67
REMARK SMILES IDX 43 68 51 69 44 70 45 71 49 72 52 73 46 74 47 75 50 76 48 77
REMARK SMILES IDX 74 78 75 79 83 80 76 81 77 82 81 83 84 84 78 85 79 86 82 87
REMARK SMILES IDX 80 88 59 89 60 90 68 91 61 92 62 93 66 94 69 95 63 96 64 97
REMARK SMILES IDX 67 98 65 99
REMARK H PARENT 15 24 15 25 89 52 57 63
REMARK Flexibility Score: inf
ROOT
ATOM      1  C   UNL A   1      34.095  31.680  27.917  1.00  0.00     0.188 C 
ENDROOT
BRANCH   1   2
ATOM      2  C   UNL A   1      33.946  30.406  27.071  1.00  0.00     0.188 C 
BRANCH   2   3
ATOM      3  O   UNL A   1      32.692  29.761  26.927  1.00  0.00    -0.376 OA
BRANCH   3   4
ATOM      4  C   UNL A   1      32.380  28.517  27.532  1.00  0.00     0.202 C 
BRANCH   4   5
ATOM      5  C   UNL A   1      31.192  27.621  27.152  1.00  0.00     0.261 C 
BRANCH   5   6
ATOM      6  O   UNL A   1      31.473  26.250  26.869  1.00  0.00    -0.462 OA
BRANCH   6   7
ATOM      7  C   UNL A   1      30.496  25.586  26.210  1.00  0.00     0.319 C 
ATOM      8  O   UNL A   1      29.456  25.200  26.741  1.00  0.00    -0.251 OA
BRANCH   7   9
ATOM      9  C   UNL A   1      30.788  25.373  24.727  1.00  0.00     0.161 C 
ATOM     10  C   UNL A   1      30.296  26.422  23.725  1.00  0.00     0.032 C 
BRANCH   9  11
ATOM     11  S   UNL A   1      32.600  25.152  24.642  1.00  0.00    -0.071 SA
BRANCH  11  12
ATOM     12  C   UNL A   1      32.677  23.475  24.193  1.00  0.00     0.191 A 
ATOM     13  N   UNL A   1      32.910  22.645  25.153  1.00  0.00    -0.222 NA
ATOM     14  N   UNL A   1      32.427  23.106  22.877  1.00  0.00    -0.202 N 
ATOM     15  C   UNL A   1      32.864  21.281  24.865  1.00  0.00     0.079 A 
ATOM     16  C   UNL A   1      32.307  21.762  22.517  1.00  0.00     0.280 A 
ATOM     17  C   UNL A   1      33.109  20.382  25.904  1.00  0.00     0.029 A 
ATOM     18  C   UNL A   1      32.518  20.789  23.606  1.00  0.00     0.068 A 
ATOM     19  O   UNL A   1      32.028  21.387  21.379  1.00  0.00    -0.267 OA
ATOM     20  C   UNL A   1      32.967  19.010  25.697  1.00  0.00     0.002 A 
ATOM     21  C   UNL A   1      32.365  19.416  23.390  1.00  0.00     0.016 A 
ATOM     22  C   UNL A   1      32.581  18.529  24.445  1.00  0.00     0.001 A 
BRANCH  14  23
ATOM     23  N   UNL A   1      32.292  24.071  21.825  1.00  0.00    -0.334 N 
ATOM     24  H   UNL A   1      32.722  23.914  20.953  1.00  0.00     0.178 HD
ATOM     25  H   UNL A   1      31.768  24.891  21.973  1.00  0.00     0.178 HD
ENDBRANCH  14  23
ENDBRANCH  11  12
ENDBRANCH   9  11
ENDBRANCH   7   9
ENDBRANCH   6   7
ENDBRANCH   5   6
ENDBRANCH   4   5
ENDBRANCH   3   4
ENDBRANCH   2   3
ENDBRANCH   1   2
BRANCH   1  26
ATOM     26  O   UNL A   1      35.253  32.439  27.638  1.00  0.00    -0.377 OA
BRANCH  26  27
ATOM     27  C   UNL A   1      35.244  33.816  27.997  1.00  0.00     0.188 C 
BRANCH  27  28
ATOM     28  C   UNL A   1      33.897  34.537  28.222  1.00  0.00     0.188 C 
BRANCH  28  29
ATOM     29  O   UNL A   1      33.369  34.388  29.532  1.00  0.00    -0.376 OA
BRANCH  29  30
ATOM     30  C   UNL A   1      34.058  34.989  30.617  1.00  0.00     0.202 C 
BRANCH  30  31
ATOM     31  C   UNL A   1      34.441  34.084  31.798  1.00  0.00     0.261 C 
BRANCH  31  32
ATOM     32  O   UNL A   1      35.814  33.669  31.870  1.00  0.00    -0.460 OA
BRANCH  32  33
ATOM     33  C   UNL A   1      36.139  32.671  32.715  1.00  0.00     0.338 C 
ATOM     34  O   UNL A   1      35.614  32.398  33.782  1.00  0.00    -0.246 OA
BRANCH  33  35
ATOM     35  C   UNL A   1      37.145  31.832  32.034  1.00  0.00     0.060 A 
ATOM     36  C   UNL A   1      37.816  30.834  32.755  1.00  0.00     0.016 A 
ATOM     37  C   UNL A   1      37.415  32.033  30.680  1.00  0.00     0.016 A 
ATOM     38  C   UNL A   1      38.794  30.057  32.128  1.00  0.00     0.010 A 
ATOM     39  C   UNL A   1      38.405  31.272  30.061  1.00  0.00     0.010 A 
ATOM     40  C   UNL A   1      39.124  30.308  30.791  1.00  0.00    -0.014 A 
BRANCH  40  41
ATOM     41  C   UNL A   1      40.363  29.753  30.197  1.00  0.00     0.031 A 
ATOM     42  C   UNL A   1      41.536  30.677  30.038  1.00  0.00     0.074 A 
ATOM     43  C   UNL A   1      40.429  28.488  29.751  1.00  0.00     0.049 A 
ATOM     44  N   UNL A   1      42.652  30.508  29.381  1.00  0.00    -0.248 NA
ATOM     45  C   UNL A   1      41.417  31.985  30.702  1.00  0.00     0.031 C 
ATOM     46  C   UNL A   1      39.378  27.486  29.891  1.00  0.00     0.029 A 
ATOM     47  N   UNL A   1      41.423  27.848  29.054  1.00  0.00    -0.354 N 
ATOM     48  C   UNL A   1      43.355  31.697  29.525  1.00  0.00     0.074 A 
ATOM     49  C   UNL A   1      42.529  32.586  30.312  1.00  0.00     0.031 C 
ATOM     50  C   UNL A   1      39.766  26.362  29.265  1.00  0.00     0.029 A 
ATOM     51  C   UNL A   1      41.071  26.587  28.641  1.00  0.00     0.049 A 
ATOM     52  H   UNL A   1      42.301  28.251  28.869  1.00  0.00     0.167 HD
ATOM     53  C   UNL A   1      44.577  32.018  29.040  1.00  0.00     0.037 A 
ATOM     54  C   UNL A   1      41.709  25.736  27.813  1.00  0.00     0.037 A 
ATOM     55  C   UNL A   1      45.383  31.126  28.250  1.00  0.00     0.049 A 
ATOM     56  C   UNL A   1      43.038  26.134  27.221  1.00  0.00     0.074 A 
ATOM     57  C   UNL A   1      46.646  31.339  27.728  1.00  0.00     0.029 A 
ATOM     58  N   UNL A   1      44.993  29.855  27.851  1.00  0.00    -0.354 N 
ATOM     59  N   UNL A   1      43.710  27.250  27.369  1.00  0.00    -0.248 NA
ATOM     60  C   UNL A   1      43.697  25.153  26.346  1.00  0.00     0.031 C 
ATOM     61  C   UNL A   1      46.989  30.225  26.955  1.00  0.00     0.029 A 
ATOM     62  C   UNL A   1      45.978  29.283  27.062  1.00  0.00     0.049 A 
ATOM     63  H   UNL A   1      44.142  29.423  28.094  1.00  0.00     0.167 HD
ATOM     64  C   UNL A   1      44.883  27.094  26.640  1.00  0.00     0.074 A 
ATOM     65  C   UNL A   1      44.830  25.774  26.046  1.00  0.00     0.031 C 
ATOM     66  C   UNL A   1      45.916  27.962  26.488  1.00  0.00     0.037 A 
BRANCH  53  67
ATOM     67  C   UNL A   1      45.078  33.409  29.305  1.00  0.00     0.064 A 
ATOM     68  C   UNL A   1      45.859  33.721  30.429  1.00  0.00     0.173 A 
ATOM     69  C   UNL A   1      44.756  34.454  28.424  1.00  0.00     0.173 A 
ATOM     70  F   UNL A   1      46.185  32.764  31.312  1.00  0.00    -0.203 F 
ATOM     71  C   UNL A   1      46.254  35.031  30.687  1.00  0.00     0.198 A 
ATOM     72  C   UNL A   1      45.186  35.756  28.665  1.00  0.00     0.198 A 
ATOM     73  F   UNL A   1      44.016  34.214  27.331  1.00  0.00    -0.203 F 
ATOM     74  F   UNL A   1      46.931  35.316  31.808  1.00  0.00    -0.200 F 
ATOM     75  C   UNL A   1      45.921  36.047  29.803  1.00  0.00     0.200 A 
ATOM     76  F   UNL A   1      44.876  36.732  27.801  1.00  0.00    -0.200 F 
ATOM     77  F   UNL A   1      46.297  37.308  30.056  1.00  0.00    -0.200 F 
ENDBRANCH  53  67
BRANCH  54  78
ATOM     78  C   UNL A   1      41.082  24.428  27.485  1.00  0.00     0.064 A 
ATOM     79  C   UNL A   1      41.544  23.239  28.063  1.00  0.00     0.173 A 
ATOM     80  C   UNL A   1      39.990  24.347  26.607  1.00  0.00     0.173 A 
ATOM     81  F   UNL A   1      42.601  23.262  28.888  1.00  0.00    -0.203 F 
ATOM     82  C   UNL A   1      40.941  22.017  27.774  1.00  0.00     0.198 A 
ATOM     83  C   UNL A   1      39.369  23.128  26.341  1.00  0.00     0.198 A 
ATOM     84  F   UNL A   1      39.511  25.456  26.025  1.00  0.00    -0.203 F 
ATOM     85  F   UNL A   1      41.423  20.890  28.315  1.00  0.00    -0.200 F 
ATOM     86  C   UNL A   1      39.848  21.964  26.922  1.00  0.00     0.200 A 
ATOM     87  F   UNL A   1      38.306  23.083  25.527  1.00  0.00    -0.200 F 
ATOM     88  F   UNL A   1      39.258  20.790  26.657  1.00  0.00    -0.200 F 
ENDBRANCH  54  78
BRANCH  66  89
ATOM     89  C   UNL A   1      47.110  27.501  25.699  1.00  0.00     0.064 A 
ATOM     90  C   UNL A   1      47.262  27.793  24.337  1.00  0.00     0.173 A 
ATOM     91  C   UNL A   1      48.158  26.824  26.346  1.00  0.00     0.173 A 
ATOM     92  F   UNL A   1      46.288  28.427  23.668  1.00  0.00    -0.203 F 
ATOM     93  C   UNL A   1      48.412  27.413  23.648  1.00  0.00     0.198 A 
ATOM     94  C   UNL A   1      49.318  26.476  25.662  1.00  0.00     0.198 A 
ATOM     95  F   UNL A   1      48.066  26.527  27.651  1.00  0.00    -0.203 F 
ATOM     96  F   UNL A   1      48.522  27.669  22.336  1.00  0.00    -0.200 F 
ATOM     97  C   UNL A   1      49.444  26.765  24.313  1.00  0.00     0.200 A 
ATOM     98  F   UNL A   1      50.320  25.868  26.314  1.00  0.00    -0.200 F 
ATOM     99  F   UNL A   1      50.557  26.419  23.653  1.00  0.00    -0.200 F 
ENDBRANCH  66  89
ENDBRANCH  40  41
ENDBRANCH  33  35
ENDBRANCH  32  33
ENDBRANCH  31  32
ENDBRANCH  30  31
ENDBRANCH  29  30
ENDBRANCH  28  29
ENDBRANCH  27  28
ENDBRANCH  26  27
ENDBRANCH   1  26
TORSDOF 23
ENDMDL
MODEL 2
REMARK VINA RESULT:     -10.2      1.449      2.501
REMARK SMILES C[C@@H](Sc1nc2ccccc2c(=O)n1N)C(=O)OCCOCCOCCOCCOC(=O)c1ccc(-c2c3nc(c(-c4c(F)c(F)c(F)c(F)c4F)c4ccc([nH]4)c(-c4c(F)c(F)c(F)c(F)c4F)c4nc(c(-c5c(F)c(F)c(F)c(F)c5F)c5ccc2[nH]5)C=C4)C=C3)cc1
REMARK SMILES IDX 23 1 22 2 21 3 20 4 19 5 18 6 16 7 17 8 2 9 1 10 3 11 4 12
REMARK SMILES IDX 5 13 14 14 6 15 12 16 7 17 11 18 13 19 8 20 10 21 9 22 15 23
REMARK SMILES IDX 24 26 25 27 26 28 27 29 28 30 29 31 30 32 31 33 32 34 33 35
REMARK SMILES IDX 34 36 95 37 35 38 94 39 36 40 37 41 38 42 88 43 39 44 93 45
REMARK SMILES IDX 87 46 89 47 40 48 92 49 86 50 85 51 41 53 73 54 53 55 72 56
REMARK SMILES IDX 54 57 57 58 71 59 90 60 55 61 56 62 70 64 91 65 58 66 42 67
REMARK SMILES IDX 43 68 51 69 44 70 45 71 49 72 52 73 46 74 47 75 50 76 48 77
REMARK SMILES IDX 74 78 75 79 83 80 76 81 77 82 81 83 84 84 78 85 79 86 82 87
REMARK SMILES IDX 80 88 59 89 60 90 68 91 61 92 62 93 66 94 69 95 63 96 64 97
REMARK SMILES IDX 67 98 65 99
REMARK H PARENT 15 24 15 25 89 52 57 63
REMARK Flexibility Score: inf
ROOT
ATOM      1  C   UNL A   1      32.340  30.330  26.631  1.00  0.00     0.188 C 
ENDROOT
BRANCH   1   2
ATOM      2  C   UNL A   1      32.829  29.574  25.386  1.00  0.00     0.188 C 
BRANCH   2   3
ATOM      3  O   UNL A   1      33.621  28.405  25.499  1.00  0.00    -0.376 OA
BRANCH   3   4
ATOM      4  C   UNL A   1      33.441  27.257  24.685  1.00  0.00     0.202 C 
BRANCH   4   5
ATOM      5  C   UNL A   1      32.393  26.159  24.923  1.00  0.00     0.261 C 
BRANCH   5   6
ATOM      6  O   UNL A   1      32.679  24.862  24.401  1.00  0.00    -0.462 OA
BRANCH   6   7
ATOM      7  C   UNL A   1      31.859  24.446  23.409  1.00  0.00     0.319 C 
ATOM      8  O   UNL A   1      31.445  25.179  22.514  1.00  0.00    -0.251 OA
BRANCH   7   9
ATOM      9  C   UNL A   1      31.505  22.962  23.485  1.00  0.00     0.161 C 
ATOM     10  C   UNL A   1      32.294  21.976  22.617  1.00  0.00     0.032 C 
BRANCH   9  11
ATOM     11  S   UNL A   1      31.627  22.550  25.260  1.00  0.00    -0.071 SA
BRANCH  11  12
ATOM     12  C   UNL A   1      32.697  21.183  25.179  1.00  0.00     0.191 A 
ATOM     13  N   UNL A   1      32.135  20.036  25.002  1.00  0.00    -0.222 NA
ATOM     14  N   UNL A   1      34.071  21.384  25.238  1.00  0.00    -0.202 N 
ATOM     15  C   UNL A   1      32.957  18.925  24.811  1.00  0.00     0.079 A 
ATOM     16  C   UNL A   1      34.963  20.337  25.000  1.00  0.00     0.280 A 
ATOM     17  C   UNL A   1      32.349  17.685  24.613  1.00  0.00     0.029 A 
ATOM     18  C   UNL A   1      34.347  19.021  24.744  1.00  0.00     0.068 A 
ATOM     19  O   UNL A   1      36.185  20.477  24.983  1.00  0.00    -0.267 OA
ATOM     20  C   UNL A   1      33.119  16.563  24.308  1.00  0.00     0.002 A 
ATOM     21  C   UNL A   1      35.127  17.904  24.431  1.00  0.00     0.016 A 
ATOM     22  C   UNL A   1      34.506  16.676  24.203  1.00  0.00     0.001 A 
BRANCH  14  23
ATOM     23  N   UNL A   1      34.643  22.661  25.555  1.00  0.00    -0.334 N 
ATOM     24  H   UNL A   1      34.551  23.413  24.925  1.00  0.00     0.178 HD
ATOM     25  H   UNL A   1      35.127  22.788  26.403  1.00  0.00     0.178 HD
ENDBRANCH  14  23
ENDBRANCH  11  12
ENDBRANCH   9  11
ENDBRANCH   7   9
ENDBRANCH   6   7
ENDBRANCH   5   6
ENDBRANCH   4   5
ENDBRANCH   3   4
ENDBRANCH   2   3
ENDBRANCH   1   2
BRANCH   1  26
ATOM     26  O   UNL A   1      33.299  30.451  27.661  1.00  0.00    -0.377 OA
BRANCH  26  27
ATOM     27  C   UNL A   1      34.298  31.454  27.520  1.00  0.00     0.188 C 
BRANCH  27  28
ATOM     28  C   UNL A   1      34.029  32.879  28.051  1.00  0.00     0.188 C 
BRANCH  28  29
ATOM     29  O   UNL A   1      34.903  33.285  29.094  1.00  0.00    -0.376 OA
BRANCH  29  30
ATOM     30  C   UNL A   1      34.381  34.076  30.150  1.00  0.00     0.202 C 
BRANCH  30  31
ATOM     31  C   UNL A   1      34.688  33.627  31.587  1.00  0.00     0.261 C 
BRANCH  31  32
ATOM     32  O   UNL A   1      35.414  32.397  31.734  1.00  0.00    -0.460 OA
BRANCH  32  33
ATOM     33  C   UNL A   1      36.330  32.306  32.717  1.00  0.00     0.338 C 
ATOM     34  O   UNL A   1      36.135  32.329  33.921  1.00  0.00    -0.246 OA
BRANCH  33  35
ATOM     35  C   UNL A   1      37.624  31.986  32.081  1.00  0.00     0.060 A 
ATOM     36  C   UNL A   1      37.782  32.176  30.701  1.00  0.00     0.016 A 
ATOM     37  C   UNL A   1      38.679  31.506  32.857  1.00  0.00     0.016 A 
ATOM     38  C   UNL A   1      38.991  31.846  30.084  1.00  0.00     0.010 A 
ATOM     39  C   UNL A   1      39.878  31.157  32.238  1.00  0.00     0.010 A 
ATOM     40  C   UNL A   1      40.025  31.289  30.845  1.00  0.00    -0.014 A 
BRANCH  40  41
ATOM     41  C   UNL A   1      41.176  30.622  30.192  1.00  0.00     0.031 A 
ATOM     42  C   UNL A   1      42.401  31.447  29.924  1.00  0.00     0.074 A 
ATOM     43  C   UNL A   1      41.117  29.343  29.788  1.00  0.00     0.049 A 
ATOM     44  N   UNL A   1      43.455  31.172  29.201  1.00  0.00    -0.248 NA
ATOM     45  C   UNL A   1      42.426  32.780  30.547  1.00  0.00     0.031 C 
ATOM     46  C   UNL A   1      40.005  28.430  30.031  1.00  0.00     0.029 A 
ATOM     47  N   UNL A   1      42.010  28.606  29.051  1.00  0.00    -0.354 N 
ATOM     48  C   UNL A   1      44.253  32.307  29.257  1.00  0.00     0.074 A 
ATOM     49  C   UNL A   1      43.551  33.281  30.064  1.00  0.00     0.031 C 
ATOM     50  C   UNL A   1      40.265  27.261  29.422  1.00  0.00     0.029 A 
ATOM     51  C   UNL A   1      41.537  27.365  28.706  1.00  0.00     0.049 A 
ATOM     52  H   UNL A   1      42.902  28.935  28.794  1.00  0.00     0.167 HD
ATOM     53  C   UNL A   1      45.460  32.518  28.681  1.00  0.00     0.037 A 
ATOM     54  C   UNL A   1      42.052  26.441  27.869  1.00  0.00     0.037 A 
ATOM     55  C   UNL A   1      46.141  31.543  27.872  1.00  0.00     0.049 A 
ATOM     56  C   UNL A   1      43.363  26.717  27.177  1.00  0.00     0.074 A 
ATOM     57  C   UNL A   1      47.378  31.641  27.262  1.00  0.00     0.029 A 
ATOM     58  N   UNL A   1      45.631  30.294  27.546  1.00  0.00    -0.354 N 
ATOM     59  N   UNL A   1      44.126  27.782  27.242  1.00  0.00    -0.248 NA
ATOM     60  C   UNL A   1      43.886  25.663  26.297  1.00  0.00     0.031 C 
ATOM     61  C   UNL A   1      47.584  30.481  26.508  1.00  0.00     0.029 A 
ATOM     62  C   UNL A   1      46.514  29.624  26.715  1.00  0.00     0.049 A 
ATOM     63  H   UNL A   1      44.769  29.937  27.859  1.00  0.00     0.167 HD
ATOM     64  C   UNL A   1      45.232  27.514  26.444  1.00  0.00     0.074 A 
ATOM     65  C   UNL A   1      45.039  26.184  25.902  1.00  0.00     0.031 C 
ATOM     66  C   UNL A   1      46.314  28.294  26.194  1.00  0.00     0.037 A 
BRANCH  53  67
ATOM     67  C   UNL A   1      46.081  33.874  28.863  1.00  0.00     0.064 A 
ATOM     68  C   UNL A   1      45.840  34.932  27.973  1.00  0.00     0.173 A 
ATOM     69  C   UNL A   1      46.949  34.112  29.940  1.00  0.00     0.173 A 
ATOM     70  F   UNL A   1      45.030  34.755  26.917  1.00  0.00    -0.203 F 
ATOM     71  C   UNL A   1      46.482  36.158  28.126  1.00  0.00     0.198 A 
ATOM     72  C   UNL A   1      47.558  35.352  30.113  1.00  0.00     0.198 A 
ATOM     73  F   UNL A   1      47.214  33.139  30.826  1.00  0.00    -0.203 F 
ATOM     74  F   UNL A   1      46.296  37.127  27.219  1.00  0.00    -0.200 F 
ATOM     75  C   UNL A   1      47.336  36.369  29.198  1.00  0.00     0.200 A 
ATOM     76  F   UNL A   1      48.370  35.558  31.158  1.00  0.00    -0.200 F 
ATOM     77  F   UNL A   1      47.957  37.548  29.341  1.00  0.00    -0.200 F 
ENDBRANCH  53  67
BRANCH  54  78
ATOM     78  C   UNL A   1      41.307  25.177  27.630  1.00  0.00     0.064 A 
ATOM     79  C   UNL A   1      40.185  25.146  26.793  1.00  0.00     0.173 A 
ATOM     80  C   UNL A   1      41.719  23.970  28.215  1.00  0.00     0.173 A 
ATOM     81  F   UNL A   1      39.736  26.279  26.232  1.00  0.00    -0.203 F 
ATOM     82  C   UNL A   1      39.501  23.957  26.550  1.00  0.00     0.198 A 
ATOM     83  C   UNL A   1      41.052  22.776  27.949  1.00  0.00     0.198 A 
ATOM     84  F   UNL A   1      42.786  23.946  29.027  1.00  0.00    -0.203 F 
ATOM     85  F   UNL A   1      38.411  23.960  25.771  1.00  0.00    -0.200 F 
ATOM     86  C   UNL A   1      39.941  22.771  27.120  1.00  0.00     0.200 A 
ATOM     87  F   UNL A   1      41.489  21.631  28.491  1.00  0.00    -0.200 F 
ATOM     88  F   UNL A   1      39.292  21.625  26.873  1.00  0.00    -0.200 F 
ENDBRANCH  54  78
BRANCH  66  89
ATOM     89  C   UNL A   1      47.414  27.719  25.345  1.00  0.00     0.064 A 
ATOM     90  C   UNL A   1      47.431  27.858  23.950  1.00  0.00     0.173 A 
ATOM     91  C   UNL A   1      48.511  27.087  25.955  1.00  0.00     0.173 A 
ATOM     92  F   UNL A   1      46.404  28.442  23.316  1.00  0.00    -0.203 F 
ATOM     93  C   UNL A   1      48.498  27.374  23.196  1.00  0.00     0.198 A 
ATOM     94  C   UNL A   1      49.590  26.636  25.201  1.00  0.00     0.198 A 
ATOM     95  F   UNL A   1      48.549  26.936  27.287  1.00  0.00    -0.203 F 
ATOM     96  F   UNL A   1      48.478  27.484  21.860  1.00  0.00    -0.200 F 
ATOM     97  C   UNL A   1      49.582  26.775  23.823  1.00  0.00     0.200 A 
ATOM     98  F   UNL A   1      50.643  26.075  25.813  1.00  0.00    -0.200 F 
ATOM     99  F   UNL A   1      50.616  26.329  23.097  1.00  0.00    -0.200 F 
ENDBRANCH  66  89
ENDBRANCH  40  41
ENDBRANCH  33  35
ENDBRANCH  32  33
ENDBRANCH  31  32
ENDBRANCH  30  31
ENDBRANCH  29  30
ENDBRANCH  28  29
ENDBRANCH  27  28
ENDBRANCH  26  27
ENDBRANCH   1  26
TORSDOF 23
ENDMDL
MODEL 3
REMARK VINA RESULT:     -10.2      1.324      7.300
REMARK SMILES C[C@@H](Sc1nc2ccccc2c(=O)n1N)C(=O)OCCOCCOCCOCCOC(=O)c1ccc(-c2c3nc(c(-c4c(F)c(F)c(F)c(F)c4F)c4ccc([nH]4)c(-c4c(F)c(F)c(F)c(F)c4F)c4nc(c(-c5c(F)c(F)c(F)c(F)c5F)c5ccc2[nH]5)C=C4)C=C3)cc1
REMARK SMILES IDX 23 1 22 2 21 3 20 4 19 5 18 6 16 7 17 8 2 9 1 10 3 11 4 12
REMARK SMILES IDX 5 13 14 14 6 15 12 16 7 17 11 18 13 19 8 20 10 21 9 22 15 23
REMARK SMILES IDX 24 26 25 27 26 28 27 29 28 30 29 31 30 32 31 33 32 34 33 35
REMARK SMILES IDX 34 36 95 37 35 38 94 39 36 40 37 41 38 42 88 43 39 44 93 45
REMARK SMILES IDX 87 46 89 47 40 48 92 49 86 50 85 51 41 53 73 54 53 55 72 56
REMARK SMILES IDX 54 57 57 58 71 59 90 60 55 61 56 62 70 64 91 65 58 66 42 67
REMARK SMILES IDX 43 68 51 69 44 70 45 71 49 72 52 73 46 74 47 75 50 76 48 77
REMARK SMILES IDX 74 78 75 79 83 80 76 81 77 82 81 83 84 84 78 85 79 86 82 87
REMARK SMILES IDX 80 88 59 89 60 90 68 91 61 92 62 93 66 94 69 95 63 96 64 97
REMARK SMILES IDX 67 98 65 99
REMARK H PARENT 15 24 15 25 89 52 57 63
REMARK Flexibility Score: inf
ROOT
ATOM      1  C   UNL A   1      32.222  30.455  25.950  1.00  0.00     0.188 C 
ENDROOT
BRANCH   1   2
ATOM      2  C   UNL A   1      32.312  28.947  25.673  1.00  0.00     0.188 C 
BRANCH   2   3
ATOM      3  O   UNL A   1      31.386  28.298  24.819  1.00  0.00    -0.376 OA
BRANCH   3   4
ATOM      4  C   UNL A   1      31.264  26.888  24.726  1.00  0.00     0.202 C 
BRANCH   4   5
ATOM      5  C   UNL A   1      30.196  26.043  25.435  1.00  0.00     0.261 C 
BRANCH   5   6
ATOM      6  O   UNL A   1      30.592  25.349  26.618  1.00  0.00    -0.462 OA
BRANCH   6   7
ATOM      7  C   UNL A   1      31.687  24.566  26.489  1.00  0.00     0.319 C 
ATOM      8  O   UNL A   1      32.838  24.998  26.481  1.00  0.00    -0.251 OA
BRANCH   7   9
ATOM      9  C   UNL A   1      31.368  23.077  26.376  1.00  0.00     0.161 C 
ATOM     10  C   UNL A   1      30.001  22.582  26.860  1.00  0.00     0.032 C 
BRANCH   9  11
ATOM     11  S   UNL A   1      31.650  22.678  24.616  1.00  0.00    -0.071 SA
BRANCH  11  12
ATOM     12  C   UNL A   1      32.699  21.303  24.784  1.00  0.00     0.191 A 
ATOM     13  N   UNL A   1      32.136  20.147  24.679  1.00  0.00    -0.222 NA
ATOM     14  N   UNL A   1      34.065  21.500  24.950  1.00  0.00    -0.202 N 
ATOM     15  C   UNL A   1      32.953  19.016  24.687  1.00  0.00     0.079 A 
ATOM     16  C   UNL A   1      34.957  20.426  24.911  1.00  0.00     0.280 A 
ATOM     17  C   UNL A   1      32.344  17.767  24.567  1.00  0.00     0.029 A 
ATOM     18  C   UNL A   1      34.345  19.094  24.742  1.00  0.00     0.068 A 
ATOM     19  O   UNL A   1      36.177  20.555  24.995  1.00  0.00    -0.267 OA
ATOM     20  C   UNL A   1      33.120  16.613  24.459  1.00  0.00     0.002 A 
ATOM     21  C   UNL A   1      35.131  17.945  24.626  1.00  0.00     0.016 A 
ATOM     22  C   UNL A   1      34.513  16.704  24.474  1.00  0.00     0.001 A 
BRANCH  14  23
ATOM     23  N   UNL A   1      34.628  22.799  25.180  1.00  0.00    -0.334 N 
ATOM     24  H   UNL A   1      35.172  23.231  24.482  1.00  0.00     0.178 HD
ATOM     25  H   UNL A   1      34.469  23.260  26.035  1.00  0.00     0.178 HD
ENDBRANCH  14  23
ENDBRANCH  11  12
ENDBRANCH   9  11
ENDBRANCH   7   9
ENDBRANCH   6   7
ENDBRANCH   5   6
ENDBRANCH   4   5
ENDBRANCH   3   4
ENDBRANCH   2   3
ENDBRANCH   1   2
BRANCH   1  26
ATOM     26  O   UNL A   1      32.468  30.824  27.291  1.00  0.00    -0.377 OA
BRANCH  26  27
ATOM     27  C   UNL A   1      33.771  31.291  27.620  1.00  0.00     0.188 C 
BRANCH  27  28
ATOM     28  C   UNL A   1      33.932  32.591  28.437  1.00  0.00     0.188 C 
BRANCH  28  29
ATOM     29  O   UNL A   1      34.614  32.421  29.671  1.00  0.00    -0.376 OA
BRANCH  29  30
ATOM     30  C   UNL A   1      34.534  33.455  30.640  1.00  0.00     0.202 C 
BRANCH  30  31
ATOM     31  C   UNL A   1      34.790  33.070  32.105  1.00  0.00     0.261 C 
BRANCH  31  32
ATOM     32  O   UNL A   1      35.387  31.785  32.336  1.00  0.00    -0.460 OA
BRANCH  32  33
ATOM     33  C   UNL A   1      36.521  31.724  33.061  1.00  0.00     0.338 C 
ATOM     34  O   UNL A   1      36.660  31.973  34.248  1.00  0.00    -0.246 OA
BRANCH  33  35
ATOM     35  C   UNL A   1      37.558  31.120  32.202  1.00  0.00     0.060 A 
ATOM     36  C   UNL A   1      38.766  30.692  32.771  1.00  0.00     0.016 A 
ATOM     37  C   UNL A   1      37.326  30.972  30.834  1.00  0.00     0.016 A 
ATOM     38  C   UNL A   1      39.767  30.149  31.961  1.00  0.00     0.010 A 
ATOM     39  C   UNL A   1      38.332  30.450  30.024  1.00  0.00     0.010 A 
ATOM     40  C   UNL A   1      39.569  30.072  30.578  1.00  0.00    -0.014 A 
BRANCH  40  41
ATOM     41  C   UNL A   1      40.707  29.826  29.661  1.00  0.00     0.031 A 
ATOM     42  C   UNL A   1      40.834  28.456  29.059  1.00  0.00     0.074 A 
ATOM     43  C   UNL A   1      41.637  30.763  29.418  1.00  0.00     0.049 A 
ATOM     44  N   UNL A   1      41.824  27.922  28.394  1.00  0.00    -0.248 NA
ATOM     45  C   UNL A   1      39.685  27.559  29.256  1.00  0.00     0.031 C 
ATOM     46  C   UNL A   1      41.598  32.139  29.905  1.00  0.00     0.029 A 
ATOM     47  N   UNL A   1      42.818  30.678  28.724  1.00  0.00    -0.354 N 
ATOM     48  C   UNL A   1      41.431  26.619  28.120  1.00  0.00     0.074 A 
ATOM     49  C   UNL A   1      40.123  26.437  28.711  1.00  0.00     0.031 C 
ATOM     50  C   UNL A   1      42.726  32.763  29.525  1.00  0.00     0.029 A 
ATOM     51  C   UNL A   1      43.583  31.814  28.813  1.00  0.00     0.049 A 
ATOM     52  H   UNL A   1      43.091  29.882  28.214  1.00  0.00     0.167 HD
ATOM     53  C   UNL A   1      42.104  25.660  27.441  1.00  0.00     0.037 A 
ATOM     54  C   UNL A   1      44.849  32.041  28.408  1.00  0.00     0.037 A 
ATOM     55  C   UNL A   1      43.408  25.853  26.868  1.00  0.00     0.049 A 
ATOM     56  C   UNL A   1      45.615  30.942  27.716  1.00  0.00     0.074 A 
ATOM     57  C   UNL A   1      44.170  24.959  26.138  1.00  0.00     0.029 A 
ATOM     58  N   UNL A   1      44.153  27.019  26.977  1.00  0.00    -0.354 N 
ATOM     59  N   UNL A   1      45.239  29.716  27.442  1.00  0.00    -0.248 NA
ATOM     60  C   UNL A   1      46.981  31.258  27.275  1.00  0.00     0.031 C 
ATOM     61  C   UNL A   1      45.405  25.560  25.868  1.00  0.00     0.029 A 
ATOM     62  C   UNL A   1      45.381  26.857  26.356  1.00  0.00     0.049 A 
ATOM     63  H   UNL A   1      43.853  27.841  27.429  1.00  0.00     0.167 HD
ATOM     64  C   UNL A   1      46.302  29.127  26.768  1.00  0.00     0.074 A 
ATOM     65  C   UNL A   1      47.342  30.131  26.677  1.00  0.00     0.031 C 
ATOM     66  C   UNL A   1      46.402  27.871  26.261  1.00  0.00     0.037 A 
BRANCH  53  67
ATOM     67  C   UNL A   1      41.458  24.307  27.341  1.00  0.00     0.064 A 
ATOM     68  C   UNL A   1      42.003  23.171  27.960  1.00  0.00     0.173 A 
ATOM     69  C   UNL A   1      40.280  24.142  26.595  1.00  0.00     0.173 A 
ATOM     70  F   UNL A   1      43.135  23.268  28.673  1.00  0.00    -0.203 F 
ATOM     71  C   UNL A   1      41.422  21.916  27.794  1.00  0.00     0.198 A 
ATOM     72  C   UNL A   1      39.680  22.893  26.465  1.00  0.00     0.198 A 
ATOM     73  F   UNL A   1      39.712  25.194  25.984  1.00  0.00    -0.203 F 
ATOM     74  F   UNL A   1      42.004  20.835  28.330  1.00  0.00    -0.200 F 
ATOM     75  C   UNL A   1      40.259  21.779  27.051  1.00  0.00     0.200 A 
ATOM     76  F   UNL A   1      38.548  22.766  25.760  1.00  0.00    -0.200 F 
ATOM     77  F   UNL A   1      39.704  20.570  26.889  1.00  0.00    -0.200 F 
ENDBRANCH  53  67
BRANCH  54  78
ATOM     78  C   UNL A   1      45.472  33.366  28.669  1.00  0.00     0.064 A 
ATOM     79  C   UNL A   1      46.251  33.587  29.811  1.00  0.00     0.173 A 
ATOM     80  C   UNL A   1      45.320  34.430  27.766  1.00  0.00     0.173 A 
ATOM     81  F   UNL A   1      46.402  32.610  30.717  1.00  0.00    -0.203 F 
ATOM     82  C   UNL A   1      46.853  34.821  30.044  1.00  0.00     0.198 A 
ATOM     83  C   UNL A   1      45.947  35.655  27.984  1.00  0.00     0.198 A 
ATOM     84  F   UNL A   1      44.582  34.271  26.657  1.00  0.00    -0.203 F 
ATOM     85  F   UNL A   1      47.567  35.016  31.161  1.00  0.00    -0.200 F 
ATOM     86  C   UNL A   1      46.710  35.851  29.125  1.00  0.00     0.200 A 
ATOM     87  F   UNL A   1      45.817  36.642  27.088  1.00  0.00    -0.200 F 
ATOM     88  F   UNL A   1      47.304  37.033  29.342  1.00  0.00    -0.200 F 
ENDBRANCH  54  78
BRANCH  66  89
ATOM     89  C   UNL A   1      47.651  27.518  25.502  1.00  0.00     0.064 A 
ATOM     90  C   UNL A   1      48.786  26.995  26.136  1.00  0.00     0.173 A 
ATOM     91  C   UNL A   1      47.675  27.630  24.102  1.00  0.00     0.173 A 
ATOM     92  F   UNL A   1      48.821  26.878  27.472  1.00  0.00    -0.203 F 
ATOM     93  C   UNL A   1      49.904  26.612  25.399  1.00  0.00     0.198 A 
ATOM     94  C   UNL A   1      48.780  27.215  23.366  1.00  0.00     0.198 A 
ATOM     95  F   UNL A   1      46.610  28.116  23.445  1.00  0.00    -0.203 F 
ATOM     96  F   UNL A   1      50.994  26.149  26.028  1.00  0.00    -0.200 F 
ATOM     97  C   UNL A   1      49.896  26.711  24.014  1.00  0.00     0.200 A 
ATOM     98  F   UNL A   1      48.760  27.294  22.028  1.00  0.00    -0.200 F 
ATOM     99  F   UNL A   1      50.965  26.322  23.306  1.00  0.00    -0.200 F 
ENDBRANCH  66  89
ENDBRANCH  40  41
ENDBRANCH  33  35
ENDBRANCH  32  33
ENDBRANCH  31  32
ENDBRANCH  30  31
ENDBRANCH  29  30
ENDBRANCH  28  29
ENDBRANCH  27  28
ENDBRANCH  26  27
ENDBRANCH   1  26
TORSDOF 23
ENDMDL
