MODEL 1
REMARK VINA RESULT:     -10.9      0.000      0.000
REMARK SMILES CCc1nc(N2CC[N@H+](CC=C(C)C)[C@H](C(=O)OCCOCCOCCOCCOC(=O)c3ccc(-c4c5nc(c(-c6c(F)c(F)c(F)c(F)c6F)c6ccc([nH]6)c(-c6c(F)c(F)c(F)c(F)c6F)c6nc(c(-c7c(F)c(F)c(F)c(F)c7F)c7ccc4[nH]7)C=C6)C=C5)cc3)C2)no1
REMARK SMILES IDX 24 1 23 2 22 3 21 4 20 5 19 6 18 7 16 8 17 9 15 10 6 11 7 12
REMARK SMILES IDX 96 13 8 14 9 15 5 17 3 18 4 19 98 20 97 21 2 22 1 23 10 24
REMARK SMILES IDX 11 25 12 26 13 27 14 28 25 29 26 30 27 31 28 32 29 33 30 34
REMARK SMILES IDX 31 35 32 36 33 37 34 38 95 39 35 40 94 41 36 42 37 43 38 44
REMARK SMILES IDX 88 45 39 46 93 47 87 48 89 49 40 50 92 51 86 52 85 53 41 55
REMARK SMILES IDX 73 56 53 57 72 58 54 59 57 60 71 61 90 62 55 63 56 64 70 66
REMARK SMILES IDX 91 67 58 68 42 69 43 70 51 71 44 72 45 73 49 74 52 75 46 76
REMARK SMILES IDX 47 77 50 78 48 79 74 80 75 81 83 82 76 83 77 84 81 85 84 86
REMARK SMILES IDX 78 87 79 88 82 89 80 90 59 91 60 92 68 93 61 94 62 95 66 96
REMARK SMILES IDX 69 97 63 98 64 99 67 100 65 101
REMARK H PARENT 9 16 89 54 57 65
REMARK Flexibility Score: inf
ROOT
ATOM      1  O   UNL A   1      33.474  33.928  28.314  1.00  0.00    -0.377 OA
ENDROOT
BRANCH   1   2
ATOM      2  C   UNL A   1      34.302  32.809  28.576  1.00  0.00     0.188 C 
BRANCH   2   3
ATOM      3  C   UNL A   1      34.025  31.582  27.668  1.00  0.00     0.188 C 
BRANCH   3   4
ATOM      4  O   UNL A   1      34.390  30.275  28.093  1.00  0.00    -0.376 OA
BRANCH   4   5
ATOM      5  C   UNL A   1      34.957  29.385  27.156  1.00  0.00     0.202 C 
BRANCH   5   6
ATOM      6  C   UNL A   1      34.014  28.625  26.205  1.00  0.00     0.261 C 
BRANCH   6   7
ATOM      7  O   UNL A   1      33.353  29.369  25.153  1.00  0.00    -0.459 OA
BRANCH   7   8
ATOM      8  C   UNL A   1      33.179  28.736  23.956  1.00  0.00     0.366 C 
ATOM      9  O   UNL A   1      33.303  29.303  22.873  1.00  0.00    -0.245 OA
BRANCH   8  10
ATOM     10  C   UNL A   1      32.752  27.259  24.084  1.00  0.00     0.315 C 
ATOM     11  N   UNL A   1      33.263  24.873  23.678  1.00  0.00    -0.326 N 
ATOM     12  C   UNL A   1      31.921  24.493  24.138  1.00  0.00     0.181 C 
ATOM     13  C   UNL A   1      33.548  26.252  23.246  1.00  0.00     0.197 C 
ATOM     14  C   UNL A   1      31.210  25.630  24.903  1.00  0.00     0.285 C 
ATOM     15  N   UNL A   1      31.277  26.955  24.245  1.00  0.00    -0.317 N 
ATOM     16  H   UNL A   1      30.939  27.771  24.756  1.00  0.00     0.349 HD
BRANCH  11  17
ATOM     17  C   UNL A   1      34.257  23.981  23.842  1.00  0.00     0.266 A 
ATOM     18  C   UNL A   1      35.130  22.298  24.697  1.00  0.00     0.227 A 
ATOM     19  N   UNL A   1      34.270  23.242  24.986  1.00  0.00    -0.176 NA
ATOM     20  O   UNL A   1      35.746  22.474  23.497  1.00  0.00    -0.337 OA
ATOM     21  N   UNL A   1      35.153  23.593  22.923  1.00  0.00    -0.038 NA
BRANCH  18  22
ATOM     22  C   UNL A   1      35.422  21.048  25.424  1.00  0.00     0.097 C 
ATOM     23  C   UNL A   1      34.660  19.874  24.827  1.00  0.00     0.014 C 
ENDBRANCH  18  22
ENDBRANCH  11  17
BRANCH  15  24
ATOM     24  C   UNL A   1      30.321  26.982  23.123  1.00  0.00     0.291 C 
BRANCH  24  25
ATOM     25  C   UNL A   1      29.099  27.866  23.195  1.00  0.00     0.032 C 
ATOM     26  C   UNL A   1      28.921  29.120  22.724  1.00  0.00    -0.075 C 
ATOM     27  C   UNL A   1      27.653  29.877  23.039  1.00  0.00     0.039 C 
ATOM     28  C   UNL A   1      29.934  29.880  21.919  1.00  0.00     0.039 C 
ENDBRANCH  24  25
ENDBRANCH  15  24
ENDBRANCH   8  10
ENDBRANCH   7   8
ENDBRANCH   6   7
ENDBRANCH   5   6
ENDBRANCH   4   5
ENDBRANCH   3   4
ENDBRANCH   2   3
ENDBRANCH   1   2
BRANCH   1  29
ATOM     29  C   UNL A   1      33.965  35.148  28.840  1.00  0.00     0.188 C 
BRANCH  29  30
ATOM     30  C   UNL A   1      33.099  35.772  29.949  1.00  0.00     0.188 C 
BRANCH  30  31
ATOM     31  O   UNL A   1      32.985  34.928  31.087  1.00  0.00    -0.376 OA
BRANCH  31  32
ATOM     32  C   UNL A   1      34.031  34.807  32.028  1.00  0.00     0.202 C 
BRANCH  32  33
ATOM     33  C   UNL A   1      34.101  33.547  32.903  1.00  0.00     0.261 C 
BRANCH  33  34
ATOM     34  O   UNL A   1      34.965  32.500  32.455  1.00  0.00    -0.460 OA
BRANCH  34  35
ATOM     35  C   UNL A   1      36.094  32.295  33.161  1.00  0.00     0.338 C 
ATOM     36  O   UNL A   1      36.277  32.535  34.344  1.00  0.00    -0.246 OA
BRANCH  35  37
ATOM     37  C   UNL A   1      37.019  31.526  32.308  1.00  0.00     0.060 A 
ATOM     38  C   UNL A   1      38.020  30.769  32.929  1.00  0.00     0.016 A 
ATOM     39  C   UNL A   1      36.883  31.519  30.916  1.00  0.00     0.016 A 
ATOM     40  C   UNL A   1      38.913  30.031  32.160  1.00  0.00     0.010 A 
ATOM     41  C   UNL A   1      37.803  30.809  30.141  1.00  0.00     0.010 A 
ATOM     42  C   UNL A   1      38.846  30.100  30.763  1.00  0.00    -0.014 A 
BRANCH  42  43
ATOM     43  C   UNL A   1      40.022  29.652  29.985  1.00  0.00     0.031 A 
ATOM     44  C   UNL A   1      41.151  30.629  29.806  1.00  0.00     0.074 A 
ATOM     45  C   UNL A   1      40.123  28.394  29.527  1.00  0.00     0.049 A 
ATOM     46  N   UNL A   1      42.303  30.474  29.209  1.00  0.00    -0.248 NA
ATOM     47  C   UNL A   1      40.951  31.968  30.388  1.00  0.00     0.031 C 
ATOM     48  C   UNL A   1      39.113  27.352  29.690  1.00  0.00     0.029 A 
ATOM     49  N   UNL A   1      41.136  27.781  28.836  1.00  0.00    -0.354 N 
ATOM     50  C   UNL A   1      42.962  31.690  29.343  1.00  0.00     0.074 A 
ATOM     51  C   UNL A   1      42.069  32.585  30.042  1.00  0.00     0.031 C 
ATOM     52  C   UNL A   1      39.555  26.224  29.106  1.00  0.00     0.029 A 
ATOM     53  C   UNL A   1      40.866  26.476  28.509  1.00  0.00     0.049 A 
ATOM     54  H   UNL A   1      41.977  28.234  28.596  1.00  0.00     0.167 HD
ATOM     55  C   UNL A   1      44.206  32.024  28.932  1.00  0.00     0.037 A 
ATOM     56  C   UNL A   1      41.596  25.596  27.796  1.00  0.00     0.037 A 
ATOM     57  C   UNL A   1      45.083  31.127  28.228  1.00  0.00     0.049 A 
ATOM     58  C   UNL A   1      42.949  26.019  27.278  1.00  0.00     0.074 A 
ATOM     59  C   UNL A   1      46.367  31.359  27.769  1.00  0.00     0.029 A 
ATOM     60  N   UNL A   1      44.758  29.826  27.873  1.00  0.00    -0.354 N 
ATOM     61  N   UNL A   1      43.580  27.160  27.430  1.00  0.00    -0.248 NA
ATOM     62  C   UNL A   1      43.697  25.025  26.496  1.00  0.00     0.031 C 
ATOM     63  C   UNL A   1      46.793  30.221  27.077  1.00  0.00     0.029 A 
ATOM     64  C   UNL A   1      45.806  29.252  27.171  1.00  0.00     0.049 A 
ATOM     65  H   UNL A   1      43.909  29.377  28.087  1.00  0.00     0.167 HD
ATOM     66  C   UNL A   1      44.807  27.009  26.797  1.00  0.00     0.074 A 
ATOM     67  C   UNL A   1      44.839  25.659  26.273  1.00  0.00     0.031 C 
ATOM     68  C   UNL A   1      45.819  27.903  26.663  1.00  0.00     0.037 A 
BRANCH  55  69
ATOM     69  C   UNL A   1      44.669  33.427  29.197  1.00  0.00     0.064 A 
ATOM     70  C   UNL A   1      44.472  34.463  28.270  1.00  0.00     0.173 A 
ATOM     71  C   UNL A   1      45.311  33.743  30.403  1.00  0.00     0.173 A 
ATOM     72  F   UNL A   1      43.883  34.212  27.091  1.00  0.00    -0.203 F 
ATOM     73  C   UNL A   1      44.926  35.754  28.531  1.00  0.00     0.198 A 
ATOM     74  C   UNL A   1      45.732  35.042  30.675  1.00  0.00     0.198 A 
ATOM     75  F   UNL A   1      45.530  32.791  31.323  1.00  0.00    -0.203 F 
ATOM     76  F   UNL A   1      44.777  36.713  27.607  1.00  0.00    -0.200 F 
ATOM     77  C   UNL A   1      45.548  36.044  29.735  1.00  0.00     0.200 A 
ATOM     78  F   UNL A   1      46.323  35.322  31.845  1.00  0.00    -0.200 F 
ATOM     79  F   UNL A   1      45.978  37.288  29.987  1.00  0.00    -0.200 F 
ENDBRANCH  55  69
BRANCH  56  80
ATOM     80  C   UNL A   1      41.065  24.235  27.520  1.00  0.00     0.064 A 
ATOM     81  C   UNL A   1      41.628  23.098  28.115  1.00  0.00     0.173 A 
ATOM     82  C   UNL A   1      39.996  24.042  26.630  1.00  0.00     0.173 A 
ATOM     83  F   UNL A   1      42.667  23.227  28.952  1.00  0.00    -0.203 F 
ATOM     84  C   UNL A   1      41.161  21.819  27.813  1.00  0.00     0.198 A 
ATOM     85  C   UNL A   1      39.507  22.765  26.356  1.00  0.00     0.198 A 
ATOM     86  F   UNL A   1      39.421  25.094  26.032  1.00  0.00    -0.203 F 
ATOM     87  F   UNL A   1      41.756  20.747  28.353  1.00  0.00    -0.200 F 
ATOM     88  C   UNL A   1      40.097  21.655  26.938  1.00  0.00     0.200 A 
ATOM     89  F   UNL A   1      38.471  22.613  25.520  1.00  0.00    -0.200 F 
ATOM     90  F   UNL A   1      39.648  20.426  26.651  1.00  0.00    -0.200 F 
ENDBRANCH  56  80
BRANCH  68  91
ATOM     91  C   UNL A   1      47.064  27.435  25.961  1.00  0.00     0.064 A 
ATOM     92  C   UNL A   1      47.280  27.666  24.595  1.00  0.00     0.173 A 
ATOM     93  C   UNL A   1      48.071  26.770  26.680  1.00  0.00     0.173 A 
ATOM     94  F   UNL A   1      46.347  28.289  23.860  1.00  0.00    -0.203 F 
ATOM     95  C   UNL A   1      48.437  27.213  23.966  1.00  0.00     0.198 A 
ATOM     96  C   UNL A   1      49.243  26.354  26.057  1.00  0.00     0.198 A 
ATOM     97  F   UNL A   1      47.924  26.534  27.993  1.00  0.00    -0.203 F 
ATOM     98  F   UNL A   1      48.591  27.388  22.646  1.00  0.00    -0.200 F 
ATOM     99  C   UNL A   1      49.420  26.564  24.698  1.00  0.00     0.200 A 
ATOM    100  F   UNL A   1      50.201  25.746  26.771  1.00  0.00    -0.200 F 
ATOM    101  F   UNL A   1      50.534  26.133  24.091  1.00  0.00    -0.200 F 
ENDBRANCH  68  91
ENDBRANCH  42  43
ENDBRANCH  35  37
ENDBRANCH  34  35
ENDBRANCH  33  34
ENDBRANCH  32  33
ENDBRANCH  31  32
ENDBRANCH  30  31
ENDBRANCH  29  30
ENDBRANCH   1  29
TORSDOF 24
ENDMDL
MODEL 2
REMARK VINA RESULT:     -10.6      1.110      3.450
REMARK SMILES CCc1nc(N2CC[N@H+](CC=C(C)C)[C@H](C(=O)OCCOCCOCCOCCOC(=O)c3ccc(-c4c5nc(c(-c6c(F)c(F)c(F)c(F)c6F)c6ccc([nH]6)c(-c6c(F)c(F)c(F)c(F)c6F)c6nc(c(-c7c(F)c(F)c(F)c(F)c7F)c7ccc4[nH]7)C=C6)C=C5)cc3)C2)no1
REMARK SMILES IDX 24 1 23 2 22 3 21 4 20 5 19 6 18 7 16 8 17 9 15 10 6 11 7 12
REMARK SMILES IDX 96 13 8 14 9 15 5 17 3 18 4 19 98 20 97 21 2 22 1 23 10 24
REMARK SMILES IDX 11 25 12 26 13 27 14 28 25 29 26 30 27 31 28 32 29 33 30 34
REMARK SMILES IDX 31 35 32 36 33 37 34 38 95 39 35 40 94 41 36 42 37 43 38 44
REMARK SMILES IDX 88 45 39 46 93 47 87 48 89 49 40 50 92 51 86 52 85 53 41 55
REMARK SMILES IDX 73 56 53 57 72 58 54 59 57 60 71 61 90 62 55 63 56 64 70 66
REMARK SMILES IDX 91 67 58 68 42 69 43 70 51 71 44 72 45 73 49 74 52 75 46 76
REMARK SMILES IDX 47 77 50 78 48 79 74 80 75 81 83 82 76 83 77 84 81 85 84 86
REMARK SMILES IDX 78 87 79 88 82 89 80 90 59 91 60 92 68 93 61 94 62 95 66 96
REMARK SMILES IDX 69 97 63 98 64 99 67 100 65 101
REMARK H PARENT 9 16 89 54 57 65
REMARK Flexibility Score: inf
ROOT
ATOM      1  O   UNL A   1      33.866  34.323  27.753  1.00  0.00    -0.377 OA
ENDROOT
BRANCH   1   2
ATOM      2  C   UNL A   1      33.145  33.124  27.537  1.00  0.00     0.188 C 
BRANCH   2   3
ATOM      3  C   UNL A   1      33.849  31.849  28.072  1.00  0.00     0.188 C 
BRANCH   3   4
ATOM      4  O   UNL A   1      34.305  30.847  27.171  1.00  0.00    -0.376 OA
BRANCH   4   5
ATOM      5  C   UNL A   1      33.669  29.588  27.171  1.00  0.00     0.202 C 
BRANCH   5   6
ATOM      6  C   UNL A   1      33.958  28.622  26.007  1.00  0.00     0.261 C 
BRANCH   6   7
ATOM      7  O   UNL A   1      34.036  27.205  26.294  1.00  0.00    -0.459 OA
BRANCH   7   8
ATOM      8  C   UNL A   1      32.958  26.439  25.950  1.00  0.00     0.366 C 
ATOM      9  O   UNL A   1      32.369  25.714  26.749  1.00  0.00    -0.245 OA
BRANCH   8  10
ATOM     10  C   UNL A   1      32.583  26.519  24.456  1.00  0.00     0.315 C 
ATOM     11  N   UNL A   1      30.913  27.110  22.729  1.00  0.00    -0.326 N 
ATOM     12  C   UNL A   1      31.763  26.521  21.687  1.00  0.00     0.181 C 
ATOM     13  C   UNL A   1      31.099  26.748  24.146  1.00  0.00     0.197 C 
ATOM     14  C   UNL A   1      33.211  26.279  22.165  1.00  0.00     0.285 C 
ATOM     15  N   UNL A   1      33.323  25.620  23.487  1.00  0.00    -0.317 N 
ATOM     16  H   UNL A   1      34.245  25.546  23.918  1.00  0.00     0.349 HD
BRANCH  11  17
ATOM     17  C   UNL A   1      30.097  28.120  22.376  1.00  0.00     0.266 A 
ATOM     18  C   UNL A   1      28.465  29.380  22.647  1.00  0.00     0.227 A 
ATOM     19  N   UNL A   1      28.857  28.166  22.939  1.00  0.00    -0.176 NA
ATOM     20  O   UNL A   1      29.326  30.048  21.833  1.00  0.00    -0.337 OA
ATOM     21  N   UNL A   1      30.421  29.208  21.663  1.00  0.00    -0.038 NA
BRANCH  18  22
ATOM     22  C   UNL A   1      27.308  30.136  23.165  1.00  0.00     0.097 C 
ATOM     23  C   UNL A   1      27.694  31.569  23.499  1.00  0.00     0.014 C 
ENDBRANCH  18  22
ENDBRANCH  11  17
BRANCH  15  24
ATOM     24  C   UNL A   1      33.030  24.184  23.334  1.00  0.00     0.291 C 
BRANCH  24  25
ATOM     25  C   UNL A   1      33.670  23.181  24.265  1.00  0.00     0.032 C 
ATOM     26  C   UNL A   1      34.898  22.621  24.206  1.00  0.00    -0.075 C 
ATOM     27  C   UNL A   1      35.280  21.522  25.168  1.00  0.00     0.039 C 
ATOM     28  C   UNL A   1      35.949  22.975  23.193  1.00  0.00     0.039 C 
ENDBRANCH  24  25
ENDBRANCH  15  24
ENDBRANCH   8  10
ENDBRANCH   7   8
ENDBRANCH   6   7
ENDBRANCH   5   6
ENDBRANCH   4   5
ENDBRANCH   3   4
ENDBRANCH   2   3
ENDBRANCH   1   2
BRANCH   1  29
ATOM     29  C   UNL A   1      33.644  34.913  29.022  1.00  0.00     0.188 C 
BRANCH  29  30
ATOM     30  C   UNL A   1      34.650  34.503  30.113  1.00  0.00     0.188 C 
BRANCH  30  31
ATOM     31  O   UNL A   1      34.025  33.842  31.204  1.00  0.00    -0.376 OA
BRANCH  31  32
ATOM     32  C   UNL A   1      34.102  34.348  32.520  1.00  0.00     0.202 C 
BRANCH  32  33
ATOM     33  C   UNL A   1      34.687  33.458  33.627  1.00  0.00     0.261 C 
BRANCH  33  34
ATOM     34  O   UNL A   1      35.455  32.328  33.204  1.00  0.00    -0.460 OA
BRANCH  34  35
ATOM     35  C   UNL A   1      36.684  32.192  33.738  1.00  0.00     0.338 C 
ATOM     36  O   UNL A   1      37.024  32.445  34.883  1.00  0.00    -0.246 OA
BRANCH  35  37
ATOM     37  C   UNL A   1      37.519  31.476  32.754  1.00  0.00     0.060 A 
ATOM     38  C   UNL A   1      38.463  30.557  33.229  1.00  0.00     0.016 A 
ATOM     39  C   UNL A   1      37.351  31.677  31.381  1.00  0.00     0.016 A 
ATOM     40  C   UNL A   1      39.270  29.863  32.334  1.00  0.00     0.010 A 
ATOM     41  C   UNL A   1      38.187  31.009  30.483  1.00  0.00     0.010 A 
ATOM     42  C   UNL A   1      39.177  30.134  30.963  1.00  0.00    -0.014 A 
BRANCH  42  43
ATOM     43  C   UNL A   1      40.291  29.704  30.091  1.00  0.00     0.031 A 
ATOM     44  C   UNL A   1      41.402  30.686  29.845  1.00  0.00     0.074 A 
ATOM     45  C   UNL A   1      40.359  28.454  29.604  1.00  0.00     0.049 A 
ATOM     46  N   UNL A   1      42.506  30.545  29.159  1.00  0.00    -0.248 NA
ATOM     47  C   UNL A   1      41.245  32.014  30.464  1.00  0.00     0.031 C 
ATOM     48  C   UNL A   1      39.365  27.406  29.824  1.00  0.00     0.029 A 
ATOM     49  N   UNL A   1      41.317  27.856  28.827  1.00  0.00    -0.354 N 
ATOM     50  C   UNL A   1      43.171  31.760  29.265  1.00  0.00     0.074 A 
ATOM     51  C   UNL A   1      42.333  32.640  30.045  1.00  0.00     0.031 C 
ATOM     52  C   UNL A   1      39.763  26.290  29.188  1.00  0.00     0.029 A 
ATOM     53  C   UNL A   1      41.025  26.556  28.498  1.00  0.00     0.049 A 
ATOM     54  H   UNL A   1      42.137  28.315  28.532  1.00  0.00     0.167 HD
ATOM     55  C   UNL A   1      44.381  32.104  28.766  1.00  0.00     0.037 A 
ATOM     56  C   UNL A   1      41.699  25.692  27.716  1.00  0.00     0.037 A 
ATOM     57  C   UNL A   1      45.203  31.223  27.982  1.00  0.00     0.049 A 
ATOM     58  C   UNL A   1      43.008  26.127  27.104  1.00  0.00     0.074 A 
ATOM     59  C   UNL A   1      46.448  31.466  27.431  1.00  0.00     0.029 A 
ATOM     60  N   UNL A   1      44.853  29.927  27.629  1.00  0.00    -0.354 N 
ATOM     61  N   UNL A   1      43.647  27.266  27.229  1.00  0.00    -0.248 NA
ATOM     62  C   UNL A   1      43.696  25.148  26.250  1.00  0.00     0.031 C 
ATOM     63  C   UNL A   1      46.821  30.341  26.688  1.00  0.00     0.029 A 
ATOM     64  C   UNL A   1      45.845  29.368  26.839  1.00  0.00     0.049 A 
ATOM     65  H   UNL A   1      44.023  29.472  27.899  1.00  0.00     0.167 HD
ATOM     66  C   UNL A   1      44.823  27.130  26.502  1.00  0.00     0.074 A 
ATOM     67  C   UNL A   1      44.817  25.790  25.953  1.00  0.00     0.031 C 
ATOM     68  C   UNL A   1      45.822  28.029  26.307  1.00  0.00     0.037 A 
BRANCH  55  69
ATOM     69  C   UNL A   1      44.861  33.504  29.021  1.00  0.00     0.064 A 
ATOM     70  C   UNL A   1      44.554  34.564  28.154  1.00  0.00     0.173 A 
ATOM     71  C   UNL A   1      45.631  33.790  30.157  1.00  0.00     0.173 A 
ATOM     72  F   UNL A   1      43.839  34.342  27.041  1.00  0.00    -0.203 F 
ATOM     73  C   UNL A   1      45.026  35.852  28.401  1.00  0.00     0.198 A 
ATOM     74  C   UNL A   1      46.071  35.085  30.420  1.00  0.00     0.198 A 
ATOM     75  F   UNL A   1      45.958  32.813  31.017  1.00  0.00    -0.203 F 
ATOM     76  F   UNL A   1      44.768  36.836  27.529  1.00  0.00    -0.200 F 
ATOM     77  C   UNL A   1      45.776  36.113  29.537  1.00  0.00     0.200 A 
ATOM     78  F   UNL A   1      46.786  35.336  31.525  1.00  0.00    -0.200 F 
ATOM     79  F   UNL A   1      46.223  37.353  29.778  1.00  0.00    -0.200 F 
ENDBRANCH  55  69
BRANCH  56  80
ATOM     80  C   UNL A   1      41.150  24.334  27.456  1.00  0.00     0.064 A 
ATOM     81  C   UNL A   1      41.746  23.189  28.003  1.00  0.00     0.173 A 
ATOM     82  C   UNL A   1      40.030  24.152  26.630  1.00  0.00     0.173 A 
ATOM     83  F   UNL A   1      42.834  23.307  28.779  1.00  0.00    -0.203 F 
ATOM     84  C   UNL A   1      41.259  21.915  27.715  1.00  0.00     0.198 A 
ATOM     85  C   UNL A   1      39.523  22.879  26.370  1.00  0.00     0.198 A 
ATOM     86  F   UNL A   1      39.422  25.212  26.079  1.00  0.00    -0.203 F 
ATOM     87  F   UNL A   1      41.884  20.836  28.206  1.00  0.00    -0.200 F 
ATOM     88  C   UNL A   1      40.145  21.762  26.904  1.00  0.00     0.200 A 
ATOM     89  F   UNL A   1      38.439  22.738  25.596  1.00  0.00    -0.200 F 
ATOM     90  F   UNL A   1      39.678  20.537  26.629  1.00  0.00    -0.200 F 
ENDBRANCH  56  80
BRANCH  68  91
ATOM     91  C   UNL A   1      47.010  27.576  25.505  1.00  0.00     0.064 A 
ATOM     92  C   UNL A   1      47.116  27.822  24.128  1.00  0.00     0.173 A 
ATOM     93  C   UNL A   1      48.075  26.912  26.135  1.00  0.00     0.173 A 
ATOM     94  F   UNL A   1      46.123  28.446  23.475  1.00  0.00    -0.203 F 
ATOM     95  C   UNL A   1      48.222  27.384  23.405  1.00  0.00     0.198 A 
ATOM     96  C   UNL A   1      49.197  26.510  25.417  1.00  0.00     0.198 A 
ATOM     97  F   UNL A   1      48.034  26.662  27.453  1.00  0.00    -0.203 F 
ATOM     98  F   UNL A   1      48.270  27.572  22.079  1.00  0.00    -0.200 F 
ATOM     99  C   UNL A   1      49.265  26.735  24.051  1.00  0.00     0.200 A 
ATOM    100  F   UNL A   1      50.212  25.903  26.047  1.00  0.00    -0.200 F 
ATOM    101  F   UNL A   1      50.330  26.317  23.353  1.00  0.00    -0.200 F 
ENDBRANCH  68  91
ENDBRANCH  42  43
ENDBRANCH  35  37
ENDBRANCH  34  35
ENDBRANCH  33  34
ENDBRANCH  32  33
ENDBRANCH  31  32
ENDBRANCH  30  31
ENDBRANCH  29  30
ENDBRANCH   1  29
TORSDOF 24
ENDMDL
MODEL 3
REMARK VINA RESULT:     -10.4      1.261      3.998
REMARK SMILES CCc1nc(N2CC[N@H+](CC=C(C)C)[C@H](C(=O)OCCOCCOCCOCCOC(=O)c3ccc(-c4c5nc(c(-c6c(F)c(F)c(F)c(F)c6F)c6ccc([nH]6)c(-c6c(F)c(F)c(F)c(F)c6F)c6nc(c(-c7c(F)c(F)c(F)c(F)c7F)c7ccc4[nH]7)C=C6)C=C5)cc3)C2)no1
REMARK SMILES IDX 24 1 23 2 22 3 21 4 20 5 19 6 18 7 16 8 17 9 15 10 6 11 7 12
REMARK SMILES IDX 96 13 8 14 9 15 5 17 3 18 4 19 98 20 97 21 2 22 1 23 10 24
REMARK SMILES IDX 11 25 12 26 13 27 14 28 25 29 26 30 27 31 28 32 29 33 30 34
REMARK SMILES IDX 31 35 32 36 33 37 34 38 95 39 35 40 94 41 36 42 37 43 38 44
REMARK SMILES IDX 88 45 39 46 93 47 87 48 89 49 40 50 92 51 86 52 85 53 41 55
REMARK SMILES IDX 73 56 53 57 72 58 54 59 57 60 71 61 90 62 55 63 56 64 70 66
REMARK SMILES IDX 91 67 58 68 42 69 43 70 51 71 44 72 45 73 49 74 52 75 46 76
REMARK SMILES IDX 47 77 50 78 48 79 74 80 75 81 83 82 76 83 77 84 81 85 84 86
REMARK SMILES IDX 78 87 79 88 82 89 80 90 59 91 60 92 68 93 61 94 62 95 66 96
REMARK SMILES IDX 69 97 63 98 64 99 67 100 65 101
REMARK H PARENT 9 16 89 54 57 65
REMARK Flexibility Score: inf
ROOT
ATOM      1  O   UNL A   1      33.748  33.995  27.849  1.00  0.00    -0.377 OA
ENDROOT
BRANCH   1   2
ATOM      2  C   UNL A   1      34.383  32.778  28.195  1.00  0.00     0.188 C 
BRANCH   2   3
ATOM      3  C   UNL A   1      33.953  31.563  27.330  1.00  0.00     0.188 C 
BRANCH   3   4
ATOM      4  O   UNL A   1      33.321  30.440  27.930  1.00  0.00    -0.376 OA
BRANCH   4   5
ATOM      5  C   UNL A   1      33.372  29.194  27.270  1.00  0.00     0.202 C 
BRANCH   5   6
ATOM      6  C   UNL A   1      32.049  28.451  27.005  1.00  0.00     0.261 C 
BRANCH   6   7
ATOM      7  O   UNL A   1      31.933  27.076  27.444  1.00  0.00    -0.459 OA
BRANCH   7   8
ATOM      8  C   UNL A   1      31.598  26.146  26.501  1.00  0.00     0.366 C 
ATOM      9  O   UNL A   1      31.248  25.003  26.782  1.00  0.00    -0.245 OA
BRANCH   8  10
ATOM     10  C   UNL A   1      31.757  26.642  25.048  1.00  0.00     0.315 C 
ATOM     11  N   UNL A   1      30.747  27.724  23.067  1.00  0.00    -0.326 N 
ATOM     12  C   UNL A   1      31.947  27.423  22.275  1.00  0.00     0.181 C 
ATOM     13  C   UNL A   1      30.460  26.983  24.308  1.00  0.00     0.197 C 
ATOM     14  C   UNL A   1      33.154  27.023  23.150  1.00  0.00     0.285 C 
ATOM     15  N   UNL A   1      32.852  26.025  24.203  1.00  0.00    -0.317 N 
ATOM     16  H   UNL A   1      33.571  25.813  24.894  1.00  0.00     0.349 HD
BRANCH  11  17
ATOM     17  C   UNL A   1      30.030  28.811  22.729  1.00  0.00     0.266 A 
ATOM     18  C   UNL A   1      29.191  30.679  23.096  1.00  0.00     0.227 A 
ATOM     19  N   UNL A   1      29.540  29.590  23.734  1.00  0.00    -0.176 NA
ATOM     20  O   UNL A   1      29.314  30.579  21.744  1.00  0.00    -0.337 OA
ATOM     21  N   UNL A   1      29.886  29.334  21.504  1.00  0.00    -0.038 NA
BRANCH  18  22
ATOM     22  C   UNL A   1      28.805  31.995  23.639  1.00  0.00     0.097 C 
ATOM     23  C   UNL A   1      28.411  32.954  22.525  1.00  0.00     0.014 C 
ENDBRANCH  18  22
ENDBRANCH  11  17
BRANCH  15  24
ATOM     24  C   UNL A   1      32.738  24.693  23.582  1.00  0.00     0.291 C 
BRANCH  24  25
ATOM     25  C   UNL A   1      33.983  23.950  23.159  1.00  0.00     0.032 C 
ATOM     26  C   UNL A   1      35.045  23.569  23.901  1.00  0.00    -0.075 C 
ATOM     27  C   UNL A   1      36.257  22.959  23.238  1.00  0.00     0.039 C 
ATOM     28  C   UNL A   1      35.155  23.749  25.388  1.00  0.00     0.039 C 
ENDBRANCH  24  25
ENDBRANCH  15  24
ENDBRANCH   8  10
ENDBRANCH   7   8
ENDBRANCH   6   7
ENDBRANCH   5   6
ENDBRANCH   4   5
ENDBRANCH   3   4
ENDBRANCH   2   3
ENDBRANCH   1   2
BRANCH   1  29
ATOM     29  C   UNL A   1      34.217  35.119  28.573  1.00  0.00     0.188 C 
BRANCH  29  30
ATOM     30  C   UNL A   1      33.499  35.375  29.910  1.00  0.00     0.188 C 
BRANCH  30  31
ATOM     31  O   UNL A   1      33.680  34.311  30.834  1.00  0.00    -0.376 OA
BRANCH  31  32
ATOM     32  C   UNL A   1      34.075  34.547  32.169  1.00  0.00     0.202 C 
BRANCH  32  33
ATOM     33  C   UNL A   1      34.022  33.389  33.177  1.00  0.00     0.261 C 
BRANCH  33  34
ATOM     34  O   UNL A   1      34.951  32.320  32.977  1.00  0.00    -0.460 OA
BRANCH  34  35
ATOM     35  C   UNL A   1      36.208  32.514  33.419  1.00  0.00     0.338 C 
ATOM     36  O   UNL A   1      36.550  33.039  34.467  1.00  0.00    -0.246 OA
BRANCH  35  37
ATOM     37  C   UNL A   1      37.116  31.787  32.510  1.00  0.00     0.060 A 
ATOM     38  C   UNL A   1      38.055  30.912  33.071  1.00  0.00     0.016 A 
ATOM     39  C   UNL A   1      37.021  31.935  31.123  1.00  0.00     0.016 A 
ATOM     40  C   UNL A   1      38.929  30.209  32.249  1.00  0.00     0.010 A 
ATOM     41  C   UNL A   1      37.924  31.259  30.299  1.00  0.00     0.010 A 
ATOM     42  C   UNL A   1      38.907  30.429  30.866  1.00  0.00    -0.014 A 
BRANCH  42  43
ATOM     43  C   UNL A   1      40.080  29.999  30.074  1.00  0.00     0.031 A 
ATOM     44  C   UNL A   1      41.194  30.990  29.885  1.00  0.00     0.074 A 
ATOM     45  C   UNL A   1      40.191  28.743  29.610  1.00  0.00     0.049 A 
ATOM     46  N   UNL A   1      42.341  30.852  29.274  1.00  0.00    -0.248 NA
ATOM     47  C   UNL A   1      40.984  32.325  30.473  1.00  0.00     0.031 C 
ATOM     48  C   UNL A   1      39.196  27.688  29.781  1.00  0.00     0.029 A 
ATOM     49  N   UNL A   1      41.203  28.145  28.905  1.00  0.00    -0.354 N 
ATOM     50  C   UNL A   1      42.986  32.076  29.405  1.00  0.00     0.074 A 
ATOM     51  C   UNL A   1      42.090  32.957  30.117  1.00  0.00     0.031 C 
ATOM     52  C   UNL A   1      39.646  26.568  29.188  1.00  0.00     0.029 A 
ATOM     53  C   UNL A   1      40.947  26.838  28.577  1.00  0.00     0.049 A 
ATOM     54  H   UNL A   1      42.036  28.610  28.657  1.00  0.00     0.167 HD
ATOM     55  C   UNL A   1      44.221  32.426  28.980  1.00  0.00     0.037 A 
ATOM     56  C   UNL A   1      41.679  25.970  27.853  1.00  0.00     0.037 A 
ATOM     57  C   UNL A   1      45.101  31.543  28.264  1.00  0.00     0.049 A 
ATOM     58  C   UNL A   1      43.021  26.412  27.320  1.00  0.00     0.074 A 
ATOM     59  C   UNL A   1      46.376  31.793  27.791  1.00  0.00     0.029 A 
ATOM     60  N   UNL A   1      44.788  30.239  27.907  1.00  0.00    -0.354 N 
ATOM     61  N   UNL A   1      43.638  27.560  27.470  1.00  0.00    -0.248 NA
ATOM     62  C   UNL A   1      43.772  25.429  26.527  1.00  0.00     0.031 C 
ATOM     63  C   UNL A   1      46.809  30.662  27.090  1.00  0.00     0.029 A 
ATOM     64  C   UNL A   1      45.835  29.681  27.192  1.00  0.00     0.049 A 
ATOM     65  H   UNL A   1      43.947  29.779  28.130  1.00  0.00     0.167 HD
ATOM     66  C   UNL A   1      44.860  27.427  26.822  1.00  0.00     0.074 A 
ATOM     67  C   UNL A   1      44.903  26.079  26.293  1.00  0.00     0.031 C 
ATOM     68  C   UNL A   1      45.860  28.334  26.679  1.00  0.00     0.037 A 
BRANCH  55  69
ATOM     69  C   UNL A   1      44.670  33.835  29.245  1.00  0.00     0.064 A 
ATOM     70  C   UNL A   1      45.380  34.183  30.404  1.00  0.00     0.173 A 
ATOM     71  C   UNL A   1      44.393  34.850  28.317  1.00  0.00     0.173 A 
ATOM     72  F   UNL A   1      45.652  33.256  31.335  1.00  0.00    -0.203 F 
ATOM     73  C   UNL A   1      45.771  35.500  30.637  1.00  0.00     0.198 A 
ATOM     74  C   UNL A   1      44.816  36.158  28.536  1.00  0.00     0.198 A 
ATOM     75  F   UNL A   1      43.714  34.573  27.194  1.00  0.00    -0.203 F 
ATOM     76  F   UNL A   1      46.397  35.820  31.777  1.00  0.00    -0.200 F 
ATOM     77  C   UNL A   1      45.496  36.484  29.700  1.00  0.00     0.200 A 
ATOM     78  F   UNL A   1      44.559  37.105  27.623  1.00  0.00    -0.200 F 
ATOM     79  F   UNL A   1      45.877  37.750  29.922  1.00  0.00    -0.200 F 
ENDBRANCH  55  69
BRANCH  56  80
ATOM     80  C   UNL A   1      41.162  24.604  27.578  1.00  0.00     0.064 A 
ATOM     81  C   UNL A   1      40.078  24.394  26.714  1.00  0.00     0.173 A 
ATOM     82  C   UNL A   1      41.726  23.477  28.198  1.00  0.00     0.173 A 
ATOM     83  F   UNL A   1      39.487  25.439  26.117  1.00  0.00    -0.203 F 
ATOM     84  C   UNL A   1      39.562  23.116  26.500  1.00  0.00     0.198 A 
ATOM     85  C   UNL A   1      41.231  22.197  27.957  1.00  0.00     0.198 A 
ATOM     86  F   UNL A   1      42.763  23.620  29.035  1.00  0.00    -0.203 F 
ATOM     87  F   UNL A   1      38.489  22.953  25.714  1.00  0.00    -0.200 F 
ATOM     88  C   UNL A   1      40.143  22.018  27.118  1.00  0.00     0.200 A 
ATOM     89  F   UNL A   1      41.804  21.138  28.545  1.00  0.00    -0.200 F 
ATOM     90  F   UNL A   1      39.648  20.791  26.910  1.00  0.00    -0.200 F 
ENDBRANCH  56  80
BRANCH  68  91
ATOM     91  C   UNL A   1      47.103  27.884  25.962  1.00  0.00     0.064 A 
ATOM     92  C   UNL A   1      48.250  27.468  26.652  1.00  0.00     0.173 A 
ATOM     93  C   UNL A   1      47.130  27.840  24.559  1.00  0.00     0.173 A 
ATOM     94  F   UNL A   1      48.280  27.497  27.993  1.00  0.00    -0.203 F 
ATOM     95  C   UNL A   1      49.393  27.065  25.965  1.00  0.00     0.198 A 
ATOM     96  C   UNL A   1      48.260  27.400  23.876  1.00  0.00     0.198 A 
ATOM     97  F   UNL A   1      46.056  28.214  23.847  1.00  0.00    -0.203 F 
ATOM     98  F   UNL A   1      50.499  26.735  26.645  1.00  0.00    -0.200 F 
ATOM     99  C   UNL A   1      49.395  27.026  24.578  1.00  0.00     0.200 A 
ATOM    100  F   UNL A   1      48.252  27.342  22.537  1.00  0.00    -0.200 F 
ATOM    101  F   UNL A   1      50.494  26.634  23.920  1.00  0.00    -0.200 F 
ENDBRANCH  68  91
ENDBRANCH  42  43
ENDBRANCH  35  37
ENDBRANCH  34  35
ENDBRANCH  33  34
ENDBRANCH  32  33
ENDBRANCH  31  32
ENDBRANCH  30  31
ENDBRANCH  29  30
ENDBRANCH   1  29
TORSDOF 24
ENDMDL
