MODEL 1
REMARK VINA RESULT:     -11.5      0.000      0.000
REMARK SMILES Cc1c(C[NH2+]Cc2cccc(F)c2)c(C(=O)OCCOCCOCCOCCOC(=O)c2ccc(-c3c4nc(c(-c5c(F)c(F)c(F)c(F)c5F)c5ccc([nH]5)c(-c5c(F)c(F)c(F)c(F)c5F)c5nc(c(-c6c(F)c(F)c(F)c(F)c6F)c6ccc3[nH]6)C=C5)C=C4)cc2)c(C)n1Cc1c(F)cccc1Cl
REMARK SMILES IDX 22 1 21 2 20 3 19 4 18 5 17 6 15 7 16 8 14 9 1 10 2 11 3 12
REMARK SMILES IDX 97 13 95 14 96 15 4 16 5 17 6 20 7 21 8 22 13 23 9 24 11 25
REMARK SMILES IDX 10 26 12 27 98 28 99 29 100 30 105 31 101 32 102 33 104 34
REMARK SMILES IDX 106 35 103 36 23 37 24 38 25 39 26 40 27 41 28 42 29 43
REMARK SMILES IDX 30 44 31 45 32 46 33 47 94 48 34 49 93 50 35 51 36 52 37 53
REMARK SMILES IDX 87 54 38 55 92 56 86 57 88 58 39 59 91 60 85 61 84 62 40 64
REMARK SMILES IDX 72 65 52 66 71 67 53 68 56 69 70 70 89 71 54 72 55 73 69 75
REMARK SMILES IDX 90 76 57 77 41 78 42 79 50 80 43 81 44 82 48 83 51 84 45 85
REMARK SMILES IDX 46 86 49 87 47 88 73 89 74 90 82 91 75 92 76 93 80 94 83 95
REMARK SMILES IDX 77 96 78 97 81 98 79 99 58 100 59 101 67 102 60 103 61 104
REMARK SMILES IDX 65 105 68 106 62 107 63 108 66 109 64 110
REMARK H PARENT 5 18 5 19 88 63 56 74
REMARK Flexibility Score: inf
ROOT
ATOM      1  C   UNL A   1      35.859  31.455  28.984  1.00  0.00     0.188 C 
ENDROOT
BRANCH   1   2
ATOM      2  C   UNL A   1      35.341  30.945  27.617  1.00  0.00     0.188 C 
BRANCH   2   3
ATOM      3  O   UNL A   1      34.244  30.048  27.722  1.00  0.00    -0.376 OA
BRANCH   3   4
ATOM      4  C   UNL A   1      33.134  30.189  26.847  1.00  0.00     0.202 C 
BRANCH   4   5
ATOM      5  C   UNL A   1      32.129  29.036  26.712  1.00  0.00     0.261 C 
BRANCH   5   6
ATOM      6  O   UNL A   1      32.695  27.732  26.798  1.00  0.00    -0.460 OA
BRANCH   6   7
ATOM      7  C   UNL A   1      32.985  27.037  25.670  1.00  0.00     0.340 C 
ATOM      8  O   UNL A   1      33.485  27.545  24.666  1.00  0.00    -0.246 OA
BRANCH   7   9
ATOM      9  C   UNL A   1      32.639  25.618  25.846  1.00  0.00     0.089 A 
ATOM     10  C   UNL A   1      30.614  22.545  26.503  1.00  0.00     0.065 C 
ATOM     11  C   UNL A   1      31.582  23.626  26.140  1.00  0.00     0.025 A 
ATOM     12  C   UNL A   1      31.355  25.002  26.028  1.00  0.00     0.042 A 
ATOM     13  N   UNL A   1      32.917  23.369  25.833  1.00  0.00    -0.343 N 
ATOM     14  C   UNL A   1      33.574  24.586  25.747  1.00  0.00     0.030 A 
ATOM     15  C   UNL A   1      35.040  24.752  25.522  1.00  0.00     0.065 C 
BRANCH  12  16
ATOM     16  C   UNL A   1      30.012  25.696  26.030  1.00  0.00     0.300 C 
BRANCH  16  17
ATOM     17  N   UNL A   1      29.370  25.535  24.742  1.00  0.00    -0.339 N 
ATOM     18  H   UNL A   1      28.479  26.031  24.766  1.00  0.00     0.346 HD
ATOM     19  H   UNL A   1      29.265  24.530  24.595  1.00  0.00     0.346 HD
BRANCH  17  20
ATOM     20  C   UNL A   1      30.141  26.038  23.613  1.00  0.00     0.297 C 
BRANCH  20  21
ATOM     21  C   UNL A   1      29.803  27.433  23.125  1.00  0.00     0.009 A 
ATOM     22  C   UNL A   1      30.725  28.278  22.484  1.00  0.00     0.010 A 
ATOM     23  C   UNL A   1      28.487  27.898  23.292  1.00  0.00     0.048 A 
ATOM     24  C   UNL A   1      30.362  29.564  22.073  1.00  0.00     0.004 A 
ATOM     25  C   UNL A   1      28.132  29.175  22.866  1.00  0.00     0.123 A 
ATOM     26  C   UNL A   1      29.061  30.015  22.269  1.00  0.00     0.039 A 
ATOM     27  F   UNL A   1      26.873  29.599  23.037  1.00  0.00    -0.207 F 
ENDBRANCH  20  21
ENDBRANCH  17  20
ENDBRANCH  16  17
ENDBRANCH  12  16
BRANCH  13  28
ATOM     28  C   UNL A   1      33.561  22.033  25.813  1.00  0.00     0.162 C 
BRANCH  28  29
ATOM     29  C   UNL A   1      33.078  21.067  24.745  1.00  0.00     0.026 A 
ATOM     30  C   UNL A   1      32.866  19.713  25.049  1.00  0.00     0.129 A 
ATOM     31  C   UNL A   1      32.697  21.461  23.451  1.00  0.00     0.048 A 
ATOM     32  F   UNL A   1      32.968  19.278  26.306  1.00  0.00    -0.207 F 
ATOM     33  C   UNL A   1      32.425  18.775  24.114  1.00  0.00     0.040 A 
ATOM     34  C   UNL A   1      32.216  20.530  22.509  1.00  0.00     0.021 A 
ATOM     35  Cl  UNL A   1      32.686  23.115  22.949  1.00  0.00    -0.084 Cl
ATOM     36  C   UNL A   1      32.105  19.181  22.830  1.00  0.00     0.005 A 
ENDBRANCH  28  29
ENDBRANCH  13  28
ENDBRANCH   7   9
ENDBRANCH   6   7
ENDBRANCH   5   6
ENDBRANCH   4   5
ENDBRANCH   3   4
ENDBRANCH   2   3
ENDBRANCH   1   2
BRANCH   1  37
ATOM     37  O   UNL A   1      35.682  32.817  29.374  1.00  0.00    -0.377 OA
BRANCH  37  38
ATOM     38  C   UNL A   1      34.642  33.115  30.286  1.00  0.00     0.188 C 
BRANCH  38  39
ATOM     39  C   UNL A   1      34.024  34.507  30.081  1.00  0.00     0.188 C 
BRANCH  39  40
ATOM     40  O   UNL A   1      33.539  35.209  31.214  1.00  0.00    -0.376 OA
BRANCH  40  41
ATOM     41  C   UNL A   1      33.780  34.677  32.513  1.00  0.00     0.202 C 
BRANCH  41  42
ATOM     42  C   UNL A   1      34.813  35.315  33.507  1.00  0.00     0.261 C 
BRANCH  42  43
ATOM     43  O   UNL A   1      36.231  34.912  33.692  1.00  0.00    -0.460 OA
BRANCH  43  44
ATOM     44  C   UNL A   1      36.471  33.571  33.953  1.00  0.00     0.338 C 
ATOM     45  O   UNL A   1      36.200  33.071  35.042  1.00  0.00    -0.246 OA
BRANCH  44  46
ATOM     46  C   UNL A   1      37.077  32.651  32.835  1.00  0.00     0.060 A 
ATOM     47  C   UNL A   1      36.863  31.280  32.892  1.00  0.00     0.016 A 
ATOM     48  C   UNL A   1      38.112  32.983  31.923  1.00  0.00     0.016 A 
ATOM     49  C   UNL A   1      37.585  30.334  32.037  1.00  0.00     0.010 A 
ATOM     50  C   UNL A   1      38.909  31.985  31.096  1.00  0.00     0.010 A 
ATOM     51  C   UNL A   1      38.687  30.592  31.112  1.00  0.00    -0.014 A 
BRANCH  51  52
ATOM     52  C   UNL A   1      39.658  29.248  30.593  1.00  0.00     0.031 A 
ATOM     53  C   UNL A   1      40.577  29.144  31.764  1.00  0.00     0.074 A 
ATOM     54  C   UNL A   1      40.044  28.327  29.558  1.00  0.00     0.049 A 
ATOM     55  N   UNL A   1      41.288  30.191  32.081  1.00  0.00    -0.248 NA
ATOM     56  C   UNL A   1      40.446  28.154  32.837  1.00  0.00     0.031 C 
ATOM     57  C   UNL A   1      39.563  28.242  28.157  1.00  0.00     0.029 A 
ATOM     58  N   UNL A   1      41.014  27.209  29.482  1.00  0.00    -0.354 N 
ATOM     59  C   UNL A   1      41.956  29.877  33.230  1.00  0.00     0.074 A 
ATOM     60  C   UNL A   1      41.224  28.733  33.764  1.00  0.00     0.031 C 
ATOM     61  C   UNL A   1      40.058  27.159  27.469  1.00  0.00     0.029 A 
ATOM     62  C   UNL A   1      41.014  26.370  28.259  1.00  0.00     0.049 A 
ATOM     63  H   UNL A   1      41.639  27.029  30.220  1.00  0.00     0.167 HD
ATOM     64  C   UNL A   1      43.301  30.089  33.162  1.00  0.00     0.037 A 
ATOM     65  C   UNL A   1      41.768  25.232  27.848  1.00  0.00     0.037 A 
ATOM     66  C   UNL A   1      44.019  28.869  32.916  1.00  0.00     0.049 A 
ATOM     67  C   UNL A   1      43.038  25.315  28.570  1.00  0.00     0.074 A 
ATOM     68  C   UNL A   1      43.823  27.560  33.315  1.00  0.00     0.029 A 
ATOM     69  N   UNL A   1      44.773  28.815  31.766  1.00  0.00    -0.354 N 
ATOM     70  N   UNL A   1      43.976  26.122  28.179  1.00  0.00    -0.248 NA
ATOM     71  C   UNL A   1      43.399  24.390  29.639  1.00  0.00     0.031 C 
ATOM     72  C   UNL A   1      43.886  26.834  32.109  1.00  0.00     0.029 A 
ATOM     73  C   UNL A   1      44.556  27.603  31.167  1.00  0.00     0.049 A 
ATOM     74  H   UNL A   1      45.367  29.526  31.433  1.00  0.00     0.167 HD
ATOM     75  C   UNL A   1      44.760  26.198  29.280  1.00  0.00     0.074 A 
ATOM     76  C   UNL A   1      44.554  24.954  30.002  1.00  0.00     0.031 C 
ATOM     77  C   UNL A   1      44.876  27.447  29.779  1.00  0.00     0.037 A 
BRANCH  64  78
ATOM     78  C   UNL A   1      43.688  31.405  32.522  1.00  0.00     0.064 A 
ATOM     79  C   UNL A   1      43.449  31.723  31.164  1.00  0.00     0.173 A 
ATOM     80  C   UNL A   1      44.285  32.393  33.307  1.00  0.00     0.173 A 
ATOM     81  F   UNL A   1      43.089  30.777  30.280  1.00  0.00    -0.203 F 
ATOM     82  C   UNL A   1      43.636  33.007  30.669  1.00  0.00     0.198 A 
ATOM     83  C   UNL A   1      44.556  33.658  32.782  1.00  0.00     0.198 A 
ATOM     84  F   UNL A   1      44.634  32.124  34.574  1.00  0.00    -0.203 F 
ATOM     85  F   UNL A   1      43.310  33.289  29.400  1.00  0.00    -0.200 F 
ATOM     86  C   UNL A   1      44.193  33.977  31.480  1.00  0.00     0.200 A 
ATOM     87  F   UNL A   1      45.185  34.571  33.536  1.00  0.00    -0.200 F 
ATOM     88  F   UNL A   1      44.424  35.203  30.992  1.00  0.00    -0.200 F 
ENDBRANCH  64  78
BRANCH  65  89
ATOM     89  C   UNL A   1      41.993  24.009  26.805  1.00  0.00     0.064 A 
ATOM     90  C   UNL A   1      41.856  22.660  27.178  1.00  0.00     0.173 A 
ATOM     91  C   UNL A   1      42.826  24.148  25.618  1.00  0.00     0.173 A 
ATOM     92  F   UNL A   1      41.138  22.343  28.263  1.00  0.00    -0.203 F 
ATOM     93  C   UNL A   1      42.529  21.588  26.506  1.00  0.00     0.198 A 
ATOM     94  C   UNL A   1      43.525  23.091  24.982  1.00  0.00     0.198 A 
ATOM     95  F   UNL A   1      43.055  25.345  25.059  1.00  0.00    -0.203 F 
ATOM     96  F   UNL A   1      42.395  20.329  26.953  1.00  0.00    -0.200 F 
ATOM     97  C   UNL A   1      43.388  21.807  25.440  1.00  0.00     0.200 A 
ATOM     98  F   UNL A   1      44.379  23.345  23.974  1.00  0.00    -0.200 F 
ATOM     99  F   UNL A   1      44.095  20.805  24.889  1.00  0.00    -0.200 F 
ENDBRANCH  65  89
BRANCH  77 100
ATOM    100  C   UNL A   1      45.081  28.573  28.786  1.00  0.00     0.064 A 
ATOM    101  C   UNL A   1      46.401  28.978  28.560  1.00  0.00     0.173 A 
ATOM    102  C   UNL A   1      44.089  29.224  28.015  1.00  0.00     0.173 A 
ATOM    103  F   UNL A   1      47.393  28.435  29.283  1.00  0.00    -0.203 F 
ATOM    104  C   UNL A   1      46.723  29.959  27.625  1.00  0.00     0.198 A 
ATOM    105  C   UNL A   1      44.418  30.178  27.047  1.00  0.00     0.198 A 
ATOM    106  F   UNL A   1      42.784  28.980  28.183  1.00  0.00    -0.203 F 
ATOM    107  F   UNL A   1      47.999  30.342  27.485  1.00  0.00    -0.200 F 
ATOM    108  C   UNL A   1      45.735  30.547  26.856  1.00  0.00     0.200 A 
ATOM    109  F   UNL A   1      43.453  30.745  26.304  1.00  0.00    -0.200 F 
ATOM    110  F   UNL A   1      46.053  31.481  25.949  1.00  0.00    -0.200 F 
ENDBRANCH  77 100
ENDBRANCH  51  52
ENDBRANCH  44  46
ENDBRANCH  43  44
ENDBRANCH  42  43
ENDBRANCH  41  42
ENDBRANCH  40  41
ENDBRANCH  39  40
ENDBRANCH  38  39
ENDBRANCH  37  38
ENDBRANCH   1  37
TORSDOF 26
ENDMDL
MODEL 2
REMARK VINA RESULT:      -9.8      6.534     10.818
REMARK SMILES Cc1c(C[NH2+]Cc2cccc(F)c2)c(C(=O)OCCOCCOCCOCCOC(=O)c2ccc(-c3c4nc(c(-c5c(F)c(F)c(F)c(F)c5F)c5ccc([nH]5)c(-c5c(F)c(F)c(F)c(F)c5F)c5nc(c(-c6c(F)c(F)c(F)c(F)c6F)c6ccc3[nH]6)C=C5)C=C4)cc2)c(C)n1Cc1c(F)cccc1Cl
REMARK SMILES IDX 22 1 21 2 20 3 19 4 18 5 17 6 15 7 16 8 14 9 1 10 2 11 3 12
REMARK SMILES IDX 97 13 95 14 96 15 4 16 5 17 6 20 7 21 8 22 13 23 9 24 11 25
REMARK SMILES IDX 10 26 12 27 98 28 99 29 100 30 105 31 101 32 102 33 104 34
REMARK SMILES IDX 106 35 103 36 23 37 24 38 25 39 26 40 27 41 28 42 29 43
REMARK SMILES IDX 30 44 31 45 32 46 33 47 94 48 34 49 93 50 35 51 36 52 37 53
REMARK SMILES IDX 87 54 38 55 92 56 86 57 88 58 39 59 91 60 85 61 84 62 40 64
REMARK SMILES IDX 72 65 52 66 71 67 53 68 56 69 70 70 89 71 54 72 55 73 69 75
REMARK SMILES IDX 90 76 57 77 41 78 42 79 50 80 43 81 44 82 48 83 51 84 45 85
REMARK SMILES IDX 46 86 49 87 47 88 73 89 74 90 82 91 75 92 76 93 80 94 83 95
REMARK SMILES IDX 77 96 78 97 81 98 79 99 58 100 59 101 67 102 60 103 61 104
REMARK SMILES IDX 65 105 68 106 62 107 63 108 66 109 64 110
REMARK H PARENT 5 18 5 19 88 63 56 74
REMARK Flexibility Score: inf
ROOT
ATOM      1  C   UNL A   1      37.093  29.560  29.011  1.00  0.00     0.188 C 
ENDROOT
BRANCH   1   2
ATOM      2  C   UNL A   1      36.369  29.826  27.668  1.00  0.00     0.188 C 
BRANCH   2   3
ATOM      3  O   UNL A   1      35.127  29.147  27.546  1.00  0.00    -0.376 OA
BRANCH   3   4
ATOM      4  C   UNL A   1      33.940  29.890  27.307  1.00  0.00     0.202 C 
BRANCH   4   5
ATOM      5  C   UNL A   1      32.612  29.146  27.105  1.00  0.00     0.261 C 
BRANCH   5   6
ATOM      6  O   UNL A   1      32.726  27.729  27.010  1.00  0.00    -0.460 OA
BRANCH   6   7
ATOM      7  C   UNL A   1      32.873  27.135  25.800  1.00  0.00     0.340 C 
ATOM      8  O   UNL A   1      33.236  27.734  24.786  1.00  0.00    -0.246 OA
BRANCH   7   9
ATOM      9  C   UNL A   1      32.564  25.700  25.898  1.00  0.00     0.089 A 
ATOM     10  C   UNL A   1      30.621  22.545  26.395  1.00  0.00     0.065 C 
ATOM     11  C   UNL A   1      31.559  23.669  26.087  1.00  0.00     0.025 A 
ATOM     12  C   UNL A   1      31.297  25.043  26.054  1.00  0.00     0.042 A 
ATOM     13  N   UNL A   1      32.897  23.463  25.757  1.00  0.00    -0.343 N 
ATOM     14  C   UNL A   1      33.523  24.699  25.735  1.00  0.00     0.030 A 
ATOM     15  C   UNL A   1      34.983  24.914  25.510  1.00  0.00     0.065 C 
BRANCH  12  16
ATOM     16  C   UNL A   1      29.938  25.702  26.105  1.00  0.00     0.300 C 
BRANCH  16  17
ATOM     17  N   UNL A   1      29.329  25.682  24.790  1.00  0.00    -0.339 N 
ATOM     18  H   UNL A   1      28.468  26.225  24.830  1.00  0.00     0.346 HD
ATOM     19  H   UNL A   1      29.173  24.700  24.559  1.00  0.00     0.346 HD
BRANCH  17  20
ATOM     20  C   UNL A   1      30.164  26.228  23.728  1.00  0.00     0.297 C 
BRANCH  20  21
ATOM     21  C   UNL A   1      29.736  27.559  23.143  1.00  0.00     0.009 A 
ATOM     22  C   UNL A   1      30.589  28.394  22.399  1.00  0.00     0.010 A 
ATOM     23  C   UNL A   1      28.405  27.971  23.323  1.00  0.00     0.048 A 
ATOM     24  C   UNL A   1      30.146  29.621  21.901  1.00  0.00     0.004 A 
ATOM     25  C   UNL A   1      27.968  29.189  22.809  1.00  0.00     0.123 A 
ATOM     26  C   UNL A   1      28.830  30.023  22.110  1.00  0.00     0.039 A 
ATOM     27  F   UNL A   1      26.696  29.564  22.995  1.00  0.00    -0.207 F 
ENDBRANCH  20  21
ENDBRANCH  17  20
ENDBRANCH  16  17
ENDBRANCH  12  16
BRANCH  13  28
ATOM     28  C   UNL A   1      33.573  22.147  25.658  1.00  0.00     0.162 C 
BRANCH  28  29
ATOM     29  C   UNL A   1      33.070  21.209  24.574  1.00  0.00     0.026 A 
ATOM     30  C   UNL A   1      32.843  19.852  24.852  1.00  0.00     0.129 A 
ATOM     31  C   UNL A   1      32.683  21.635  23.292  1.00  0.00     0.048 A 
ATOM     32  F   UNL A   1      32.951  19.390  26.099  1.00  0.00    -0.207 F 
ATOM     33  C   UNL A   1      32.383  18.939  23.902  1.00  0.00     0.040 A 
ATOM     34  C   UNL A   1      32.182  20.730  22.335  1.00  0.00     0.021 A 
ATOM     35  Cl  UNL A   1      32.688  23.299  22.824  1.00  0.00    -0.084 Cl
ATOM     36  C   UNL A   1      32.058  19.375  22.630  1.00  0.00     0.005 A 
ENDBRANCH  28  29
ENDBRANCH  13  28
ENDBRANCH   7   9
ENDBRANCH   6   7
ENDBRANCH   5   6
ENDBRANCH   4   5
ENDBRANCH   3   4
ENDBRANCH   2   3
ENDBRANCH   1   2
BRANCH   1  37
ATOM     37  O   UNL A   1      38.149  30.412  29.455  1.00  0.00    -0.377 OA
BRANCH  37  38
ATOM     38  C   UNL A   1      38.353  30.542  30.849  1.00  0.00     0.188 C 
BRANCH  38  39
ATOM     39  C   UNL A   1      38.477  32.000  31.320  1.00  0.00     0.188 C 
BRANCH  39  40
ATOM     40  O   UNL A   1      39.221  32.273  32.496  1.00  0.00    -0.376 OA
BRANCH  40  41
ATOM     41  C   UNL A   1      40.065  31.260  33.032  1.00  0.00     0.202 C 
BRANCH  41  42
ATOM     42  C   UNL A   1      41.580  31.508  33.358  1.00  0.00     0.261 C 
BRANCH  42  43
ATOM     43  O   UNL A   1      42.706  31.513  32.388  1.00  0.00    -0.460 OA
BRANCH  43  44
ATOM     44  C   UNL A   1      42.373  31.448  31.042  1.00  0.00     0.338 C 
ATOM     45  O   UNL A   1      42.189  30.373  30.479  1.00  0.00    -0.246 OA
BRANCH  44  46
ATOM     46  C   UNL A   1      42.197  32.769  30.214  1.00  0.00     0.060 A 
ATOM     47  C   UNL A   1      42.976  32.972  29.083  1.00  0.00     0.016 A 
ATOM     48  C   UNL A   1      41.569  33.969  30.641  1.00  0.00     0.016 A 
ATOM     49  C   UNL A   1      43.049  34.266  28.398  1.00  0.00     0.010 A 
ATOM     50  C   UNL A   1      41.713  35.325  29.967  1.00  0.00     0.010 A 
ATOM     51  C   UNL A   1      42.472  35.548  28.798  1.00  0.00    -0.014 A 
BRANCH  51  52
ATOM     52  C   UNL A   1      43.099  36.995  28.072  1.00  0.00     0.031 A 
ATOM     53  C   UNL A   1      44.514  36.909  28.536  1.00  0.00     0.074 A 
ATOM     54  C   UNL A   1      42.865  38.233  27.377  1.00  0.00     0.049 A 
ATOM     55  N   UNL A   1      44.736  36.849  29.821  1.00  0.00    -0.248 NA
ATOM     56  C   UNL A   1      45.634  36.454  27.708  1.00  0.00     0.031 C 
ATOM     57  C   UNL A   1      41.578  38.833  26.945  1.00  0.00     0.029 A 
ATOM     58  N   UNL A   1      43.743  39.320  26.883  1.00  0.00    -0.354 N 
ATOM     59  C   UNL A   1      46.081  36.673  29.978  1.00  0.00     0.074 A 
ATOM     60  C   UNL A   1      46.532  36.202  28.672  1.00  0.00     0.031 C 
ATOM     61  C   UNL A   1      41.726  39.975  26.194  1.00  0.00     0.029 A 
ATOM     62  C   UNL A   1      43.131  40.385  26.052  1.00  0.00     0.049 A 
ATOM     63  H   UNL A   1      44.703  39.335  27.100  1.00  0.00     0.167 HD
ATOM     64  C   UNL A   1      46.660  37.574  30.821  1.00  0.00     0.037 A 
ATOM     65  C   UNL A   1      43.648  41.546  25.405  1.00  0.00     0.037 A 
ATOM     66  C   UNL A   1      47.315  38.630  30.099  1.00  0.00     0.049 A 
ATOM     67  C   UNL A   1      44.837  41.929  26.167  1.00  0.00     0.074 A 
ATOM     68  C   UNL A   1      48.009  38.671  28.905  1.00  0.00     0.029 A 
ATOM     69  N   UNL A   1      46.861  39.909  30.327  1.00  0.00    -0.354 N 
ATOM     70  N   UNL A   1      44.731  42.562  27.295  1.00  0.00    -0.248 NA
ATOM     71  C   UNL A   1      46.190  41.795  25.638  1.00  0.00     0.031 C 
ATOM     72  C   UNL A   1      47.400  39.732  28.204  1.00  0.00     0.029 A 
ATOM     73  C   UNL A   1      46.749  40.546  29.120  1.00  0.00     0.049 A 
ATOM     74  H   UNL A   1      46.653  40.299  31.207  1.00  0.00     0.167 HD
ATOM     75  C   UNL A   1      45.954  42.368  27.843  1.00  0.00     0.074 A 
ATOM     76  C   UNL A   1      46.864  42.170  26.727  1.00  0.00     0.031 C 
ATOM     77  C   UNL A   1      45.923  41.713  29.024  1.00  0.00     0.037 A 
BRANCH  64  78
ATOM     78  C   UNL A   1      45.882  37.819  32.096  1.00  0.00     0.064 A 
ATOM     79  C   UNL A   1      46.265  37.316  33.363  1.00  0.00     0.173 A 
ATOM     80  C   UNL A   1      44.736  38.615  32.051  1.00  0.00     0.173 A 
ATOM     81  F   UNL A   1      47.212  36.370  33.479  1.00  0.00    -0.203 F 
ATOM     82  C   UNL A   1      45.639  37.728  34.532  1.00  0.00     0.198 A 
ATOM     83  C   UNL A   1      44.054  38.953  33.221  1.00  0.00     0.198 A 
ATOM     84  F   UNL A   1      44.259  39.038  30.871  1.00  0.00    -0.203 F 
ATOM     85  F   UNL A   1      46.092  37.299  35.718  1.00  0.00    -0.200 F 
ATOM     86  C   UNL A   1      44.529  38.547  34.460  1.00  0.00     0.200 A 
ATOM     87  F   UNL A   1      42.922  39.667  33.148  1.00  0.00    -0.200 F 
ATOM     88  F   UNL A   1      43.890  38.904  35.583  1.00  0.00    -0.200 F 
ENDBRANCH  64  78
BRANCH  65  89
ATOM     89  C   UNL A   1      43.437  42.778  24.370  1.00  0.00     0.064 A 
ATOM     90  C   UNL A   1      42.918  42.598  23.074  1.00  0.00     0.173 A 
ATOM     91  C   UNL A   1      44.209  44.010  24.464  1.00  0.00     0.173 A 
ATOM     92  F   UNL A   1      42.196  41.505  22.797  1.00  0.00    -0.203 F 
ATOM     93  C   UNL A   1      43.198  43.488  21.987  1.00  0.00     0.198 A 
ATOM     94  C   UNL A   1      44.520  44.864  23.378  1.00  0.00     0.198 A 
ATOM     95  F   UNL A   1      44.759  44.403  25.622  1.00  0.00    -0.203 F 
ATOM     96  F   UNL A   1      42.713  43.224  20.764  1.00  0.00    -0.200 F 
ATOM     97  C   UNL A   1      44.026  44.592  22.129  1.00  0.00     0.200 A 
ATOM     98  F   UNL A   1      45.356  45.905  23.543  1.00  0.00    -0.200 F 
ATOM     99  F   UNL A   1      44.366  45.356  21.076  1.00  0.00    -0.200 F 
ENDBRANCH  65  89
BRANCH  77 100
ATOM    100  C   UNL A   1      44.851  42.123  30.014  1.00  0.00     0.064 A 
ATOM    101  C   UNL A   1      45.209  43.088  30.962  1.00  0.00     0.173 A 
ATOM    102  C   UNL A   1      43.507  41.681  30.051  1.00  0.00     0.173 A 
ATOM    103  F   UNL A   1      46.477  43.526  31.016  1.00  0.00    -0.203 F 
ATOM    104  C   UNL A   1      44.294  43.591  31.885  1.00  0.00     0.198 A 
ATOM    105  C   UNL A   1      42.580  42.218  30.950  1.00  0.00     0.198 A 
ATOM    106  F   UNL A   1      43.055  40.712  29.246  1.00  0.00    -0.203 F 
ATOM    107  F   UNL A   1      44.704  44.478  32.801  1.00  0.00    -0.200 F 
ATOM    108  C   UNL A   1      42.977  43.170  31.869  1.00  0.00     0.200 A 
ATOM    109  F   UNL A   1      41.303  41.805  30.929  1.00  0.00    -0.200 F 
ATOM    110  F   UNL A   1      42.099  43.669  32.750  1.00  0.00    -0.200 F 
ENDBRANCH  77 100
ENDBRANCH  51  52
ENDBRANCH  44  46
ENDBRANCH  43  44
ENDBRANCH  42  43
ENDBRANCH  41  42
ENDBRANCH  40  41
ENDBRANCH  39  40
ENDBRANCH  38  39
ENDBRANCH  37  38
ENDBRANCH   1  37
TORSDOF 26
ENDMDL
MODEL 3
REMARK VINA RESULT:      -9.8      4.376     10.335
REMARK SMILES Cc1c(C[NH2+]Cc2cccc(F)c2)c(C(=O)OCCOCCOCCOCCOC(=O)c2ccc(-c3c4nc(c(-c5c(F)c(F)c(F)c(F)c5F)c5ccc([nH]5)c(-c5c(F)c(F)c(F)c(F)c5F)c5nc(c(-c6c(F)c(F)c(F)c(F)c6F)c6ccc3[nH]6)C=C5)C=C4)cc2)c(C)n1Cc1c(F)cccc1Cl
REMARK SMILES IDX 22 1 21 2 20 3 19 4 18 5 17 6 15 7 16 8 14 9 1 10 2 11 3 12
REMARK SMILES IDX 97 13 95 14 96 15 4 16 5 17 6 20 7 21 8 22 13 23 9 24 11 25
REMARK SMILES IDX 10 26 12 27 98 28 99 29 100 30 105 31 101 32 102 33 104 34
REMARK SMILES IDX 106 35 103 36 23 37 24 38 25 39 26 40 27 41 28 42 29 43
REMARK SMILES IDX 30 44 31 45 32 46 33 47 94 48 34 49 93 50 35 51 36 52 37 53
REMARK SMILES IDX 87 54 38 55 92 56 86 57 88 58 39 59 91 60 85 61 84 62 40 64
REMARK SMILES IDX 72 65 52 66 71 67 53 68 56 69 70 70 89 71 54 72 55 73 69 75
REMARK SMILES IDX 90 76 57 77 41 78 42 79 50 80 43 81 44 82 48 83 51 84 45 85
REMARK SMILES IDX 46 86 49 87 47 88 73 89 74 90 82 91 75 92 76 93 80 94 83 95
REMARK SMILES IDX 77 96 78 97 81 98 79 99 58 100 59 101 67 102 60 103 61 104
REMARK SMILES IDX 65 105 68 106 62 107 63 108 66 109 64 110
REMARK H PARENT 5 18 5 19 88 63 56 74
REMARK Flexibility Score: inf
ROOT
ATOM      1  C   UNL A   1      33.543  24.749  25.185  1.00  0.00     0.188 C 
ENDROOT
BRANCH   1   2
ATOM      2  C   UNL A   1      33.221  26.264  25.142  1.00  0.00     0.188 C 
BRANCH   2   3
ATOM      3  O   UNL A   1      33.690  26.977  26.279  1.00  0.00    -0.376 OA
BRANCH   3   4
ATOM      4  C   UNL A   1      32.985  28.126  26.728  1.00  0.00     0.202 C 
BRANCH   4   5
ATOM      5  C   UNL A   1      33.298  29.494  26.105  1.00  0.00     0.261 C 
BRANCH   5   6
ATOM      6  O   UNL A   1      34.394  30.186  26.695  1.00  0.00    -0.460 OA
BRANCH   6   7
ATOM      7  C   UNL A   1      34.173  31.239  27.521  1.00  0.00     0.340 C 
ATOM      8  O   UNL A   1      33.052  31.685  27.772  1.00  0.00    -0.246 OA
BRANCH   7   9
ATOM      9  C   UNL A   1      35.446  31.730  28.069  1.00  0.00     0.089 A 
ATOM     10  C   UNL A   1      38.164  34.087  29.084  1.00  0.00     0.065 C 
ATOM     11  C   UNL A   1      37.180  32.991  28.829  1.00  0.00     0.025 A 
ATOM     12  C   UNL A   1      35.898  33.077  28.276  1.00  0.00     0.042 A 
ATOM     13  N   UNL A   1      37.437  31.659  29.149  1.00  0.00    -0.343 N 
ATOM     14  C   UNL A   1      36.423  30.888  28.603  1.00  0.00     0.030 A 
ATOM     15  C   UNL A   1      36.369  29.398  28.640  1.00  0.00     0.065 C 
BRANCH  12  16
ATOM     16  C   UNL A   1      35.115  34.343  28.011  1.00  0.00     0.300 C 
BRANCH  16  17
ATOM     17  N   UNL A   1      34.918  35.071  29.249  1.00  0.00    -0.339 N 
ATOM     18  H   UNL A   1      34.448  35.948  29.030  1.00  0.00     0.346 HD
ATOM     19  H   UNL A   1      35.845  35.203  29.656  1.00  0.00     0.346 HD
BRANCH  17  20
ATOM     20  C   UNL A   1      34.125  34.365  30.247  1.00  0.00     0.297 C 
BRANCH  20  21
ATOM     21  C   UNL A   1      34.754  34.187  31.615  1.00  0.00     0.009 A 
ATOM     22  C   UNL A   1      34.118  33.535  32.685  1.00  0.00     0.010 A 
ATOM     23  C   UNL A   1      36.057  34.672  31.818  1.00  0.00     0.048 A 
ATOM     24  C   UNL A   1      34.739  33.419  33.932  1.00  0.00     0.004 A 
ATOM     25  C   UNL A   1      36.673  34.538  33.060  1.00  0.00     0.123 A 
ATOM     26  C   UNL A   1      36.020  33.926  34.121  1.00  0.00     0.039 A 
ATOM     27  F   UNL A   1      37.915  35.009  33.233  1.00  0.00    -0.207 F 
ENDBRANCH  20  21
ENDBRANCH  17  20
ENDBRANCH  16  17
ENDBRANCH  12  16
BRANCH  13  28
ATOM     28  C   UNL A   1      38.678  31.142  29.775  1.00  0.00     0.162 C 
BRANCH  28  29
ATOM     29  C   UNL A   1      38.826  31.368  31.270  1.00  0.00     0.026 A 
ATOM     30  C   UNL A   1      39.819  32.224  31.768  1.00  0.00     0.129 A 
ATOM     31  C   UNL A   1      37.931  30.861  32.228  1.00  0.00     0.048 A 
ATOM     32  F   UNL A   1      40.573  32.945  30.935  1.00  0.00    -0.207 F 
ATOM     33  C   UNL A   1      40.008  32.474  33.129  1.00  0.00     0.040 A 
ATOM     34  C   UNL A   1      38.088  31.135  33.601  1.00  0.00     0.021 A 
ATOM     35  Cl  UNL A   1      36.521  29.958  31.797  1.00  0.00    -0.084 Cl
ATOM     36  C   UNL A   1      39.143  31.920  34.056  1.00  0.00     0.005 A 
ENDBRANCH  28  29
ENDBRANCH  13  28
ENDBRANCH   7   9
ENDBRANCH   6   7
ENDBRANCH   5   6
ENDBRANCH   4   5
ENDBRANCH   3   4
ENDBRANCH   2   3
ENDBRANCH   1   2
BRANCH   1  37
ATOM     37  O   UNL A   1      34.593  24.201  24.387  1.00  0.00    -0.377 OA
BRANCH  37  38
ATOM     38  C   UNL A   1      35.770  23.773  25.045  1.00  0.00     0.188 C 
BRANCH  38  39
ATOM     39  C   UNL A   1      36.716  22.960  24.147  1.00  0.00     0.188 C 
BRANCH  39  40
ATOM     40  O   UNL A   1      37.473  21.912  24.730  1.00  0.00    -0.376 OA
BRANCH  40  41
ATOM     41  C   UNL A   1      38.321  22.202  25.835  1.00  0.00     0.202 C 
BRANCH  41  42
ATOM     42  C   UNL A   1      39.601  21.355  26.162  1.00  0.00     0.261 C 
BRANCH  42  43
ATOM     43  O   UNL A   1      40.284  21.253  27.478  1.00  0.00    -0.460 OA
BRANCH  43  44
ATOM     44  C   UNL A   1      41.652  21.017  27.456  1.00  0.00     0.338 C 
ATOM     45  O   UNL A   1      42.107  19.918  27.154  1.00  0.00    -0.246 OA
BRANCH  44  46
ATOM     46  C   UNL A   1      42.653  22.176  27.798  1.00  0.00     0.060 A 
ATOM     47  C   UNL A   1      42.276  23.155  28.709  1.00  0.00     0.016 A 
ATOM     48  C   UNL A   1      43.797  22.565  27.054  1.00  0.00     0.016 A 
ATOM     49  C   UNL A   1      43.042  24.389  28.901  1.00  0.00     0.010 A 
ATOM     50  C   UNL A   1      44.540  23.884  27.207  1.00  0.00     0.010 A 
ATOM     51  C   UNL A   1      44.195  24.878  28.148  1.00  0.00    -0.014 A 
BRANCH  51  52
ATOM     52  C   UNL A   1      44.605  26.561  28.271  1.00  0.00     0.031 A 
ATOM     53  C   UNL A   1      45.935  26.442  28.936  1.00  0.00     0.074 A 
ATOM     54  C   UNL A   1      44.218  27.941  28.150  1.00  0.00     0.049 A 
ATOM     55  N   UNL A   1      45.994  25.821  30.082  1.00  0.00    -0.248 NA
ATOM     56  C   UNL A   1      47.223  26.562  28.248  1.00  0.00     0.031 C 
ATOM     57  C   UNL A   1      42.904  28.511  27.763  1.00  0.00     0.029 A 
ATOM     58  N   UNL A   1      44.914  29.231  28.372  1.00  0.00    -0.354 N 
ATOM     59  C   UNL A   1      47.314  25.756  30.426  1.00  0.00     0.074 A 
ATOM     60  C   UNL A   1      48.019  26.003  29.171  1.00  0.00     0.031 C 
ATOM     61  C   UNL A   1      42.913  29.880  27.631  1.00  0.00     0.029 A 
ATOM     62  C   UNL A   1      44.212  30.477  27.978  1.00  0.00     0.049 A 
ATOM     63  H   UNL A   1      45.813  29.260  28.770  1.00  0.00     0.167 HD
ATOM     64  C   UNL A   1      47.583  26.227  31.677  1.00  0.00     0.037 A 
ATOM     65  C   UNL A   1      44.562  31.858  28.023  1.00  0.00     0.037 A 
ATOM     66  C   UNL A   1      48.097  27.568  31.639  1.00  0.00     0.049 A 
ATOM     67  C   UNL A   1      45.538  31.985  29.106  1.00  0.00     0.074 A 
ATOM     68  C   UNL A   1      48.919  28.241  30.755  1.00  0.00     0.029 A 
ATOM     69  N   UNL A   1      47.367  28.530  32.299  1.00  0.00    -0.354 N 
ATOM     70  N   UNL A   1      45.159  32.005  30.347  1.00  0.00    -0.248 NA
ATOM     71  C   UNL A   1      46.948  32.277  28.867  1.00  0.00     0.031 C 
ATOM     72  C   UNL A   1      48.205  29.424  30.474  1.00  0.00     0.029 A 
ATOM     73  C   UNL A   1      47.287  29.635  31.494  1.00  0.00     0.049 A 
ATOM     74  H   UNL A   1      46.971  28.440  33.195  1.00  0.00     0.167 HD
ATOM     75  C   UNL A   1      46.313  31.729  30.999  1.00  0.00     0.074 A 
ATOM     76  C   UNL A   1      47.382  32.183  30.126  1.00  0.00     0.031 C 
ATOM     77  C   UNL A   1      46.261  30.603  31.743  1.00  0.00     0.037 A 
BRANCH  64  78
ATOM     78  C   UNL A   1      46.611  25.757  32.737  1.00  0.00     0.064 A 
ATOM     79  C   UNL A   1      45.257  26.164  32.803  1.00  0.00     0.173 A 
ATOM     80  C   UNL A   1      47.042  24.837  33.695  1.00  0.00     0.173 A 
ATOM     81  F   UNL A   1      44.806  27.201  32.076  1.00  0.00    -0.203 F 
ATOM     82  C   UNL A   1      44.353  25.559  33.666  1.00  0.00     0.198 A 
ATOM     83  C   UNL A   1      46.148  24.296  34.622  1.00  0.00     0.198 A 
ATOM     84  F   UNL A   1      48.335  24.487  33.754  1.00  0.00    -0.203 F 
ATOM     85  F   UNL A   1      43.059  25.911  33.633  1.00  0.00    -0.200 F 
ATOM     86  C   UNL A   1      44.800  24.624  34.578  1.00  0.00     0.200 A 
ATOM     87  F   UNL A   1      46.597  23.463  35.570  1.00  0.00    -0.200 F 
ATOM     88  F   UNL A   1      43.940  24.075  35.448  1.00  0.00    -0.200 F 
ENDBRANCH  64  78
BRANCH  65  89
ATOM     89  C   UNL A   1      44.242  33.394  27.606  1.00  0.00     0.064 A 
ATOM     90  C   UNL A   1      45.039  34.113  26.697  1.00  0.00     0.173 A 
ATOM     91  C   UNL A   1      43.485  34.289  28.470  1.00  0.00     0.173 A 
ATOM     92  F   UNL A   1      45.822  33.451  25.836  1.00  0.00    -0.203 F 
ATOM     93  C   UNL A   1      45.136  35.543  26.700  1.00  0.00     0.198 A 
ATOM     94  C   UNL A   1      43.615  35.700  28.499  1.00  0.00     0.198 A 
ATOM     95  F   UNL A   1      42.624  33.818  29.384  1.00  0.00    -0.203 F 
ATOM     96  F   UNL A   1      45.960  36.160  25.838  1.00  0.00    -0.200 F 
ATOM     97  C   UNL A   1      44.458  36.328  27.620  1.00  0.00     0.200 A 
ATOM     98  F   UNL A   1      42.971  36.427  29.430  1.00  0.00    -0.200 F 
ATOM     99  F   UNL A   1      44.642  37.659  27.680  1.00  0.00    -0.200 F 
ENDBRANCH  65  89
BRANCH  77 100
ATOM    100  C   UNL A   1      45.008  30.374  32.564  1.00  0.00     0.064 A 
ATOM    101  C   UNL A   1      45.073  30.722  33.918  1.00  0.00     0.173 A 
ATOM    102  C   UNL A   1      43.757  29.901  32.102  1.00  0.00     0.173 A 
ATOM    103  F   UNL A   1      46.237  31.139  34.440  1.00  0.00    -0.203 F 
ATOM    104  C   UNL A   1      43.969  30.616  34.762  1.00  0.00     0.198 A 
ATOM    105  C   UNL A   1      42.639  29.836  32.939  1.00  0.00     0.198 A 
ATOM    106  F   UNL A   1      43.580  29.471  30.847  1.00  0.00    -0.203 F 
ATOM    107  F   UNL A   1      44.101  30.916  36.060  1.00  0.00    -0.200 F 
ATOM    108  C   UNL A   1      42.748  30.190  34.270  1.00  0.00     0.200 A 
ATOM    109  F   UNL A   1      41.457  29.422  32.455  1.00  0.00    -0.200 F 
ATOM    110  F   UNL A   1      41.687  30.105  35.083  1.00  0.00    -0.200 F 
ENDBRANCH  77 100
ENDBRANCH  51  52
ENDBRANCH  44  46
ENDBRANCH  43  44
ENDBRANCH  42  43
ENDBRANCH  41  42
ENDBRANCH  40  41
ENDBRANCH  39  40
ENDBRANCH  38  39
ENDBRANCH  37  38
ENDBRANCH   1  37
TORSDOF 26
ENDMDL
