MODEL 1
REMARK VINA RESULT:      -9.9      0.000      0.000
REMARK SMILES O=C(CCCN1C(=O)/C(=C/c2cc(Br)ccc2O)SC1=S)OCCOCCOCCOCCOC(=O)c1ccc(-c2c3nc(c(-c4c(F)c(F)c(F)c(F)c4F)c4ccc([nH]4)c(-c4c(F)c(F)c(F)c(F)c4F)c4nc(c(-c5c(F)c(F)c(F)c(F)c5F)c5ccc2[nH]5)C=C4)C=C3)cc1
REMARK SMILES IDX 26 1 25 2 24 3 23 4 22 5 2 6 1 7 3 8 4 9 5 10 6 11 7 12
REMARK SMILES IDX 20 13 8 14 9 15 19 16 21 17 10 18 11 19 12 20 17 21 13 22
REMARK SMILES IDX 16 23 14 24 15 25 18 26 27 28 28 29 29 30 30 31 31 32 32 33
REMARK SMILES IDX 33 34 34 35 35 36 36 37 37 38 38 39 99 40 39 41 98 42 40 43
REMARK SMILES IDX 41 44 42 45 92 46 43 47 97 48 91 49 93 50 44 51 96 52 90 53
REMARK SMILES IDX 89 54 45 56 77 57 57 58 76 59 58 60 61 61 75 62 94 63 59 64
REMARK SMILES IDX 60 65 74 67 95 68 62 69 46 70 47 71 55 72 48 73 49 74 53 75
REMARK SMILES IDX 56 76 50 77 51 78 54 79 52 80 78 81 79 82 87 83 80 84 81 85
REMARK SMILES IDX 85 86 88 87 82 88 83 89 86 90 84 91 63 92 64 93 72 94 65 95
REMARK SMILES IDX 66 96 70 97 73 98 67 99 68 100 71 101 69 102
REMARK H PARENT 18 27 93 55 61 66
REMARK Flexibility Score: inf
ROOT
ATOM      1  C   UNL A   1      38.843  22.644  26.128  1.00  0.00     0.188 C 
ENDROOT
BRANCH   1   2
ATOM      2  O   UNL A   1      37.969  23.666  25.651  1.00  0.00    -0.376 OA
BRANCH   2   3
ATOM      3  C   UNL A   1      36.820  23.996  26.427  1.00  0.00     0.202 C 
BRANCH   3   4
ATOM      4  C   UNL A   1      35.466  23.751  25.778  1.00  0.00     0.261 C 
BRANCH   4   5
ATOM      5  O   UNL A   1      35.115  22.368  25.943  1.00  0.00    -0.463 OA
BRANCH   5   6
ATOM      6  C   UNL A   1      35.162  21.658  24.791  1.00  0.00     0.305 C 
ATOM      7  O   UNL A   1      35.568  22.122  23.733  1.00  0.00    -0.252 OA
BRANCH   6   8
ATOM      8  C   UNL A   1      34.514  20.296  24.933  1.00  0.00     0.124 C 
BRANCH   8   9
ATOM      9  C   UNL A   1      33.279  20.198  25.831  1.00  0.00     0.034 C 
BRANCH   9  10
ATOM     10  C   UNL A   1      31.950  20.830  25.377  1.00  0.00     0.128 C 
BRANCH  10  11
ATOM     11  N   UNL A   1      31.813  22.264  25.051  1.00  0.00    -0.293 N 
ATOM     12  C   UNL A   1      31.667  23.263  26.002  1.00  0.00     0.266 C 
ATOM     13  C   UNL A   1      31.934  22.709  23.738  1.00  0.00     0.148 C 
ATOM     14  O   UNL A   1      31.666  23.116  27.216  1.00  0.00    -0.268 OA
ATOM     15  C   UNL A   1      31.570  24.609  25.346  1.00  0.00     0.081 C 
ATOM     16  S   UNL A   1      31.805  24.457  23.656  1.00  0.00    -0.054 SA
ATOM     17  S   UNL A   1      32.153  21.804  22.348  1.00  0.00    -0.052 S 
ATOM     18  C   UNL A   1      31.351  25.751  26.018  1.00  0.00     0.033 C 
BRANCH  18  19
ATOM     19  C   UNL A   1      31.328  27.112  25.440  1.00  0.00     0.019 A 
ATOM     20  C   UNL A   1      30.303  27.452  24.548  1.00  0.00     0.027 A 
ATOM     21  C   UNL A   1      32.303  28.078  25.725  1.00  0.00     0.122 A 
ATOM     22  C   UNL A   1      30.277  28.719  23.955  1.00  0.00     0.018 A 
ATOM     23  C   UNL A   1      32.285  29.339  25.125  1.00  0.00     0.048 A 
ATOM     24  Br  UNL A   1      28.889  29.164  22.750  1.00  0.00    -0.051 Br
ATOM     25  C   UNL A   1      31.266  29.661  24.233  1.00  0.00     0.019 A 
BRANCH  21  26
ATOM     26  O   UNL A   1      33.299  27.793  26.610  1.00  0.00    -0.507 OA
ATOM     27  H   UNL A   1      34.097  27.408  26.308  1.00  0.00     0.293 HD
ENDBRANCH  21  26
ENDBRANCH  18  19
ENDBRANCH  10  11
ENDBRANCH   9  10
ENDBRANCH   8   9
ENDBRANCH   6   8
ENDBRANCH   5   6
ENDBRANCH   4   5
ENDBRANCH   3   4
ENDBRANCH   2   3
ENDBRANCH   1   2
BRANCH   1  28
ATOM     28  C   UNL A   1      38.521  21.191  25.751  1.00  0.00     0.188 C 
BRANCH  28  29
ATOM     29  O   UNL A   1      39.664  20.350  25.731  1.00  0.00    -0.377 OA
BRANCH  29  30
ATOM     30  C   UNL A   1      40.744  20.816  26.548  1.00  0.00     0.188 C 
BRANCH  30  31
ATOM     31  C   UNL A   1      41.584  19.761  27.302  1.00  0.00     0.188 C 
BRANCH  31  32
ATOM     32  O   UNL A   1      42.949  19.782  26.889  1.00  0.00    -0.376 OA
BRANCH  32  33
ATOM     33  C   UNL A   1      43.210  20.137  25.539  1.00  0.00     0.202 C 
BRANCH  33  34
ATOM     34  C   UNL A   1      44.259  21.239  25.370  1.00  0.00     0.261 C 
BRANCH  34  35
ATOM     35  O   UNL A   1      44.024  22.452  26.113  1.00  0.00    -0.460 OA
BRANCH  35  36
ATOM     36  C   UNL A   1      43.898  23.623  25.449  1.00  0.00     0.338 C 
ATOM     37  O   UNL A   1      44.068  23.809  24.253  1.00  0.00    -0.246 OA
BRANCH  36  38
ATOM     38  C   UNL A   1      43.242  24.600  26.369  1.00  0.00     0.060 A 
ATOM     39  C   UNL A   1      43.746  25.907  26.424  1.00  0.00     0.016 A 
ATOM     40  C   UNL A   1      42.091  24.272  27.098  1.00  0.00     0.016 A 
ATOM     41  C   UNL A   1      43.135  26.867  27.241  1.00  0.00     0.010 A 
ATOM     42  C   UNL A   1      41.480  25.233  27.913  1.00  0.00     0.010 A 
ATOM     43  C   UNL A   1      42.022  26.524  28.021  1.00  0.00    -0.014 A 
BRANCH  43  44
ATOM     44  C   UNL A   1      41.583  27.418  29.126  1.00  0.00     0.031 A 
ATOM     45  C   UNL A   1      42.326  27.328  30.433  1.00  0.00     0.074 A 
ATOM     46  C   UNL A   1      40.569  28.292  28.992  1.00  0.00     0.049 A 
ATOM     47  N   UNL A   1      42.120  27.961  31.559  1.00  0.00    -0.248 NA
ATOM     48  C   UNL A   1      43.458  26.387  30.471  1.00  0.00     0.031 C 
ATOM     49  C   UNL A   1      39.786  28.506  27.778  1.00  0.00     0.029 A 
ATOM     50  N   UNL A   1      40.020  29.162  29.906  1.00  0.00    -0.354 N 
ATOM     51  C   UNL A   1      43.090  27.493  32.436  1.00  0.00     0.074 A 
ATOM     52  C   UNL A   1      43.861  26.496  31.727  1.00  0.00     0.031 C 
ATOM     53  C   UNL A   1      38.849  29.442  28.026  1.00  0.00     0.029 A 
ATOM     54  C   UNL A   1      38.948  29.871  29.421  1.00  0.00     0.049 A 
ATOM     55  H   UNL A   1      40.364  29.266  30.822  1.00  0.00     0.167 HD
ATOM     56  C   UNL A   1      43.332  27.867  33.713  1.00  0.00     0.037 A 
ATOM     57  C   UNL A   1      38.133  30.751  30.040  1.00  0.00     0.037 A 
ATOM     58  C   UNL A   1      42.567  28.853  34.428  1.00  0.00     0.049 A 
ATOM     59  C   UNL A   1      38.374  31.095  31.492  1.00  0.00     0.074 A 
ATOM     60  C   UNL A   1      42.742  29.308  35.722  1.00  0.00     0.029 A 
ATOM     61  N   UNL A   1      41.473  29.528  33.908  1.00  0.00    -0.354 N 
ATOM     62  N   UNL A   1      39.315  30.675  32.302  1.00  0.00    -0.248 NA
ATOM     63  C   UNL A   1      37.435  32.043  32.114  1.00  0.00     0.031 C 
ATOM     64  C   UNL A   1      41.721  30.220  36.005  1.00  0.00     0.029 A 
ATOM     65  C   UNL A   1      40.947  30.378  34.867  1.00  0.00     0.049 A 
ATOM     66  H   UNL A   1      41.122  29.419  32.995  1.00  0.00     0.167 HD
ATOM     67  C   UNL A   1      39.105  31.331  33.509  1.00  0.00     0.074 A 
ATOM     68  C   UNL A   1      37.952  32.184  33.327  1.00  0.00     0.031 C 
ATOM     69  C   UNL A   1      39.808  31.238  34.666  1.00  0.00     0.037 A 
BRANCH  56  70
ATOM     70  C   UNL A   1      44.458  27.183  34.430  1.00  0.00     0.064 A 
ATOM     71  C   UNL A   1      44.253  26.014  35.180  1.00  0.00     0.173 A 
ATOM     72  C   UNL A   1      45.762  27.694  34.352  1.00  0.00     0.173 A 
ATOM     73  F   UNL A   1      43.021  25.498  35.303  1.00  0.00    -0.203 F 
ATOM     74  C   UNL A   1      45.308  25.399  35.848  1.00  0.00     0.198 A 
ATOM     75  C   UNL A   1      46.820  27.058  34.997  1.00  0.00     0.198 A 
ATOM     76  F   UNL A   1      46.011  28.808  33.650  1.00  0.00    -0.203 F 
ATOM     77  F   UNL A   1      45.079  24.316  36.603  1.00  0.00    -0.200 F 
ATOM     78  C   UNL A   1      46.591  25.917  35.749  1.00  0.00     0.200 A 
ATOM     79  F   UNL A   1      48.060  27.554  34.892  1.00  0.00    -0.200 F 
ATOM     80  F   UNL A   1      47.606  25.321  36.391  1.00  0.00    -0.200 F 
ENDBRANCH  56  70
BRANCH  57  81
ATOM     81  C   UNL A   1      36.997  31.369  29.303  1.00  0.00     0.064 A 
ATOM     82  C   UNL A   1      37.012  32.727  28.954  1.00  0.00     0.173 A 
ATOM     83  C   UNL A   1      35.854  30.626  28.973  1.00  0.00     0.173 A 
ATOM     84  F   UNL A   1      38.067  33.489  29.279  1.00  0.00    -0.203 F 
ATOM     85  C   UNL A   1      35.921  33.323  28.323  1.00  0.00     0.198 A 
ATOM     86  C   UNL A   1      34.775  31.216  28.316  1.00  0.00     0.198 A 
ATOM     87  F   UNL A   1      35.782  29.326  29.293  1.00  0.00    -0.203 F 
ATOM     88  F   UNL A   1      35.939  34.635  28.054  1.00  0.00    -0.200 F 
ATOM     89  C   UNL A   1      34.806  32.565  28.000  1.00  0.00     0.200 A 
ATOM     90  F   UNL A   1      33.702  30.478  28.001  1.00  0.00    -0.200 F 
ATOM     91  F   UNL A   1      33.755  33.139  27.398  1.00  0.00    -0.200 F 
ENDBRANCH  57  81
BRANCH  69  92
ATOM     92  C   UNL A   1      39.390  32.113  35.813  1.00  0.00     0.064 A 
ATOM     93  C   UNL A   1      39.913  33.401  35.994  1.00  0.00     0.173 A 
ATOM     94  C   UNL A   1      38.401  31.676  36.710  1.00  0.00     0.173 A 
ATOM     95  F   UNL A   1      40.868  33.862  35.171  1.00  0.00    -0.203 F 
ATOM     96  C   UNL A   1      39.482  34.210  37.042  1.00  0.00     0.198 A 
ATOM     97  C   UNL A   1      37.948  32.499  37.737  1.00  0.00     0.198 A 
ATOM     98  F   UNL A   1      37.857  30.457  36.577  1.00  0.00    -0.203 F 
ATOM     99  F   UNL A   1      40.027  35.421  37.220  1.00  0.00    -0.200 F 
ATOM    100  C   UNL A   1      38.493  33.763  37.907  1.00  0.00     0.200 A 
ATOM    101  F   UNL A   1      36.981  32.072  38.561  1.00  0.00    -0.200 F 
ATOM    102  F   UNL A   1      38.070  34.548  38.907  1.00  0.00    -0.200 F 
ENDBRANCH  69  92
ENDBRANCH  43  44
ENDBRANCH  36  38
ENDBRANCH  35  36
ENDBRANCH  34  35
ENDBRANCH  33  34
ENDBRANCH  32  33
ENDBRANCH  31  32
ENDBRANCH  30  31
ENDBRANCH  29  30
ENDBRANCH  28  29
ENDBRANCH   1  28
TORSDOF 25
ENDMDL
MODEL 2
REMARK VINA RESULT:      -9.5      4.605      9.194
REMARK SMILES O=C(CCCN1C(=O)/C(=C/c2cc(Br)ccc2O)SC1=S)OCCOCCOCCOCCOC(=O)c1ccc(-c2c3nc(c(-c4c(F)c(F)c(F)c(F)c4F)c4ccc([nH]4)c(-c4c(F)c(F)c(F)c(F)c4F)c4nc(c(-c5c(F)c(F)c(F)c(F)c5F)c5ccc2[nH]5)C=C4)C=C3)cc1
REMARK SMILES IDX 26 1 25 2 24 3 23 4 22 5 2 6 1 7 3 8 4 9 5 10 6 11 7 12
REMARK SMILES IDX 20 13 8 14 9 15 19 16 21 17 10 18 11 19 12 20 17 21 13 22
REMARK SMILES IDX 16 23 14 24 15 25 18 26 27 28 28 29 29 30 30 31 31 32 32 33
REMARK SMILES IDX 33 34 34 35 35 36 36 37 37 38 38 39 99 40 39 41 98 42 40 43
REMARK SMILES IDX 41 44 42 45 92 46 43 47 97 48 91 49 93 50 44 51 96 52 90 53
REMARK SMILES IDX 89 54 45 56 77 57 57 58 76 59 58 60 61 61 75 62 94 63 59 64
REMARK SMILES IDX 60 65 74 67 95 68 62 69 46 70 47 71 55 72 48 73 49 74 53 75
REMARK SMILES IDX 56 76 50 77 51 78 54 79 52 80 78 81 79 82 87 83 80 84 81 85
REMARK SMILES IDX 85 86 88 87 82 88 83 89 86 90 84 91 63 92 64 93 72 94 65 95
REMARK SMILES IDX 66 96 70 97 73 98 67 99 68 100 71 101 69 102
REMARK H PARENT 18 27 93 55 61 66
REMARK Flexibility Score: inf
ROOT
ATOM      1  C   UNL A   1      32.860  27.914  22.565  1.00  0.00     0.188 C 
ENDROOT
BRANCH   1   2
ATOM      2  O   UNL A   1      31.666  27.933  23.344  1.00  0.00    -0.376 OA
BRANCH   2   3
ATOM      3  C   UNL A   1      31.535  28.918  24.365  1.00  0.00     0.202 C 
BRANCH   3   4
ATOM      4  C   UNL A   1      32.734  29.116  25.280  1.00  0.00     0.261 C 
BRANCH   4   5
ATOM      5  O   UNL A   1      32.278  29.157  26.642  1.00  0.00    -0.463 OA
BRANCH   5   6
ATOM      6  C   UNL A   1      31.867  27.954  27.110  1.00  0.00     0.305 C 
ATOM      7  O   UNL A   1      31.028  27.829  27.993  1.00  0.00    -0.252 OA
BRANCH   6   8
ATOM      8  C   UNL A   1      32.674  26.810  26.529  1.00  0.00     0.124 C 
BRANCH   8   9
ATOM      9  C   UNL A   1      31.901  25.580  26.051  1.00  0.00     0.034 C 
BRANCH   9  10
ATOM     10  C   UNL A   1      31.946  24.279  26.873  1.00  0.00     0.128 C 
BRANCH  10  11
ATOM     11  N   UNL A   1      32.468  23.007  26.335  1.00  0.00    -0.293 N 
ATOM     12  C   UNL A   1      31.676  22.032  25.746  1.00  0.00     0.266 C 
ATOM     13  C   UNL A   1      33.838  22.761  26.294  1.00  0.00     0.148 C 
ATOM     14  O   UNL A   1      30.469  22.092  25.558  1.00  0.00    -0.268 OA
ATOM     15  C   UNL A   1      32.513  20.873  25.290  1.00  0.00     0.081 C 
ATOM     16  S   UNL A   1      34.173  21.214  25.537  1.00  0.00    -0.054 SA
ATOM     17  S   UNL A   1      35.085  23.717  26.869  1.00  0.00    -0.052 S 
ATOM     18  C   UNL A   1      32.003  19.753  24.752  1.00  0.00     0.033 C 
BRANCH  18  19
ATOM     19  C   UNL A   1      32.777  18.616  24.209  1.00  0.00     0.019 A 
ATOM     20  C   UNL A   1      33.675  17.945  25.050  1.00  0.00     0.027 A 
ATOM     21  C   UNL A   1      32.674  18.189  22.878  1.00  0.00     0.122 A 
ATOM     22  C   UNL A   1      34.451  16.891  24.554  1.00  0.00     0.018 A 
ATOM     23  C   UNL A   1      33.456  17.143  22.379  1.00  0.00     0.048 A 
ATOM     24  Br  UNL A   1      35.660  15.996  25.700  1.00  0.00    -0.051 Br
ATOM     25  C   UNL A   1      34.351  16.492  23.223  1.00  0.00     0.019 A 
BRANCH  21  26
ATOM     26  O   UNL A   1      31.791  18.798  22.039  1.00  0.00    -0.507 OA
ATOM     27  H   UNL A   1      30.870  18.698  22.176  1.00  0.00     0.293 HD
ENDBRANCH  21  26
ENDBRANCH  18  19
ENDBRANCH  10  11
ENDBRANCH   9  10
ENDBRANCH   8   9
ENDBRANCH   6   8
ENDBRANCH   5   6
ENDBRANCH   4   5
ENDBRANCH   3   4
ENDBRANCH   2   3
ENDBRANCH   1   2
BRANCH   1  28
ATOM     28  C   UNL A   1      33.371  26.556  22.066  1.00  0.00     0.188 C 
BRANCH  28  29
ATOM     29  O   UNL A   1      32.486  25.483  22.351  1.00  0.00    -0.377 OA
BRANCH  29  30
ATOM     30  C   UNL A   1      33.138  24.218  22.510  1.00  0.00     0.188 C 
BRANCH  30  31
ATOM     31  C   UNL A   1      34.510  24.199  23.220  1.00  0.00     0.188 C 
BRANCH  31  32
ATOM     32  O   UNL A   1      35.280  23.057  22.847  1.00  0.00    -0.376 OA
BRANCH  32  33
ATOM     33  C   UNL A   1      36.648  23.048  23.228  1.00  0.00     0.202 C 
BRANCH  33  34
ATOM     34  C   UNL A   1      37.088  21.779  23.962  1.00  0.00     0.261 C 
BRANCH  34  35
ATOM     35  O   UNL A   1      37.360  21.928  25.370  1.00  0.00    -0.460 OA
BRANCH  35  36
ATOM     36  C   UNL A   1      38.550  21.517  25.864  1.00  0.00     0.338 C 
ATOM     37  O   UNL A   1      39.069  20.422  25.705  1.00  0.00    -0.246 OA
BRANCH  36  38
ATOM     38  C   UNL A   1      39.259  22.716  26.402  1.00  0.00     0.060 A 
ATOM     39  C   UNL A   1      38.724  23.984  26.132  1.00  0.00     0.016 A 
ATOM     40  C   UNL A   1      40.377  22.602  27.240  1.00  0.00     0.016 A 
ATOM     41  C   UNL A   1      39.331  25.134  26.653  1.00  0.00     0.010 A 
ATOM     42  C   UNL A   1      40.982  23.752  27.761  1.00  0.00     0.010 A 
ATOM     43  C   UNL A   1      40.488  25.027  27.437  1.00  0.00    -0.014 A 
BRANCH  43  44
ATOM     44  C   UNL A   1      41.320  26.230  27.707  1.00  0.00     0.031 A 
ATOM     45  C   UNL A   1      40.688  27.355  28.484  1.00  0.00     0.074 A 
ATOM     46  C   UNL A   1      42.595  26.337  27.294  1.00  0.00     0.049 A 
ATOM     47  N   UNL A   1      41.176  28.522  28.816  1.00  0.00    -0.248 NA
ATOM     48  C   UNL A   1      39.308  27.127  28.946  1.00  0.00     0.031 C 
ATOM     49  C   UNL A   1      43.341  25.317  26.562  1.00  0.00     0.029 A 
ATOM     50  N   UNL A   1      43.488  27.375  27.430  1.00  0.00    -0.354 N 
ATOM     51  C   UNL A   1      40.166  29.165  29.520  1.00  0.00     0.074 A 
ATOM     52  C   UNL A   1      39.024  28.278  29.535  1.00  0.00     0.031 C 
ATOM     53  C   UNL A   1      44.577  25.784  26.305  1.00  0.00     0.029 A 
ATOM     54  C   UNL A   1      44.701  27.144  26.827  1.00  0.00     0.049 A 
ATOM     55  H   UNL A   1      43.278  28.206  27.913  1.00  0.00     0.167 HD
ATOM     56  C   UNL A   1      40.187  30.380  30.114  1.00  0.00     0.037 A 
ATOM     57  C   UNL A   1      45.778  27.949  26.700  1.00  0.00     0.037 A 
ATOM     58  C   UNL A   1      41.316  31.271  30.100  1.00  0.00     0.049 A 
ATOM     59  C   UNL A   1      45.750  29.333  27.305  1.00  0.00     0.074 A 
ATOM     60  C   UNL A   1      41.437  32.519  30.683  1.00  0.00     0.029 A 
ATOM     61  N   UNL A   1      42.516  31.010  29.456  1.00  0.00    -0.354 N 
ATOM     62  N   UNL A   1      44.805  29.919  27.999  1.00  0.00    -0.248 NA
ATOM     63  C   UNL A   1      46.947  30.167  27.110  1.00  0.00     0.031 C 
ATOM     64  C   UNL A   1      42.691  33.037  30.348  1.00  0.00     0.029 A 
ATOM     65  C   UNL A   1      43.374  32.086  29.607  1.00  0.00     0.049 A 
ATOM     66  H   UNL A   1      42.726  30.183  28.964  1.00  0.00     0.167 HD
ATOM     67  C   UNL A   1      45.304  31.167  28.353  1.00  0.00     0.074 A 
ATOM     68  C   UNL A   1      46.639  31.255  27.804  1.00  0.00     0.031 C 
ATOM     69  C   UNL A   1      44.710  32.153  29.071  1.00  0.00     0.037 A 
BRANCH  56  70
ATOM     70  C   UNL A   1      38.936  30.828  30.811  1.00  0.00     0.064 A 
ATOM     71  C   UNL A   1      38.754  30.643  32.191  1.00  0.00     0.173 A 
ATOM     72  C   UNL A   1      37.913  31.464  30.093  1.00  0.00     0.173 A 
ATOM     73  F   UNL A   1      39.694  30.020  32.918  1.00  0.00    -0.203 F 
ATOM     74  C   UNL A   1      37.582  31.053  32.819  1.00  0.00     0.198 A 
ATOM     75  C   UNL A   1      36.756  31.901  30.732  1.00  0.00     0.198 A 
ATOM     76  F   UNL A   1      38.036  31.664  28.773  1.00  0.00    -0.203 F 
ATOM     77  F   UNL A   1      37.407  30.817  34.126  1.00  0.00    -0.200 F 
ATOM     78  C   UNL A   1      36.588  31.689  32.091  1.00  0.00     0.200 A 
ATOM     79  F   UNL A   1      35.800  32.524  30.028  1.00  0.00    -0.200 F 
ATOM     80  F   UNL A   1      35.462  32.087  32.698  1.00  0.00    -0.200 F 
ENDBRANCH  56  70
BRANCH  57  81
ATOM     81  C   UNL A   1      46.980  27.481  25.957  1.00  0.00     0.064 A 
ATOM     82  C   UNL A   1      48.069  26.906  26.629  1.00  0.00     0.173 A 
ATOM     83  C   UNL A   1      47.085  27.641  24.568  1.00  0.00     0.173 A 
ATOM     84  F   UNL A   1      48.033  26.764  27.962  1.00  0.00    -0.203 F 
ATOM     85  C   UNL A   1      49.223  26.529  25.942  1.00  0.00     0.198 A 
ATOM     86  C   UNL A   1      48.228  27.237  23.879  1.00  0.00     0.198 A 
ATOM     87  F   UNL A   1      46.078  28.195  23.878  1.00  0.00    -0.203 F 
ATOM     88  F   UNL A   1      50.270  26.036  26.617  1.00  0.00    -0.200 F 
ATOM     89  C   UNL A   1      49.299  26.689  24.568  1.00  0.00     0.200 A 
ATOM     90  F   UNL A   1      48.294  27.389  22.549  1.00  0.00    -0.200 F 
ATOM     91  F   UNL A   1      50.410  26.331  23.909  1.00  0.00    -0.200 F 
ENDBRANCH  57  81
BRANCH  69  92
ATOM     92  C   UNL A   1      45.509  33.393  29.355  1.00  0.00     0.064 A 
ATOM     93  C   UNL A   1      46.395  33.473  30.439  1.00  0.00     0.173 A 
ATOM     94  C   UNL A   1      45.432  34.496  28.489  1.00  0.00     0.173 A 
ATOM     95  F   UNL A   1      46.499  32.450  31.302  1.00  0.00    -0.203 F 
ATOM     96  C   UNL A   1      47.155  34.618  30.660  1.00  0.00     0.198 A 
ATOM     97  C   UNL A   1      46.217  35.627  28.695  1.00  0.00     0.198 A 
ATOM     98  F   UNL A   1      44.609  34.468  27.430  1.00  0.00    -0.203 F 
ATOM     99  F   UNL A   1      47.964  34.689  31.727  1.00  0.00    -0.200 F 
ATOM    100  C   UNL A   1      47.074  35.690  29.783  1.00  0.00     0.200 A 
ATOM    101  F   UNL A   1      46.149  36.654  27.836  1.00  0.00    -0.200 F 
ATOM    102  F   UNL A   1      47.817  36.786  29.990  1.00  0.00    -0.200 F 
ENDBRANCH  69  92
ENDBRANCH  43  44
ENDBRANCH  36  38
ENDBRANCH  35  36
ENDBRANCH  34  35
ENDBRANCH  33  34
ENDBRANCH  32  33
ENDBRANCH  31  32
ENDBRANCH  30  31
ENDBRANCH  29  30
ENDBRANCH  28  29
ENDBRANCH   1  28
TORSDOF 25
ENDMDL
MODEL 3
REMARK VINA RESULT:      -9.5      2.043      4.017
REMARK SMILES O=C(CCCN1C(=O)/C(=C/c2cc(Br)ccc2O)SC1=S)OCCOCCOCCOCCOC(=O)c1ccc(-c2c3nc(c(-c4c(F)c(F)c(F)c(F)c4F)c4ccc([nH]4)c(-c4c(F)c(F)c(F)c(F)c4F)c4nc(c(-c5c(F)c(F)c(F)c(F)c5F)c5ccc2[nH]5)C=C4)C=C3)cc1
REMARK SMILES IDX 26 1 25 2 24 3 23 4 22 5 2 6 1 7 3 8 4 9 5 10 6 11 7 12
REMARK SMILES IDX 20 13 8 14 9 15 19 16 21 17 10 18 11 19 12 20 17 21 13 22
REMARK SMILES IDX 16 23 14 24 15 25 18 26 27 28 28 29 29 30 30 31 31 32 32 33
REMARK SMILES IDX 33 34 34 35 35 36 36 37 37 38 38 39 99 40 39 41 98 42 40 43
REMARK SMILES IDX 41 44 42 45 92 46 43 47 97 48 91 49 93 50 44 51 96 52 90 53
REMARK SMILES IDX 89 54 45 56 77 57 57 58 76 59 58 60 61 61 75 62 94 63 59 64
REMARK SMILES IDX 60 65 74 67 95 68 62 69 46 70 47 71 55 72 48 73 49 74 53 75
REMARK SMILES IDX 56 76 50 77 51 78 54 79 52 80 78 81 79 82 87 83 80 84 81 85
REMARK SMILES IDX 85 86 88 87 82 88 83 89 86 90 84 91 63 92 64 93 72 94 65 95
REMARK SMILES IDX 66 96 70 97 73 98 67 99 68 100 71 101 69 102
REMARK H PARENT 18 27 93 55 61 66
REMARK Flexibility Score: inf
ROOT
ATOM      1  C   UNL A   1      38.369  23.067  25.696  1.00  0.00     0.188 C 
ENDROOT
BRANCH   1   2
ATOM      2  O   UNL A   1      37.324  23.881  25.166  1.00  0.00    -0.376 OA
BRANCH   2   3
ATOM      3  C   UNL A   1      36.082  23.933  25.863  1.00  0.00     0.202 C 
BRANCH   3   4
ATOM      4  C   UNL A   1      34.826  23.696  25.038  1.00  0.00     0.261 C 
BRANCH   4   5
ATOM      5  O   UNL A   1      34.612  24.829  24.182  1.00  0.00    -0.463 OA
BRANCH   5   6
ATOM      6  C   UNL A   1      33.532  25.570  24.528  1.00  0.00     0.305 C 
ATOM      7  O   UNL A   1      33.238  25.826  25.688  1.00  0.00    -0.252 OA
BRANCH   6   8
ATOM      8  C   UNL A   1      32.661  25.901  23.333  1.00  0.00     0.124 C 
BRANCH   8   9
ATOM      9  C   UNL A   1      31.848  24.760  22.720  1.00  0.00     0.034 C 
BRANCH   9  10
ATOM     10  C   UNL A   1      31.071  23.795  23.636  1.00  0.00     0.128 C 
BRANCH  10  11
ATOM     11  N   UNL A   1      31.622  22.504  24.093  1.00  0.00    -0.293 N 
ATOM     12  C   UNL A   1      32.148  21.542  23.243  1.00  0.00     0.266 C 
ATOM     13  C   UNL A   1      31.741  22.223  25.451  1.00  0.00     0.148 C 
ATOM     14  O   UNL A   1      32.264  21.630  22.029  1.00  0.00    -0.268 OA
ATOM     15  C   UNL A   1      32.637  20.356  24.022  1.00  0.00     0.081 C 
ATOM     16  S   UNL A   1      32.495  20.658  25.703  1.00  0.00    -0.054 SA
ATOM     17  S   UNL A   1      31.255  23.155  26.754  1.00  0.00    -0.052 S 
ATOM     18  C   UNL A   1      33.128  19.243  23.454  1.00  0.00     0.033 C 
BRANCH  18  19
ATOM     19  C   UNL A   1      33.699  18.080  24.166  1.00  0.00     0.019 A 
ATOM     20  C   UNL A   1      32.863  17.002  24.484  1.00  0.00     0.027 A 
ATOM     21  C   UNL A   1      35.042  18.014  24.564  1.00  0.00     0.122 A 
ATOM     22  C   UNL A   1      33.367  15.905  25.192  1.00  0.00     0.018 A 
ATOM     23  C   UNL A   1      35.543  16.924  25.280  1.00  0.00     0.048 A 
ATOM     24  Br  UNL A   1      32.225  14.458  25.616  1.00  0.00    -0.051 Br
ATOM     25  C   UNL A   1      34.699  15.864  25.597  1.00  0.00     0.019 A 
BRANCH  21  26
ATOM     26  O   UNL A   1      35.892  19.030  24.247  1.00  0.00    -0.507 OA
ATOM     27  H   UNL A   1      36.349  19.486  24.925  1.00  0.00     0.293 HD
ENDBRANCH  21  26
ENDBRANCH  18  19
ENDBRANCH  10  11
ENDBRANCH   9  10
ENDBRANCH   8   9
ENDBRANCH   6   8
ENDBRANCH   5   6
ENDBRANCH   4   5
ENDBRANCH   3   4
ENDBRANCH   2   3
ENDBRANCH   1   2
BRANCH   1  28
ATOM     28  C   UNL A   1      38.146  21.549  25.737  1.00  0.00     0.188 C 
BRANCH  28  29
ATOM     29  O   UNL A   1      39.352  20.805  25.812  1.00  0.00    -0.377 OA
BRANCH  29  30
ATOM     30  C   UNL A   1      40.396  21.463  26.540  1.00  0.00     0.188 C 
BRANCH  30  31
ATOM     31  C   UNL A   1      41.224  20.618  27.534  1.00  0.00     0.188 C 
BRANCH  31  32
ATOM     32  O   UNL A   1      42.590  20.524  27.135  1.00  0.00    -0.376 OA
BRANCH  32  33
ATOM     33  C   UNL A   1      42.861  20.577  25.742  1.00  0.00     0.202 C 
BRANCH  33  34
ATOM     34  C   UNL A   1      44.069  21.442  25.370  1.00  0.00     0.261 C 
BRANCH  34  35
ATOM     35  O   UNL A   1      44.230  22.658  26.126  1.00  0.00    -0.460 OA
BRANCH  35  36
ATOM     36  C   UNL A   1      44.149  23.851  25.493  1.00  0.00     0.338 C 
ATOM     37  O   UNL A   1      44.386  24.070  24.314  1.00  0.00    -0.246 OA
BRANCH  36  38
ATOM     38  C   UNL A   1      43.449  24.805  26.404  1.00  0.00     0.060 A 
ATOM     39  C   UNL A   1      43.894  26.133  26.448  1.00  0.00     0.016 A 
ATOM     40  C   UNL A   1      42.313  24.432  27.135  1.00  0.00     0.016 A 
ATOM     41  C   UNL A   1      43.240  27.072  27.256  1.00  0.00     0.010 A 
ATOM     42  C   UNL A   1      41.659  25.372  27.942  1.00  0.00     0.010 A 
ATOM     43  C   UNL A   1      42.144  26.687  28.039  1.00  0.00    -0.014 A 
BRANCH  43  44
ATOM     44  C   UNL A   1      41.664  27.569  29.136  1.00  0.00     0.031 A 
ATOM     45  C   UNL A   1      42.398  27.512  30.449  1.00  0.00     0.074 A 
ATOM     46  C   UNL A   1      40.621  28.407  28.990  1.00  0.00     0.049 A 
ATOM     47  N   UNL A   1      42.161  28.141  31.571  1.00  0.00    -0.248 NA
ATOM     48  C   UNL A   1      43.563  26.611  30.501  1.00  0.00     0.031 C 
ATOM     49  C   UNL A   1      39.840  28.587  27.769  1.00  0.00     0.029 A 
ATOM     50  N   UNL A   1      40.034  29.261  29.895  1.00  0.00    -0.354 N 
ATOM     51  C   UNL A   1      43.140  27.713  32.457  1.00  0.00     0.074 A 
ATOM     52  C   UNL A   1      43.952  26.740  31.759  1.00  0.00     0.031 C 
ATOM     53  C   UNL A   1      38.869  29.490  28.004  1.00  0.00     0.029 A 
ATOM     54  C   UNL A   1      38.942  29.929  29.398  1.00  0.00     0.049 A 
ATOM     55  H   UNL A   1      40.366  29.381  30.813  1.00  0.00     0.167 HD
ATOM     56  C   UNL A   1      43.358  28.100  33.735  1.00  0.00     0.037 A 
ATOM     57  C   UNL A   1      38.091  30.782  30.007  1.00  0.00     0.037 A 
ATOM     58  C   UNL A   1      42.553  29.062  34.439  1.00  0.00     0.049 A 
ATOM     59  C   UNL A   1      38.307  31.141  31.458  1.00  0.00     0.074 A 
ATOM     60  C   UNL A   1      42.701  29.529  35.732  1.00  0.00     0.029 A 
ATOM     61  N   UNL A   1      41.440  29.696  33.907  1.00  0.00    -0.354 N 
ATOM     62  N   UNL A   1      39.256  30.759  32.278  1.00  0.00    -0.248 NA
ATOM     63  C   UNL A   1      37.331  32.058  32.069  1.00  0.00     0.031 C 
ATOM     64  C   UNL A   1      41.646  30.405  36.002  1.00  0.00     0.029 A 
ATOM     65  C   UNL A   1      40.877  30.531  34.857  1.00  0.00     0.049 A 
ATOM     66  H   UNL A   1      41.101  29.570  32.991  1.00  0.00     0.167 HD
ATOM     67  C   UNL A   1      39.014  31.412  33.481  1.00  0.00     0.074 A 
ATOM     68  C   UNL A   1      37.832  32.223  33.285  1.00  0.00     0.031 C 
ATOM     69  C   UNL A   1      39.710  31.349  34.643  1.00  0.00     0.037 A 
BRANCH  56  70
ATOM     70  C   UNL A   1      44.502  27.460  34.464  1.00  0.00     0.064 A 
ATOM     71  C   UNL A   1      44.339  26.270  35.191  1.00  0.00     0.173 A 
ATOM     72  C   UNL A   1      45.781  28.034  34.421  1.00  0.00     0.173 A 
ATOM     73  F   UNL A   1      43.131  25.694  35.281  1.00  0.00    -0.203 F 
ATOM     74  C   UNL A   1      45.409  25.696  35.872  1.00  0.00     0.198 A 
ATOM     75  C   UNL A   1      46.855  27.439  35.077  1.00  0.00     0.198 A 
ATOM     76  F   UNL A   1      45.989  29.171  33.741  1.00  0.00    -0.203 F 
ATOM     77  F   UNL A   1      45.218  24.591  36.605  1.00  0.00    -0.200 F 
ATOM     78  C   UNL A   1      46.667  26.276  35.807  1.00  0.00     0.200 A 
ATOM     79  F   UNL A   1      48.071  27.997  35.006  1.00  0.00    -0.200 F 
ATOM     80  F   UNL A   1      47.697  25.720  36.460  1.00  0.00    -0.200 F 
ENDBRANCH  56  70
BRANCH  57  81
ATOM     81  C   UNL A   1      36.940  31.356  29.258  1.00  0.00     0.064 A 
ATOM     82  C   UNL A   1      36.919  32.708  28.885  1.00  0.00     0.173 A 
ATOM     83  C   UNL A   1      35.818  30.577  28.939  1.00  0.00     0.173 A 
ATOM     84  F   UNL A   1      37.952  33.504  29.198  1.00  0.00    -0.203 F 
ATOM     85  C   UNL A   1      35.813  33.263  28.243  1.00  0.00     0.198 A 
ATOM     86  C   UNL A   1      34.724  31.126  28.271  1.00  0.00     0.198 A 
ATOM     87  F   UNL A   1      35.781  29.282  29.282  1.00  0.00    -0.203 F 
ATOM     88  F   UNL A   1      35.796  34.571  27.950  1.00  0.00    -0.200 F 
ATOM     89  C   UNL A   1      34.719  32.470  27.931  1.00  0.00     0.200 A 
ATOM     90  F   UNL A   1      33.672  30.355  27.967  1.00  0.00    -0.200 F 
ATOM     91  F   UNL A   1      33.654  33.004  27.317  1.00  0.00    -0.200 F 
ENDBRANCH  57  81
BRANCH  69  92
ATOM     92  C   UNL A   1      39.251  32.214  35.783  1.00  0.00     0.064 A 
ATOM     93  C   UNL A   1      38.363  31.743  36.761  1.00  0.00     0.173 A 
ATOM     94  C   UNL A   1      39.759  33.515  35.931  1.00  0.00     0.173 A 
ATOM     95  F   UNL A   1      37.841  30.511  36.660  1.00  0.00    -0.203 F 
ATOM     96  C   UNL A   1      37.982  32.549  37.830  1.00  0.00     0.198 A 
ATOM     97  C   UNL A   1      39.401  34.306  37.019  1.00  0.00     0.198 A 
ATOM     98  F   UNL A   1      40.621  34.011  35.031  1.00  0.00    -0.203 F 
ATOM     99  F   UNL A   1      37.099  32.093  38.730  1.00  0.00    -0.200 F 
ATOM    100  C   UNL A   1      38.508  33.826  37.964  1.00  0.00     0.200 A 
ATOM    101  F   UNL A   1      39.924  35.533  37.155  1.00  0.00    -0.200 F 
ATOM    102  F   UNL A   1      38.150  34.595  39.002  1.00  0.00    -0.200 F 
ENDBRANCH  69  92
ENDBRANCH  43  44
ENDBRANCH  36  38
ENDBRANCH  35  36
ENDBRANCH  34  35
ENDBRANCH  33  34
ENDBRANCH  32  33
ENDBRANCH  31  32
ENDBRANCH  30  31
ENDBRANCH  29  30
ENDBRANCH  28  29
ENDBRANCH   1  28
TORSDOF 25
ENDMDL
