MODEL 1
REMARK VINA RESULT:     -11.7      0.000      0.000
REMARK SMILES C[C@H]1CCc2sc3ncn4nc(/C=C\C(=O)OCCOCCOCCOCCOC(=O)c5ccc(-c6c7nc(c(-c8c(F)c(F)c(F)c(F)c8F)c8ccc([nH]8)c(-c8c(F)c(F)c(F)c(F)c8F)c8nc(c(-c9c(F)c(F)c(F)c(F)c9F)c9ccc6[nH]9)C=C8)C=C7)cc5)nc4c3c2C1
REMARK SMILES IDX 24 1 23 2 22 3 21 4 20 5 19 6 18 7 17 8 15 9 16 10 14 11
REMARK SMILES IDX 13 12 12 13 1 14 2 15 3 16 99 17 4 18 98 19 5 20 97 21 6 22
REMARK SMILES IDX 7 23 96 24 8 25 10 26 95 27 9 28 11 29 25 30 26 31 27 32
REMARK SMILES IDX 28 33 29 34 30 35 31 36 32 37 33 38 94 39 34 40 93 41 35 42
REMARK SMILES IDX 36 43 37 44 87 45 38 46 92 47 86 48 88 49 39 50 91 51 85 52
REMARK SMILES IDX 84 53 40 55 72 56 52 57 71 58 53 59 56 60 70 61 89 62 54 63
REMARK SMILES IDX 55 64 69 66 90 67 57 68 41 69 42 70 50 71 43 72 44 73 48 74
REMARK SMILES IDX 51 75 45 76 46 77 49 78 47 79 73 80 74 81 82 82 75 83 76 84
REMARK SMILES IDX 80 85 83 86 77 87 78 88 81 89 79 90 58 91 59 92 67 93 60 94
REMARK SMILES IDX 61 95 65 96 68 97 62 98 63 99 66 100 64 101
REMARK H PARENT 88 54 56 65
REMARK Flexibility Score: inf
ROOT
ATOM      1  C   UNL A   1      32.691  36.744  31.934  1.00  0.00     0.188 C 
ENDROOT
BRANCH   1   2
ATOM      2  O   UNL A   1      33.209  37.272  30.722  1.00  0.00    -0.377 OA
BRANCH   2   3
ATOM      3  C   UNL A   1      32.831  36.534  29.563  1.00  0.00     0.188 C 
BRANCH   3   4
ATOM      4  C   UNL A   1      33.291  35.064  29.525  1.00  0.00     0.188 C 
BRANCH   4   5
ATOM      5  O   UNL A   1      34.641  34.927  29.078  1.00  0.00    -0.376 OA
BRANCH   5   6
ATOM      6  C   UNL A   1      34.802  34.109  27.925  1.00  0.00     0.202 C 
BRANCH   6   7
ATOM      7  C   UNL A   1      34.138  32.748  28.102  1.00  0.00     0.261 C 
BRANCH   7   8
ATOM      8  O   UNL A   1      34.914  31.663  27.580  1.00  0.00    -0.460 OA
BRANCH   8   9
ATOM      9  C   UNL A   1      34.276  30.521  27.293  1.00  0.00     0.330 C 
ATOM     10  O   UNL A   1      34.801  29.422  27.175  1.00  0.00    -0.247 OA
BRANCH   9  11
ATOM     11  C   UNL A   1      32.807  30.681  27.332  1.00  0.00     0.097 C 
ATOM     12  C   UNL A   1      31.820  30.160  26.583  1.00  0.00     0.058 C 
BRANCH  12  13
ATOM     13  C   UNL A   1      31.821  29.234  25.497  1.00  0.00     0.175 A 
ATOM     14  C   UNL A   1      34.442  23.055  26.373  1.00  0.00     0.008 C 
ATOM     15  C   UNL A   1      35.310  24.038  25.583  1.00  0.00    -0.009 C 
ATOM     16  C   UNL A   1      35.845  23.419  24.273  1.00  0.00     0.009 C 
ATOM     17  C   UNL A   1      34.559  25.359  25.321  1.00  0.00     0.041 C 
ATOM     18  C   UNL A   1      34.757  23.183  23.209  1.00  0.00     0.047 C 
ATOM     19  C   UNL A   1      33.737  25.352  24.079  1.00  0.00    -0.020 A 
ATOM     20  C   UNL A   1      33.849  24.371  23.114  1.00  0.00     0.011 A 
ATOM     21  C   UNL A   1      32.786  26.318  23.687  1.00  0.00     0.060 A 
ATOM     22  S   UNL A   1      32.805  24.628  21.785  1.00  0.00    -0.120 S 
ATOM     23  C   UNL A   1      32.187  26.077  22.460  1.00  0.00     0.129 A 
ATOM     24  C   UNL A   1      32.319  27.548  24.349  1.00  0.00     0.168 A 
ATOM     25  N   UNL A   1      31.235  26.842  21.825  1.00  0.00    -0.225 NA
ATOM     26  N   UNL A   1      31.391  28.291  23.691  1.00  0.00    -0.201 N 
ATOM     27  N   UNL A   1      32.606  28.104  25.497  1.00  0.00    -0.207 NA
ATOM     28  C   UNL A   1      30.860  27.931  22.453  1.00  0.00     0.227 A 
ATOM     29  N   UNL A   1      31.065  29.393  24.392  1.00  0.00    -0.145 NA
ENDBRANCH  12  13
ENDBRANCH   9  11
ENDBRANCH   8   9
ENDBRANCH   7   8
ENDBRANCH   6   7
ENDBRANCH   5   6
ENDBRANCH   4   5
ENDBRANCH   3   4
ENDBRANCH   2   3
ENDBRANCH   1   2
BRANCH   1  30
ATOM     30  C   UNL A   1      33.738  36.419  33.019  1.00  0.00     0.188 C 
BRANCH  30  31
ATOM     31  O   UNL A   1      35.108  36.125  32.759  1.00  0.00    -0.376 OA
BRANCH  31  32
ATOM     32  C   UNL A   1      35.599  34.804  32.605  1.00  0.00     0.202 C 
BRANCH  32  33
ATOM     33  C   UNL A   1      34.647  33.630  32.388  1.00  0.00     0.261 C 
BRANCH  33  34
ATOM     34  O   UNL A   1      35.167  32.618  31.551  1.00  0.00    -0.460 OA
BRANCH  34  35
ATOM     35  C   UNL A   1      36.026  31.801  32.181  1.00  0.00     0.338 C 
ATOM     36  O   UNL A   1      36.171  31.662  33.391  1.00  0.00    -0.246 OA
BRANCH  35  37
ATOM     37  C   UNL A   1      36.894  31.166  31.189  1.00  0.00     0.060 A 
ATOM     38  C   UNL A   1      36.702  29.796  31.025  1.00  0.00     0.016 A 
ATOM     39  C   UNL A   1      38.035  31.825  30.698  1.00  0.00     0.016 A 
ATOM     40  C   UNL A   1      37.777  29.042  30.635  1.00  0.00     0.010 A 
ATOM     41  C   UNL A   1      39.112  31.067  30.297  1.00  0.00     0.010 A 
ATOM     42  C   UNL A   1      38.998  29.684  30.388  1.00  0.00    -0.014 A 
BRANCH  42  43
ATOM     43  C   UNL A   1      40.155  28.819  30.351  1.00  0.00     0.031 A 
ATOM     44  C   UNL A   1      40.868  28.673  31.632  1.00  0.00     0.074 A 
ATOM     45  C   UNL A   1      40.597  28.265  29.209  1.00  0.00     0.049 A 
ATOM     46  N   UNL A   1      42.058  29.080  31.924  1.00  0.00    -0.248 NA
ATOM     47  C   UNL A   1      40.119  28.099  32.755  1.00  0.00     0.031 C 
ATOM     48  C   UNL A   1      39.909  28.122  27.926  1.00  0.00     0.029 A 
ATOM     49  N   UNL A   1      41.782  27.631  29.004  1.00  0.00    -0.354 N 
ATOM     50  C   UNL A   1      42.275  28.693  33.238  1.00  0.00     0.074 A 
ATOM     51  C   UNL A   1      41.018  28.189  33.735  1.00  0.00     0.031 C 
ATOM     52  C   UNL A   1      40.599  27.252  27.154  1.00  0.00     0.029 A 
ATOM     53  C   UNL A   1      41.830  26.890  27.839  1.00  0.00     0.049 A 
ATOM     54  H   UNL A   1      42.539  27.695  29.630  1.00  0.00     0.167 HD
ATOM     55  C   UNL A   1      43.524  28.653  33.769  1.00  0.00     0.037 A 
ATOM     56  C   UNL A   1      42.772  25.970  27.530  1.00  0.00     0.037 A 
ATOM     57  C   UNL A   1      44.447  29.476  33.034  1.00  0.00     0.049 A 
ATOM     58  C   UNL A   1      43.984  26.273  28.338  1.00  0.00     0.074 A 
ATOM     59  C   UNL A   1      44.515  30.827  32.749  1.00  0.00     0.029 A 
ATOM     60  N   UNL A   1      45.340  28.877  32.181  1.00  0.00    -0.354 N 
ATOM     61  N   UNL A   1      44.750  27.313  28.148  1.00  0.00    -0.248 NA
ATOM     62  C   UNL A   1      44.111  25.641  29.646  1.00  0.00     0.031 C 
ATOM     63  C   UNL A   1      45.068  30.907  31.438  1.00  0.00     0.029 A 
ATOM     64  C   UNL A   1      45.322  29.601  31.016  1.00  0.00     0.049 A 
ATOM     65  H   UNL A   1      45.889  28.081  32.368  1.00  0.00     0.167 HD
ATOM     66  C   UNL A   1      45.132  27.711  29.422  1.00  0.00     0.074 A 
ATOM     67  C   UNL A   1      44.793  26.589  30.291  1.00  0.00     0.031 C 
ATOM     68  C   UNL A   1      45.429  29.014  29.702  1.00  0.00     0.037 A 
BRANCH  55  69
ATOM     69  C   UNL A   1      43.966  27.628  34.773  1.00  0.00     0.064 A 
ATOM     70  C   UNL A   1      43.887  26.261  34.449  1.00  0.00     0.173 A 
ATOM     71  C   UNL A   1      44.185  27.924  36.136  1.00  0.00     0.173 A 
ATOM     72  F   UNL A   1      43.656  25.870  33.185  1.00  0.00    -0.203 F 
ATOM     73  C   UNL A   1      43.953  25.269  35.429  1.00  0.00     0.198 A 
ATOM     74  C   UNL A   1      44.307  26.929  37.102  1.00  0.00     0.198 A 
ATOM     75  F   UNL A   1      44.177  29.180  36.602  1.00  0.00    -0.203 F 
ATOM     76  F   UNL A   1      43.748  23.989  35.091  1.00  0.00    -0.200 F 
ATOM     77  C   UNL A   1      44.158  25.604  36.755  1.00  0.00     0.200 A 
ATOM     78  F   UNL A   1      44.487  27.277  38.385  1.00  0.00    -0.200 F 
ATOM     79  F   UNL A   1      44.160  24.659  37.702  1.00  0.00    -0.200 F 
ENDBRANCH  55  69
BRANCH  56  80
ATOM     80  C   UNL A   1      42.555  24.680  26.836  1.00  0.00     0.064 A 
ATOM     81  C   UNL A   1      43.183  24.398  25.614  1.00  0.00     0.173 A 
ATOM     82  C   UNL A   1      41.921  23.595  27.479  1.00  0.00     0.173 A 
ATOM     83  F   UNL A   1      43.858  25.358  24.966  1.00  0.00    -0.203 F 
ATOM     84  C   UNL A   1      43.182  23.108  25.073  1.00  0.00     0.198 A 
ATOM     85  C   UNL A   1      41.907  22.314  26.930  1.00  0.00     0.198 A 
ATOM     86  F   UNL A   1      41.381  23.730  28.699  1.00  0.00    -0.203 F 
ATOM     87  F   UNL A   1      43.842  22.864  23.931  1.00  0.00    -0.200 F 
ATOM     88  C   UNL A   1      42.548  22.068  25.732  1.00  0.00     0.200 A 
ATOM     89  F   UNL A   1      41.321  21.311  27.598  1.00  0.00    -0.200 F 
ATOM     90  F   UNL A   1      42.588  20.823  25.236  1.00  0.00    -0.200 F 
ENDBRANCH  56  80
BRANCH  68  91
ATOM     91  C   UNL A   1      45.585  29.968  28.554  1.00  0.00     0.064 A 
ATOM     92  C   UNL A   1      44.500  30.609  27.930  1.00  0.00     0.173 A 
ATOM     93  C   UNL A   1      46.875  30.378  28.190  1.00  0.00     0.173 A 
ATOM     94  F   UNL A   1      43.240  30.349  28.302  1.00  0.00    -0.203 F 
ATOM     95  C   UNL A   1      44.702  31.587  26.957  1.00  0.00     0.198 A 
ATOM     96  C   UNL A   1      47.073  31.381  27.244  1.00  0.00     0.198 A 
ATOM     97  F   UNL A   1      47.947  29.845  28.796  1.00  0.00    -0.203 F 
ATOM     98  F   UNL A   1      43.651  32.180  26.373  1.00  0.00    -0.200 F 
ATOM     99  C   UNL A   1      45.988  31.979  26.622  1.00  0.00     0.200 A 
ATOM    100  F   UNL A   1      48.317  31.794  26.960  1.00  0.00    -0.200 F 
ATOM    101  F   UNL A   1      46.181  32.952  25.721  1.00  0.00    -0.200 F 
ENDBRANCH  68  91
ENDBRANCH  42  43
ENDBRANCH  35  37
ENDBRANCH  34  35
ENDBRANCH  33  34
ENDBRANCH  32  33
ENDBRANCH  31  32
ENDBRANCH  30  31
ENDBRANCH   1  30
TORSDOF 21
ENDMDL
MODEL 2
REMARK VINA RESULT:     -11.7      3.107      5.024
REMARK SMILES C[C@H]1CCc2sc3ncn4nc(/C=C\C(=O)OCCOCCOCCOCCOC(=O)c5ccc(-c6c7nc(c(-c8c(F)c(F)c(F)c(F)c8F)c8ccc([nH]8)c(-c8c(F)c(F)c(F)c(F)c8F)c8nc(c(-c9c(F)c(F)c(F)c(F)c9F)c9ccc6[nH]9)C=C8)C=C7)cc5)nc4c3c2C1
REMARK SMILES IDX 24 1 23 2 22 3 21 4 20 5 19 6 18 7 17 8 15 9 16 10 14 11
REMARK SMILES IDX 13 12 12 13 1 14 2 15 3 16 99 17 4 18 98 19 5 20 97 21 6 22
REMARK SMILES IDX 7 23 96 24 8 25 10 26 95 27 9 28 11 29 25 30 26 31 27 32
REMARK SMILES IDX 28 33 29 34 30 35 31 36 32 37 33 38 94 39 34 40 93 41 35 42
REMARK SMILES IDX 36 43 37 44 87 45 38 46 92 47 86 48 88 49 39 50 91 51 85 52
REMARK SMILES IDX 84 53 40 55 72 56 52 57 71 58 53 59 56 60 70 61 89 62 54 63
REMARK SMILES IDX 55 64 69 66 90 67 57 68 41 69 42 70 50 71 43 72 44 73 48 74
REMARK SMILES IDX 51 75 45 76 46 77 49 78 47 79 73 80 74 81 82 82 75 83 76 84
REMARK SMILES IDX 80 85 83 86 77 87 78 88 81 89 79 90 58 91 59 92 67 93 60 94
REMARK SMILES IDX 61 95 65 96 68 97 62 98 63 99 66 100 64 101
REMARK H PARENT 88 54 56 65
REMARK Flexibility Score: inf
ROOT
ATOM      1  C   UNL A   1      34.060  31.062  28.001  1.00  0.00     0.188 C 
ENDROOT
BRANCH   1   2
ATOM      2  O   UNL A   1      33.068  30.916  26.996  1.00  0.00    -0.377 OA
BRANCH   2   3
ATOM      3  C   UNL A   1      32.153  29.851  27.240  1.00  0.00     0.188 C 
BRANCH   3   4
ATOM      4  C   UNL A   1      31.868  28.924  26.042  1.00  0.00     0.188 C 
BRANCH   4   5
ATOM      5  O   UNL A   1      32.062  29.578  24.788  1.00  0.00    -0.376 OA
BRANCH   5   6
ATOM      6  C   UNL A   1      33.013  28.952  23.935  1.00  0.00     0.202 C 
BRANCH   6   7
ATOM      7  C   UNL A   1      32.489  28.818  22.509  1.00  0.00     0.261 C 
BRANCH   7   8
ATOM      8  O   UNL A   1      31.150  28.314  22.439  1.00  0.00    -0.460 OA
BRANCH   8   9
ATOM      9  C   UNL A   1      30.988  26.988  22.338  1.00  0.00     0.330 C 
ATOM     10  O   UNL A   1      31.460  26.278  21.461  1.00  0.00    -0.247 OA
BRANCH   9  11
ATOM     11  C   UNL A   1      30.332  26.417  23.533  1.00  0.00     0.097 C 
ATOM     12  C   UNL A   1      30.739  25.515  24.444  1.00  0.00     0.058 C 
BRANCH  12  13
ATOM     13  C   UNL A   1      31.965  24.802  24.613  1.00  0.00     0.175 A 
ATOM     14  C   UNL A   1      32.431  18.397  22.474  1.00  0.00     0.008 C 
ATOM     15  C   UNL A   1      32.289  18.583  23.987  1.00  0.00    -0.009 C 
ATOM     16  C   UNL A   1      33.331  17.759  24.774  1.00  0.00     0.009 C 
ATOM     17  C   UNL A   1      32.336  20.075  24.373  1.00  0.00     0.041 C 
ATOM     18  C   UNL A   1      34.773  18.277  24.624  1.00  0.00     0.047 C 
ATOM     19  C   UNL A   1      33.711  20.595  24.610  1.00  0.00    -0.020 A 
ATOM     20  C   UNL A   1      34.809  19.770  24.745  1.00  0.00     0.011 A 
ATOM     21  C   UNL A   1      34.091  21.946  24.767  1.00  0.00     0.060 A 
ATOM     22  S   UNL A   1      36.256  20.634  25.036  1.00  0.00    -0.120 S 
ATOM     23  C   UNL A   1      35.442  22.143  25.009  1.00  0.00     0.129 A 
ATOM     24  C   UNL A   1      33.303  23.189  24.725  1.00  0.00     0.168 A 
ATOM     25  N   UNL A   1      36.094  23.339  25.206  1.00  0.00    -0.225 NA
ATOM     26  N   UNL A   1      33.971  24.352  24.939  1.00  0.00    -0.201 N 
ATOM     27  N   UNL A   1      32.038  23.433  24.503  1.00  0.00    -0.207 NA
ATOM     28  C   UNL A   1      35.345  24.415  25.168  1.00  0.00     0.227 A 
ATOM     29  N   UNL A   1      33.136  25.407  24.894  1.00  0.00    -0.145 NA
ENDBRANCH  12  13
ENDBRANCH   9  11
ENDBRANCH   8   9
ENDBRANCH   7   8
ENDBRANCH   6   7
ENDBRANCH   5   6
ENDBRANCH   4   5
ENDBRANCH   3   4
ENDBRANCH   2   3
ENDBRANCH   1   2
BRANCH   1  30
ATOM     30  C   UNL A   1      34.840  32.394  27.978  1.00  0.00     0.188 C 
BRANCH  30  31
ATOM     31  O   UNL A   1      34.272  33.657  27.640  1.00  0.00    -0.376 OA
BRANCH  31  32
ATOM     32  C   UNL A   1      33.207  34.244  28.366  1.00  0.00     0.202 C 
BRANCH  32  33
ATOM     33  C   UNL A   1      33.475  35.189  29.534  1.00  0.00     0.261 C 
BRANCH  33  34
ATOM     34  O   UNL A   1      33.309  34.592  30.805  1.00  0.00    -0.460 OA
BRANCH  34  35
ATOM     35  C   UNL A   1      33.955  35.245  31.783  1.00  0.00     0.338 C 
ATOM     36  O   UNL A   1      33.913  36.446  32.031  1.00  0.00    -0.246 OA
BRANCH  35  37
ATOM     37  C   UNL A   1      34.856  34.314  32.462  1.00  0.00     0.060 A 
ATOM     38  C   UNL A   1      36.093  34.843  32.821  1.00  0.00     0.016 A 
ATOM     39  C   UNL A   1      34.611  32.929  32.448  1.00  0.00     0.016 A 
ATOM     40  C   UNL A   1      37.162  33.988  32.880  1.00  0.00     0.010 A 
ATOM     41  C   UNL A   1      35.684  32.070  32.517  1.00  0.00     0.010 A 
ATOM     42  C   UNL A   1      36.954  32.628  32.612  1.00  0.00    -0.014 A 
BRANCH  42  43
ATOM     43  C   UNL A   1      38.147  31.865  32.325  1.00  0.00     0.031 A 
ATOM     44  C   UNL A   1      39.056  31.671  33.468  1.00  0.00     0.074 A 
ATOM     45  C   UNL A   1      38.444  31.444  31.083  1.00  0.00     0.049 A 
ATOM     46  N   UNL A   1      40.247  32.147  33.618  1.00  0.00    -0.248 NA
ATOM     47  C   UNL A   1      38.529  30.949  34.630  1.00  0.00     0.031 C 
ATOM     48  C   UNL A   1      37.578  31.352  29.908  1.00  0.00     0.029 A 
ATOM     49  N   UNL A   1      39.622  30.926  30.648  1.00  0.00    -0.354 N 
ATOM     50  C   UNL A   1      40.688  31.673  34.844  1.00  0.00     0.074 A 
ATOM     51  C   UNL A   1      39.559  31.030  35.471  1.00  0.00     0.031 C 
ATOM     52  C   UNL A   1      38.198  30.606  28.965  1.00  0.00     0.029 A 
ATOM     53  C   UNL A   1      39.540  30.289  29.424  1.00  0.00     0.049 A 
ATOM     54  H   UNL A   1      40.462  30.999  31.158  1.00  0.00     0.167 HD
ATOM     55  C   UNL A   1      42.005  31.690  35.179  1.00  0.00     0.037 A 
ATOM     56  C   UNL A   1      40.483  29.476  28.895  1.00  0.00     0.037 A 
ATOM     57  C   UNL A   1      42.747  32.641  34.396  1.00  0.00     0.049 A 
ATOM     58  C   UNL A   1      41.782  29.808  29.541  1.00  0.00     0.074 A 
ATOM     59  C   UNL A   1      42.679  34.012  34.231  1.00  0.00     0.029 A 
ATOM     60  N   UNL A   1      43.536  32.187  33.369  1.00  0.00    -0.354 N 
ATOM     61  N   UNL A   1      42.439  30.918  29.338  1.00  0.00    -0.248 NA
ATOM     62  C   UNL A   1      42.150  29.083  30.751  1.00  0.00     0.031 C 
ATOM     63  C   UNL A   1      43.018  34.243  32.866  1.00  0.00     0.029 A 
ATOM     64  C   UNL A   1      43.290  33.001  32.292  1.00  0.00     0.049 A 
ATOM     65  H   UNL A   1      44.158  31.425  33.398  1.00  0.00     0.167 HD
ATOM     66  C   UNL A   1      42.985  31.240  30.573  1.00  0.00     0.074 A 
ATOM     67  C   UNL A   1      42.859  30.027  31.375  1.00  0.00     0.031 C 
ATOM     68  C   UNL A   1      43.233  32.535  30.927  1.00  0.00     0.037 A 
BRANCH  55  69
ATOM     69  C   UNL A   1      42.663  30.624  36.007  1.00  0.00     0.064 A 
ATOM     70  C   UNL A   1      43.440  30.992  37.121  1.00  0.00     0.173 A 
ATOM     71  C   UNL A   1      42.798  29.286  35.579  1.00  0.00     0.173 A 
ATOM     72  F   UNL A   1      43.405  32.248  37.594  1.00  0.00    -0.203 F 
ATOM     73  C   UNL A   1      44.337  30.104  37.716  1.00  0.00     0.198 A 
ATOM     74  C   UNL A   1      43.652  28.386  36.212  1.00  0.00     0.198 A 
ATOM     75  F   UNL A   1      42.200  28.828  34.472  1.00  0.00    -0.203 F 
ATOM     76  F   UNL A   1      45.147  30.534  38.693  1.00  0.00    -0.200 F 
ATOM     77  C   UNL A   1      44.446  28.803  37.258  1.00  0.00     0.200 A 
ATOM     78  F   UNL A   1      43.757  27.135  35.740  1.00  0.00    -0.200 F 
ATOM     79  F   UNL A   1      45.348  27.969  37.788  1.00  0.00    -0.200 F 
ENDBRANCH  55  69
BRANCH  56  80
ATOM     80  C   UNL A   1      40.249  28.234  28.124  1.00  0.00     0.064 A 
ATOM     81  C   UNL A   1      40.876  28.018  26.888  1.00  0.00     0.173 A 
ATOM     82  C   UNL A   1      39.597  27.122  28.698  1.00  0.00     0.173 A 
ATOM     83  F   UNL A   1      41.567  29.005  26.301  1.00  0.00    -0.203 F 
ATOM     84  C   UNL A   1      40.858  26.764  26.269  1.00  0.00     0.198 A 
ATOM     85  C   UNL A   1      39.565  25.877  28.072  1.00  0.00     0.198 A 
ATOM     86  F   UNL A   1      39.056  27.190  29.923  1.00  0.00    -0.203 F 
ATOM     87  F   UNL A   1      41.517  26.579  25.116  1.00  0.00    -0.200 F 
ATOM     88  C   UNL A   1      40.206  25.695  26.863  1.00  0.00     0.200 A 
ATOM     89  F   UNL A   1      38.962  24.844  28.677  1.00  0.00    -0.200 F 
ATOM     90  F   UNL A   1      40.229  24.482  26.292  1.00  0.00    -0.200 F 
ENDBRANCH  56  80
BRANCH  68  91
ATOM     91  C   UNL A   1      43.147  33.589  29.863  1.00  0.00     0.064 A 
ATOM     92  C   UNL A   1      41.967  34.295  29.570  1.00  0.00     0.173 A 
ATOM     93  C   UNL A   1      44.329  34.020  29.244  1.00  0.00     0.173 A 
ATOM     94  F   UNL A   1      40.820  34.013  30.202  1.00  0.00    -0.203 F 
ATOM     95  C   UNL A   1      41.967  35.357  28.666  1.00  0.00     0.198 A 
ATOM     96  C   UNL A   1      44.332  35.104  28.370  1.00  0.00     0.198 A 
ATOM     97  F   UNL A   1      45.496  33.423  29.533  1.00  0.00    -0.203 F 
ATOM     98  F   UNL A   1      40.826  36.011  28.399  1.00  0.00    -0.200 F 
ATOM     99  C   UNL A   1      43.150  35.766  28.074  1.00  0.00     0.200 A 
ATOM    100  F   UNL A   1      45.487  35.530  27.839  1.00  0.00    -0.200 F 
ATOM    101  F   UNL A   1      43.158  36.817  27.242  1.00  0.00    -0.200 F 
ENDBRANCH  68  91
ENDBRANCH  42  43
ENDBRANCH  35  37
ENDBRANCH  34  35
ENDBRANCH  33  34
ENDBRANCH  32  33
ENDBRANCH  31  32
ENDBRANCH  30  31
ENDBRANCH   1  30
TORSDOF 21
ENDMDL
MODEL 3
REMARK VINA RESULT:     -11.5      4.294     10.177
REMARK SMILES C[C@H]1CCc2sc3ncn4nc(/C=C\C(=O)OCCOCCOCCOCCOC(=O)c5ccc(-c6c7nc(c(-c8c(F)c(F)c(F)c(F)c8F)c8ccc([nH]8)c(-c8c(F)c(F)c(F)c(F)c8F)c8nc(c(-c9c(F)c(F)c(F)c(F)c9F)c9ccc6[nH]9)C=C8)C=C7)cc5)nc4c3c2C1
REMARK SMILES IDX 24 1 23 2 22 3 21 4 20 5 19 6 18 7 17 8 15 9 16 10 14 11
REMARK SMILES IDX 13 12 12 13 1 14 2 15 3 16 99 17 4 18 98 19 5 20 97 21 6 22
REMARK SMILES IDX 7 23 96 24 8 25 10 26 95 27 9 28 11 29 25 30 26 31 27 32
REMARK SMILES IDX 28 33 29 34 30 35 31 36 32 37 33 38 94 39 34 40 93 41 35 42
REMARK SMILES IDX 36 43 37 44 87 45 38 46 92 47 86 48 88 49 39 50 91 51 85 52
REMARK SMILES IDX 84 53 40 55 72 56 52 57 71 58 53 59 56 60 70 61 89 62 54 63
REMARK SMILES IDX 55 64 69 66 90 67 57 68 41 69 42 70 50 71 43 72 44 73 48 74
REMARK SMILES IDX 51 75 45 76 46 77 49 78 47 79 73 80 74 81 82 82 75 83 76 84
REMARK SMILES IDX 80 85 83 86 77 87 78 88 81 89 79 90 58 91 59 92 67 93 60 94
REMARK SMILES IDX 61 95 65 96 68 97 62 98 63 99 66 100 64 101
REMARK H PARENT 88 54 56 65
REMARK Flexibility Score: inf
ROOT
ATOM      1  C   UNL A   1      41.982  19.897  27.412  1.00  0.00     0.188 C 
ENDROOT
BRANCH   1   2
ATOM      2  O   UNL A   1      40.912  20.819  27.268  1.00  0.00    -0.377 OA
BRANCH   2   3
ATOM      3  C   UNL A   1      40.058  20.544  26.160  1.00  0.00     0.188 C 
BRANCH   3   4
ATOM      4  C   UNL A   1      39.033  21.641  25.816  1.00  0.00     0.188 C 
BRANCH   4   5
ATOM      5  O   UNL A   1      37.808  21.104  25.315  1.00  0.00    -0.376 OA
BRANCH   5   6
ATOM      6  C   UNL A   1      37.114  21.957  24.412  1.00  0.00     0.202 C 
BRANCH   6   7
ATOM      7  C   UNL A   1      36.221  22.949  25.149  1.00  0.00     0.261 C 
BRANCH   7   8
ATOM      8  O   UNL A   1      35.604  23.911  24.284  1.00  0.00    -0.460 OA
BRANCH   8   9
ATOM      9  C   UNL A   1      34.656  23.476  23.443  1.00  0.00     0.330 C 
ATOM     10  O   UNL A   1      34.812  23.248  22.251  1.00  0.00    -0.247 OA
BRANCH   9  11
ATOM     11  C   UNL A   1      33.418  23.092  24.153  1.00  0.00     0.097 C 
ATOM     12  C   UNL A   1      32.547  23.796  24.897  1.00  0.00     0.058 C 
BRANCH  12  13
ATOM     13  C   UNL A   1      32.476  25.179  25.247  1.00  0.00     0.175 A 
ATOM     14  C   UNL A   1      27.234  28.903  23.134  1.00  0.00     0.008 C 
ATOM     15  C   UNL A   1      28.551  29.123  22.384  1.00  0.00    -0.009 C 
ATOM     16  C   UNL A   1      28.894  30.622  22.241  1.00  0.00     0.009 C 
ATOM     17  C   UNL A   1      29.704  28.336  23.037  1.00  0.00     0.041 C 
ATOM     18  C   UNL A   1      29.284  31.298  23.569  1.00  0.00     0.047 C 
ATOM     19  C   UNL A   1      30.399  29.075  24.127  1.00  0.00    -0.020 A 
ATOM     20  C   UNL A   1      30.219  30.425  24.348  1.00  0.00     0.011 A 
ATOM     21  C   UNL A   1      31.338  28.550  25.041  1.00  0.00     0.060 A 
ATOM     22  S   UNL A   1      31.162  31.016  25.647  1.00  0.00    -0.120 S 
ATOM     23  C   UNL A   1      31.854  29.475  25.937  1.00  0.00     0.129 A 
ATOM     24  C   UNL A   1      31.876  27.190  25.211  1.00  0.00     0.168 A 
ATOM     25  N   UNL A   1      32.783  29.256  26.929  1.00  0.00    -0.225 NA
ATOM     26  N   UNL A   1      32.801  27.007  26.188  1.00  0.00    -0.201 N 
ATOM     27  N   UNL A   1      31.636  26.057  24.604  1.00  0.00    -0.207 NA
ATOM     28  C   UNL A   1      33.235  28.029  27.032  1.00  0.00     0.227 A 
ATOM     29  N   UNL A   1      33.224  25.730  26.225  1.00  0.00    -0.145 NA
ENDBRANCH  12  13
ENDBRANCH   9  11
ENDBRANCH   8   9
ENDBRANCH   7   8
ENDBRANCH   6   7
ENDBRANCH   5   6
ENDBRANCH   4   5
ENDBRANCH   3   4
ENDBRANCH   2   3
ENDBRANCH   1   2
BRANCH   1  30
ATOM     30  C   UNL A   1      42.366  19.119  26.136  1.00  0.00     0.188 C 
BRANCH  30  31
ATOM     31  O   UNL A   1      43.225  19.618  25.113  1.00  0.00    -0.376 OA
BRANCH  31  32
ATOM     32  C   UNL A   1      44.085  20.728  25.299  1.00  0.00     0.202 C 
BRANCH  32  33
ATOM     33  C   UNL A   1      43.725  22.105  24.746  1.00  0.00     0.261 C 
BRANCH  33  34
ATOM     34  O   UNL A   1      42.928  22.883  25.617  1.00  0.00    -0.460 OA
BRANCH  34  35
ATOM     35  C   UNL A   1      43.090  24.203  25.441  1.00  0.00     0.338 C 
ATOM     36  O   UNL A   1      43.924  24.765  24.737  1.00  0.00    -0.246 OA
BRANCH  35  37
ATOM     37  C   UNL A   1      42.183  24.918  26.340  1.00  0.00     0.060 A 
ATOM     38  C   UNL A   1      41.334  25.831  25.720  1.00  0.00     0.016 A 
ATOM     39  C   UNL A   1      42.392  24.916  27.730  1.00  0.00     0.016 A 
ATOM     40  C   UNL A   1      40.926  26.919  26.446  1.00  0.00     0.010 A 
ATOM     41  C   UNL A   1      41.975  26.005  28.461  1.00  0.00     0.010 A 
ATOM     42  C   UNL A   1      41.352  27.042  27.775  1.00  0.00    -0.014 A 
BRANCH  42  43
ATOM     43  C   UNL A   1      41.208  28.360  28.352  1.00  0.00     0.031 A 
ATOM     44  C   UNL A   1      42.337  29.275  28.112  1.00  0.00     0.074 A 
ATOM     45  C   UNL A   1      40.160  28.690  29.127  1.00  0.00     0.049 A 
ATOM     46  N   UNL A   1      43.162  29.755  28.981  1.00  0.00    -0.248 NA
ATOM     47  C   UNL A   1      42.647  29.607  26.718  1.00  0.00     0.031 C 
ATOM     48  C   UNL A   1      38.876  28.006  29.283  1.00  0.00     0.029 A 
ATOM     49  N   UNL A   1      40.023  29.798  29.900  1.00  0.00    -0.354 N 
ATOM     50  C   UNL A   1      44.028  30.569  28.267  1.00  0.00     0.074 A 
ATOM     51  C   UNL A   1      43.734  30.362  26.870  1.00  0.00     0.031 C 
ATOM     52  C   UNL A   1      38.016  28.831  29.923  1.00  0.00     0.029 A 
ATOM     53  C   UNL A   1      38.730  30.032  30.327  1.00  0.00     0.049 A 
ATOM     54  H   UNL A   1      40.779  30.384  30.138  1.00  0.00     0.167 HD
ATOM     55  C   UNL A   1      44.808  31.492  28.887  1.00  0.00     0.037 A 
ATOM     56  C   UNL A   1      38.278  31.182  30.877  1.00  0.00     0.037 A 
ATOM     57  C   UNL A   1      44.989  31.193  30.282  1.00  0.00     0.049 A 
ATOM     58  C   UNL A   1      39.450  31.909  31.436  1.00  0.00     0.074 A 
ATOM     59  C   UNL A   1      45.541  30.130  30.974  1.00  0.00     0.029 A 
ATOM     60  N   UNL A   1      44.281  31.909  31.215  1.00  0.00    -0.354 N 
ATOM     61  N   UNL A   1      40.122  31.519  32.484  1.00  0.00    -0.248 NA
ATOM     62  C   UNL A   1      40.146  32.853  30.570  1.00  0.00     0.031 C 
ATOM     63  C   UNL A   1      44.750  29.998  32.152  1.00  0.00     0.029 A 
ATOM     64  C   UNL A   1      43.781  31.001  32.114  1.00  0.00     0.049 A 
ATOM     65  H   UNL A   1      44.156  32.885  31.236  1.00  0.00     0.167 HD
ATOM     66  C   UNL A   1      41.444  31.828  32.196  1.00  0.00     0.074 A 
ATOM     67  C   UNL A   1      41.384  32.736  31.055  1.00  0.00     0.031 C 
ATOM     68  C   UNL A   1      42.476  31.107  32.723  1.00  0.00     0.037 A 
BRANCH  55  69
ATOM     69  C   UNL A   1      45.151  32.825  28.287  1.00  0.00     0.064 A 
ATOM     70  C   UNL A   1      44.139  33.789  28.116  1.00  0.00     0.173 A 
ATOM     71  C   UNL A   1      46.364  33.081  27.613  1.00  0.00     0.173 A 
ATOM     72  F   UNL A   1      42.938  33.630  28.694  1.00  0.00    -0.203 F 
ATOM     73  C   UNL A   1      44.309  34.889  27.274  1.00  0.00     0.198 A 
ATOM     74  C   UNL A   1      46.549  34.210  26.818  1.00  0.00     0.198 A 
ATOM     75  F   UNL A   1      47.372  32.200  27.602  1.00  0.00    -0.203 F 
ATOM     76  F   UNL A   1      43.278  35.713  27.042  1.00  0.00    -0.200 F 
ATOM     77  C   UNL A   1      45.512  35.096  26.622  1.00  0.00     0.200 A 
ATOM     78  F   UNL A   1      47.715  34.381  26.181  1.00  0.00    -0.200 F 
ATOM     79  F   UNL A   1      45.655  36.116  25.768  1.00  0.00    -0.200 F 
ENDBRANCH  55  69
BRANCH  56  80
ATOM     80  C   UNL A   1      36.960  31.815  30.646  1.00  0.00     0.064 A 
ATOM     81  C   UNL A   1      36.018  31.931  31.679  1.00  0.00     0.173 A 
ATOM     82  C   UNL A   1      36.688  32.543  29.468  1.00  0.00     0.173 A 
ATOM     83  F   UNL A   1      36.227  31.319  32.853  1.00  0.00    -0.203 F 
ATOM     84  C   UNL A   1      34.879  32.732  31.544  1.00  0.00     0.198 A 
ATOM     85  C   UNL A   1      35.544  33.327  29.328  1.00  0.00     0.198 A 
ATOM     86  F   UNL A   1      37.571  32.586  28.459  1.00  0.00    -0.203 F 
ATOM     87  F   UNL A   1      34.031  32.865  32.574  1.00  0.00    -0.200 F 
ATOM     88  C   UNL A   1      34.646  33.432  30.371  1.00  0.00     0.200 A 
ATOM     89  F   UNL A   1      35.352  34.027  28.201  1.00  0.00    -0.200 F 
ATOM     90  F   UNL A   1      33.579  34.236  30.260  1.00  0.00    -0.200 F 
ENDBRANCH  56  80
BRANCH  68  91
ATOM     91  C   UNL A   1      42.171  30.135  33.825  1.00  0.00     0.064 A 
ATOM     92  C   UNL A   1      41.718  28.824  33.594  1.00  0.00     0.173 A 
ATOM     93  C   UNL A   1      42.513  30.478  35.141  1.00  0.00     0.173 A 
ATOM     94  F   UNL A   1      41.474  28.389  32.351  1.00  0.00    -0.203 F 
ATOM     95  C   UNL A   1      41.575  27.915  34.640  1.00  0.00     0.198 A 
ATOM     96  C   UNL A   1      42.405  29.556  36.178  1.00  0.00     0.198 A 
ATOM     97  F   UNL A   1      43.010  31.695  35.411  1.00  0.00    -0.203 F 
ATOM     98  F   UNL A   1      41.135  26.672  34.395  1.00  0.00    -0.200 F 
ATOM     99  C   UNL A   1      41.927  28.278  35.930  1.00  0.00     0.200 A 
ATOM    100  F   UNL A   1      42.794  29.894  37.416  1.00  0.00    -0.200 F 
ATOM    101  F   UNL A   1      41.835  27.389  36.928  1.00  0.00    -0.200 F 
ENDBRANCH  68  91
ENDBRANCH  42  43
ENDBRANCH  35  37
ENDBRANCH  34  35
ENDBRANCH  33  34
ENDBRANCH  32  33
ENDBRANCH  31  32
ENDBRANCH  30  31
ENDBRANCH   1  30
TORSDOF 21
ENDMDL
