MODEL 1
REMARK VINA RESULT:     -10.3      0.000      0.000
REMARK SMILES C[C@@H]1SCCC[C@@]1(CC(=O)OCCOCCOCCOCCOC(=O)c1ccc(-c2c3nc(c(-c4c(F)c(F)c(F)c(F)c4F)c4ccc([nH]4)c(-c4c(F)c(F)c(F)c(F)c4F)c4nc(c(-c5c(F)c(F)c(F)c(F)c5F)c5ccc2[nH]5)C=C4)C=C3)cc1)[NH+]1CCCC1
REMARK SMILES IDX 17 1 16 2 15 3 14 4 13 5 12 6 11 7 9 8 10 9 8 10 7 11 1 12
REMARK SMILES IDX 2 13 3 14 4 15 6 16 5 17 89 18 90 19 93 20 91 22 92 23 18 24
REMARK SMILES IDX 19 25 20 26 21 27 22 28 23 29 24 30 25 31 26 32 27 33 88 34
REMARK SMILES IDX 28 35 87 36 29 37 30 38 31 39 81 40 32 41 86 42 80 43 82 44
REMARK SMILES IDX 33 45 85 46 79 47 78 48 34 50 66 51 46 52 65 53 47 54 50 55
REMARK SMILES IDX 64 56 83 57 48 58 49 59 63 61 84 62 51 63 35 64 36 65 44 66
REMARK SMILES IDX 37 67 38 68 42 69 45 70 39 71 40 72 43 73 41 74 67 75 68 76
REMARK SMILES IDX 76 77 69 78 70 79 74 80 77 81 71 82 72 83 75 84 73 85 52 86
REMARK SMILES IDX 53 87 61 88 54 89 55 90 59 91 62 92 56 93 57 94 60 95 58 96
REMARK H PARENT 89 21 82 49 50 60
REMARK Flexibility Score: inf
ROOT
ATOM      1  O   UNL A   1      34.408  35.802  28.532  1.00  0.00    -0.377 OA
ENDROOT
BRANCH   1   2
ATOM      2  C   UNL A   1      34.475  34.568  27.845  1.00  0.00     0.188 C 
BRANCH   2   3
ATOM      3  C   UNL A   1      34.119  33.354  28.700  1.00  0.00     0.188 C 
BRANCH   3   4
ATOM      4  O   UNL A   1      33.795  32.165  28.000  1.00  0.00    -0.376 OA
BRANCH   4   5
ATOM      5  C   UNL A   1      34.886  31.323  27.618  1.00  0.00     0.202 C 
BRANCH   5   6
ATOM      6  C   UNL A   1      34.850  29.824  28.003  1.00  0.00     0.261 C 
BRANCH   6   7
ATOM      7  O   UNL A   1      35.011  28.869  26.905  1.00  0.00    -0.463 OA
BRANCH   7   8
ATOM      8  C   UNL A   1      33.893  28.230  26.495  1.00  0.00     0.312 C 
ATOM      9  O   UNL A   1      32.763  28.592  26.832  1.00  0.00    -0.252 OA
BRANCH   8  10
ATOM     10  C   UNL A   1      34.013  27.052  25.522  1.00  0.00     0.192 C 
BRANCH  10  11
ATOM     11  C   UNL A   1      32.937  26.485  24.493  1.00  0.00     0.120 C 
ATOM     12  C   UNL A   1      34.411  24.272  24.411  1.00  0.00     0.026 C 
ATOM     13  C   UNL A   1      32.994  24.892  24.513  1.00  0.00     0.105 C 
ATOM     14  S   UNL A   1      32.072  24.003  23.180  1.00  0.00    -0.152 SA
ATOM     15  C   UNL A   1      32.864  24.758  21.742  1.00  0.00     0.070 C 
ATOM     16  C   UNL A   1      33.438  26.933  23.066  1.00  0.00     0.071 C 
ATOM     17  C   UNL A   1      32.841  26.275  21.811  1.00  0.00     0.017 C 
BRANCH  11  18
ATOM     18  N   UNL A   1      31.604  27.085  24.822  1.00  0.00    -0.329 N 
ATOM     19  C   UNL A   1      30.505  26.297  25.375  1.00  0.00     0.262 C 
ATOM     20  C   UNL A   1      30.990  27.979  23.825  1.00  0.00     0.262 C 
ATOM     21  H   UNL A   1      32.027  27.586  25.604  1.00  0.00     0.348 HD
ATOM     22  C   UNL A   1      29.486  26.152  24.259  1.00  0.00     0.067 C 
ATOM     23  C   UNL A   1      29.598  27.450  23.501  1.00  0.00     0.067 C 
ENDBRANCH  11  18
ENDBRANCH  10  11
ENDBRANCH   8  10
ENDBRANCH   7   8
ENDBRANCH   6   7
ENDBRANCH   5   6
ENDBRANCH   4   5
ENDBRANCH   3   4
ENDBRANCH   2   3
ENDBRANCH   1   2
BRANCH   1  24
ATOM     24  C   UNL A   1      33.210  36.226  29.167  1.00  0.00     0.188 C 
BRANCH  24  25
ATOM     25  C   UNL A   1      32.898  35.648  30.545  1.00  0.00     0.188 C 
BRANCH  25  26
ATOM     26  O   UNL A   1      33.846  35.897  31.589  1.00  0.00    -0.376 OA
BRANCH  26  27
ATOM     27  C   UNL A   1      34.780  34.872  31.925  1.00  0.00     0.202 C 
BRANCH  27  28
ATOM     28  C   UNL A   1      34.161  33.617  32.536  1.00  0.00     0.261 C 
BRANCH  28  29
ATOM     29  O   UNL A   1      34.874  32.435  32.139  1.00  0.00    -0.460 OA
BRANCH  29  30
ATOM     30  C   UNL A   1      35.953  32.128  32.886  1.00  0.00     0.338 C 
ATOM     31  O   UNL A   1      36.128  32.349  34.078  1.00  0.00    -0.246 OA
BRANCH  30  32
ATOM     32  C   UNL A   1      36.880  31.312  32.087  1.00  0.00     0.060 A 
ATOM     33  C   UNL A   1      37.783  30.483  32.763  1.00  0.00     0.016 A 
ATOM     34  C   UNL A   1      36.917  31.425  30.695  1.00  0.00     0.016 A 
ATOM     35  C   UNL A   1      38.769  29.806  32.055  1.00  0.00     0.010 A 
ATOM     36  C   UNL A   1      37.915  30.758  29.986  1.00  0.00     0.010 A 
ATOM     37  C   UNL A   1      38.870  29.986  30.671  1.00  0.00    -0.014 A 
BRANCH  37  38
ATOM     38  C   UNL A   1      40.094  29.538  29.972  1.00  0.00     0.031 A 
ATOM     39  C   UNL A   1      41.218  30.522  29.804  1.00  0.00     0.074 A 
ATOM     40  C   UNL A   1      40.208  28.278  29.525  1.00  0.00     0.049 A 
ATOM     41  N   UNL A   1      42.355  30.388  29.172  1.00  0.00    -0.248 NA
ATOM     42  C   UNL A   1      41.031  31.840  30.433  1.00  0.00     0.031 C 
ATOM     43  C   UNL A   1      39.201  27.231  29.685  1.00  0.00     0.029 A 
ATOM     44  N   UNL A   1      41.224  27.670  28.833  1.00  0.00    -0.354 N 
ATOM     45  C   UNL A   1      43.009  31.604  29.316  1.00  0.00     0.074 A 
ATOM     46  C   UNL A   1      42.134  32.474  30.068  1.00  0.00     0.031 C 
ATOM     47  C   UNL A   1      39.644  26.110  29.092  1.00  0.00     0.029 A 
ATOM     48  C   UNL A   1      40.943  26.375  28.478  1.00  0.00     0.049 A 
ATOM     49  H   UNL A   1      42.072  28.118  28.613  1.00  0.00     0.167 HD
ATOM     50  C   UNL A   1      44.234  31.957  28.861  1.00  0.00     0.037 A 
ATOM     51  C   UNL A   1      41.648  25.518  27.715  1.00  0.00     0.037 A 
ATOM     52  C   UNL A   1      45.094  31.078  28.113  1.00  0.00     0.049 A 
ATOM     53  C   UNL A   1      42.975  25.960  27.154  1.00  0.00     0.074 A 
ATOM     54  C   UNL A   1      46.362  31.324  27.619  1.00  0.00     0.029 A 
ATOM     55  N   UNL A   1      44.764  29.781  27.744  1.00  0.00    -0.354 N 
ATOM     56  N   UNL A   1      43.600  27.105  27.304  1.00  0.00    -0.248 NA
ATOM     57  C   UNL A   1      43.697  24.992  26.319  1.00  0.00     0.031 C 
ATOM     58  C   UNL A   1      46.772  30.202  26.894  1.00  0.00     0.029 A 
ATOM     59  C   UNL A   1      45.792  29.227  26.999  1.00  0.00     0.049 A 
ATOM     60  H   UNL A   1      43.924  29.323  27.977  1.00  0.00     0.167 HD
ATOM     61  C   UNL A   1      44.798  26.982  26.613  1.00  0.00     0.074 A 
ATOM     62  C   UNL A   1      44.819  25.646  26.054  1.00  0.00     0.031 C 
ATOM     63  C   UNL A   1      45.794  27.891  26.457  1.00  0.00     0.037 A 
BRANCH  50  64
ATOM     64  C   UNL A   1      44.698  33.361  29.125  1.00  0.00     0.064 A 
ATOM     65  C   UNL A   1      44.460  34.406  28.221  1.00  0.00     0.173 A 
ATOM     66  C   UNL A   1      45.371  33.669  30.318  1.00  0.00     0.173 A 
ATOM     67  F   UNL A   1      43.835  34.164  27.058  1.00  0.00    -0.203 F 
ATOM     68  C   UNL A   1      44.900  35.700  28.488  1.00  0.00     0.198 A 
ATOM     69  C   UNL A   1      45.780  34.970  30.598  1.00  0.00     0.198 A 
ATOM     70  F   UNL A   1      45.625  32.709  31.219  1.00  0.00    -0.203 F 
ATOM     71  F   UNL A   1      44.706  36.672  27.586  1.00  0.00    -0.200 F 
ATOM     72  C   UNL A   1      45.551  35.983  29.679  1.00  0.00     0.200 A 
ATOM     73  F   UNL A   1      46.397  35.243  31.755  1.00  0.00    -0.200 F 
ATOM     74  F   UNL A   1      45.966  37.231  29.938  1.00  0.00    -0.200 F 
ENDBRANCH  50  64
BRANCH  51  75
ATOM     75  C   UNL A   1      41.104  24.165  27.422  1.00  0.00     0.064 A 
ATOM     76  C   UNL A   1      41.663  23.019  28.001  1.00  0.00     0.173 A 
ATOM     77  C   UNL A   1      40.020  23.991  26.548  1.00  0.00     0.173 A 
ATOM     78  F   UNL A   1      42.715  23.129  28.825  1.00  0.00    -0.203 F 
ATOM     79  C   UNL A   1      41.172  21.748  27.702  1.00  0.00     0.198 A 
ATOM     80  C   UNL A   1      39.509  22.724  26.276  1.00  0.00     0.198 A 
ATOM     81  F   UNL A   1      39.447  25.055  25.966  1.00  0.00    -0.203 F 
ATOM     82  F   UNL A   1      41.758  20.666  28.231  1.00  0.00    -0.200 F 
ATOM     83  C   UNL A   1      40.092  21.603  26.846  1.00  0.00     0.200 A 
ATOM     84  F   UNL A   1      38.454  22.590  25.460  1.00  0.00    -0.200 F 
ATOM     85  F   UNL A   1      39.617  20.382  26.563  1.00  0.00    -0.200 F 
ENDBRANCH  51  75
BRANCH  63  86
ATOM     86  C   UNL A   1      47.011  27.457  25.689  1.00  0.00     0.064 A 
ATOM     87  C   UNL A   1      47.128  27.665  24.307  1.00  0.00     0.173 A 
ATOM     88  C   UNL A   1      48.096  26.869  26.358  1.00  0.00     0.173 A 
ATOM     89  F   UNL A   1      46.114  28.211  23.618  1.00  0.00    -0.203 F 
ATOM     90  C   UNL A   1      48.274  27.274  23.619  1.00  0.00     0.198 A 
ATOM     91  C   UNL A   1      49.254  26.513  25.673  1.00  0.00     0.198 A 
ATOM     92  F   UNL A   1      48.041  26.657  27.681  1.00  0.00    -0.203 F 
ATOM     93  F   UNL A   1      48.342  27.433  22.290  1.00  0.00    -0.200 F 
ATOM     94  C   UNL A   1      49.339  26.707  24.304  1.00  0.00     0.200 A 
ATOM     95  F   UNL A   1      50.289  25.983  26.340  1.00  0.00    -0.200 F 
ATOM     96  F   UNL A   1      50.444  26.342  23.641  1.00  0.00    -0.200 F 
ENDBRANCH  63  86
ENDBRANCH  37  38
ENDBRANCH  30  32
ENDBRANCH  29  30
ENDBRANCH  28  29
ENDBRANCH  27  28
ENDBRANCH  26  27
ENDBRANCH  25  26
ENDBRANCH  24  25
ENDBRANCH   1  24
TORSDOF 22
ENDMDL
MODEL 2
REMARK VINA RESULT:     -10.0      0.917      2.060
REMARK SMILES C[C@@H]1SCCC[C@@]1(CC(=O)OCCOCCOCCOCCOC(=O)c1ccc(-c2c3nc(c(-c4c(F)c(F)c(F)c(F)c4F)c4ccc([nH]4)c(-c4c(F)c(F)c(F)c(F)c4F)c4nc(c(-c5c(F)c(F)c(F)c(F)c5F)c5ccc2[nH]5)C=C4)C=C3)cc1)[NH+]1CCCC1
REMARK SMILES IDX 17 1 16 2 15 3 14 4 13 5 12 6 11 7 9 8 10 9 8 10 7 11 1 12
REMARK SMILES IDX 2 13 3 14 4 15 6 16 5 17 89 18 90 19 93 20 91 22 92 23 18 24
REMARK SMILES IDX 19 25 20 26 21 27 22 28 23 29 24 30 25 31 26 32 27 33 88 34
REMARK SMILES IDX 28 35 87 36 29 37 30 38 31 39 81 40 32 41 86 42 80 43 82 44
REMARK SMILES IDX 33 45 85 46 79 47 78 48 34 50 66 51 46 52 65 53 47 54 50 55
REMARK SMILES IDX 64 56 83 57 48 58 49 59 63 61 84 62 51 63 35 64 36 65 44 66
REMARK SMILES IDX 37 67 38 68 42 69 45 70 39 71 40 72 43 73 41 74 67 75 68 76
REMARK SMILES IDX 76 77 69 78 70 79 74 80 77 81 71 82 72 83 75 84 73 85 52 86
REMARK SMILES IDX 53 87 61 88 54 89 55 90 59 91 62 92 56 93 57 94 60 95 58 96
REMARK H PARENT 89 21 82 49 50 60
REMARK Flexibility Score: inf
ROOT
ATOM      1  O   UNL A   1      34.431  34.678  28.982  1.00  0.00    -0.377 OA
ENDROOT
BRANCH   1   2
ATOM      2  C   UNL A   1      34.041  33.462  28.374  1.00  0.00     0.188 C 
BRANCH   2   3
ATOM      3  C   UNL A   1      32.689  33.520  27.667  1.00  0.00     0.188 C 
BRANCH   3   4
ATOM      4  O   UNL A   1      32.153  32.282  27.233  1.00  0.00    -0.376 OA
BRANCH   4   5
ATOM      5  C   UNL A   1      32.959  31.120  27.447  1.00  0.00     0.202 C 
BRANCH   5   6
ATOM      6  C   UNL A   1      32.852  29.937  26.454  1.00  0.00     0.261 C 
BRANCH   6   7
ATOM      7  O   UNL A   1      33.328  28.640  26.938  1.00  0.00    -0.463 OA
BRANCH   7   8
ATOM      8  C   UNL A   1      32.388  27.690  27.139  1.00  0.00     0.312 C 
ATOM      9  O   UNL A   1      31.464  27.835  27.943  1.00  0.00    -0.252 OA
BRANCH   8  10
ATOM     10  C   UNL A   1      32.417  26.410  26.297  1.00  0.00     0.192 C 
BRANCH  10  11
ATOM     11  C   UNL A   1      31.628  26.071  24.956  1.00  0.00     0.120 C 
ATOM     12  C   UNL A   1      33.651  27.216  23.661  1.00  0.00     0.026 C 
ATOM     13  C   UNL A   1      32.665  26.022  23.746  1.00  0.00     0.105 C 
ATOM     14  S   UNL A   1      31.960  25.964  22.038  1.00  0.00    -0.152 SA
ATOM     15  C   UNL A   1      30.958  27.466  22.099  1.00  0.00     0.070 C 
ATOM     16  C   UNL A   1      30.690  27.311  24.691  1.00  0.00     0.071 C 
ATOM     17  C   UNL A   1      30.040  27.489  23.309  1.00  0.00     0.017 C 
BRANCH  11  18
ATOM     18  N   UNL A   1      30.837  24.818  25.175  1.00  0.00    -0.329 N 
ATOM     19  C   UNL A   1      30.654  24.228  26.499  1.00  0.00     0.262 C 
ATOM     20  C   UNL A   1      31.083  23.684  24.266  1.00  0.00     0.262 C 
ATOM     21  H   UNL A   1      29.979  25.326  24.960  1.00  0.00     0.348 HD
ATOM     22  C   UNL A   1      31.508  22.972  26.525  1.00  0.00     0.067 C 
ATOM     23  C   UNL A   1      31.440  22.465  25.107  1.00  0.00     0.067 C 
ENDBRANCH  11  18
ENDBRANCH  10  11
ENDBRANCH   8  10
ENDBRANCH   7   8
ENDBRANCH   6   7
ENDBRANCH   5   6
ENDBRANCH   4   5
ENDBRANCH   3   4
ENDBRANCH   2   3
ENDBRANCH   1   2
BRANCH   1  24
ATOM     24  C   UNL A   1      33.475  35.676  29.308  1.00  0.00     0.188 C 
BRANCH  24  25
ATOM     25  C   UNL A   1      32.959  35.718  30.745  1.00  0.00     0.188 C 
BRANCH  25  26
ATOM     26  O   UNL A   1      33.868  36.166  31.755  1.00  0.00    -0.376 OA
BRANCH  26  27
ATOM     27  C   UNL A   1      34.618  35.195  32.482  1.00  0.00     0.202 C 
BRANCH  27  28
ATOM     28  C   UNL A   1      34.036  33.784  32.454  1.00  0.00     0.261 C 
BRANCH  28  29
ATOM     29  O   UNL A   1      34.959  32.849  31.873  1.00  0.00    -0.460 OA
BRANCH  29  30
ATOM     30  C   UNL A   1      35.857  32.313  32.723  1.00  0.00     0.338 C 
ATOM     31  O   UNL A   1      35.856  32.366  33.947  1.00  0.00    -0.246 OA
BRANCH  30  32
ATOM     32  C   UNL A   1      36.806  31.482  31.966  1.00  0.00     0.060 A 
ATOM     33  C   UNL A   1      37.698  30.677  32.684  1.00  0.00     0.016 A 
ATOM     34  C   UNL A   1      36.873  31.558  30.573  1.00  0.00     0.016 A 
ATOM     35  C   UNL A   1      38.703  29.987  32.016  1.00  0.00     0.010 A 
ATOM     36  C   UNL A   1      37.890  30.878  29.905  1.00  0.00     0.010 A 
ATOM     37  C   UNL A   1      38.834  30.131  30.630  1.00  0.00    -0.014 A 
BRANCH  37  38
ATOM     38  C   UNL A   1      40.075  29.672  29.970  1.00  0.00     0.031 A 
ATOM     39  C   UNL A   1      41.209  30.648  29.829  1.00  0.00     0.074 A 
ATOM     40  C   UNL A   1      40.196  28.408  29.535  1.00  0.00     0.049 A 
ATOM     41  N   UNL A   1      42.363  30.504  29.231  1.00  0.00    -0.248 NA
ATOM     42  C   UNL A   1      41.011  31.972  30.443  1.00  0.00     0.031 C 
ATOM     43  C   UNL A   1      39.179  27.368  29.674  1.00  0.00     0.029 A 
ATOM     44  N   UNL A   1      41.228  27.790  28.878  1.00  0.00    -0.354 N 
ATOM     45  C   UNL A   1      43.019  31.718  29.386  1.00  0.00     0.074 A 
ATOM     46  C   UNL A   1      42.127  32.598  30.106  1.00  0.00     0.031 C 
ATOM     47  C   UNL A   1      39.633  26.240  29.101  1.00  0.00     0.029 A 
ATOM     48  C   UNL A   1      40.951  26.494  28.524  1.00  0.00     0.049 A 
ATOM     49  H   UNL A   1      42.085  28.232  28.680  1.00  0.00     0.167 HD
ATOM     50  C   UNL A   1      44.259  32.062  28.965  1.00  0.00     0.037 A 
ATOM     51  C   UNL A   1      41.673  25.628  27.787  1.00  0.00     0.037 A 
ATOM     52  C   UNL A   1      45.136  31.173  28.248  1.00  0.00     0.049 A 
ATOM     53  C   UNL A   1      43.018  26.060  27.262  1.00  0.00     0.074 A 
ATOM     54  C   UNL A   1      46.418  31.409  27.789  1.00  0.00     0.029 A 
ATOM     55  N   UNL A   1      44.810  29.875  27.878  1.00  0.00    -0.354 N 
ATOM     56  N   UNL A   1      43.644  27.202  27.423  1.00  0.00    -0.248 NA
ATOM     57  C   UNL A   1      43.760  25.081  26.455  1.00  0.00     0.031 C 
ATOM     58  C   UNL A   1      46.844  30.279  27.084  1.00  0.00     0.029 A 
ATOM     59  C   UNL A   1      45.856  29.310  27.167  1.00  0.00     0.049 A 
ATOM     60  H   UNL A   1      43.961  29.423  28.090  1.00  0.00     0.167 HD
ATOM     61  C   UNL A   1      44.862  27.068  26.768  1.00  0.00     0.074 A 
ATOM     62  C   UNL A   1      44.892  25.728  26.219  1.00  0.00     0.031 C 
ATOM     63  C   UNL A   1      45.867  27.971  26.635  1.00  0.00     0.037 A 
BRANCH  50  64
ATOM     64  C   UNL A   1      44.722  33.465  29.233  1.00  0.00     0.064 A 
ATOM     65  C   UNL A   1      45.485  33.794  30.363  1.00  0.00     0.173 A 
ATOM     66  C   UNL A   1      44.419  34.493  28.327  1.00  0.00     0.173 A 
ATOM     67  F   UNL A   1      45.791  32.853  31.269  1.00  0.00    -0.203 F 
ATOM     68  C   UNL A   1      45.903  35.104  30.589  1.00  0.00     0.198 A 
ATOM     69  C   UNL A   1      44.866  35.795  28.539  1.00  0.00     0.198 A 
ATOM     70  F   UNL A   1      43.692  34.235  27.229  1.00  0.00    -0.203 F 
ATOM     71  F   UNL A   1      46.588  35.404  31.702  1.00  0.00    -0.200 F 
ATOM     72  C   UNL A   1      45.601  36.100  29.674  1.00  0.00     0.200 A 
ATOM     73  F   UNL A   1      44.584  36.752  27.646  1.00  0.00    -0.200 F 
ATOM     74  F   UNL A   1      46.012  37.357  29.889  1.00  0.00    -0.200 F 
ENDBRANCH  50  64
BRANCH  51  75
ATOM     75  C   UNL A   1      41.131  24.276  27.488  1.00  0.00     0.064 A 
ATOM     76  C   UNL A   1      40.059  24.106  26.602  1.00  0.00     0.173 A 
ATOM     77  C   UNL A   1      41.667  23.128  28.089  1.00  0.00     0.173 A 
ATOM     78  F   UNL A   1      39.495  25.174  26.018  1.00  0.00    -0.203 F 
ATOM     79  C   UNL A   1      39.530  22.841  26.344  1.00  0.00     0.198 A 
ATOM     80  C   UNL A   1      41.160  21.862  27.807  1.00  0.00     0.198 A 
ATOM     81  F   UNL A   1      42.694  23.234  28.945  1.00  0.00    -0.203 F 
ATOM     82  F   UNL A   1      38.473  22.713  25.532  1.00  0.00    -0.200 F 
ATOM     83  C   UNL A   1      40.087  21.720  26.941  1.00  0.00     0.200 A 
ATOM     84  F   UNL A   1      41.711  20.779  28.374  1.00  0.00    -0.200 F 
ATOM     85  F   UNL A   1      39.582  20.504  26.690  1.00  0.00    -0.200 F 
ENDBRANCH  51  75
BRANCH  63  86
ATOM     86  C   UNL A   1      47.103  27.525  25.905  1.00  0.00     0.064 A 
ATOM     87  C   UNL A   1      47.207  27.599  24.509  1.00  0.00     0.173 A 
ATOM     88  C   UNL A   1      48.218  27.065  26.623  1.00  0.00     0.173 A 
ATOM     89  F   UNL A   1      46.165  28.020  23.776  1.00  0.00    -0.203 F 
ATOM     90  C   UNL A   1      48.370  27.200  23.856  1.00  0.00     0.198 A 
ATOM     91  C   UNL A   1      49.392  26.702  25.969  1.00  0.00     0.198 A 
ATOM     92  F   UNL A   1      48.177  26.984  27.961  1.00  0.00    -0.203 F 
ATOM     93  F   UNL A   1      48.427  27.229  22.517  1.00  0.00    -0.200 F 
ATOM     94  C   UNL A   1      49.464  26.761  24.586  1.00  0.00     0.200 A 
ATOM     95  F   UNL A   1      50.455  26.297  26.678  1.00  0.00    -0.200 F 
ATOM     96  F   UNL A   1      50.586  26.389  23.956  1.00  0.00    -0.200 F 
ENDBRANCH  63  86
ENDBRANCH  37  38
ENDBRANCH  30  32
ENDBRANCH  29  30
ENDBRANCH  28  29
ENDBRANCH  27  28
ENDBRANCH  26  27
ENDBRANCH  25  26
ENDBRANCH  24  25
ENDBRANCH   1  24
TORSDOF 22
ENDMDL
MODEL 3
REMARK VINA RESULT:      -9.2      5.626     11.862
REMARK SMILES C[C@@H]1SCCC[C@@]1(CC(=O)OCCOCCOCCOCCOC(=O)c1ccc(-c2c3nc(c(-c4c(F)c(F)c(F)c(F)c4F)c4ccc([nH]4)c(-c4c(F)c(F)c(F)c(F)c4F)c4nc(c(-c5c(F)c(F)c(F)c(F)c5F)c5ccc2[nH]5)C=C4)C=C3)cc1)[NH+]1CCCC1
REMARK SMILES IDX 17 1 16 2 15 3 14 4 13 5 12 6 11 7 9 8 10 9 8 10 7 11 1 12
REMARK SMILES IDX 2 13 3 14 4 15 6 16 5 17 89 18 90 19 93 20 91 22 92 23 18 24
REMARK SMILES IDX 19 25 20 26 21 27 22 28 23 29 24 30 25 31 26 32 27 33 88 34
REMARK SMILES IDX 28 35 87 36 29 37 30 38 31 39 81 40 32 41 86 42 80 43 82 44
REMARK SMILES IDX 33 45 85 46 79 47 78 48 34 50 66 51 46 52 65 53 47 54 50 55
REMARK SMILES IDX 64 56 83 57 48 58 49 59 63 61 84 62 51 63 35 64 36 65 44 66
REMARK SMILES IDX 37 67 38 68 42 69 45 70 39 71 40 72 43 73 41 74 67 75 68 76
REMARK SMILES IDX 76 77 69 78 70 79 74 80 77 81 71 82 72 83 75 84 73 85 52 86
REMARK SMILES IDX 53 87 61 88 54 89 55 90 59 91 62 92 56 93 57 94 60 95 58 96
REMARK H PARENT 89 21 82 49 50 60
REMARK Flexibility Score: inf
ROOT
ATOM      1  O   UNL A   1      43.716  21.871  24.687  1.00  0.00    -0.377 OA
ENDROOT
BRANCH   1   2
ATOM      2  C   UNL A   1      44.281  23.160  24.546  1.00  0.00     0.188 C 
BRANCH   2   3
ATOM      3  C   UNL A   1      44.414  23.933  25.856  1.00  0.00     0.188 C 
BRANCH   3   4
ATOM      4  O   UNL A   1      43.502  23.590  26.885  1.00  0.00    -0.376 OA
BRANCH   4   5
ATOM      5  C   UNL A   1      44.041  22.919  28.028  1.00  0.00     0.202 C 
BRANCH   5   6
ATOM      6  C   UNL A   1      43.691  23.443  29.442  1.00  0.00     0.261 C 
BRANCH   6   7
ATOM      7  O   UNL A   1      44.687  24.308  30.078  1.00  0.00    -0.463 OA
BRANCH   7   8
ATOM      8  C   UNL A   1      44.378  24.777  31.307  1.00  0.00     0.312 C 
ATOM      9  O   UNL A   1      43.979  25.928  31.495  1.00  0.00    -0.252 OA
BRANCH   8  10
ATOM     10  C   UNL A   1      44.459  23.836  32.514  1.00  0.00     0.192 C 
BRANCH  10  11
ATOM     11  C   UNL A   1      44.455  24.191  34.067  1.00  0.00     0.120 C 
ATOM     12  C   UNL A   1      47.056  24.683  33.801  1.00  0.00     0.026 C 
ATOM     13  C   UNL A   1      45.694  25.144  34.381  1.00  0.00     0.105 C 
ATOM     14  S   UNL A   1      46.097  25.438  36.161  1.00  0.00    -0.152 SA
ATOM     15  C   UNL A   1      46.327  23.723  36.682  1.00  0.00     0.070 C 
ATOM     16  C   UNL A   1      44.738  22.830  34.813  1.00  0.00     0.071 C 
ATOM     17  C   UNL A   1      45.147  22.847  36.295  1.00  0.00     0.017 C 
BRANCH  11  18
ATOM     18  N   UNL A   1      43.111  24.746  34.423  1.00  0.00    -0.329 N 
ATOM     19  C   UNL A   1      42.895  26.166  34.691  1.00  0.00     0.262 C 
ATOM     20  C   UNL A   1      42.318  24.026  35.436  1.00  0.00     0.262 C 
ATOM     21  H   UNL A   1      42.791  24.576  33.469  1.00  0.00     0.348 HD
ATOM     22  C   UNL A   1      42.668  26.284  36.188  1.00  0.00     0.067 C 
ATOM     23  C   UNL A   1      41.952  25.006  36.544  1.00  0.00     0.067 C 
ENDBRANCH  11  18
ENDBRANCH  10  11
ENDBRANCH   8  10
ENDBRANCH   7   8
ENDBRANCH   6   7
ENDBRANCH   5   6
ENDBRANCH   4   5
ENDBRANCH   3   4
ENDBRANCH   2   3
ENDBRANCH   1   2
BRANCH   1  24
ATOM     24  C   UNL A   1      44.534  20.730  24.904  1.00  0.00     0.188 C 
BRANCH  24  25
ATOM     25  C   UNL A   1      43.843  19.371  24.982  1.00  0.00     0.188 C 
BRANCH  25  26
ATOM     26  O   UNL A   1      42.455  19.360  25.330  1.00  0.00    -0.376 OA
BRANCH  26  27
ATOM     27  C   UNL A   1      42.066  19.844  26.615  1.00  0.00     0.202 C 
BRANCH  27  28
ATOM     28  C   UNL A   1      40.664  20.445  26.675  1.00  0.00     0.261 C 
BRANCH  28  29
ATOM     29  O   UNL A   1      40.713  21.873  26.827  1.00  0.00    -0.460 OA
BRANCH  29  30
ATOM     30  C   UNL A   1      39.646  22.545  26.351  1.00  0.00     0.338 C 
ATOM     31  O   UNL A   1      38.681  22.091  25.748  1.00  0.00    -0.246 OA
BRANCH  30  32
ATOM     32  C   UNL A   1      39.711  23.942  26.806  1.00  0.00     0.060 A 
ATOM     33  C   UNL A   1      40.309  24.885  25.961  1.00  0.00     0.016 A 
ATOM     34  C   UNL A   1      39.266  24.303  28.080  1.00  0.00     0.016 A 
ATOM     35  C   UNL A   1      40.520  26.183  26.409  1.00  0.00     0.010 A 
ATOM     36  C   UNL A   1      39.491  25.601  28.534  1.00  0.00     0.010 A 
ATOM     37  C   UNL A   1      40.160  26.529  27.717  1.00  0.00    -0.014 A 
BRANCH  37  38
ATOM     38  C   UNL A   1      40.672  27.789  28.298  1.00  0.00     0.031 A 
ATOM     39  C   UNL A   1      42.153  27.925  28.511  1.00  0.00     0.074 A 
ATOM     40  C   UNL A   1      39.837  28.796  28.599  1.00  0.00     0.049 A 
ATOM     41  N   UNL A   1      42.829  28.898  29.064  1.00  0.00    -0.248 NA
ATOM     42  C   UNL A   1      42.986  26.806  28.039  1.00  0.00     0.031 C 
ATOM     43  C   UNL A   1      38.392  28.788  28.379  1.00  0.00     0.029 A 
ATOM     44  N   UNL A   1      40.088  30.018  29.166  1.00  0.00    -0.354 N 
ATOM     45  C   UNL A   1      44.159  28.503  29.018  1.00  0.00     0.074 A 
ATOM     46  C   UNL A   1      44.196  27.191  28.412  1.00  0.00     0.031 C 
ATOM     47  C   UNL A   1      37.880  29.948  28.823  1.00  0.00     0.029 A 
ATOM     48  C   UNL A   1      38.955  30.758  29.393  1.00  0.00     0.049 A 
ATOM     49  H   UNL A   1      40.993  30.335  29.388  1.00  0.00     0.167 HD
ATOM     50  C   UNL A   1      45.252  29.181  29.443  1.00  0.00     0.037 A 
ATOM     51  C   UNL A   1      38.808  31.940  30.021  1.00  0.00     0.037 A 
ATOM     52  C   UNL A   1      45.199  30.487  30.045  1.00  0.00     0.049 A 
ATOM     53  C   UNL A   1      40.031  32.640  30.555  1.00  0.00     0.074 A 
ATOM     54  C   UNL A   1      46.243  31.274  30.496  1.00  0.00     0.029 A 
ATOM     55  N   UNL A   1      44.029  31.195  30.289  1.00  0.00    -0.354 N 
ATOM     56  N   UNL A   1      41.290  32.273  30.497  1.00  0.00    -0.248 NA
ATOM     57  C   UNL A   1      39.814  33.921  31.241  1.00  0.00     0.031 C 
ATOM     58  C   UNL A   1      45.702  32.427  31.072  1.00  0.00     0.029 A 
ATOM     59  C   UNL A   1      44.325  32.394  30.914  1.00  0.00     0.049 A 
ATOM     60  H   UNL A   1      43.124  30.888  30.052  1.00  0.00     0.167 HD
ATOM     61  C   UNL A   1      42.015  33.289  31.106  1.00  0.00     0.074 A 
ATOM     62  C   UNL A   1      41.056  34.294  31.516  1.00  0.00     0.031 C 
ATOM     63  C   UNL A   1      43.353  33.385  31.307  1.00  0.00     0.037 A 
BRANCH  50  64
ATOM     64  C   UNL A   1      46.587  28.507  29.309  1.00  0.00     0.064 A 
ATOM     65  C   UNL A   1      47.150  27.755  30.351  1.00  0.00     0.173 A 
ATOM     66  C   UNL A   1      47.303  28.593  28.104  1.00  0.00     0.173 A 
ATOM     67  F   UNL A   1      46.515  27.652  31.528  1.00  0.00    -0.203 F 
ATOM     68  C   UNL A   1      48.390  27.139  30.202  1.00  0.00     0.198 A 
ATOM     69  C   UNL A   1      48.527  27.949  27.947  1.00  0.00     0.198 A 
ATOM     70  F   UNL A   1      46.812  29.298  27.074  1.00  0.00    -0.203 F 
ATOM     71  F   UNL A   1      48.931  26.469  31.229  1.00  0.00    -0.200 F 
ATOM     72  C   UNL A   1      49.073  27.229  28.998  1.00  0.00     0.200 A 
ATOM     73  F   UNL A   1      49.178  28.026  26.779  1.00  0.00    -0.200 F 
ATOM     74  F   UNL A   1      50.262  26.628  28.854  1.00  0.00    -0.200 F 
ENDBRANCH  50  64
BRANCH  51  75
ATOM     75  C   UNL A   1      37.452  32.525  30.194  1.00  0.00     0.064 A 
ATOM     76  C   UNL A   1      36.934  33.440  29.268  1.00  0.00     0.173 A 
ATOM     77  C   UNL A   1      36.650  32.188  31.294  1.00  0.00     0.173 A 
ATOM     78  F   UNL A   1      37.670  33.813  28.211  1.00  0.00    -0.203 F 
ATOM     79  C   UNL A   1      35.675  34.012  29.447  1.00  0.00     0.198 A 
ATOM     80  C   UNL A   1      35.379  32.735  31.455  1.00  0.00     0.198 A 
ATOM     81  F   UNL A   1      37.097  31.317  32.211  1.00  0.00    -0.203 F 
ATOM     82  F   UNL A   1      35.226  34.922  28.573  1.00  0.00    -0.200 F 
ATOM     83  C   UNL A   1      34.896  33.653  30.536  1.00  0.00     0.200 A 
ATOM     84  F   UNL A   1      34.623  32.372  32.501  1.00  0.00    -0.200 F 
ATOM     85  F   UNL A   1      33.684  34.198  30.705  1.00  0.00    -0.200 F 
ENDBRANCH  51  75
BRANCH  63  86
ATOM     86  C   UNL A   1      43.867  34.638  31.959  1.00  0.00     0.064 A 
ATOM     87  C   UNL A   1      44.107  34.711  33.338  1.00  0.00     0.173 A 
ATOM     88  C   UNL A   1      44.169  35.766  31.179  1.00  0.00     0.173 A 
ATOM     89  F   UNL A   1      43.822  33.666  34.130  1.00  0.00    -0.203 F 
ATOM     90  C   UNL A   1      44.602  35.876  33.917  1.00  0.00     0.198 A 
ATOM     91  C   UNL A   1      44.699  36.916  31.757  1.00  0.00     0.198 A 
ATOM     92  F   UNL A   1      43.969  35.746  29.853  1.00  0.00    -0.203 F 
ATOM     93  F   UNL A   1      44.773  35.942  35.245  1.00  0.00    -0.200 F 
ATOM     94  C   UNL A   1      44.907  36.974  33.125  1.00  0.00     0.200 A 
ATOM     95  F   UNL A   1      45.011  37.968  30.987  1.00  0.00    -0.200 F 
ATOM     96  F   UNL A   1      45.395  38.089  33.684  1.00  0.00    -0.200 F 
ENDBRANCH  63  86
ENDBRANCH  37  38
ENDBRANCH  30  32
ENDBRANCH  29  30
ENDBRANCH  28  29
ENDBRANCH  27  28
ENDBRANCH  26  27
ENDBRANCH  25  26
ENDBRANCH  24  25
ENDBRANCH   1  24
TORSDOF 22
ENDMDL
