MODEL 1
REMARK VINA RESULT:      -9.6      0.000      0.000
REMARK SMILES CC(C)Oc1ccc([C@@H]2CC(=O)Nc3c(C(=O)OCCOCCOCCOCCOC(=O)c4ccc(-c5c6nc(c(-c7c(F)c(F)c(F)c(F)c7F)c7ccc([nH]7)c(-c7c(F)c(F)c(F)c(F)c7F)c7nc(c(-c8c(F)c(F)c(F)c(F)c8F)c8ccc5[nH]8)C=C7)C=C6)cc4)nsc32)cc1
REMARK SMILES IDX 23 1 22 2 21 3 20 4 19 5 18 6 16 7 17 8 15 9 9 10 10 11
REMARK SMILES IDX 98 12 11 13 14 14 97 15 12 16 13 17 96 18 8 20 5 21 6 22
REMARK SMILES IDX 100 23 7 24 99 25 4 26 2 27 1 28 3 29 24 30 25 31 26 32
REMARK SMILES IDX 27 33 28 34 29 35 30 36 31 37 32 38 33 39 34 40 95 41 35 42
REMARK SMILES IDX 94 43 36 44 37 45 38 46 88 47 39 48 93 49 87 50 89 51 40 52
REMARK SMILES IDX 92 53 86 54 85 55 41 57 73 58 53 59 72 60 54 61 57 62 71 63
REMARK SMILES IDX 90 64 55 65 56 66 70 68 91 69 58 70 42 71 43 72 51 73 44 74
REMARK SMILES IDX 45 75 49 76 52 77 46 78 47 79 50 80 48 81 74 82 75 83 83 84
REMARK SMILES IDX 76 85 77 86 81 87 84 88 78 89 79 90 82 91 80 92 59 93 60 94
REMARK SMILES IDX 68 95 61 96 62 97 66 98 69 99 63 100 64 101 67 102 65 103
REMARK H PARENT 13 19 89 56 57 67
REMARK Flexibility Score: inf
ROOT
ATOM      1  C   UNL A   1      33.000  22.408  26.820  1.00  0.00     0.188 C 
ENDROOT
BRANCH   1   2
ATOM      2  C   UNL A   1      31.950  22.243  25.699  1.00  0.00     0.188 C 
BRANCH   2   3
ATOM      3  O   UNL A   1      32.219  21.484  24.531  1.00  0.00    -0.376 OA
BRANCH   3   4
ATOM      4  C   UNL A   1      33.089  21.885  23.489  1.00  0.00     0.202 C 
BRANCH   4   5
ATOM      5  C   UNL A   1      32.886  23.115  22.592  1.00  0.00     0.261 C 
BRANCH   5   6
ATOM      6  O   UNL A   1      33.464  24.335  23.038  1.00  0.00    -0.458 OA
BRANCH   6   7
ATOM      7  C   UNL A   1      33.273  25.394  22.199  1.00  0.00     0.360 C 
ATOM      8  O   UNL A   1      33.367  25.330  20.981  1.00  0.00    -0.244 OA
BRANCH   7   9
ATOM      9  C   UNL A   1      32.838  26.586  22.935  1.00  0.00     0.185 A 
ATOM     10  C   UNL A   1      31.430  28.276  25.959  1.00  0.00     0.073 C 
ATOM     11  C   UNL A   1      31.152  27.000  26.782  1.00  0.00     0.114 C 
ATOM     12  C   UNL A   1      31.943  27.895  24.608  1.00  0.00     0.058 A 
ATOM     13  C   UNL A   1      30.703  25.794  25.965  1.00  0.00     0.225 C 
ATOM     14  C   UNL A   1      32.002  26.621  24.107  1.00  0.00     0.091 A 
ATOM     15  S   UNL A   1      32.598  28.970  23.465  1.00  0.00    -0.038 S 
ATOM     16  O   UNL A   1      29.931  24.954  26.424  1.00  0.00    -0.275 OA
ATOM     17  N   UNL A   1      31.317  25.605  24.749  1.00  0.00    -0.323 N 
ATOM     18  N   UNL A   1      33.205  27.793  22.478  1.00  0.00    -0.183 NA
ATOM     19  H   UNL A   1      31.269  24.719  24.324  1.00  0.00     0.170 HD
BRANCH  10  20
ATOM     20  C   UNL A   1      32.468  29.144  26.665  1.00  0.00    -0.039 A 
ATOM     21  C   UNL A   1      34.572  30.746  27.624  1.00  0.00     0.119 A 
ATOM     22  C   UNL A   1      33.316  31.303  27.364  1.00  0.00     0.047 A 
ATOM     23  C   UNL A   1      34.752  29.378  27.487  1.00  0.00     0.047 A 
ATOM     24  C   UNL A   1      32.267  30.511  26.877  1.00  0.00     0.008 A 
ATOM     25  C   UNL A   1      33.716  28.587  27.004  1.00  0.00     0.008 A 
BRANCH  21  26
ATOM     26  O   UNL A   1      35.540  31.572  28.115  1.00  0.00    -0.491 OA
BRANCH  26  27
ATOM     27  C   UNL A   1      35.148  32.652  28.985  1.00  0.00     0.167 C 
ATOM     28  C   UNL A   1      34.924  32.255  30.444  1.00  0.00     0.052 C 
ATOM     29  C   UNL A   1      36.028  33.893  28.853  1.00  0.00     0.052 C 
ENDBRANCH  26  27
ENDBRANCH  21  26
ENDBRANCH  10  20
ENDBRANCH   7   9
ENDBRANCH   6   7
ENDBRANCH   5   6
ENDBRANCH   4   5
ENDBRANCH   3   4
ENDBRANCH   2   3
ENDBRANCH   1   2
BRANCH   1  30
ATOM     30  O   UNL A   1      34.295  22.744  26.354  1.00  0.00    -0.377 OA
BRANCH  30  31
ATOM     31  C   UNL A   1      35.286  21.719  26.458  1.00  0.00     0.188 C 
BRANCH  31  32
ATOM     32  C   UNL A   1      36.351  21.554  25.338  1.00  0.00     0.188 C 
BRANCH  32  33
ATOM     33  O   UNL A   1      37.610  22.145  25.617  1.00  0.00    -0.376 OA
BRANCH  33  34
ATOM     34  C   UNL A   1      37.883  23.526  25.470  1.00  0.00     0.202 C 
BRANCH  34  35
ATOM     35  C   UNL A   1      38.005  24.379  26.726  1.00  0.00     0.261 C 
BRANCH  35  36
ATOM     36  O   UNL A   1      39.319  24.440  27.235  1.00  0.00    -0.460 OA
BRANCH  36  37
ATOM     37  C   UNL A   1      40.013  25.526  26.845  1.00  0.00     0.338 C 
ATOM     38  O   UNL A   1      40.909  25.581  26.026  1.00  0.00    -0.246 OA
BRANCH  37  39
ATOM     39  C   UNL A   1      39.604  26.635  27.705  1.00  0.00     0.060 A 
ATOM     40  C   UNL A   1      39.730  27.905  27.146  1.00  0.00     0.016 A 
ATOM     41  C   UNL A   1      39.573  26.407  29.089  1.00  0.00     0.016 A 
ATOM     42  C   UNL A   1      40.140  28.915  27.975  1.00  0.00     0.010 A 
ATOM     43  C   UNL A   1      40.020  27.403  29.908  1.00  0.00     0.010 A 
ATOM     44  C   UNL A   1      40.390  28.606  29.317  1.00  0.00    -0.014 A 
BRANCH  44  45
ATOM     45  C   UNL A   1      40.966  29.628  30.149  1.00  0.00     0.031 A 
ATOM     46  C   UNL A   1      39.930  30.516  30.705  1.00  0.00     0.074 A 
ATOM     47  C   UNL A   1      42.281  29.661  30.425  1.00  0.00     0.049 A 
ATOM     48  N   UNL A   1      39.743  31.758  30.420  1.00  0.00    -0.248 NA
ATOM     49  C   UNL A   1      38.844  29.903  31.490  1.00  0.00     0.031 C 
ATOM     50  C   UNL A   1      43.309  28.672  30.092  1.00  0.00     0.029 A 
ATOM     51  N   UNL A   1      42.958  30.568  31.172  1.00  0.00    -0.354 N 
ATOM     52  C   UNL A   1      38.637  32.139  31.165  1.00  0.00     0.074 A 
ATOM     53  C   UNL A   1      38.004  30.930  31.612  1.00  0.00     0.031 C 
ATOM     54  C   UNL A   1      44.417  28.921  30.830  1.00  0.00     0.029 A 
ATOM     55  C   UNL A   1      44.210  30.137  31.595  1.00  0.00     0.049 A 
ATOM     56  H   UNL A   1      42.595  31.456  31.395  1.00  0.00     0.167 HD
ATOM     57  C   UNL A   1      38.521  33.420  31.603  1.00  0.00     0.037 A 
ATOM     58  C   UNL A   1      44.936  30.713  32.588  1.00  0.00     0.037 A 
ATOM     59  C   UNL A   1      39.354  34.306  30.827  1.00  0.00     0.049 A 
ATOM     60  C   UNL A   1      44.407  32.096  32.771  1.00  0.00     0.074 A 
ATOM     61  C   UNL A   1      39.430  34.616  29.481  1.00  0.00     0.029 A 
ATOM     62  N   UNL A   1      40.546  34.715  31.373  1.00  0.00    -0.354 N 
ATOM     63  N   UNL A   1      44.560  33.045  31.888  1.00  0.00    -0.248 NA
ATOM     64  C   UNL A   1      43.286  32.274  33.687  1.00  0.00     0.031 C 
ATOM     65  C   UNL A   1      40.822  34.747  29.207  1.00  0.00     0.029 A 
ATOM     66  C   UNL A   1      41.513  34.588  30.408  1.00  0.00     0.049 A 
ATOM     67  H   UNL A   1      40.683  35.040  32.292  1.00  0.00     0.167 HD
ATOM     68  C   UNL A   1      43.331  33.688  31.844  1.00  0.00     0.074 A 
ATOM     69  C   UNL A   1      42.608  33.216  33.024  1.00  0.00     0.031 C 
ATOM     70  C   UNL A   1      42.895  34.297  30.702  1.00  0.00     0.037 A 
BRANCH  57  71
ATOM     71  C   UNL A   1      38.003  33.777  32.973  1.00  0.00     0.064 A 
ATOM     72  C   UNL A   1      38.627  33.201  34.094  1.00  0.00     0.173 A 
ATOM     73  C   UNL A   1      36.755  34.394  33.220  1.00  0.00     0.173 A 
ATOM     74  F   UNL A   1      39.810  32.579  33.972  1.00  0.00    -0.203 F 
ATOM     75  C   UNL A   1      38.003  33.158  35.341  1.00  0.00     0.198 A 
ATOM     76  C   UNL A   1      36.162  34.400  34.478  1.00  0.00     0.198 A 
ATOM     77  F   UNL A   1      35.997  34.913  32.248  1.00  0.00    -0.203 F 
ATOM     78  F   UNL A   1      38.571  32.476  36.343  1.00  0.00    -0.200 F 
ATOM     79  C   UNL A   1      36.768  33.750  35.531  1.00  0.00     0.200 A 
ATOM     80  F   UNL A   1      34.956  34.964  34.633  1.00  0.00    -0.200 F 
ATOM     81  F   UNL A   1      36.136  33.650  36.707  1.00  0.00    -0.200 F 
ENDBRANCH  57  71
BRANCH  58  82
ATOM     82  C   UNL A   1      45.815  30.051  33.585  1.00  0.00     0.064 A 
ATOM     83  C   UNL A   1      47.180  30.375  33.676  1.00  0.00     0.173 A 
ATOM     84  C   UNL A   1      45.291  29.282  34.644  1.00  0.00     0.173 A 
ATOM     85  F   UNL A   1      47.755  31.144  32.740  1.00  0.00    -0.203 F 
ATOM     86  C   UNL A   1      47.962  29.974  34.766  1.00  0.00     0.198 A 
ATOM     87  C   UNL A   1      46.074  28.874  35.725  1.00  0.00     0.198 A 
ATOM     88  F   UNL A   1      43.986  28.986  34.705  1.00  0.00    -0.203 F 
ATOM     89  F   UNL A   1      49.245  30.356  34.846  1.00  0.00    -0.200 F 
ATOM     90  C   UNL A   1      47.406  29.230  35.793  1.00  0.00     0.200 A 
ATOM     91  F   UNL A   1      45.511  28.184  36.727  1.00  0.00    -0.200 F 
ATOM     92  F   UNL A   1      48.138  28.895  36.864  1.00  0.00    -0.200 F 
ENDBRANCH  58  82
BRANCH  70  93
ATOM     93  C   UNL A   1      43.875  34.468  29.575  1.00  0.00     0.064 A 
ATOM     94  C   UNL A   1      44.762  35.552  29.460  1.00  0.00     0.173 A 
ATOM     95  C   UNL A   1      44.028  33.412  28.666  1.00  0.00     0.173 A 
ATOM     96  F   UNL A   1      44.755  36.548  30.355  1.00  0.00    -0.203 F 
ATOM     97  C   UNL A   1      45.725  35.596  28.452  1.00  0.00     0.198 A 
ATOM     98  C   UNL A   1      45.016  33.439  27.686  1.00  0.00     0.198 A 
ATOM     99  F   UNL A   1      43.249  32.323  28.764  1.00  0.00    -0.203 F 
ATOM    100  F   UNL A   1      46.552  36.646  28.357  1.00  0.00    -0.200 F 
ATOM    101  C   UNL A   1      45.856  34.535  27.571  1.00  0.00     0.200 A 
ATOM    102  F   UNL A   1      45.174  32.386  26.872  1.00  0.00    -0.200 F 
ATOM    103  F   UNL A   1      46.810  34.554  26.631  1.00  0.00    -0.200 F 
ENDBRANCH  70  93
ENDBRANCH  44  45
ENDBRANCH  37  39
ENDBRANCH  36  37
ENDBRANCH  35  36
ENDBRANCH  34  35
ENDBRANCH  33  34
ENDBRANCH  32  33
ENDBRANCH  31  32
ENDBRANCH  30  31
ENDBRANCH   1  30
TORSDOF 23
ENDMDL
MODEL 2
REMARK VINA RESULT:      -9.3      1.639      6.658
REMARK SMILES CC(C)Oc1ccc([C@@H]2CC(=O)Nc3c(C(=O)OCCOCCOCCOCCOC(=O)c4ccc(-c5c6nc(c(-c7c(F)c(F)c(F)c(F)c7F)c7ccc([nH]7)c(-c7c(F)c(F)c(F)c(F)c7F)c7nc(c(-c8c(F)c(F)c(F)c(F)c8F)c8ccc5[nH]8)C=C7)C=C6)cc4)nsc32)cc1
REMARK SMILES IDX 23 1 22 2 21 3 20 4 19 5 18 6 16 7 17 8 15 9 9 10 10 11
REMARK SMILES IDX 98 12 11 13 14 14 97 15 12 16 13 17 96 18 8 20 5 21 6 22
REMARK SMILES IDX 100 23 7 24 99 25 4 26 2 27 1 28 3 29 24 30 25 31 26 32
REMARK SMILES IDX 27 33 28 34 29 35 30 36 31 37 32 38 33 39 34 40 95 41 35 42
REMARK SMILES IDX 94 43 36 44 37 45 38 46 88 47 39 48 93 49 87 50 89 51 40 52
REMARK SMILES IDX 92 53 86 54 85 55 41 57 73 58 53 59 72 60 54 61 57 62 71 63
REMARK SMILES IDX 90 64 55 65 56 66 70 68 91 69 58 70 42 71 43 72 51 73 44 74
REMARK SMILES IDX 45 75 49 76 52 77 46 78 47 79 50 80 48 81 74 82 75 83 83 84
REMARK SMILES IDX 76 85 77 86 81 87 84 88 78 89 79 90 82 91 80 92 59 93 60 94
REMARK SMILES IDX 68 95 61 96 62 97 66 98 69 99 63 100 64 101 67 102 65 103
REMARK H PARENT 13 19 89 56 57 67
REMARK Flexibility Score: inf
ROOT
ATOM      1  C   UNL A   1      32.654  21.979  26.586  1.00  0.00     0.188 C 
ENDROOT
BRANCH   1   2
ATOM      2  C   UNL A   1      31.553  22.214  25.529  1.00  0.00     0.188 C 
BRANCH   2   3
ATOM      3  O   UNL A   1      31.649  21.676  24.219  1.00  0.00    -0.376 OA
BRANCH   3   4
ATOM      4  C   UNL A   1      32.753  21.855  23.351  1.00  0.00     0.202 C 
BRANCH   4   5
ATOM      5  C   UNL A   1      32.907  23.004  22.344  1.00  0.00     0.261 C 
BRANCH   5   6
ATOM      6  O   UNL A   1      33.347  24.254  22.860  1.00  0.00    -0.458 OA
BRANCH   6   7
ATOM      7  C   UNL A   1      33.210  25.303  21.999  1.00  0.00     0.360 C 
ATOM      8  O   UNL A   1      33.248  25.201  20.781  1.00  0.00    -0.244 OA
BRANCH   7   9
ATOM      9  C   UNL A   1      32.905  26.545  22.717  1.00  0.00     0.185 A 
ATOM     10  C   UNL A   1      31.882  28.430  25.782  1.00  0.00     0.073 C 
ATOM     11  C   UNL A   1      31.629  27.205  26.686  1.00  0.00     0.114 C 
ATOM     12  C   UNL A   1      32.241  27.967  24.406  1.00  0.00     0.058 A 
ATOM     13  C   UNL A   1      31.046  25.990  25.974  1.00  0.00     0.225 C 
ATOM     14  C   UNL A   1      32.191  26.671  23.962  1.00  0.00     0.091 A 
ATOM     15  S   UNL A   1      32.828  28.959  23.156  1.00  0.00    -0.038 S 
ATOM     16  O   UNL A   1      30.286  25.210  26.544  1.00  0.00    -0.275 OA
ATOM     17  N   UNL A   1      31.528  25.719  24.714  1.00  0.00    -0.323 N 
ATOM     18  N   UNL A   1      33.280  27.713  22.171  1.00  0.00    -0.183 NA
ATOM     19  H   UNL A   1      31.397  24.820  24.338  1.00  0.00     0.170 HD
BRANCH  10  20
ATOM     20  C   UNL A   1      33.024  29.273  26.342  1.00  0.00    -0.039 A 
ATOM     21  C   UNL A   1      34.995  30.727  27.726  1.00  0.00     0.119 A 
ATOM     22  C   UNL A   1      35.316  29.528  27.084  1.00  0.00     0.047 A 
ATOM     23  C   UNL A   1      33.713  31.242  27.605  1.00  0.00     0.047 A 
ATOM     24  C   UNL A   1      34.336  28.795  26.400  1.00  0.00     0.008 A 
ATOM     25  C   UNL A   1      32.736  30.520  26.930  1.00  0.00     0.008 A 
BRANCH  21  26
ATOM     26  O   UNL A   1      36.003  31.398  28.354  1.00  0.00    -0.491 OA
BRANCH  26  27
ATOM     27  C   UNL A   1      36.876  30.664  29.234  1.00  0.00     0.167 C 
ATOM     28  C   UNL A   1      36.173  29.939  30.381  1.00  0.00     0.052 C 
ATOM     29  C   UNL A   1      37.866  29.761  28.501  1.00  0.00     0.052 C 
ENDBRANCH  26  27
ENDBRANCH  21  26
ENDBRANCH  10  20
ENDBRANCH   7   9
ENDBRANCH   6   7
ENDBRANCH   5   6
ENDBRANCH   4   5
ENDBRANCH   3   4
ENDBRANCH   2   3
ENDBRANCH   1   2
BRANCH   1  30
ATOM     30  O   UNL A   1      33.935  22.448  26.201  1.00  0.00    -0.377 OA
BRANCH  30  31
ATOM     31  C   UNL A   1      35.039  21.604  26.536  1.00  0.00     0.188 C 
BRANCH  31  32
ATOM     32  C   UNL A   1      36.101  21.253  25.456  1.00  0.00     0.188 C 
BRANCH  32  33
ATOM     33  O   UNL A   1      37.394  21.788  25.693  1.00  0.00    -0.376 OA
BRANCH  33  34
ATOM     34  C   UNL A   1      37.849  23.018  25.160  1.00  0.00     0.202 C 
BRANCH  34  35
ATOM     35  C   UNL A   1      38.398  24.065  26.119  1.00  0.00     0.261 C 
BRANCH  35  36
ATOM     36  O   UNL A   1      39.406  23.568  26.973  1.00  0.00    -0.460 OA
BRANCH  36  37
ATOM     37  C   UNL A   1      40.554  24.271  26.940  1.00  0.00     0.338 C 
ATOM     38  O   UNL A   1      41.415  24.250  26.084  1.00  0.00    -0.246 OA
BRANCH  37  39
ATOM     39  C   UNL A   1      40.671  24.972  28.219  1.00  0.00     0.060 A 
ATOM     40  C   UNL A   1      39.536  25.671  28.625  1.00  0.00     0.016 A 
ATOM     41  C   UNL A   1      41.961  25.271  28.679  1.00  0.00     0.016 A 
ATOM     42  C   UNL A   1      39.734  26.873  29.252  1.00  0.00     0.010 A 
ATOM     43  C   UNL A   1      42.161  26.486  29.268  1.00  0.00     0.010 A 
ATOM     44  C   UNL A   1      41.051  27.304  29.450  1.00  0.00    -0.014 A 
BRANCH  44  45
ATOM     45  C   UNL A   1      41.255  28.631  29.967  1.00  0.00     0.031 A 
ATOM     46  C   UNL A   1      42.192  29.397  29.128  1.00  0.00     0.074 A 
ATOM     47  C   UNL A   1      40.573  29.089  31.030  1.00  0.00     0.049 A 
ATOM     48  N   UNL A   1      43.377  29.786  29.452  1.00  0.00    -0.248 NA
ATOM     49  C   UNL A   1      41.873  29.552  27.698  1.00  0.00     0.031 C 
ATOM     50  C   UNL A   1      39.466  28.455  31.749  1.00  0.00     0.029 A 
ATOM     51  N   UNL A   1      40.675  30.301  31.632  1.00  0.00    -0.354 N 
ATOM     52  C   UNL A   1      43.868  30.431  28.326  1.00  0.00     0.074 A 
ATOM     53  C   UNL A   1      43.012  30.061  27.233  1.00  0.00     0.031 C 
ATOM     54  C   UNL A   1      38.857  29.379  32.529  1.00  0.00     0.029 A 
ATOM     55  C   UNL A   1      39.595  30.628  32.443  1.00  0.00     0.049 A 
ATOM     56  H   UNL A   1      41.448  30.898  31.506  1.00  0.00     0.167 HD
ATOM     57  C   UNL A   1      44.751  31.454  28.459  1.00  0.00     0.037 A 
ATOM     58  C   UNL A   1      39.311  31.876  32.895  1.00  0.00     0.037 A 
ATOM     59  C   UNL A   1      45.398  31.410  29.749  1.00  0.00     0.049 A 
ATOM     60  C   UNL A   1      40.566  32.675  32.791  1.00  0.00     0.074 A 
ATOM     61  C   UNL A   1      46.167  30.464  30.403  1.00  0.00     0.029 A 
ATOM     62  N   UNL A   1      44.957  32.274  30.722  1.00  0.00    -0.354 N 
ATOM     63  N   UNL A   1      41.614  32.466  33.542  1.00  0.00    -0.248 NA
ATOM     64  C   UNL A   1      40.834  33.351  31.527  1.00  0.00     0.031 C 
ATOM     65  C   UNL A   1      45.756  30.529  31.766  1.00  0.00     0.029 A 
ATOM     66  C   UNL A   1      44.821  31.558  31.884  1.00  0.00     0.049 A 
ATOM     67  H   UNL A   1      44.772  33.233  30.606  1.00  0.00     0.167 HD
ATOM     68  C   UNL A   1      42.695  32.571  32.677  1.00  0.00     0.074 A 
ATOM     69  C   UNL A   1      42.159  33.188  31.465  1.00  0.00     0.031 C 
ATOM     70  C   UNL A   1      43.846  31.871  32.900  1.00  0.00     0.037 A 
BRANCH  57  71
ATOM     71  C   UNL A   1      44.699  32.701  27.615  1.00  0.00     0.064 A 
ATOM     72  C   UNL A   1      45.751  32.939  26.711  1.00  0.00     0.173 A 
ATOM     73  C   UNL A   1      43.852  33.804  27.868  1.00  0.00     0.173 A 
ATOM     74  F   UNL A   1      46.622  31.966  26.406  1.00  0.00    -0.203 F 
ATOM     75  C   UNL A   1      45.992  34.208  26.182  1.00  0.00     0.198 A 
ATOM     76  C   UNL A   1      44.062  35.053  27.294  1.00  0.00     0.198 A 
ATOM     77  F   UNL A   1      42.860  33.766  28.763  1.00  0.00    -0.203 F 
ATOM     78  F   UNL A   1      47.087  34.419  25.440  1.00  0.00    -0.200 F 
ATOM     79  C   UNL A   1      45.153  35.266  26.481  1.00  0.00     0.200 A 
ATOM     80  F   UNL A   1      43.246  36.068  27.613  1.00  0.00    -0.200 F 
ATOM     81  F   UNL A   1      45.422  36.498  26.032  1.00  0.00    -0.200 F 
ENDBRANCH  57  71
BRANCH  58  82
ATOM     82  C   UNL A   1      37.978  32.499  33.098  1.00  0.00     0.064 A 
ATOM     83  C   UNL A   1      37.469  32.717  34.390  1.00  0.00     0.173 A 
ATOM     84  C   UNL A   1      37.287  33.133  32.046  1.00  0.00     0.173 A 
ATOM     85  F   UNL A   1      38.089  32.193  35.457  1.00  0.00    -0.203 F 
ATOM     86  C   UNL A   1      36.354  33.533  34.615  1.00  0.00     0.198 A 
ATOM     87  C   UNL A   1      36.169  33.939  32.271  1.00  0.00     0.198 A 
ATOM     88  F   UNL A   1      37.731  33.065  30.784  1.00  0.00    -0.203 F 
ATOM     89  F   UNL A   1      35.937  33.766  35.868  1.00  0.00    -0.200 F 
ATOM     90  C   UNL A   1      35.710  34.150  33.556  1.00  0.00     0.200 A 
ATOM     91  F   UNL A   1      35.579  34.556  31.237  1.00  0.00    -0.200 F 
ATOM     92  F   UNL A   1      34.679  34.978  33.774  1.00  0.00    -0.200 F 
ENDBRANCH  58  82
BRANCH  70  93
ATOM     93  C   UNL A   1      44.007  31.180  34.226  1.00  0.00     0.064 A 
ATOM     94  C   UNL A   1      43.536  29.884  34.500  1.00  0.00     0.173 A 
ATOM     95  C   UNL A   1      44.807  31.793  35.199  1.00  0.00     0.173 A 
ATOM     96  F   UNL A   1      42.858  29.186  33.580  1.00  0.00    -0.203 F 
ATOM     97  C   UNL A   1      43.815  29.254  35.712  1.00  0.00     0.198 A 
ATOM     98  C   UNL A   1      45.119  31.147  36.391  1.00  0.00     0.198 A 
ATOM     99  F   UNL A   1      45.335  33.006  34.968  1.00  0.00    -0.203 F 
ATOM    100  F   UNL A   1      43.345  28.023  35.955  1.00  0.00    -0.200 F 
ATOM    101  C   UNL A   1      44.614  29.884  36.653  1.00  0.00     0.200 A 
ATOM    102  F   UNL A   1      45.937  31.737  37.273  1.00  0.00    -0.200 F 
ATOM    103  F   UNL A   1      44.922  29.261  37.799  1.00  0.00    -0.200 F 
ENDBRANCH  70  93
ENDBRANCH  44  45
ENDBRANCH  37  39
ENDBRANCH  36  37
ENDBRANCH  35  36
ENDBRANCH  34  35
ENDBRANCH  33  34
ENDBRANCH  32  33
ENDBRANCH  31  32
ENDBRANCH  30  31
ENDBRANCH   1  30
TORSDOF 23
ENDMDL
MODEL 3
REMARK VINA RESULT:      -9.0      1.903      7.017
REMARK SMILES CC(C)Oc1ccc([C@@H]2CC(=O)Nc3c(C(=O)OCCOCCOCCOCCOC(=O)c4ccc(-c5c6nc(c(-c7c(F)c(F)c(F)c(F)c7F)c7ccc([nH]7)c(-c7c(F)c(F)c(F)c(F)c7F)c7nc(c(-c8c(F)c(F)c(F)c(F)c8F)c8ccc5[nH]8)C=C7)C=C6)cc4)nsc32)cc1
REMARK SMILES IDX 23 1 22 2 21 3 20 4 19 5 18 6 16 7 17 8 15 9 9 10 10 11
REMARK SMILES IDX 98 12 11 13 14 14 97 15 12 16 13 17 96 18 8 20 5 21 6 22
REMARK SMILES IDX 100 23 7 24 99 25 4 26 2 27 1 28 3 29 24 30 25 31 26 32
REMARK SMILES IDX 27 33 28 34 29 35 30 36 31 37 32 38 33 39 34 40 95 41 35 42
REMARK SMILES IDX 94 43 36 44 37 45 38 46 88 47 39 48 93 49 87 50 89 51 40 52
REMARK SMILES IDX 92 53 86 54 85 55 41 57 73 58 53 59 72 60 54 61 57 62 71 63
REMARK SMILES IDX 90 64 55 65 56 66 70 68 91 69 58 70 42 71 43 72 51 73 44 74
REMARK SMILES IDX 45 75 49 76 52 77 46 78 47 79 50 80 48 81 74 82 75 83 83 84
REMARK SMILES IDX 76 85 77 86 81 87 84 88 78 89 79 90 82 91 80 92 59 93 60 94
REMARK SMILES IDX 68 95 61 96 62 97 66 98 69 99 63 100 64 101 67 102 65 103
REMARK H PARENT 13 19 89 56 57 67
REMARK Flexibility Score: inf
ROOT
ATOM      1  C   UNL A   1      33.014  22.324  26.032  1.00  0.00     0.188 C 
ENDROOT
BRANCH   1   2
ATOM      2  C   UNL A   1      31.785  22.627  25.147  1.00  0.00     0.188 C 
BRANCH   2   3
ATOM      3  O   UNL A   1      31.709  22.188  23.800  1.00  0.00    -0.376 OA
BRANCH   3   4
ATOM      4  C   UNL A   1      32.791  22.191  22.886  1.00  0.00     0.202 C 
BRANCH   4   5
ATOM      5  C   UNL A   1      33.165  23.361  21.964  1.00  0.00     0.261 C 
BRANCH   5   6
ATOM      6  O   UNL A   1      33.467  24.600  22.591  1.00  0.00    -0.458 OA
BRANCH   6   7
ATOM      7  C   UNL A   1      33.249  25.699  21.812  1.00  0.00     0.360 C 
ATOM      8  O   UNL A   1      33.219  25.679  20.589  1.00  0.00    -0.244 OA
BRANCH   7   9
ATOM      9  C   UNL A   1      32.948  26.880  22.629  1.00  0.00     0.185 A 
ATOM     10  C   UNL A   1      31.639  28.514  25.728  1.00  0.00     0.073 C 
ATOM     11  C   UNL A   1      31.141  27.232  26.427  1.00  0.00     0.114 C 
ATOM     12  C   UNL A   1      32.162  28.170  24.370  1.00  0.00     0.058 A 
ATOM     13  C   UNL A   1      30.569  26.171  25.493  1.00  0.00     0.225 C 
ATOM     14  C   UNL A   1      32.066  26.944  23.766  1.00  0.00     0.091 A 
ATOM     15  S   UNL A   1      33.021  29.225  23.350  1.00  0.00    -0.038 S 
ATOM     16  O   UNL A   1      29.664  25.418  25.848  1.00  0.00    -0.275 OA
ATOM     17  N   UNL A   1      31.213  25.991  24.291  1.00  0.00    -0.323 N 
ATOM     18  N   UNL A   1      33.505  28.053  22.292  1.00  0.00    -0.183 NA
ATOM     19  H   UNL A   1      31.062  25.157  23.791  1.00  0.00     0.170 HD
BRANCH  10  20
ATOM     20  C   UNL A   1      32.752  29.164  26.545  1.00  0.00    -0.039 A 
ATOM     21  C   UNL A   1      34.992  30.402  27.713  1.00  0.00     0.119 A 
ATOM     22  C   UNL A   1      33.791  31.101  27.563  1.00  0.00     0.047 A 
ATOM     23  C   UNL A   1      35.047  29.062  27.360  1.00  0.00     0.047 A 
ATOM     24  C   UNL A   1      32.675  30.492  26.973  1.00  0.00     0.008 A 
ATOM     25  C   UNL A   1      33.945  28.452  26.774  1.00  0.00     0.008 A 
BRANCH  21  26
ATOM     26  O   UNL A   1      36.030  31.050  28.314  1.00  0.00    -0.491 OA
BRANCH  26  27
ATOM     27  C   UNL A   1      35.784  32.336  28.917  1.00  0.00     0.167 C 
ATOM     28  C   UNL A   1      35.286  32.285  30.361  1.00  0.00     0.052 C 
ATOM     29  C   UNL A   1      36.933  33.326  28.736  1.00  0.00     0.052 C 
ENDBRANCH  26  27
ENDBRANCH  21  26
ENDBRANCH  10  20
ENDBRANCH   7   9
ENDBRANCH   6   7
ENDBRANCH   5   6
ENDBRANCH   4   5
ENDBRANCH   3   4
ENDBRANCH   2   3
ENDBRANCH   1   2
BRANCH   1  30
ATOM     30  O   UNL A   1      34.197  22.990  25.628  1.00  0.00    -0.377 OA
BRANCH  30  31
ATOM     31  C   UNL A   1      35.349  22.166  25.436  1.00  0.00     0.188 C 
BRANCH  31  32
ATOM     32  C   UNL A   1      36.456  22.601  24.436  1.00  0.00     0.188 C 
BRANCH  32  33
ATOM     33  O   UNL A   1      37.741  22.055  24.690  1.00  0.00    -0.376 OA
BRANCH  33  34
ATOM     34  C   UNL A   1      38.231  21.763  25.985  1.00  0.00     0.202 C 
BRANCH  34  35
ATOM     35  C   UNL A   1      39.701  22.031  26.282  1.00  0.00     0.261 C 
BRANCH  35  36
ATOM     36  O   UNL A   1      40.067  23.384  26.114  1.00  0.00    -0.460 OA
BRANCH  36  37
ATOM     37  C   UNL A   1      39.533  24.218  27.025  1.00  0.00     0.338 C 
ATOM     38  O   UNL A   1      38.424  24.170  27.518  1.00  0.00    -0.246 OA
BRANCH  37  39
ATOM     39  C   UNL A   1      40.480  25.315  27.218  1.00  0.00     0.060 A 
ATOM     40  C   UNL A   1      41.581  25.023  28.020  1.00  0.00     0.016 A 
ATOM     41  C   UNL A   1      40.015  26.621  27.002  1.00  0.00     0.016 A 
ATOM     42  C   UNL A   1      42.024  26.012  28.858  1.00  0.00     0.010 A 
ATOM     43  C   UNL A   1      40.429  27.594  27.864  1.00  0.00     0.010 A 
ATOM     44  C   UNL A   1      41.354  27.240  28.840  1.00  0.00    -0.014 A 
BRANCH  44  45
ATOM     45  C   UNL A   1      41.720  28.222  29.825  1.00  0.00     0.031 A 
ATOM     46  C   UNL A   1      42.998  28.873  29.486  1.00  0.00     0.074 A 
ATOM     47  C   UNL A   1      40.911  28.533  30.852  1.00  0.00     0.049 A 
ATOM     48  N   UNL A   1      44.113  28.761  30.122  1.00  0.00    -0.248 NA
ATOM     49  C   UNL A   1      43.110  29.535  28.175  1.00  0.00     0.031 C 
ATOM     50  C   UNL A   1      39.537  28.090  31.099  1.00  0.00     0.029 A 
ATOM     51  N   UNL A   1      41.133  29.418  31.856  1.00  0.00    -0.354 N 
ATOM     52  C   UNL A   1      45.019  29.525  29.402  1.00  0.00     0.074 A 
ATOM     53  C   UNL A   1      44.418  29.780  28.122  1.00  0.00     0.031 C 
ATOM     54  C   UNL A   1      38.979  28.883  32.044  1.00  0.00     0.029 A 
ATOM     55  C   UNL A   1      39.985  29.807  32.537  1.00  0.00     0.049 A 
ATOM     56  H   UNL A   1      42.029  29.755  32.084  1.00  0.00     0.167 HD
ATOM     57  C   UNL A   1      46.051  30.137  30.039  1.00  0.00     0.037 A 
ATOM     58  C   UNL A   1      39.893  30.889  33.352  1.00  0.00     0.037 A 
ATOM     59  C   UNL A   1      46.307  29.515  31.316  1.00  0.00     0.049 A 
ATOM     60  C   UNL A   1      41.284  31.253  33.753  1.00  0.00     0.074 A 
ATOM     61  C   UNL A   1      46.634  28.229  31.707  1.00  0.00     0.029 A 
ATOM     62  N   UNL A   1      45.842  30.144  32.445  1.00  0.00    -0.354 N 
ATOM     63  N   UNL A   1      42.018  30.518  34.543  1.00  0.00    -0.248 NA
ATOM     64  C   UNL A   1      42.025  32.156  32.880  1.00  0.00     0.031 C 
ATOM     65  C   UNL A   1      45.906  28.011  32.913  1.00  0.00     0.029 A 
ATOM     66  C   UNL A   1      45.241  29.195  33.233  1.00  0.00     0.049 A 
ATOM     67  H   UNL A   1      45.924  31.103  32.652  1.00  0.00     0.167 HD
ATOM     68  C   UNL A   1      43.281  30.534  33.968  1.00  0.00     0.074 A 
ATOM     69  C   UNL A   1      43.242  31.617  32.986  1.00  0.00     0.031 C 
ATOM     70  C   UNL A   1      44.136  29.479  34.115  1.00  0.00     0.037 A 
BRANCH  57  71
ATOM     71  C   UNL A   1      46.517  31.530  29.702  1.00  0.00     0.064 A 
ATOM     72  C   UNL A   1      47.896  31.750  29.534  1.00  0.00     0.173 A 
ATOM     73  C   UNL A   1      45.727  32.694  29.843  1.00  0.00     0.173 A 
ATOM     74  F   UNL A   1      48.741  30.717  29.403  1.00  0.00    -0.203 F 
ATOM     75  C   UNL A   1      48.450  33.029  29.604  1.00  0.00     0.198 A 
ATOM     76  C   UNL A   1      46.276  33.972  29.854  1.00  0.00     0.198 A 
ATOM     77  F   UNL A   1      44.414  32.653  30.092  1.00  0.00    -0.203 F 
ATOM     78  F   UNL A   1      49.780  33.178  29.583  1.00  0.00    -0.200 F 
ATOM     79  C   UNL A   1      47.640  34.138  29.772  1.00  0.00     0.200 A 
ATOM     80  F   UNL A   1      45.473  35.030  30.036  1.00  0.00    -0.200 F 
ATOM     81  F   UNL A   1      48.174  35.358  29.910  1.00  0.00    -0.200 F 
ENDBRANCH  57  71
BRANCH  58  82
ATOM     82  C   UNL A   1      38.739  31.805  33.538  1.00  0.00     0.064 A 
ATOM     83  C   UNL A   1      38.147  31.977  34.801  1.00  0.00     0.173 A 
ATOM     84  C   UNL A   1      38.356  32.729  32.544  1.00  0.00     0.173 A 
ATOM     85  F   UNL A   1      38.487  31.175  35.821  1.00  0.00    -0.203 F 
ATOM     86  C   UNL A   1      37.247  33.018  35.058  1.00  0.00     0.198 A 
ATOM     87  C   UNL A   1      37.450  33.760  32.799  1.00  0.00     0.198 A 
ATOM     88  F   UNL A   1      38.919  32.712  31.329  1.00  0.00    -0.203 F 
ATOM     89  F   UNL A   1      36.751  33.185  36.292  1.00  0.00    -0.200 F 
ATOM     90  C   UNL A   1      36.906  33.914  34.058  1.00  0.00     0.200 A 
ATOM     91  F   UNL A   1      37.158  34.639  31.829  1.00  0.00    -0.200 F 
ATOM     92  F   UNL A   1      36.090  34.945  34.317  1.00  0.00    -0.200 F 
ENDBRANCH  58  82
BRANCH  70  93
ATOM     93  C   UNL A   1      43.776  28.412  35.112  1.00  0.00     0.064 A 
ATOM     94  C   UNL A   1      42.921  27.332  34.834  1.00  0.00     0.173 A 
ATOM     95  C   UNL A   1      44.450  28.400  36.340  1.00  0.00     0.173 A 
ATOM     96  F   UNL A   1      42.326  27.211  33.640  1.00  0.00    -0.203 F 
ATOM     97  C   UNL A   1      42.716  26.313  35.764  1.00  0.00     0.198 A 
ATOM     98  C   UNL A   1      44.276  27.363  37.250  1.00  0.00     0.198 A 
ATOM     99  F   UNL A   1      45.325  29.375  36.636  1.00  0.00    -0.203 F 
ATOM    100  F   UNL A   1      41.887  25.300  35.480  1.00  0.00    -0.200 F 
ATOM    101  C   UNL A   1      43.401  26.326  36.968  1.00  0.00     0.200 A 
ATOM    102  F   UNL A   1      44.982  27.351  38.389  1.00  0.00    -0.200 F 
ATOM    103  F   UNL A   1      43.240  25.325  37.844  1.00  0.00    -0.200 F 
ENDBRANCH  70  93
ENDBRANCH  44  45
ENDBRANCH  37  39
ENDBRANCH  36  37
ENDBRANCH  35  36
ENDBRANCH  34  35
ENDBRANCH  33  34
ENDBRANCH  32  33
ENDBRANCH  31  32
ENDBRANCH  30  31
ENDBRANCH   1  30
TORSDOF 23
ENDMDL
