MODEL 1
REMARK VINA RESULT:     -10.0      0.000      0.000
REMARK SMILES CCCC[C@@H](C(=O)OCCOCCOCCOCCOC(=O)c1ccc(-c2c3nc(c(-c4c(F)c(F)c(F)c(F)c4F)c4ccc([nH]4)c(-c4c(F)c(F)c(F)c(F)c4F)c4nc(c(-c5c(F)c(F)c(F)c(F)c5F)c5ccc2[nH]5)C=C4)C=C3)cc1)[C@](C)(O)c1cccc(Br)c1
REMARK SMILES IDX 13 1 12 2 11 3 10 4 9 5 8 6 6 7 7 8 5 9 4 10 3 11 2 12 1 13
REMARK SMILES IDX 86 14 87 15 88 16 89 18 90 19 95 20 91 21 93 22 92 23 94 24
REMARK SMILES IDX 14 25 15 26 16 27 17 28 18 29 19 30 20 31 21 32 22 33 23 34
REMARK SMILES IDX 24 35 85 36 25 37 84 38 26 39 27 40 28 41 78 42 29 43 83 44
REMARK SMILES IDX 77 45 79 46 30 47 82 48 76 49 75 50 31 52 63 53 43 54 62 55
REMARK SMILES IDX 44 56 47 57 61 58 80 59 45 60 46 61 60 63 81 64 48 65 32 66
REMARK SMILES IDX 33 67 41 68 34 69 35 70 39 71 42 72 36 73 37 74 40 75 38 76
REMARK SMILES IDX 64 77 65 78 73 79 66 80 67 81 71 82 74 83 68 84 69 85 72 86
REMARK SMILES IDX 70 87 49 88 50 89 58 90 51 91 52 92 56 93 59 94 53 95 54 96
REMARK SMILES IDX 57 97 55 98
REMARK H PARENT 88 17 79 51 47 62
REMARK Flexibility Score: inf
ROOT
ATOM      1  C   UNL A   1      32.336  22.707  27.465  1.00  0.00     0.188 C 
ENDROOT
BRANCH   1   2
ATOM      2  C   UNL A   1      31.371  23.705  26.801  1.00  0.00     0.188 C 
BRANCH   2   3
ATOM      3  O   UNL A   1      31.745  24.091  25.484  1.00  0.00    -0.376 OA
BRANCH   3   4
ATOM      4  C   UNL A   1      31.212  23.302  24.428  1.00  0.00     0.202 C 
BRANCH   4   5
ATOM      5  C   UNL A   1      30.630  24.055  23.222  1.00  0.00     0.261 C 
BRANCH   5   6
ATOM      6  O   UNL A   1      31.028  25.438  23.195  1.00  0.00    -0.463 OA
BRANCH   6   7
ATOM      7  C   UNL A   1      30.183  26.363  23.681  1.00  0.00     0.312 C 
ATOM      8  O   UNL A   1      29.043  26.099  24.051  1.00  0.00    -0.252 OA
BRANCH   7   9
ATOM      9  C   UNL A   1      30.750  27.789  23.693  1.00  0.00     0.135 C 
BRANCH   9  10
ATOM     10  C   UNL A   1      30.527  28.633  22.397  1.00  0.00     0.019 C 
BRANCH  10  11
ATOM     11  C   UNL A   1      29.664  29.894  22.456  1.00  0.00     0.001 C 
BRANCH  11  12
ATOM     12  C   UNL A   1      28.228  29.710  21.989  1.00  0.00    -0.003 C 
ATOM     13  C   UNL A   1      27.275  29.423  23.140  1.00  0.00     0.004 C 
ENDBRANCH  11  12
ENDBRANCH  10  11
ENDBRANCH   9  10
BRANCH   9  14
ATOM     14  C   UNL A   1      32.235  27.950  24.242  1.00  0.00     0.100 C 
ATOM     15  C   UNL A   1      33.167  28.224  23.040  1.00  0.00     0.048 C 
BRANCH  14  16
ATOM     16  O   UNL A   1      32.669  26.691  24.801  1.00  0.00    -0.385 OA
ATOM     17  H   UNL A   1      32.619  26.735  25.769  1.00  0.00     0.211 HD
ENDBRANCH  14  16
BRANCH  14  18
ATOM     18  C   UNL A   1      32.550  28.999  25.316  1.00  0.00    -0.015 A 
ATOM     19  C   UNL A   1      31.728  30.108  25.555  1.00  0.00     0.007 A 
ATOM     20  C   UNL A   1      33.739  28.912  26.079  1.00  0.00     0.022 A 
ATOM     21  C   UNL A   1      31.994  31.001  26.601  1.00  0.00     0.002 A 
ATOM     22  C   UNL A   1      34.026  29.829  27.094  1.00  0.00     0.018 A 
ATOM     23  C   UNL A   1      33.138  30.856  27.381  1.00  0.00     0.016 A 
ATOM     24  Br  UNL A   1      35.634  29.674  28.077  1.00  0.00    -0.051 Br
ENDBRANCH  14  18
ENDBRANCH   9  14
ENDBRANCH   7   9
ENDBRANCH   6   7
ENDBRANCH   5   6
ENDBRANCH   4   5
ENDBRANCH   3   4
ENDBRANCH   2   3
ENDBRANCH   1   2
BRANCH   1  25
ATOM     25  O   UNL A   1      33.731  22.977  27.498  1.00  0.00    -0.377 OA
BRANCH  25  26
ATOM     26  C   UNL A   1      34.585  22.304  26.580  1.00  0.00     0.188 C 
BRANCH  26  27
ATOM     27  C   UNL A   1      34.102  21.022  25.872  1.00  0.00     0.188 C 
BRANCH  27  28
ATOM     28  O   UNL A   1      35.017  20.469  24.945  1.00  0.00    -0.376 OA
BRANCH  28  29
ATOM     29  C   UNL A   1      36.188  21.215  24.654  1.00  0.00     0.202 C 
BRANCH  29  30
ATOM     30  C   UNL A   1      37.537  20.682  25.169  1.00  0.00     0.261 C 
BRANCH  30  31
ATOM     31  O   UNL A   1      38.598  21.641  25.314  1.00  0.00    -0.460 OA
BRANCH  31  32
ATOM     32  C   UNL A   1      39.553  21.392  26.239  1.00  0.00     0.338 C 
ATOM     33  O   UNL A   1      40.126  20.346  26.447  1.00  0.00    -0.246 OA
BRANCH  32  34
ATOM     34  C   UNL A   1      39.932  22.690  26.843  1.00  0.00     0.060 A 
ATOM     35  C   UNL A   1      39.226  23.843  26.476  1.00  0.00     0.016 A 
ATOM     36  C   UNL A   1      40.977  22.765  27.766  1.00  0.00     0.016 A 
ATOM     37  C   UNL A   1      39.587  25.084  27.000  1.00  0.00     0.010 A 
ATOM     38  C   UNL A   1      41.359  24.013  28.269  1.00  0.00     0.010 A 
ATOM     39  C   UNL A   1      40.691  25.181  27.857  1.00  0.00    -0.014 A 
BRANCH  39  40
ATOM     40  C   UNL A   1      41.285  26.512  28.125  1.00  0.00     0.031 A 
ATOM     41  C   UNL A   1      42.695  26.762  27.663  1.00  0.00     0.074 A 
ATOM     42  C   UNL A   1      40.586  27.491  28.726  1.00  0.00     0.049 A 
ATOM     43  N   UNL A   1      43.448  27.821  27.809  1.00  0.00    -0.248 NA
ATOM     44  C   UNL A   1      43.345  25.659  26.934  1.00  0.00     0.031 C 
ATOM     45  C   UNL A   1      39.200  27.390  29.171  1.00  0.00     0.029 A 
ATOM     46  N   UNL A   1      40.960  28.768  29.068  1.00  0.00    -0.354 N 
ATOM     47  C   UNL A   1      44.657  27.511  27.200  1.00  0.00     0.074 A 
ATOM     48  C   UNL A   1      44.552  26.153  26.712  1.00  0.00     0.031 C 
ATOM     49  C   UNL A   1      38.841  28.553  29.741  1.00  0.00     0.029 A 
ATOM     50  C   UNL A   1      39.983  29.467  29.732  1.00  0.00     0.049 A 
ATOM     51  H   UNL A   1      41.845  29.145  28.857  1.00  0.00     0.167 HD
ATOM     52  C   UNL A   1      45.755  28.290  27.054  1.00  0.00     0.037 A 
ATOM     53  C   UNL A   1      40.021  30.694  30.289  1.00  0.00     0.037 A 
ATOM     54  C   UNL A   1      45.855  29.639  27.543  1.00  0.00     0.049 A 
ATOM     55  C   UNL A   1      41.285  31.512  30.187  1.00  0.00     0.074 A 
ATOM     56  C   UNL A   1      46.917  30.518  27.435  1.00  0.00     0.029 A 
ATOM     57  N   UNL A   1      44.858  30.300  28.246  1.00  0.00    -0.354 N 
ATOM     58  N   UNL A   1      42.418  31.222  29.591  1.00  0.00    -0.248 NA
ATOM     59  C   UNL A   1      41.273  32.834  30.831  1.00  0.00     0.031 C 
ATOM     60  C   UNL A   1      46.589  31.687  28.129  1.00  0.00     0.029 A 
ATOM     61  C   UNL A   1      45.293  31.565  28.605  1.00  0.00     0.049 A 
ATOM     62  H   UNL A   1      43.973  29.926  28.457  1.00  0.00     0.167 HD
ATOM     63  C   UNL A   1      43.235  32.334  29.758  1.00  0.00     0.074 A 
ATOM     64  C   UNL A   1      42.464  33.309  30.499  1.00  0.00     0.031 C 
ATOM     65  C   UNL A   1      44.510  32.530  29.336  1.00  0.00     0.037 A 
BRANCH  52  66
ATOM     66  C   UNL A   1      46.947  27.688  26.367  1.00  0.00     0.064 A 
ATOM     67  C   UNL A   1      47.108  27.743  24.975  1.00  0.00     0.173 A 
ATOM     68  C   UNL A   1      47.956  27.066  27.121  1.00  0.00     0.173 A 
ATOM     69  F   UNL A   1      46.167  28.310  24.206  1.00  0.00    -0.203 F 
ATOM     70  C   UNL A   1      48.223  27.174  24.359  1.00  0.00     0.198 A 
ATOM     71  C   UNL A   1      49.083  26.531  26.505  1.00  0.00     0.198 A 
ATOM     72  F   UNL A   1      47.852  26.987  28.456  1.00  0.00    -0.203 F 
ATOM     73  F   UNL A   1      48.330  27.191  23.024  1.00  0.00    -0.200 F 
ATOM     74  C   UNL A   1      49.212  26.577  25.125  1.00  0.00     0.200 A 
ATOM     75  F   UNL A   1      50.046  25.967  27.248  1.00  0.00    -0.200 F 
ATOM     76  F   UNL A   1      50.287  26.038  24.533  1.00  0.00    -0.200 F 
ENDBRANCH  52  66
BRANCH  53  77
ATOM     77  C   UNL A   1      38.833  31.223  31.013  1.00  0.00     0.064 A 
ATOM     78  C   UNL A   1      38.666  31.009  32.389  1.00  0.00     0.173 A 
ATOM     79  C   UNL A   1      37.825  31.926  30.337  1.00  0.00     0.173 A 
ATOM     80  F   UNL A   1      39.587  30.319  33.075  1.00  0.00    -0.203 F 
ATOM     81  C   UNL A   1      37.526  31.458  33.054  1.00  0.00     0.198 A 
ATOM     82  C   UNL A   1      36.701  32.404  31.011  1.00  0.00     0.198 A 
ATOM     83  F   UNL A   1      37.930  32.154  29.020  1.00  0.00    -0.203 F 
ATOM     84  F   UNL A   1      37.366  31.189  34.358  1.00  0.00    -0.200 F 
ATOM     85  C   UNL A   1      36.548  32.159  32.366  1.00  0.00     0.200 A 
ATOM     86  F   UNL A   1      35.765  33.092  30.344  1.00  0.00    -0.200 F 
ATOM     87  F   UNL A   1      35.454  32.591  33.008  1.00  0.00    -0.200 F 
ENDBRANCH  53  77
BRANCH  65  88
ATOM     88  C   UNL A   1      45.138  33.867  29.619  1.00  0.00     0.064 A 
ATOM     89  C   UNL A   1      45.892  34.104  30.778  1.00  0.00     0.173 A 
ATOM     90  C   UNL A   1      45.015  34.916  28.692  1.00  0.00     0.173 A 
ATOM     91  F   UNL A   1      46.032  33.140  31.701  1.00  0.00    -0.203 F 
ATOM     92  C   UNL A   1      46.471  35.348  31.015  1.00  0.00     0.198 A 
ATOM     93  C   UNL A   1      45.627  36.146  28.915  1.00  0.00     0.198 A 
ATOM     94  F   UNL A   1      44.315  34.742  27.562  1.00  0.00    -0.203 F 
ATOM     95  F   UNL A   1      47.138  35.568  32.155  1.00  0.00    -0.200 F 
ATOM     96  C   UNL A   1      46.345  36.365  30.080  1.00  0.00     0.200 A 
ATOM     97  F   UNL A   1      45.520  37.120  28.000  1.00  0.00    -0.200 F 
ATOM     98  F   UNL A   1      46.911  37.559  30.306  1.00  0.00    -0.200 F 
ENDBRANCH  65  88
ENDBRANCH  39  40
ENDBRANCH  32  34
ENDBRANCH  31  32
ENDBRANCH  30  31
ENDBRANCH  29  30
ENDBRANCH  28  29
ENDBRANCH  27  28
ENDBRANCH  26  27
ENDBRANCH  25  26
ENDBRANCH   1  25
TORSDOF 26
ENDMDL
MODEL 2
REMARK VINA RESULT:      -9.8      0.484      7.175
REMARK SMILES CCCC[C@@H](C(=O)OCCOCCOCCOCCOC(=O)c1ccc(-c2c3nc(c(-c4c(F)c(F)c(F)c(F)c4F)c4ccc([nH]4)c(-c4c(F)c(F)c(F)c(F)c4F)c4nc(c(-c5c(F)c(F)c(F)c(F)c5F)c5ccc2[nH]5)C=C4)C=C3)cc1)[C@](C)(O)c1cccc(Br)c1
REMARK SMILES IDX 13 1 12 2 11 3 10 4 9 5 8 6 6 7 7 8 5 9 4 10 3 11 2 12 1 13
REMARK SMILES IDX 86 14 87 15 88 16 89 18 90 19 95 20 91 21 93 22 92 23 94 24
REMARK SMILES IDX 14 25 15 26 16 27 17 28 18 29 19 30 20 31 21 32 22 33 23 34
REMARK SMILES IDX 24 35 85 36 25 37 84 38 26 39 27 40 28 41 78 42 29 43 83 44
REMARK SMILES IDX 77 45 79 46 30 47 82 48 76 49 75 50 31 52 63 53 43 54 62 55
REMARK SMILES IDX 44 56 47 57 61 58 80 59 45 60 46 61 60 63 81 64 48 65 32 66
REMARK SMILES IDX 33 67 41 68 34 69 35 70 39 71 42 72 36 73 37 74 40 75 38 76
REMARK SMILES IDX 64 77 65 78 73 79 66 80 67 81 71 82 74 83 68 84 69 85 72 86
REMARK SMILES IDX 70 87 49 88 50 89 58 90 51 91 52 92 56 93 59 94 53 95 54 96
REMARK SMILES IDX 57 97 55 98
REMARK H PARENT 88 17 79 51 47 62
REMARK Flexibility Score: inf
ROOT
ATOM      1  C   UNL A   1      32.541  22.922  27.507  1.00  0.00     0.188 C 
ENDROOT
BRANCH   1   2
ATOM      2  C   UNL A   1      31.314  23.426  26.727  1.00  0.00     0.188 C 
BRANCH   2   3
ATOM      3  O   UNL A   1      31.604  23.879  25.410  1.00  0.00    -0.376 OA
BRANCH   3   4
ATOM      4  C   UNL A   1      30.938  23.199  24.354  1.00  0.00     0.202 C 
BRANCH   4   5
ATOM      5  C   UNL A   1      30.503  24.043  23.147  1.00  0.00     0.261 C 
BRANCH   5   6
ATOM      6  O   UNL A   1      30.982  25.399  23.225  1.00  0.00    -0.463 OA
BRANCH   6   7
ATOM      7  C   UNL A   1      30.155  26.350  23.694  1.00  0.00     0.312 C 
ATOM      8  O   UNL A   1      28.995  26.125  24.023  1.00  0.00    -0.252 OA
BRANCH   7   9
ATOM      9  C   UNL A   1      30.775  27.753  23.743  1.00  0.00     0.135 C 
BRANCH   9  10
ATOM     10  C   UNL A   1      30.641  28.614  22.446  1.00  0.00     0.019 C 
BRANCH  10  11
ATOM     11  C   UNL A   1      29.771  29.872  22.461  1.00  0.00     0.001 C 
BRANCH  11  12
ATOM     12  C   UNL A   1      28.473  29.745  23.244  1.00  0.00    -0.003 C 
ATOM     13  C   UNL A   1      27.750  31.075  23.391  1.00  0.00     0.004 C 
ENDBRANCH  11  12
ENDBRANCH  10  11
ENDBRANCH   9  10
BRANCH   9  14
ATOM     14  C   UNL A   1      32.239  27.854  24.357  1.00  0.00     0.100 C 
ATOM     15  C   UNL A   1      33.244  27.999  23.191  1.00  0.00     0.048 C 
BRANCH  14  16
ATOM     16  O   UNL A   1      32.564  26.605  25.006  1.00  0.00    -0.385 OA
ATOM     17  H   UNL A   1      32.873  26.782  25.909  1.00  0.00     0.211 HD
ENDBRANCH  14  16
BRANCH  14  18
ATOM     18  C   UNL A   1      32.571  28.942  25.386  1.00  0.00    -0.015 A 
ATOM     19  C   UNL A   1      31.727  30.032  25.632  1.00  0.00     0.007 A 
ATOM     20  C   UNL A   1      33.795  28.912  26.095  1.00  0.00     0.022 A 
ATOM     21  C   UNL A   1      32.013  30.963  26.639  1.00  0.00     0.002 A 
ATOM     22  C   UNL A   1      34.100  29.866  27.070  1.00  0.00     0.018 A 
ATOM     23  C   UNL A   1      33.195  30.874  27.369  1.00  0.00     0.016 A 
ATOM     24  Br  UNL A   1      35.755  29.787  27.981  1.00  0.00    -0.051 Br
ENDBRANCH  14  18
ENDBRANCH   9  14
ENDBRANCH   7   9
ENDBRANCH   6   7
ENDBRANCH   5   6
ENDBRANCH   4   5
ENDBRANCH   3   4
ENDBRANCH   2   3
ENDBRANCH   1   2
BRANCH   1  25
ATOM     25  O   UNL A   1      33.830  23.455  27.232  1.00  0.00    -0.377 OA
BRANCH  25  26
ATOM     26  C   UNL A   1      34.793  22.631  26.586  1.00  0.00     0.188 C 
BRANCH  26  27
ATOM     27  C   UNL A   1      34.466  21.156  26.279  1.00  0.00     0.188 C 
BRANCH  27  28
ATOM     28  O   UNL A   1      34.958  20.679  25.041  1.00  0.00    -0.376 OA
BRANCH  28  29
ATOM     29  C   UNL A   1      36.121  21.297  24.515  1.00  0.00     0.202 C 
BRANCH  29  30
ATOM     30  C   UNL A   1      37.493  20.795  24.999  1.00  0.00     0.261 C 
BRANCH  30  31
ATOM     31  O   UNL A   1      38.466  21.799  25.337  1.00  0.00    -0.460 OA
BRANCH  31  32
ATOM     32  C   UNL A   1      39.366  21.507  26.304  1.00  0.00     0.338 C 
ATOM     33  O   UNL A   1      39.809  20.419  26.599  1.00  0.00    -0.246 OA
BRANCH  32  34
ATOM     34  C   UNL A   1      39.879  22.792  26.833  1.00  0.00     0.060 A 
ATOM     35  C   UNL A   1      39.406  23.991  26.282  1.00  0.00     0.016 A 
ATOM     36  C   UNL A   1      40.820  22.810  27.863  1.00  0.00     0.016 A 
ATOM     37  C   UNL A   1      39.901  25.213  26.734  1.00  0.00     0.010 A 
ATOM     38  C   UNL A   1      41.339  24.035  28.296  1.00  0.00     0.010 A 
ATOM     39  C   UNL A   1      40.910  25.238  27.705  1.00  0.00    -0.014 A 
BRANCH  39  40
ATOM     40  C   UNL A   1      41.675  26.489  27.924  1.00  0.00     0.031 A 
ATOM     41  C   UNL A   1      41.007  27.600  28.687  1.00  0.00     0.074 A 
ATOM     42  C   UNL A   1      42.942  26.628  27.496  1.00  0.00     0.049 A 
ATOM     43  N   UNL A   1      41.445  28.798  28.976  1.00  0.00    -0.248 NA
ATOM     44  C   UNL A   1      39.653  27.318  29.193  1.00  0.00     0.031 C 
ATOM     45  C   UNL A   1      43.714  25.608  26.794  1.00  0.00     0.029 A 
ATOM     46  N   UNL A   1      43.798  27.698  27.590  1.00  0.00    -0.354 N 
ATOM     47  C   UNL A   1      40.422  29.412  29.688  1.00  0.00     0.074 A 
ATOM     48  C   UNL A   1      39.327  28.469  29.759  1.00  0.00     0.031 C 
ATOM     49  C   UNL A   1      44.930  26.104  26.508  1.00  0.00     0.029 A 
ATOM     50  C   UNL A   1      45.007  27.489  26.975  1.00  0.00     0.049 A 
ATOM     51  H   UNL A   1      43.567  28.534  28.054  1.00  0.00     0.167 HD
ATOM     52  C   UNL A   1      40.401  30.648  30.240  1.00  0.00     0.037 A 
ATOM     53  C   UNL A   1      46.045  28.330  26.791  1.00  0.00     0.037 A 
ATOM     54  C   UNL A   1      41.491  31.583  30.165  1.00  0.00     0.049 A 
ATOM     55  C   UNL A   1      45.963  29.733  27.342  1.00  0.00     0.074 A 
ATOM     56  C   UNL A   1      41.575  32.854  30.702  1.00  0.00     0.029 A 
ATOM     57  N   UNL A   1      42.686  31.349  29.499  1.00  0.00    -0.354 N 
ATOM     58  N   UNL A   1      45.003  30.301  28.033  1.00  0.00    -0.248 NA
ATOM     59  C   UNL A   1      47.116  30.611  27.093  1.00  0.00     0.031 C 
ATOM     60  C   UNL A   1      42.793  33.416  30.305  1.00  0.00     0.029 A 
ATOM     61  C   UNL A   1      43.500  32.467  29.585  1.00  0.00     0.049 A 
ATOM     62  H   UNL A   1      42.921  30.514  29.035  1.00  0.00     0.167 HD
ATOM     63  C   UNL A   1      45.449  31.584  28.329  1.00  0.00     0.074 A 
ATOM     64  C   UNL A   1      46.771  31.706  27.754  1.00  0.00     0.031 C 
ATOM     65  C   UNL A   1      44.820  32.572  29.015  1.00  0.00     0.037 A 
BRANCH  52  66
ATOM     66  C   UNL A   1      39.143  31.072  30.943  1.00  0.00     0.064 A 
ATOM     67  C   UNL A   1      38.099  31.722  30.268  1.00  0.00     0.173 A 
ATOM     68  C   UNL A   1      38.972  30.800  32.309  1.00  0.00     0.173 A 
ATOM     69  F   UNL A   1      38.217  32.021  28.966  1.00  0.00    -0.203 F 
ATOM     70  C   UNL A   1      36.941  32.108  30.941  1.00  0.00     0.198 A 
ATOM     71  C   UNL A   1      37.799  31.156  32.970  1.00  0.00     0.198 A 
ATOM     72  F   UNL A   1      39.938  30.179  33.002  1.00  0.00    -0.203 F 
ATOM     73  F   UNL A   1      35.979  32.775  30.289  1.00  0.00    -0.200 F 
ATOM     74  C   UNL A   1      36.789  31.817  32.288  1.00  0.00     0.200 A 
ATOM     75  F   UNL A   1      37.648  30.861  34.269  1.00  0.00    -0.200 F 
ATOM     76  F   UNL A   1      35.672  32.181  32.933  1.00  0.00    -0.200 F 
ENDBRANCH  52  66
BRANCH  53  77
ATOM     77  C   UNL A   1      47.245  27.883  26.034  1.00  0.00     0.064 A 
ATOM     78  C   UNL A   1      47.252  27.855  24.632  1.00  0.00     0.173 A 
ATOM     79  C   UNL A   1      48.400  27.443  26.698  1.00  0.00     0.173 A 
ATOM     80  F   UNL A   1      46.163  28.238  23.950  1.00  0.00    -0.203 F 
ATOM     81  C   UNL A   1      48.358  27.384  23.926  1.00  0.00     0.198 A 
ATOM     82  C   UNL A   1      49.518  27.004  25.990  1.00  0.00     0.198 A 
ATOM     83  F   UNL A   1      48.447  27.443  28.039  1.00  0.00    -0.203 F 
ATOM     84  F   UNL A   1      48.315  27.315  22.588  1.00  0.00    -0.200 F 
ATOM     85  C   UNL A   1      49.491  26.965  24.605  1.00  0.00     0.200 A 
ATOM     86  F   UNL A   1      50.615  26.611  26.651  1.00  0.00    -0.200 F 
ATOM     87  F   UNL A   1      50.554  26.513  23.925  1.00  0.00    -0.200 F 
ENDBRANCH  53  77
BRANCH  65  88
ATOM     88  C   UNL A   1      45.572  33.856  29.228  1.00  0.00     0.064 A 
ATOM     89  C   UNL A   1      45.465  34.936  28.338  1.00  0.00     0.173 A 
ATOM     90  C   UNL A   1      46.381  34.022  30.364  1.00  0.00     0.173 A 
ATOM     91  F   UNL A   1      44.715  34.828  27.232  1.00  0.00    -0.203 F 
ATOM     92  C   UNL A   1      46.164  36.120  28.561  1.00  0.00     0.198 A 
ATOM     93  C   UNL A   1      47.048  35.220  30.602  1.00  0.00     0.198 A 
ATOM     94  F   UNL A   1      46.511  33.027  31.254  1.00  0.00    -0.203 F 
ATOM     95  F   UNL A   1      46.092  37.116  27.668  1.00  0.00    -0.200 F 
ATOM     96  C   UNL A   1      46.949  36.264  29.696  1.00  0.00     0.200 A 
ATOM     97  F   UNL A   1      47.789  35.363  31.710  1.00  0.00    -0.200 F 
ATOM     98  F   UNL A   1      47.614  37.407  29.912  1.00  0.00    -0.200 F 
ENDBRANCH  65  88
ENDBRANCH  39  40
ENDBRANCH  32  34
ENDBRANCH  31  32
ENDBRANCH  30  31
ENDBRANCH  29  30
ENDBRANCH  28  29
ENDBRANCH  27  28
ENDBRANCH  26  27
ENDBRANCH  25  26
ENDBRANCH   1  25
TORSDOF 26
ENDMDL
MODEL 3
REMARK VINA RESULT:      -9.5      3.466      9.046
REMARK SMILES CCCC[C@@H](C(=O)OCCOCCOCCOCCOC(=O)c1ccc(-c2c3nc(c(-c4c(F)c(F)c(F)c(F)c4F)c4ccc([nH]4)c(-c4c(F)c(F)c(F)c(F)c4F)c4nc(c(-c5c(F)c(F)c(F)c(F)c5F)c5ccc2[nH]5)C=C4)C=C3)cc1)[C@](C)(O)c1cccc(Br)c1
REMARK SMILES IDX 13 1 12 2 11 3 10 4 9 5 8 6 6 7 7 8 5 9 4 10 3 11 2 12 1 13
REMARK SMILES IDX 86 14 87 15 88 16 89 18 90 19 95 20 91 21 93 22 92 23 94 24
REMARK SMILES IDX 14 25 15 26 16 27 17 28 18 29 19 30 20 31 21 32 22 33 23 34
REMARK SMILES IDX 24 35 85 36 25 37 84 38 26 39 27 40 28 41 78 42 29 43 83 44
REMARK SMILES IDX 77 45 79 46 30 47 82 48 76 49 75 50 31 52 63 53 43 54 62 55
REMARK SMILES IDX 44 56 47 57 61 58 80 59 45 60 46 61 60 63 81 64 48 65 32 66
REMARK SMILES IDX 33 67 41 68 34 69 35 70 39 71 42 72 36 73 37 74 40 75 38 76
REMARK SMILES IDX 64 77 65 78 73 79 66 80 67 81 71 82 74 83 68 84 69 85 72 86
REMARK SMILES IDX 70 87 49 88 50 89 58 90 51 91 52 92 56 93 59 94 53 95 54 96
REMARK SMILES IDX 57 97 55 98
REMARK H PARENT 88 17 79 51 47 62
REMARK Flexibility Score: inf
ROOT
ATOM      1  C   UNL A   1      34.580  33.612  29.299  1.00  0.00     0.188 C 
ENDROOT
BRANCH   1   2
ATOM      2  C   UNL A   1      34.560  32.094  29.046  1.00  0.00     0.188 C 
BRANCH   2   3
ATOM      3  O   UNL A   1      34.347  31.731  27.687  1.00  0.00    -0.376 OA
BRANCH   3   4
ATOM      4  C   UNL A   1      33.452  30.649  27.462  1.00  0.00     0.202 C 
BRANCH   4   5
ATOM      5  C   UNL A   1      33.987  29.459  26.652  1.00  0.00     0.261 C 
BRANCH   5   6
ATOM      6  O   UNL A   1      33.573  28.193  27.199  1.00  0.00    -0.463 OA
BRANCH   6   7
ATOM      7  C   UNL A   1      32.365  27.709  26.864  1.00  0.00     0.312 C 
ATOM      8  O   UNL A   1      31.350  27.938  27.513  1.00  0.00    -0.252 OA
BRANCH   7   9
ATOM      9  C   UNL A   1      32.371  26.806  25.623  1.00  0.00     0.135 C 
BRANCH   9  10
ATOM     10  C   UNL A   1      32.080  27.507  24.256  1.00  0.00     0.019 C 
BRANCH  10  11
ATOM     11  C   UNL A   1      33.204  28.251  23.534  1.00  0.00     0.001 C 
BRANCH  11  12
ATOM     12  C   UNL A   1      33.661  27.615  22.231  1.00  0.00    -0.003 C 
ATOM     13  C   UNL A   1      33.320  26.134  22.156  1.00  0.00     0.004 C 
ENDBRANCH  11  12
ENDBRANCH  10  11
ENDBRANCH   9  10
BRANCH   9  14
ATOM     14  C   UNL A   1      31.582  25.431  25.750  1.00  0.00     0.100 C 
ATOM     15  C   UNL A   1      30.151  25.643  25.204  1.00  0.00     0.048 C 
BRANCH  14  16
ATOM     16  O   UNL A   1      31.428  25.104  27.148  1.00  0.00    -0.385 OA
ATOM     17  H   UNL A   1      31.102  24.195  27.232  1.00  0.00     0.211 HD
ENDBRANCH  14  16
BRANCH  14  18
ATOM     18  C   UNL A   1      32.138  24.159  25.097  1.00  0.00    -0.015 A 
ATOM     19  C   UNL A   1      31.494  23.510  24.037  1.00  0.00     0.007 A 
ATOM     20  C   UNL A   1      33.316  23.551  25.594  1.00  0.00     0.022 A 
ATOM     21  C   UNL A   1      32.070  22.402  23.402  1.00  0.00     0.002 A 
ATOM     22  C   UNL A   1      33.867  22.419  24.989  1.00  0.00     0.018 A 
ATOM     23  C   UNL A   1      33.265  21.861  23.870  1.00  0.00     0.016 A 
ATOM     24  Br  UNL A   1      35.436  21.639  25.699  1.00  0.00    -0.051 Br
ENDBRANCH  14  18
ENDBRANCH   9  14
ENDBRANCH   7   9
ENDBRANCH   6   7
ENDBRANCH   5   6
ENDBRANCH   4   5
ENDBRANCH   3   4
ENDBRANCH   2   3
ENDBRANCH   1   2
BRANCH   1  25
ATOM     25  O   UNL A   1      33.367  34.312  29.541  1.00  0.00    -0.377 OA
BRANCH  25  26
ATOM     26  C   UNL A   1      33.414  35.549  30.242  1.00  0.00     0.188 C 
BRANCH  26  27
ATOM     27  C   UNL A   1      32.852  35.647  31.675  1.00  0.00     0.188 C 
BRANCH  27  28
ATOM     28  O   UNL A   1      33.759  35.286  32.700  1.00  0.00    -0.376 OA
BRANCH  28  29
ATOM     29  C   UNL A   1      33.913  33.905  32.983  1.00  0.00     0.202 C 
BRANCH  29  30
ATOM     30  C   UNL A   1      34.989  33.486  34.000  1.00  0.00     0.261 C 
BRANCH  30  31
ATOM     31  O   UNL A   1      36.165  32.848  33.472  1.00  0.00    -0.460 OA
BRANCH  31  32
ATOM     32  C   UNL A   1      37.106  33.632  32.898  1.00  0.00     0.338 C 
ATOM     33  O   UNL A   1      37.312  34.808  33.099  1.00  0.00    -0.246 OA
BRANCH  32  34
ATOM     34  C   UNL A   1      37.992  32.749  32.105  1.00  0.00     0.060 A 
ATOM     35  C   UNL A   1      38.930  31.950  32.773  1.00  0.00     0.016 A 
ATOM     36  C   UNL A   1      37.896  32.713  30.713  1.00  0.00     0.016 A 
ATOM     37  C   UNL A   1      39.803  31.139  32.048  1.00  0.00     0.010 A 
ATOM     38  C   UNL A   1      38.791  31.922  29.984  1.00  0.00     0.010 A 
ATOM     39  C   UNL A   1      39.773  31.164  30.648  1.00  0.00    -0.014 A 
BRANCH  39  40
ATOM     40  C   UNL A   1      40.911  30.591  29.889  1.00  0.00     0.031 A 
ATOM     41  C   UNL A   1      42.091  31.482  29.608  1.00  0.00     0.074 A 
ATOM     42  C   UNL A   1      40.922  29.307  29.492  1.00  0.00     0.049 A 
ATOM     43  N   UNL A   1      43.185  31.233  28.936  1.00  0.00    -0.248 NA
ATOM     44  C   UNL A   1      42.024  32.844  30.163  1.00  0.00     0.031 C 
ATOM     45  C   UNL A   1      39.865  28.334  29.749  1.00  0.00     0.029 A 
ATOM     46  N   UNL A   1      41.863  28.607  28.778  1.00  0.00    -0.354 N 
ATOM     47  C   UNL A   1      43.929  32.405  28.981  1.00  0.00     0.074 A 
ATOM     48  C   UNL A   1      43.150  33.377  29.716  1.00  0.00     0.031 C 
ATOM     49  C   UNL A   1      40.210  27.161  29.189  1.00  0.00     0.029 A 
ATOM     50  C   UNL A   1      41.495  27.313  28.505  1.00  0.00     0.049 A 
ATOM     51  H   UNL A   1      42.720  28.995  28.490  1.00  0.00     0.167 HD
ATOM     52  C   UNL A   1      45.157  32.647  28.463  1.00  0.00     0.037 A 
ATOM     53  C   UNL A   1      42.115  26.371  27.766  1.00  0.00     0.037 A 
ATOM     54  C   UNL A   1      45.927  31.678  27.731  1.00  0.00     0.049 A 
ATOM     55  C   UNL A   1      43.444  26.693  27.126  1.00  0.00     0.074 A 
ATOM     56  C   UNL A   1      47.186  31.818  27.176  1.00  0.00     0.029 A 
ATOM     57  N   UNL A   1      45.503  30.389  27.440  1.00  0.00    -0.354 N 
ATOM     58  N   UNL A   1      44.153  27.795  27.191  1.00  0.00    -0.248 NA
ATOM     59  C   UNL A   1      44.063  25.633  26.316  1.00  0.00     0.031 C 
ATOM     60  C   UNL A   1      47.497  30.638  26.494  1.00  0.00     0.029 A 
ATOM     61  C   UNL A   1      46.464  29.735  26.686  1.00  0.00     0.049 A 
ATOM     62  H   UNL A   1      44.647  29.997  27.728  1.00  0.00     0.167 HD
ATOM     63  C   UNL A   1      45.311  27.550  26.462  1.00  0.00     0.074 A 
ATOM     64  C   UNL A   1      45.216  26.190  25.975  1.00  0.00     0.031 C 
ATOM     65  C   UNL A   1      46.359  28.376  26.217  1.00  0.00     0.037 A 
BRANCH  52  66
ATOM     66  C   UNL A   1      45.724  34.026  28.640  1.00  0.00     0.064 A 
ATOM     67  C   UNL A   1      46.539  34.360  29.733  1.00  0.00     0.173 A 
ATOM     68  C   UNL A   1      45.467  35.023  27.686  1.00  0.00     0.173 A 
ATOM     69  F   UNL A   1      46.803  33.450  30.683  1.00  0.00    -0.203 F 
ATOM     70  C   UNL A   1      47.053  35.647  29.877  1.00  0.00     0.198 A 
ATOM     71  C   UNL A   1      46.011  36.298  27.816  1.00  0.00     0.198 A 
ATOM     72  F   UNL A   1      44.696  34.758  26.621  1.00  0.00    -0.203 F 
ATOM     73  F   UNL A   1      47.784  35.958  30.956  1.00  0.00    -0.200 F 
ATOM     74  C   UNL A   1      46.795  36.612  28.915  1.00  0.00     0.200 A 
ATOM     75  F   UNL A   1      45.773  37.225  26.877  1.00  0.00    -0.200 F 
ATOM     76  F   UNL A   1      47.296  37.847  29.050  1.00  0.00    -0.200 F 
ENDBRANCH  52  66
BRANCH  53  77
ATOM     77  C   UNL A   1      41.482  25.039  27.568  1.00  0.00     0.064 A 
ATOM     78  C   UNL A   1      40.384  24.875  26.712  1.00  0.00     0.173 A 
ATOM     79  C   UNL A   1      41.943  23.907  28.257  1.00  0.00     0.173 A 
ATOM     80  F   UNL A   1      39.887  25.931  26.052  1.00  0.00    -0.203 F 
ATOM     81  C   UNL A   1      39.758  23.638  26.571  1.00  0.00     0.198 A 
ATOM     82  C   UNL A   1      41.337  22.662  28.089  1.00  0.00     0.198 A 
ATOM     83  F   UNL A   1      42.987  24.007  29.094  1.00  0.00    -0.203 F 
ATOM     84  F   UNL A   1      38.675  23.524  25.790  1.00  0.00    -0.200 F 
ATOM     85  C   UNL A   1      40.239  22.532  27.254  1.00  0.00     0.200 A 
ATOM     86  F   UNL A   1      41.814  21.594  28.743  1.00  0.00    -0.200 F 
ATOM     87  F   UNL A   1      39.637  21.342  27.116  1.00  0.00    -0.200 F 
ENDBRANCH  53  77
BRANCH  65  88
ATOM     88  C   UNL A   1      47.513  27.820  25.429  1.00  0.00     0.064 A 
ATOM     89  C   UNL A   1      47.507  27.784  24.026  1.00  0.00     0.173 A 
ATOM     90  C   UNL A   1      48.661  27.353  26.090  1.00  0.00     0.173 A 
ATOM     91  F   UNL A   1      46.432  28.207  23.345  1.00  0.00    -0.203 F 
ATOM     92  C   UNL A   1      48.591  27.272  23.317  1.00  0.00     0.198 A 
ATOM     93  C   UNL A   1      49.757  26.877  25.377  1.00  0.00     0.198 A 
ATOM     94  F   UNL A   1      48.727  27.374  27.430  1.00  0.00    -0.203 F 
ATOM     95  F   UNL A   1      48.539  27.194  21.981  1.00  0.00    -0.200 F 
ATOM     96  C   UNL A   1      49.718  26.826  23.992  1.00  0.00     0.200 A 
ATOM     97  F   UNL A   1      50.853  26.466  26.031  1.00  0.00    -0.200 F 
ATOM     98  F   UNL A   1      50.763  26.342  23.308  1.00  0.00    -0.200 F 
ENDBRANCH  65  88
ENDBRANCH  39  40
ENDBRANCH  32  34
ENDBRANCH  31  32
ENDBRANCH  30  31
ENDBRANCH  29  30
ENDBRANCH  28  29
ENDBRANCH  27  28
ENDBRANCH  26  27
ENDBRANCH  25  26
ENDBRANCH   1  25
TORSDOF 26
ENDMDL
