MODEL 1
REMARK VINA RESULT:     -11.2      0.000      0.000
REMARK SMILES Nc1oc2ccc(F)cc2c(=O)c1[C@@H]1[NH2+][C@H](C(=O)OCCOCCOCCOCCOC(=O)c2ccc(-c3c4nc(c(-c5c(F)c(F)c(F)c(F)c5F)c5ccc([nH]5)c(-c5c(F)c(F)c(F)c(F)c5F)c5nc(c(-c6c(F)c(F)c(F)c(F)c6F)c6ccc3[nH]6)C=C5)C=C4)cc2)CS1
REMARK SMILES IDX 25 1 24 2 23 3 22 4 21 5 20 6 19 7 17 8 18 9 16 10 14 11
REMARK SMILES IDX 15 12 98 13 97 16 13 17 2 18 3 19 4 20 11 21 5 22 10 23
REMARK SMILES IDX 12 24 6 25 9 26 7 27 8 28 1 29 26 32 27 33 28 34 29 35 30 36
REMARK SMILES IDX 31 37 32 38 33 39 34 40 35 41 96 42 36 43 95 44 37 45 38 46
REMARK SMILES IDX 39 47 89 48 40 49 94 50 88 51 90 52 41 53 93 54 87 55 86 56
REMARK SMILES IDX 42 58 74 59 54 60 73 61 55 62 58 63 72 64 91 65 56 66 57 67
REMARK SMILES IDX 71 69 92 70 59 71 43 72 44 73 52 74 45 75 46 76 50 77 53 78
REMARK SMILES IDX 47 79 48 80 51 81 49 82 75 83 76 84 84 85 77 86 78 87 82 88
REMARK SMILES IDX 85 89 79 90 80 91 83 92 81 93 60 94 61 95 69 96 62 97 63 98
REMARK SMILES IDX 67 99 70 100 64 101 65 102 68 103 66 104
REMARK H PARENT 15 14 15 15 1 30 1 31 90 57 58 68
REMARK Flexibility Score: inf
ROOT
ATOM      1  O   UNL A   1      34.615  21.993  26.248  1.00  0.00    -0.377 OA
ENDROOT
BRANCH   1   2
ATOM      2  C   UNL A   1      33.559  21.066  26.451  1.00  0.00     0.188 C 
BRANCH   2   3
ATOM      3  C   UNL A   1      32.513  21.023  25.316  1.00  0.00     0.188 C 
BRANCH   3   4
ATOM      4  O   UNL A   1      32.918  20.993  23.947  1.00  0.00    -0.376 OA
BRANCH   4   5
ATOM      5  C   UNL A   1      32.188  21.738  22.981  1.00  0.00     0.202 C 
BRANCH   5   6
ATOM      6  C   UNL A   1      32.863  22.918  22.267  1.00  0.00     0.261 C 
BRANCH   6   7
ATOM      7  O   UNL A   1      32.454  24.202  22.756  1.00  0.00    -0.459 OA
BRANCH   7   8
ATOM      8  C   UNL A   1      33.352  25.211  22.693  1.00  0.00     0.365 C 
ATOM      9  O   UNL A   1      33.654  25.801  21.657  1.00  0.00    -0.245 OA
BRANCH   8  10
ATOM     10  C   UNL A   1      33.910  25.643  24.060  1.00  0.00     0.304 C 
ATOM     11  C   UNL A   1      32.378  27.114  25.217  1.00  0.00     0.283 C 
ATOM     12  N   UNL A   1      33.648  27.038  24.490  1.00  0.00    -0.319 N 
ATOM     13  S   UNL A   1      32.201  25.556  26.126  1.00  0.00    -0.087 SA
ATOM     14  H   UNL A   1      34.404  27.351  25.099  1.00  0.00     0.348 HD
ATOM     15  H   UNL A   1      33.595  27.636  23.665  1.00  0.00     0.348 HD
ATOM     16  C   UNL A   1      33.462  24.688  25.158  1.00  0.00     0.153 C 
BRANCH  11  17
ATOM     17  C   UNL A   1      31.198  27.490  24.365  1.00  0.00     0.128 A 
ATOM     18  C   UNL A   1      30.157  26.727  23.961  1.00  0.00     0.205 A 
ATOM     19  O   UNL A   1      29.161  27.200  23.126  1.00  0.00    -0.440 OA
ATOM     20  C   UNL A   1      28.896  28.534  23.184  1.00  0.00     0.140 A 
ATOM     21  C   UNL A   1      31.163  28.938  23.984  1.00  0.00     0.205 A 
ATOM     22  C   UNL A   1      27.602  28.940  22.908  1.00  0.00     0.051 A 
ATOM     23  C   UNL A   1      29.859  29.460  23.562  1.00  0.00     0.068 A 
ATOM     24  O   UNL A   1      32.109  29.703  24.126  1.00  0.00    -0.288 OA
ATOM     25  C   UNL A   1      27.278  30.287  23.043  1.00  0.00     0.043 A 
ATOM     26  C   UNL A   1      29.550  30.818  23.647  1.00  0.00     0.055 A 
ATOM     27  C   UNL A   1      28.249  31.215  23.393  1.00  0.00     0.124 A 
ATOM     28  F   UNL A   1      27.907  32.504  23.503  1.00  0.00    -0.207 F 
BRANCH  18  29
ATOM     29  N   UNL A   1      29.944  25.424  24.298  1.00  0.00    -0.369 N 
ATOM     30  H   UNL A   1      29.961  24.727  23.603  1.00  0.00     0.159 HD
ATOM     31  H   UNL A   1      29.775  25.180  25.237  1.00  0.00     0.159 HD
ENDBRANCH  18  29
ENDBRANCH  11  17
ENDBRANCH   8  10
ENDBRANCH   7   8
ENDBRANCH   6   7
ENDBRANCH   5   6
ENDBRANCH   4   5
ENDBRANCH   3   4
ENDBRANCH   2   3
ENDBRANCH   1   2
BRANCH   1  32
ATOM     32  C   UNL A   1      35.778  21.442  25.649  1.00  0.00     0.188 C 
BRANCH  32  33
ATOM     33  C   UNL A   1      37.053  22.305  25.717  1.00  0.00     0.188 C 
BRANCH  33  34
ATOM     34  O   UNL A   1      38.253  21.556  25.548  1.00  0.00    -0.376 OA
BRANCH  34  35
ATOM     35  C   UNL A   1      38.148  20.249  25.001  1.00  0.00     0.202 C 
BRANCH  35  36
ATOM     36  C   UNL A   1      39.253  19.249  25.380  1.00  0.00     0.261 C 
BRANCH  36  37
ATOM     37  O   UNL A   1      40.161  19.656  26.419  1.00  0.00    -0.460 OA
BRANCH  37  38
ATOM     38  C   UNL A   1      41.488  19.573  26.191  1.00  0.00     0.338 C 
ATOM     39  O   UNL A   1      42.081  18.666  25.635  1.00  0.00    -0.246 OA
BRANCH  38  40
ATOM     40  C   UNL A   1      42.090  20.888  26.532  1.00  0.00     0.060 A 
ATOM     41  C   UNL A   1      42.498  21.780  25.537  1.00  0.00     0.016 A 
ATOM     42  C   UNL A   1      42.279  21.217  27.880  1.00  0.00     0.016 A 
ATOM     43  C   UNL A   1      43.061  23.012  25.899  1.00  0.00     0.010 A 
ATOM     44  C   UNL A   1      42.849  22.444  28.238  1.00  0.00     0.010 A 
ATOM     45  C   UNL A   1      43.227  23.368  27.254  1.00  0.00    -0.014 A 
BRANCH  45  46
ATOM     46  C   UNL A   1      43.571  24.769  27.619  1.00  0.00     0.031 A 
ATOM     47  C   UNL A   1      44.969  25.317  27.642  1.00  0.00     0.074 A 
ATOM     48  C   UNL A   1      42.570  25.585  28.000  1.00  0.00     0.049 A 
ATOM     49  N   UNL A   1      45.351  26.572  27.597  1.00  0.00    -0.248 NA
ATOM     50  C   UNL A   1      46.084  24.363  27.723  1.00  0.00     0.031 C 
ATOM     51  C   UNL A   1      41.172  25.189  28.172  1.00  0.00     0.029 A 
ATOM     52  N   UNL A   1      42.589  26.912  28.345  1.00  0.00    -0.354 N 
ATOM     53  C   UNL A   1      46.732  26.546  27.452  1.00  0.00     0.074 A 
ATOM     54  C   UNL A   1      47.139  25.170  27.620  1.00  0.00     0.031 C 
ATOM     55  C   UNL A   1      40.473  26.244  28.620  1.00  0.00     0.029 A 
ATOM     56  C   UNL A   1      41.371  27.388  28.752  1.00  0.00     0.049 A 
ATOM     57  H   UNL A   1      43.401  27.468  28.306  1.00  0.00     0.167 HD
ATOM     58  C   UNL A   1      47.532  27.572  27.071  1.00  0.00     0.037 A 
ATOM     59  C   UNL A   1      41.020  28.614  29.183  1.00  0.00     0.037 A 
ATOM     60  C   UNL A   1      47.152  28.955  27.157  1.00  0.00     0.049 A 
ATOM     61  C   UNL A   1      42.033  29.724  29.158  1.00  0.00     0.074 A 
ATOM     62  C   UNL A   1      47.901  30.081  26.867  1.00  0.00     0.029 A 
ATOM     63  N   UNL A   1      45.949  29.395  27.680  1.00  0.00    -0.354 N 
ATOM     64  N   UNL A   1      43.249  29.724  28.671  1.00  0.00    -0.248 NA
ATOM     65  C   UNL A   1      41.614  31.013  29.725  1.00  0.00     0.031 C 
ATOM     66  C   UNL A   1      47.193  31.198  27.328  1.00  0.00     0.029 A 
ATOM     67  C   UNL A   1      45.982  30.769  27.847  1.00  0.00     0.049 A 
ATOM     68  H   UNL A   1      45.182  28.818  27.900  1.00  0.00     0.167 HD
ATOM     69  C   UNL A   1      43.729  31.018  28.837  1.00  0.00     0.074 A 
ATOM     70  C   UNL A   1      42.667  31.776  29.466  1.00  0.00     0.031 C 
ATOM     71  C   UNL A   1      44.936  31.527  28.488  1.00  0.00     0.037 A 
BRANCH  58  72
ATOM     72  C   UNL A   1      48.863  27.261  26.456  1.00  0.00     0.064 A 
ATOM     73  C   UNL A   1      48.972  27.159  25.057  1.00  0.00     0.173 A 
ATOM     74  C   UNL A   1      50.041  27.185  27.204  1.00  0.00     0.173 A 
ATOM     75  F   UNL A   1      47.890  27.319  24.280  1.00  0.00    -0.203 F 
ATOM     76  C   UNL A   1      50.195  26.920  24.436  1.00  0.00     0.198 A 
ATOM     77  C   UNL A   1      51.271  26.977  26.577  1.00  0.00     0.198 A 
ATOM     78  F   UNL A   1      50.002  27.329  28.535  1.00  0.00    -0.203 F 
ATOM     79  F   UNL A   1      50.256  26.786  23.104  1.00  0.00    -0.200 F 
ATOM     80  C   UNL A   1      51.345  26.830  25.198  1.00  0.00     0.200 A 
ATOM     81  F   UNL A   1      52.391  26.924  27.311  1.00  0.00    -0.200 F 
ATOM     82  F   UNL A   1      52.527  26.612  24.605  1.00  0.00    -0.200 F 
ENDBRANCH  58  72
BRANCH  59  83
ATOM     83  C   UNL A   1      39.635  28.844  29.660  1.00  0.00     0.064 A 
ATOM     84  C   UNL A   1      39.281  28.611  30.994  1.00  0.00     0.173 A 
ATOM     85  C   UNL A   1      38.644  29.321  28.790  1.00  0.00     0.173 A 
ATOM     86  F   UNL A   1      40.192  28.134  31.855  1.00  0.00    -0.203 F 
ATOM     87  C   UNL A   1      37.982  28.843  31.441  1.00  0.00     0.198 A 
ATOM     88  C   UNL A   1      37.352  29.577  29.244  1.00  0.00     0.198 A 
ATOM     89  F   UNL A   1      38.935  29.557  27.502  1.00  0.00    -0.203 F 
ATOM     90  F   UNL A   1      37.659  28.585  32.715  1.00  0.00    -0.200 F 
ATOM     91  C   UNL A   1      37.021  29.333  30.568  1.00  0.00     0.200 A 
ATOM     92  F   UNL A   1      36.431  30.060  28.399  1.00  0.00    -0.200 F 
ATOM     93  F   UNL A   1      35.776  29.565  31.002  1.00  0.00    -0.200 F 
ENDBRANCH  59  83
BRANCH  71  94
ATOM     94  C   UNL A   1      45.199  32.974  28.786  1.00  0.00     0.064 A 
ATOM     95  C   UNL A   1      45.863  33.368  29.957  1.00  0.00     0.173 A 
ATOM     96  C   UNL A   1      44.832  33.974  27.873  1.00  0.00     0.173 A 
ATOM     97  F   UNL A   1      46.227  32.453  30.868  1.00  0.00    -0.203 F 
ATOM     98  C   UNL A   1      46.124  34.711  30.216  1.00  0.00     0.198 A 
ATOM     99  C   UNL A   1      45.130  35.312  28.116  1.00  0.00     0.198 A 
ATOM    100  F   UNL A   1      44.206  33.653  26.732  1.00  0.00    -0.203 F 
ATOM    101  F   UNL A   1      46.713  35.067  31.366  1.00  0.00    -0.200 F 
ATOM    102  C   UNL A   1      45.766  35.680  29.291  1.00  0.00     0.200 A 
ATOM    103  F   UNL A   1      44.804  36.244  27.210  1.00  0.00    -0.200 F 
ATOM    104  F   UNL A   1      46.032  36.971  29.535  1.00  0.00    -0.200 F 
ENDBRANCH  71  94
ENDBRANCH  45  46
ENDBRANCH  38  40
ENDBRANCH  37  38
ENDBRANCH  36  37
ENDBRANCH  35  36
ENDBRANCH  34  35
ENDBRANCH  33  34
ENDBRANCH  32  33
ENDBRANCH   1  32
TORSDOF 22
ENDMDL
MODEL 2
REMARK VINA RESULT:     -11.2      3.140      9.210
REMARK SMILES Nc1oc2ccc(F)cc2c(=O)c1[C@@H]1[NH2+][C@H](C(=O)OCCOCCOCCOCCOC(=O)c2ccc(-c3c4nc(c(-c5c(F)c(F)c(F)c(F)c5F)c5ccc([nH]5)c(-c5c(F)c(F)c(F)c(F)c5F)c5nc(c(-c6c(F)c(F)c(F)c(F)c6F)c6ccc3[nH]6)C=C5)C=C4)cc2)CS1
REMARK SMILES IDX 25 1 24 2 23 3 22 4 21 5 20 6 19 7 17 8 18 9 16 10 14 11
REMARK SMILES IDX 15 12 98 13 97 16 13 17 2 18 3 19 4 20 11 21 5 22 10 23
REMARK SMILES IDX 12 24 6 25 9 26 7 27 8 28 1 29 26 32 27 33 28 34 29 35 30 36
REMARK SMILES IDX 31 37 32 38 33 39 34 40 35 41 96 42 36 43 95 44 37 45 38 46
REMARK SMILES IDX 39 47 89 48 40 49 94 50 88 51 90 52 41 53 93 54 87 55 86 56
REMARK SMILES IDX 42 58 74 59 54 60 73 61 55 62 58 63 72 64 91 65 56 66 57 67
REMARK SMILES IDX 71 69 92 70 59 71 43 72 44 73 52 74 45 75 46 76 50 77 53 78
REMARK SMILES IDX 47 79 48 80 51 81 49 82 75 83 76 84 84 85 77 86 78 87 82 88
REMARK SMILES IDX 85 89 79 90 80 91 83 92 81 93 60 94 61 95 69 96 62 97 63 98
REMARK SMILES IDX 67 99 70 100 64 101 65 102 68 103 66 104
REMARK H PARENT 15 14 15 15 1 30 1 31 90 57 58 68
REMARK Flexibility Score: inf
ROOT
ATOM      1  O   UNL A   1      34.917  30.889  28.556  1.00  0.00    -0.377 OA
ENDROOT
BRANCH   1   2
ATOM      2  C   UNL A   1      35.569  30.045  27.619  1.00  0.00     0.188 C 
BRANCH   2   3
ATOM      3  C   UNL A   1      34.655  28.993  26.955  1.00  0.00     0.188 C 
BRANCH   3   4
ATOM      4  O   UNL A   1      33.438  28.582  27.580  1.00  0.00    -0.376 OA
BRANCH   4   5
ATOM      5  C   UNL A   1      32.212  29.200  27.208  1.00  0.00     0.202 C 
BRANCH   5   6
ATOM      6  C   UNL A   1      32.120  29.956  25.875  1.00  0.00     0.261 C 
BRANCH   6   7
ATOM      7  O   UNL A   1      31.377  29.261  24.864  1.00  0.00    -0.459 OA
BRANCH   7   8
ATOM      8  C   UNL A   1      32.008  28.992  23.698  1.00  0.00     0.365 C 
ATOM      9  O   UNL A   1      33.194  29.233  23.485  1.00  0.00    -0.245 OA
BRANCH   8  10
ATOM     10  C   UNL A   1      31.134  28.257  22.666  1.00  0.00     0.304 C 
ATOM     11  C   UNL A   1      31.380  25.858  22.849  1.00  0.00     0.283 C 
ATOM     12  N   UNL A   1      31.704  27.038  22.043  1.00  0.00    -0.319 N 
ATOM     13  S   UNL A   1      29.743  26.148  23.570  1.00  0.00    -0.087 SA
ATOM     14  H   UNL A   1      31.313  26.924  21.107  1.00  0.00     0.348 HD
ATOM     15  H   UNL A   1      32.717  27.135  21.987  1.00  0.00     0.348 HD
ATOM     16  C   UNL A   1      29.764  27.931  23.246  1.00  0.00     0.153 C 
BRANCH  11  17
ATOM     17  C   UNL A   1      32.448  25.469  23.833  1.00  0.00     0.128 A 
ATOM     18  C   UNL A   1      32.419  25.504  25.185  1.00  0.00     0.205 A 
ATOM     19  O   UNL A   1      33.508  25.162  25.967  1.00  0.00    -0.440 OA
ATOM     20  C   UNL A   1      34.376  24.254  25.442  1.00  0.00     0.140 A 
ATOM     21  C   UNL A   1      33.679  24.900  23.198  1.00  0.00     0.205 A 
ATOM     22  C   UNL A   1      35.055  23.435  26.329  1.00  0.00     0.051 A 
ATOM     23  C   UNL A   1      34.543  24.101  24.074  1.00  0.00     0.068 A 
ATOM     24  O   UNL A   1      33.918  24.965  21.998  1.00  0.00    -0.288 OA
ATOM     25  C   UNL A   1      35.885  22.440  25.821  1.00  0.00     0.043 A 
ATOM     26  C   UNL A   1      35.415  23.138  23.563  1.00  0.00     0.055 A 
ATOM     27  C   UNL A   1      36.073  22.307  24.452  1.00  0.00     0.124 A 
ATOM     28  F   UNL A   1      36.885  21.347  23.998  1.00  0.00    -0.207 F 
BRANCH  18  29
ATOM     29  N   UNL A   1      31.355  25.874  25.952  1.00  0.00    -0.369 N 
ATOM     30  H   UNL A   1      30.463  25.502  25.766  1.00  0.00     0.159 HD
ATOM     31  H   UNL A   1      31.479  26.513  26.690  1.00  0.00     0.159 HD
ENDBRANCH  18  29
ENDBRANCH  11  17
ENDBRANCH   8  10
ENDBRANCH   7   8
ENDBRANCH   6   7
ENDBRANCH   5   6
ENDBRANCH   4   5
ENDBRANCH   3   4
ENDBRANCH   2   3
ENDBRANCH   1   2
BRANCH   1  32
ATOM     32  C   UNL A   1      34.402  32.094  28.009  1.00  0.00     0.188 C 
BRANCH  32  33
ATOM     33  C   UNL A   1      35.038  33.401  28.521  1.00  0.00     0.188 C 
BRANCH  33  34
ATOM     34  O   UNL A   1      34.204  34.121  29.425  1.00  0.00    -0.376 OA
BRANCH  34  35
ATOM     35  C   UNL A   1      34.637  34.240  30.773  1.00  0.00     0.202 C 
BRANCH  35  36
ATOM     36  C   UNL A   1      34.327  33.056  31.705  1.00  0.00     0.261 C 
BRANCH  36  37
ATOM     37  O   UNL A   1      35.325  32.022  31.787  1.00  0.00    -0.460 OA
BRANCH  37  38
ATOM     38  C   UNL A   1      36.304  32.135  32.708  1.00  0.00     0.338 C 
ATOM     39  O   UNL A   1      36.166  32.282  33.910  1.00  0.00    -0.246 OA
BRANCH  38  40
ATOM     40  C   UNL A   1      37.593  31.823  32.041  1.00  0.00     0.060 A 
ATOM     41  C   UNL A   1      38.768  31.643  32.775  1.00  0.00     0.016 A 
ATOM     42  C   UNL A   1      37.629  31.741  30.643  1.00  0.00     0.016 A 
ATOM     43  C   UNL A   1      39.966  31.349  32.108  1.00  0.00     0.010 A 
ATOM     44  C   UNL A   1      38.828  31.455  29.978  1.00  0.00     0.010 A 
ATOM     45  C   UNL A   1      40.007  31.232  30.703  1.00  0.00    -0.014 A 
BRANCH  45  46
ATOM     46  C   UNL A   1      41.210  30.661  30.039  1.00  0.00     0.031 A 
ATOM     47  C   UNL A   1      41.386  29.203  29.721  1.00  0.00     0.074 A 
ATOM     48  C   UNL A   1      42.227  31.495  29.748  1.00  0.00     0.049 A 
ATOM     49  N   UNL A   1      42.204  28.654  28.853  1.00  0.00    -0.248 NA
ATOM     50  C   UNL A   1      40.559  28.232  30.449  1.00  0.00     0.031 C 
ATOM     51  C   UNL A   1      42.290  32.911  30.107  1.00  0.00     0.029 A 
ATOM     52  N   UNL A   1      43.417  31.255  29.112  1.00  0.00    -0.354 N 
ATOM     53  C   UNL A   1      41.855  27.311  28.796  1.00  0.00     0.074 A 
ATOM     54  C   UNL A   1      40.897  27.088  29.856  1.00  0.00     0.031 C 
ATOM     55  C   UNL A   1      43.473  33.407  29.713  1.00  0.00     0.029 A 
ATOM     56  C   UNL A   1      44.240  32.348  29.063  1.00  0.00     0.049 A 
ATOM     57  H   UNL A   1      43.657  30.380  28.728  1.00  0.00     0.167 HD
ATOM     58  C   UNL A   1      42.210  26.414  27.844  1.00  0.00     0.037 A 
ATOM     59  C   UNL A   1      45.477  32.479  28.549  1.00  0.00     0.037 A 
ATOM     60  C   UNL A   1      43.337  26.585  26.969  1.00  0.00     0.049 A 
ATOM     61  C   UNL A   1      46.096  31.327  27.808  1.00  0.00     0.074 A 
ATOM     62  C   UNL A   1      43.835  25.716  26.015  1.00  0.00     0.029 A 
ATOM     63  N   UNL A   1      44.209  27.658  27.030  1.00  0.00    -0.354 N 
ATOM     64  N   UNL A   1      45.566  30.175  27.478  1.00  0.00    -0.248 NA
ATOM     65  C   UNL A   1      47.480  31.503  27.351  1.00  0.00     0.031 C 
ATOM     66  C   UNL A   1      45.073  26.211  25.588  1.00  0.00     0.029 A 
ATOM     67  C   UNL A   1      45.312  27.415  26.231  1.00  0.00     0.049 A 
ATOM     68  H   UNL A   1      44.066  28.473  27.563  1.00  0.00     0.167 HD
ATOM     69  C   UNL A   1      46.534  29.503  26.741  1.00  0.00     0.074 A 
ATOM     70  C   UNL A   1      47.684  30.382  26.672  1.00  0.00     0.031 C 
ATOM     71  C   UNL A   1      46.467  28.276  26.170  1.00  0.00     0.037 A 
BRANCH  58  72
ATOM     72  C   UNL A   1      41.349  25.206  27.631  1.00  0.00     0.064 A 
ATOM     73  C   UNL A   1      40.226  25.297  26.787  1.00  0.00     0.173 A 
ATOM     74  C   UNL A   1      41.677  23.946  28.138  1.00  0.00     0.173 A 
ATOM     75  F   UNL A   1      39.918  26.460  26.194  1.00  0.00    -0.203 F 
ATOM     76  C   UNL A   1      39.425  24.192  26.518  1.00  0.00     0.198 A 
ATOM     77  C   UNL A   1      40.890  22.832  27.842  1.00  0.00     0.198 A 
ATOM     78  F   UNL A   1      42.766  23.792  28.903  1.00  0.00    -0.203 F 
ATOM     79  F   UNL A   1      38.338  24.322  25.745  1.00  0.00    -0.200 F 
ATOM     80  C   UNL A   1      39.758  22.957  27.047  1.00  0.00     0.200 A 
ATOM     81  F   UNL A   1      41.231  21.629  28.324  1.00  0.00    -0.200 F 
ATOM     82  F   UNL A   1      38.997  21.887  26.783  1.00  0.00    -0.200 F 
ENDBRANCH  58  72
BRANCH  59  83
ATOM     83  C   UNL A   1      46.197  33.765  28.714  1.00  0.00     0.064 A 
ATOM     84  C   UNL A   1      47.070  33.973  29.788  1.00  0.00     0.173 A 
ATOM     85  C   UNL A   1      46.036  34.804  27.785  1.00  0.00     0.173 A 
ATOM     86  F   UNL A   1      47.237  33.014  30.710  1.00  0.00    -0.203 F 
ATOM     87  C   UNL A   1      47.756  35.177  29.930  1.00  0.00     0.198 A 
ATOM     88  C   UNL A   1      46.741  35.998  27.915  1.00  0.00     0.198 A 
ATOM     89  F   UNL A   1      45.208  34.652  26.741  1.00  0.00    -0.203 F 
ATOM     90  F   UNL A   1      48.564  35.365  30.981  1.00  0.00    -0.200 F 
ATOM     91  C   UNL A   1      47.597  36.186  28.990  1.00  0.00     0.200 A 
ATOM     92  F   UNL A   1      46.592  36.965  26.999  1.00  0.00    -0.200 F 
ATOM     93  F   UNL A   1      48.264  37.339  29.123  1.00  0.00    -0.200 F 
ENDBRANCH  59  83
BRANCH  71  94
ATOM     94  C   UNL A   1      47.673  27.784  25.424  1.00  0.00     0.064 A 
ATOM     95  C   UNL A   1      48.749  27.183  26.094  1.00  0.00     0.173 A 
ATOM     96  C   UNL A   1      47.734  27.863  24.024  1.00  0.00     0.173 A 
ATOM     97  F   UNL A   1      48.746  27.090  27.432  1.00  0.00    -0.203 F 
ATOM     98  C   UNL A   1      49.854  26.708  25.392  1.00  0.00     0.198 A 
ATOM     99  C   UNL A   1      48.823  27.351  23.324  1.00  0.00     0.198 A 
ATOM    100  F   UNL A   1      46.727  28.417  23.333  1.00  0.00    -0.203 F 
ATOM    101  F   UNL A   1      50.893  26.185  26.059  1.00  0.00    -0.200 F 
ATOM    102  C   UNL A   1      49.885  26.783  24.009  1.00  0.00     0.200 A 
ATOM    103  F   UNL A   1      48.839  27.405  21.985  1.00  0.00    -0.200 F 
ATOM    104  F   UNL A   1      50.943  26.312  23.334  1.00  0.00    -0.200 F 
ENDBRANCH  71  94
ENDBRANCH  45  46
ENDBRANCH  38  40
ENDBRANCH  37  38
ENDBRANCH  36  37
ENDBRANCH  35  36
ENDBRANCH  34  35
ENDBRANCH  33  34
ENDBRANCH  32  33
ENDBRANCH   1  32
TORSDOF 22
ENDMDL
MODEL 3
REMARK VINA RESULT:     -11.2      3.665      9.612
REMARK SMILES Nc1oc2ccc(F)cc2c(=O)c1[C@@H]1[NH2+][C@H](C(=O)OCCOCCOCCOCCOC(=O)c2ccc(-c3c4nc(c(-c5c(F)c(F)c(F)c(F)c5F)c5ccc([nH]5)c(-c5c(F)c(F)c(F)c(F)c5F)c5nc(c(-c6c(F)c(F)c(F)c(F)c6F)c6ccc3[nH]6)C=C5)C=C4)cc2)CS1
REMARK SMILES IDX 25 1 24 2 23 3 22 4 21 5 20 6 19 7 17 8 18 9 16 10 14 11
REMARK SMILES IDX 15 12 98 13 97 16 13 17 2 18 3 19 4 20 11 21 5 22 10 23
REMARK SMILES IDX 12 24 6 25 9 26 7 27 8 28 1 29 26 32 27 33 28 34 29 35 30 36
REMARK SMILES IDX 31 37 32 38 33 39 34 40 35 41 96 42 36 43 95 44 37 45 38 46
REMARK SMILES IDX 39 47 89 48 40 49 94 50 88 51 90 52 41 53 93 54 87 55 86 56
REMARK SMILES IDX 42 58 74 59 54 60 73 61 55 62 58 63 72 64 91 65 56 66 57 67
REMARK SMILES IDX 71 69 92 70 59 71 43 72 44 73 52 74 45 75 46 76 50 77 53 78
REMARK SMILES IDX 47 79 48 80 51 81 49 82 75 83 76 84 84 85 77 86 78 87 82 88
REMARK SMILES IDX 85 89 79 90 80 91 83 92 81 93 60 94 61 95 69 96 62 97 63 98
REMARK SMILES IDX 67 99 70 100 64 101 65 102 68 103 66 104
REMARK H PARENT 15 14 15 15 1 30 1 31 90 57 58 68
REMARK Flexibility Score: inf
ROOT
ATOM      1  O   UNL A   1      32.584  36.445  29.514  1.00  0.00    -0.377 OA
ENDROOT
BRANCH   1   2
ATOM      2  C   UNL A   1      33.495  35.673  28.746  1.00  0.00     0.188 C 
BRANCH   2   3
ATOM      3  C   UNL A   1      33.274  34.147  28.827  1.00  0.00     0.188 C 
BRANCH   3   4
ATOM      4  O   UNL A   1      33.966  33.259  27.949  1.00  0.00    -0.376 OA
BRANCH   4   5
ATOM      5  C   UNL A   1      33.284  32.137  27.402  1.00  0.00     0.202 C 
BRANCH   5   6
ATOM      6  C   UNL A   1      33.846  30.726  27.625  1.00  0.00     0.261 C 
BRANCH   6   7
ATOM      7  O   UNL A   1      33.813  29.897  26.455  1.00  0.00    -0.459 OA
BRANCH   7   8
ATOM      8  C   UNL A   1      32.639  29.303  26.144  1.00  0.00     0.365 C 
ATOM      9  O   UNL A   1      31.805  28.945  26.973  1.00  0.00    -0.245 OA
BRANCH   8  10
ATOM     10  C   UNL A   1      32.372  29.191  24.632  1.00  0.00     0.304 C 
ATOM     11  C   UNL A   1      31.842  26.921  23.991  1.00  0.00     0.283 C 
ATOM     12  N   UNL A   1      32.862  27.972  23.945  1.00  0.00    -0.319 N 
ATOM     13  S   UNL A   1      30.232  27.747  23.903  1.00  0.00    -0.087 SA
ATOM     14  H   UNL A   1      33.072  28.194  22.972  1.00  0.00     0.348 HD
ATOM     15  H   UNL A   1      33.704  27.640  24.416  1.00  0.00     0.348 HD
ATOM     16  C   UNL A   1      30.893  29.380  24.325  1.00  0.00     0.153 C 
BRANCH  11  17
ATOM     17  C   UNL A   1      31.999  25.956  25.134  1.00  0.00     0.128 A 
ATOM     18  C   UNL A   1      31.050  25.403  25.923  1.00  0.00     0.205 A 
ATOM     19  O   UNL A   1      31.351  24.564  26.981  1.00  0.00    -0.440 OA
ATOM     20  C   UNL A   1      32.496  23.836  26.878  1.00  0.00     0.140 A 
ATOM     21  C   UNL A   1      33.411  25.509  25.361  1.00  0.00     0.205 A 
ATOM     22  C   UNL A   1      32.528  22.605  27.511  1.00  0.00     0.051 A 
ATOM     23  C   UNL A   1      33.577  24.268  26.123  1.00  0.00     0.068 A 
ATOM     24  O   UNL A   1      34.386  26.047  24.849  1.00  0.00    -0.288 OA
ATOM     25  C   UNL A   1      33.653  21.799  27.354  1.00  0.00     0.043 A 
ATOM     26  C   UNL A   1      34.727  23.485  26.007  1.00  0.00     0.055 A 
ATOM     27  C   UNL A   1      34.744  22.245  26.623  1.00  0.00     0.124 A 
ATOM     28  F   UNL A   1      35.813  21.450  26.500  1.00  0.00    -0.207 F 
BRANCH  18  29
ATOM     29  N   UNL A   1      29.705  25.587  25.802  1.00  0.00    -0.369 N 
ATOM     30  H   UNL A   1      29.338  26.010  24.993  1.00  0.00     0.159 HD
ATOM     31  H   UNL A   1      29.102  25.296  26.524  1.00  0.00     0.159 HD
ENDBRANCH  18  29
ENDBRANCH  11  17
ENDBRANCH   8  10
ENDBRANCH   7   8
ENDBRANCH   6   7
ENDBRANCH   5   6
ENDBRANCH   4   5
ENDBRANCH   3   4
ENDBRANCH   2   3
ENDBRANCH   1   2
BRANCH   1  32
ATOM     32  C   UNL A   1      32.545  36.112  30.894  1.00  0.00     0.188 C 
BRANCH  32  33
ATOM     33  C   UNL A   1      33.494  36.904  31.814  1.00  0.00     0.188 C 
BRANCH  33  34
ATOM     34  O   UNL A   1      33.725  36.271  33.069  1.00  0.00    -0.376 OA
BRANCH  34  35
ATOM     35  C   UNL A   1      34.922  35.519  33.222  1.00  0.00     0.202 C 
BRANCH  35  36
ATOM     36  C   UNL A   1      34.771  34.075  33.729  1.00  0.00     0.261 C 
BRANCH  36  37
ATOM     37  O   UNL A   1      35.644  33.092  33.145  1.00  0.00    -0.460 OA
BRANCH  37  38
ATOM     38  C   UNL A   1      35.207  32.384  32.083  1.00  0.00     0.338 C 
ATOM     39  O   UNL A   1      34.105  32.442  31.567  1.00  0.00    -0.246 OA
BRANCH  38  40
ATOM     40  C   UNL A   1      36.375  31.677  31.498  1.00  0.00     0.060 A 
ATOM     41  C   UNL A   1      36.595  31.654  30.119  1.00  0.00     0.016 A 
ATOM     42  C   UNL A   1      37.249  30.993  32.352  1.00  0.00     0.016 A 
ATOM     43  C   UNL A   1      37.709  30.976  29.604  1.00  0.00     0.010 A 
ATOM     44  C   UNL A   1      38.357  30.310  31.836  1.00  0.00     0.010 A 
ATOM     45  C   UNL A   1      38.614  30.311  30.458  1.00  0.00    -0.014 A 
BRANCH  45  46
ATOM     46  C   UNL A   1      39.920  29.833  29.929  1.00  0.00     0.031 A 
ATOM     47  C   UNL A   1      40.219  28.401  29.585  1.00  0.00     0.074 A 
ATOM     48  C   UNL A   1      40.914  30.732  29.796  1.00  0.00     0.049 A 
ATOM     49  N   UNL A   1      41.167  27.933  28.806  1.00  0.00    -0.248 NA
ATOM     50  C   UNL A   1      39.368  27.357  30.170  1.00  0.00     0.031 C 
ATOM     51  C   UNL A   1      40.851  32.133  30.209  1.00  0.00     0.029 A 
ATOM     52  N   UNL A   1      42.185  30.583  29.304  1.00  0.00    -0.354 N 
ATOM     53  C   UNL A   1      40.907  26.577  28.660  1.00  0.00     0.074 A 
ATOM     54  C   UNL A   1      39.842  26.259  29.584  1.00  0.00     0.031 C 
ATOM     55  C   UNL A   1      42.042  32.708  29.982  1.00  0.00     0.029 A 
ATOM     56  C   UNL A   1      42.943  31.720  29.395  1.00  0.00     0.049 A 
ATOM     57  H   UNL A   1      42.522  29.739  28.922  1.00  0.00     0.167 HD
ATOM     58  C   UNL A   1      41.428  25.741  27.728  1.00  0.00     0.037 A 
ATOM     59  C   UNL A   1      44.224  31.938  29.045  1.00  0.00     0.037 A 
ATOM     60  C   UNL A   1      42.641  26.009  27.007  1.00  0.00     0.049 A 
ATOM     61  C   UNL A   1      44.995  30.853  28.347  1.00  0.00     0.074 A 
ATOM     62  C   UNL A   1      43.302  25.208  26.092  1.00  0.00     0.029 A 
ATOM     63  N   UNL A   1      43.434  27.124  27.213  1.00  0.00    -0.354 N 
ATOM     64  N   UNL A   1      44.577  29.689  27.912  1.00  0.00    -0.248 NA
ATOM     65  C   UNL A   1      46.412  31.122  28.071  1.00  0.00     0.031 C 
ATOM     66  C   UNL A   1      44.552  25.786  25.839  1.00  0.00     0.029 A 
ATOM     67  C   UNL A   1      44.640  26.974  26.549  1.00  0.00     0.049 A 
ATOM     68  H   UNL A   1      43.180  27.907  27.752  1.00  0.00     0.167 HD
ATOM     69  C   UNL A   1      45.666  29.102  27.279  1.00  0.00     0.074 A 
ATOM     70  C   UNL A   1      46.762  30.043  27.383  1.00  0.00     0.031 C 
ATOM     71  C   UNL A   1      45.740  27.897  26.662  1.00  0.00     0.037 A 
BRANCH  58  72
ATOM     72  C   UNL A   1      40.672  24.498  27.368  1.00  0.00     0.064 A 
ATOM     73  C   UNL A   1      39.553  24.591  26.518  1.00  0.00     0.173 A 
ATOM     74  C   UNL A   1      41.096  23.221  27.741  1.00  0.00     0.173 A 
ATOM     75  F   UNL A   1      39.156  25.784  26.050  1.00  0.00    -0.203 F 
ATOM     76  C   UNL A   1      38.849  23.461  26.115  1.00  0.00     0.198 A 
ATOM     77  C   UNL A   1      40.407  22.086  27.310  1.00  0.00     0.198 A 
ATOM     78  F   UNL A   1      42.187  23.072  28.505  1.00  0.00    -0.203 F 
ATOM     79  F   UNL A   1      37.762  23.588  25.340  1.00  0.00    -0.200 F 
ATOM     80  C   UNL A   1      39.277  22.207  26.512  1.00  0.00     0.200 A 
ATOM     81  F   UNL A   1      40.841  20.869  27.665  1.00  0.00    -0.200 F 
ATOM     82  F   UNL A   1      38.609  21.114  26.118  1.00  0.00    -0.200 F 
ENDBRANCH  58  72
BRANCH  59  83
ATOM     83  C   UNL A   1      44.841  33.253  29.342  1.00  0.00     0.064 A 
ATOM     84  C   UNL A   1      45.478  33.494  30.565  1.00  0.00     0.173 A 
ATOM     85  C   UNL A   1      44.821  34.289  28.396  1.00  0.00     0.173 A 
ATOM     86  F   UNL A   1      45.502  32.539  31.506  1.00  0.00    -0.203 F 
ATOM     87  C   UNL A   1      46.070  34.725  30.834  1.00  0.00     0.198 A 
ATOM     88  C   UNL A   1      45.435  35.512  28.656  1.00  0.00     0.198 A 
ATOM     89  F   UNL A   1      44.221  34.107  27.210  1.00  0.00    -0.203 F 
ATOM     90  F   UNL A   1      46.648  34.943  32.022  1.00  0.00    -0.200 F 
ATOM     91  C   UNL A   1      46.055  35.731  29.877  1.00  0.00     0.200 A 
ATOM     92  F   UNL A   1      45.427  36.475  27.724  1.00  0.00    -0.200 F 
ATOM     93  F   UNL A   1      46.634  36.911  30.133  1.00  0.00    -0.200 F 
ENDBRANCH  59  83
BRANCH  71  94
ATOM     94  C   UNL A   1      47.055  27.503  26.055  1.00  0.00     0.064 A 
ATOM     95  C   UNL A   1      48.067  26.913  26.827  1.00  0.00     0.173 A 
ATOM     96  C   UNL A   1      47.290  27.664  24.681  1.00  0.00     0.173 A 
ATOM     97  F   UNL A   1      47.898  26.744  28.147  1.00  0.00    -0.203 F 
ATOM     98  C   UNL A   1      49.275  26.528  26.251  1.00  0.00     0.198 A 
ATOM     99  C   UNL A   1      48.483  27.242  24.102  1.00  0.00     0.198 A 
ATOM    100  F   UNL A   1      46.352  28.211  23.894  1.00  0.00    -0.203 F 
ATOM    101  F   UNL A   1      50.246  26.014  27.020  1.00  0.00    -0.200 F 
ATOM    102  C   UNL A   1      49.478  26.683  24.889  1.00  0.00     0.200 A 
ATOM    103  F   UNL A   1      48.667  27.372  22.782  1.00  0.00    -0.200 F 
ATOM    104  F   UNL A   1      50.635  26.298  24.334  1.00  0.00    -0.200 F 
ENDBRANCH  71  94
ENDBRANCH  45  46
ENDBRANCH  38  40
ENDBRANCH  37  38
ENDBRANCH  36  37
ENDBRANCH  35  36
ENDBRANCH  34  35
ENDBRANCH  33  34
ENDBRANCH  32  33
ENDBRANCH   1  32
TORSDOF 22
ENDMDL
