MODEL 1
REMARK VINA RESULT:      -9.3      0.000      0.000
REMARK SMILES CCCCCCNC(=O)Oc1cccc(-c2ccc([C@H](C)C(=O)OCCOCCOCCOCCOC(=O)c3ccc(-c4c5nc(c(-c6c(F)c(F)c(F)c(F)c6F)c6ccc([nH]6)c(-c6c(F)c(F)c(F)c(F)c6F)c6nc(c(-c7c(F)c(F)c(F)c(F)c7F)c7ccc4[nH]7)C=C6)C=C5)cc3)cc2F)c1
REMARK SMILES IDX 26 1 25 2 24 3 22 4 23 5 20 6 21 7 19 8 16 9 17 10 103 11
REMARK SMILES IDX 18 12 102 13 104 14 15 15 11 16 12 17 105 18 13 19 14 20
REMARK SMILES IDX 10 21 8 22 7 23 9 25 6 26 5 27 4 28 3 29 2 30 1 31 27 32
REMARK SMILES IDX 28 33 29 34 30 35 31 36 32 37 33 38 34 39 35 40 36 41 37 42
REMARK SMILES IDX 38 43 39 44 40 45 101 46 41 47 100 48 42 49 43 50 44 51
REMARK SMILES IDX 94 52 45 53 99 54 93 55 95 56 46 57 98 58 92 59 91 60 47 62
REMARK SMILES IDX 79 63 59 64 78 65 60 66 63 67 77 68 96 69 61 70 62 71 76 73
REMARK SMILES IDX 97 74 64 75 48 76 49 77 57 78 50 79 51 80 55 81 58 82 52 83
REMARK SMILES IDX 53 84 56 85 54 86 80 87 81 88 89 89 82 90 83 91 87 92 90 93
REMARK SMILES IDX 84 94 85 95 88 96 86 97 65 98 66 99 74 100 67 101 68 102
REMARK SMILES IDX 72 103 75 104 69 105 70 106 73 107 71 108
REMARK H PARENT 7 24 95 61 63 72
REMARK Flexibility Score: inf
ROOT
ATOM      1  C   UNL A   1      33.403  36.833  29.779  1.00  0.00     0.202 C 
ENDROOT
BRANCH   1   2
ATOM      2  C   UNL A   1      33.357  35.458  29.095  1.00  0.00     0.261 C 
BRANCH   2   3
ATOM      3  O   UNL A   1      34.619  34.835  28.822  1.00  0.00    -0.463 OA
BRANCH   3   4
ATOM      4  C   UNL A   1      34.772  33.598  29.349  1.00  0.00     0.313 C 
ATOM      5  O   UNL A   1      34.219  33.212  30.377  1.00  0.00    -0.252 OA
BRANCH   4   6
ATOM      6  C   UNL A   1      35.795  32.732  28.608  1.00  0.00     0.126 C 
ATOM      7  C   UNL A   1      37.028  32.157  29.315  1.00  0.00     0.025 C 
BRANCH   6   8
ATOM      8  C   UNL A   1      35.021  31.598  28.003  1.00  0.00    -0.031 A 
ATOM      9  C   UNL A   1      33.572  29.486  26.940  1.00  0.00     0.018 A 
ATOM     10  C   UNL A   1      34.914  29.298  27.291  1.00  0.00     0.012 A 
ATOM     11  C   UNL A   1      32.970  30.735  27.148  1.00  0.00     0.131 A 
ATOM     12  C   UNL A   1      35.635  30.348  27.827  1.00  0.00     0.005 A 
ATOM     13  C   UNL A   1      33.681  31.789  27.677  1.00  0.00     0.044 A 
ATOM     14  F   UNL A   1      31.685  30.940  26.819  1.00  0.00    -0.206 F 
BRANCH   9  15
ATOM     15  C   UNL A   1      32.837  28.413  26.299  1.00  0.00    -0.012 A 
ATOM     16  C   UNL A   1      32.185  27.296  24.268  1.00  0.00     0.133 A 
ATOM     17  C   UNL A   1      31.429  26.382  24.997  1.00  0.00     0.047 A 
ATOM     18  C   UNL A   1      32.868  28.318  24.907  1.00  0.00     0.056 A 
ATOM     19  C   UNL A   1      31.397  26.467  26.389  1.00  0.00     0.004 A 
ATOM     20  C   UNL A   1      32.107  27.476  27.040  1.00  0.00     0.009 A 
BRANCH  16  21
ATOM     21  O   UNL A   1      32.125  27.234  22.871  1.00  0.00    -0.410 OA
BRANCH  21  22
ATOM     22  C   UNL A   1      33.315  27.117  22.166  1.00  0.00     0.412 C 
ATOM     23  N   UNL A   1      33.600  25.826  21.829  1.00  0.00    -0.321 N 
ATOM     24  H   UNL A   1      34.456  25.662  21.369  1.00  0.00     0.167 HD
ATOM     25  O   UNL A   1      34.066  28.031  21.849  1.00  0.00    -0.224 OA
BRANCH  23  26
ATOM     26  C   UNL A   1      32.761  24.676  22.086  1.00  0.00     0.119 C 
BRANCH  26  27
ATOM     27  C   UNL A   1      33.546  23.532  22.727  1.00  0.00     0.021 C 
BRANCH  27  28
ATOM     28  C   UNL A   1      34.445  23.950  23.895  1.00  0.00     0.002 C 
BRANCH  28  29
ATOM     29  C   UNL A   1      35.846  23.330  23.894  1.00  0.00    -0.000 C 
BRANCH  29  30
ATOM     30  C   UNL A   1      35.914  21.877  24.372  1.00  0.00    -0.003 C 
ATOM     31  C   UNL A   1      37.337  21.380  24.571  1.00  0.00     0.004 C 
ENDBRANCH  29  30
ENDBRANCH  28  29
ENDBRANCH  27  28
ENDBRANCH  26  27
ENDBRANCH  23  26
ENDBRANCH  21  22
ENDBRANCH  16  21
ENDBRANCH   9  15
ENDBRANCH   6   8
ENDBRANCH   4   6
ENDBRANCH   3   4
ENDBRANCH   2   3
ENDBRANCH   1   2
BRANCH   1  32
ATOM     32  O   UNL A   1      32.733  37.097  31.001  1.00  0.00    -0.376 OA
BRANCH  32  33
ATOM     33  C   UNL A   1      33.379  37.015  32.262  1.00  0.00     0.188 C 
BRANCH  33  34
ATOM     34  C   UNL A   1      34.043  35.720  32.755  1.00  0.00     0.188 C 
BRANCH  34  35
ATOM     35  O   UNL A   1      35.432  35.793  32.992  1.00  0.00    -0.377 OA
BRANCH  35  36
ATOM     36  C   UNL A   1      36.120  34.559  33.134  1.00  0.00     0.188 C 
BRANCH  36  37
ATOM     37  C   UNL A   1      35.315  33.347  33.641  1.00  0.00     0.188 C 
BRANCH  37  38
ATOM     38  O   UNL A   1      35.588  32.137  32.947  1.00  0.00    -0.376 OA
BRANCH  38  39
ATOM     39  C   UNL A   1      36.857  31.521  33.106  1.00  0.00     0.202 C 
BRANCH  39  40
ATOM     40  C   UNL A   1      37.000  30.043  32.698  1.00  0.00     0.261 C 
BRANCH  40  41
ATOM     41  O   UNL A   1      38.234  29.395  33.045  1.00  0.00    -0.460 OA
BRANCH  41  42
ATOM     42  C   UNL A   1      38.912  28.765  32.066  1.00  0.00     0.338 C 
ATOM     43  O   UNL A   1      38.636  27.698  31.545  1.00  0.00    -0.246 OA
BRANCH  42  44
ATOM     44  C   UNL A   1      39.953  29.688  31.564  1.00  0.00     0.060 A 
ATOM     45  C   UNL A   1      40.022  29.937  30.187  1.00  0.00     0.016 A 
ATOM     46  C   UNL A   1      40.857  30.295  32.439  1.00  0.00     0.016 A 
ATOM     47  C   UNL A   1      41.028  30.756  29.675  1.00  0.00     0.010 A 
ATOM     48  C   UNL A   1      41.881  31.095  31.922  1.00  0.00     0.010 A 
ATOM     49  C   UNL A   1      41.994  31.293  30.533  1.00  0.00    -0.014 A 
BRANCH  49  50
ATOM     50  C   UNL A   1      43.239  31.857  29.959  1.00  0.00     0.031 A 
ATOM     51  C   UNL A   1      43.343  33.353  29.827  1.00  0.00     0.074 A 
ATOM     52  C   UNL A   1      44.271  31.073  29.603  1.00  0.00     0.049 A 
ATOM     53  N   UNL A   1      44.312  34.083  29.336  1.00  0.00    -0.248 NA
ATOM     54  C   UNL A   1      42.194  34.130  30.319  1.00  0.00     0.031 C 
ATOM     55  C   UNL A   1      44.311  29.619  29.730  1.00  0.00     0.029 A 
ATOM     56  N   UNL A   1      45.487  31.400  29.057  1.00  0.00    -0.354 N 
ATOM     57  C   UNL A   1      43.887  35.400  29.457  1.00  0.00     0.074 A 
ATOM     58  C   UNL A   1      42.561  35.370  30.032  1.00  0.00     0.031 C 
ATOM     59  C   UNL A   1      45.492  29.176  29.264  1.00  0.00     0.029 A 
ATOM     60  C   UNL A   1      46.275  30.311  28.777  1.00  0.00     0.049 A 
ATOM     61  H   UNL A   1      45.768  32.328  28.882  1.00  0.00     0.167 HD
ATOM     62  C   UNL A   1      44.548  36.535  29.126  1.00  0.00     0.037 A 
ATOM     63  C   UNL A   1      47.478  30.244  28.174  1.00  0.00     0.037 A 
ATOM     64  C   UNL A   1      45.865  36.562  28.547  1.00  0.00     0.049 A 
ATOM     65  C   UNL A   1      48.157  31.518  27.734  1.00  0.00     0.074 A 
ATOM     66  C   UNL A   1      46.624  37.659  28.182  1.00  0.00     0.029 A 
ATOM     67  N   UNL A   1      46.614  35.436  28.238  1.00  0.00    -0.354 N 
ATOM     68  N   UNL A   1      47.761  32.761  27.870  1.00  0.00    -0.248 NA
ATOM     69  C   UNL A   1      49.457  31.377  27.060  1.00  0.00     0.031 C 
ATOM     70  C   UNL A   1      47.807  37.197  27.596  1.00  0.00     0.029 A 
ATOM     71  C   UNL A   1      47.816  35.812  27.660  1.00  0.00     0.049 A 
ATOM     72  H   UNL A   1      46.333  34.507  28.405  1.00  0.00     0.167 HD
ATOM     73  C   UNL A   1      48.774  33.548  27.333  1.00  0.00     0.074 A 
ATOM     74  C   UNL A   1      49.810  32.642  26.883  1.00  0.00     0.031 C 
ATOM     75  C   UNL A   1      48.842  34.899  27.226  1.00  0.00     0.037 A 
BRANCH  62  76
ATOM     76  C   UNL A   1      43.838  37.839  29.352  1.00  0.00     0.064 A 
ATOM     77  C   UNL A   1      44.040  38.600  30.513  1.00  0.00     0.173 A 
ATOM     78  C   UNL A   1      42.960  38.344  28.383  1.00  0.00     0.173 A 
ATOM     79  F   UNL A   1      44.857  38.154  31.481  1.00  0.00    -0.203 F 
ATOM     80  C   UNL A   1      43.367  39.804  30.707  1.00  0.00     0.198 A 
ATOM     81  C   UNL A   1      42.314  39.564  28.564  1.00  0.00     0.198 A 
ATOM     82  F   UNL A   1      42.731  37.658  27.253  1.00  0.00    -0.203 F 
ATOM     83  F   UNL A   1      43.534  40.487  31.849  1.00  0.00    -0.200 F 
ATOM     84  C   UNL A   1      42.511  40.289  29.729  1.00  0.00     0.200 A 
ATOM     85  F   UNL A   1      41.498  40.036  27.612  1.00  0.00    -0.200 F 
ATOM     86  F   UNL A   1      41.869  41.450  29.914  1.00  0.00    -0.200 F 
ENDBRANCH  62  76
BRANCH  63  87
ATOM     87  C   UNL A   1      48.122  28.924  27.936  1.00  0.00     0.064 A 
ATOM     88  C   UNL A   1      47.885  28.202  26.759  1.00  0.00     0.173 A 
ATOM     89  C   UNL A   1      48.963  28.343  28.898  1.00  0.00     0.173 A 
ATOM     90  F   UNL A   1      47.066  28.701  25.821  1.00  0.00    -0.203 F 
ATOM     91  C   UNL A   1      48.443  26.940  26.562  1.00  0.00     0.198 A 
ATOM     92  C   UNL A   1      49.546  27.095  28.686  1.00  0.00     0.198 A 
ATOM     93  F   UNL A   1      49.220  28.989  30.045  1.00  0.00    -0.203 F 
ATOM     94  F   UNL A   1      48.153  26.248  25.452  1.00  0.00    -0.200 F 
ATOM     95  C   UNL A   1      49.278  26.390  27.523  1.00  0.00     0.200 A 
ATOM     96  F   UNL A   1      50.362  26.573  29.613  1.00  0.00    -0.200 F 
ATOM     97  F   UNL A   1      49.815  25.178  27.334  1.00  0.00    -0.200 F 
ENDBRANCH  63  87
BRANCH  75  98
ATOM     98  C   UNL A   1      50.099  35.486  26.644  1.00  0.00     0.064 A 
ATOM     99  C   UNL A   1      51.211  35.798  27.438  1.00  0.00     0.173 A 
ATOM    100  C   UNL A   1      50.201  35.705  25.261  1.00  0.00     0.173 A 
ATOM    101  F   UNL A   1      51.164  35.619  28.767  1.00  0.00    -0.203 F 
ATOM    102  C   UNL A   1      52.366  36.339  26.876  1.00  0.00     0.198 A 
ATOM    103  C   UNL A   1      51.369  36.211  24.697  1.00  0.00     0.198 A 
ATOM    104  F   UNL A   1      49.172  35.415  24.450  1.00  0.00    -0.203 F 
ATOM    105  F   UNL A   1      53.394  36.683  27.664  1.00  0.00    -0.200 F 
ATOM    106  C   UNL A   1      52.445  36.538  25.506  1.00  0.00     0.200 A 
ATOM    107  F   UNL A   1      51.451  36.384  23.370  1.00  0.00    -0.200 F 
ATOM    108  F   UNL A   1      53.560  37.052  24.967  1.00  0.00    -0.200 F 
ENDBRANCH  75  98
ENDBRANCH  49  50
ENDBRANCH  42  44
ENDBRANCH  41  42
ENDBRANCH  40  41
ENDBRANCH  39  40
ENDBRANCH  38  39
ENDBRANCH  37  38
ENDBRANCH  36  37
ENDBRANCH  35  36
ENDBRANCH  34  35
ENDBRANCH  33  34
ENDBRANCH  32  33
ENDBRANCH   1  32
TORSDOF 29
ENDMDL
MODEL 2
REMARK VINA RESULT:      -8.5      5.009      8.339
REMARK SMILES CCCCCCNC(=O)Oc1cccc(-c2ccc([C@H](C)C(=O)OCCOCCOCCOCCOC(=O)c3ccc(-c4c5nc(c(-c6c(F)c(F)c(F)c(F)c6F)c6ccc([nH]6)c(-c6c(F)c(F)c(F)c(F)c6F)c6nc(c(-c7c(F)c(F)c(F)c(F)c7F)c7ccc4[nH]7)C=C6)C=C5)cc3)cc2F)c1
REMARK SMILES IDX 26 1 25 2 24 3 22 4 23 5 20 6 21 7 19 8 16 9 17 10 103 11
REMARK SMILES IDX 18 12 102 13 104 14 15 15 11 16 12 17 105 18 13 19 14 20
REMARK SMILES IDX 10 21 8 22 7 23 9 25 6 26 5 27 4 28 3 29 2 30 1 31 27 32
REMARK SMILES IDX 28 33 29 34 30 35 31 36 32 37 33 38 34 39 35 40 36 41 37 42
REMARK SMILES IDX 38 43 39 44 40 45 101 46 41 47 100 48 42 49 43 50 44 51
REMARK SMILES IDX 94 52 45 53 99 54 93 55 95 56 46 57 98 58 92 59 91 60 47 62
REMARK SMILES IDX 79 63 59 64 78 65 60 66 63 67 77 68 96 69 61 70 62 71 76 73
REMARK SMILES IDX 97 74 64 75 48 76 49 77 57 78 50 79 51 80 55 81 58 82 52 83
REMARK SMILES IDX 53 84 56 85 54 86 80 87 81 88 89 89 82 90 83 91 87 92 90 93
REMARK SMILES IDX 84 94 85 95 88 96 86 97 65 98 66 99 74 100 67 101 68 102
REMARK SMILES IDX 72 103 75 104 69 105 70 106 73 107 71 108
REMARK H PARENT 7 24 95 61 63 72
REMARK Flexibility Score: inf
ROOT
ATOM      1  C   UNL A   1      33.329  36.427  29.565  1.00  0.00     0.202 C 
ENDROOT
BRANCH   1   2
ATOM      2  C   UNL A   1      33.231  34.996  29.013  1.00  0.00     0.261 C 
BRANCH   2   3
ATOM      3  O   UNL A   1      34.463  34.369  28.634  1.00  0.00    -0.463 OA
BRANCH   3   4
ATOM      4  C   UNL A   1      34.659  33.134  29.151  1.00  0.00     0.313 C 
ATOM      5  O   UNL A   1      34.195  32.753  30.223  1.00  0.00    -0.252 OA
BRANCH   4   6
ATOM      6  C   UNL A   1      35.614  32.264  28.329  1.00  0.00     0.126 C 
ATOM      7  C   UNL A   1      36.859  31.622  28.952  1.00  0.00     0.025 C 
BRANCH   6   8
ATOM      8  C   UNL A   1      34.773  31.180  27.723  1.00  0.00    -0.031 A 
ATOM      9  C   UNL A   1      33.196  29.163  26.657  1.00  0.00     0.018 A 
ATOM     10  C   UNL A   1      34.502  28.876  27.069  1.00  0.00     0.012 A 
ATOM     11  C   UNL A   1      32.692  30.463  26.805  1.00  0.00     0.131 A 
ATOM     12  C   UNL A   1      35.286  29.879  27.607  1.00  0.00     0.005 A 
ATOM     13  C   UNL A   1      33.467  31.471  27.334  1.00  0.00     0.044 A 
ATOM     14  F   UNL A   1      31.444  30.763  26.416  1.00  0.00    -0.206 F 
BRANCH   9  15
ATOM     15  C   UNL A   1      32.400  28.135  26.014  1.00  0.00    -0.012 A 
ATOM     16  C   UNL A   1      31.873  26.889  24.022  1.00  0.00     0.133 A 
ATOM     17  C   UNL A   1      30.889  26.182  24.708  1.00  0.00     0.047 A 
ATOM     18  C   UNL A   1      32.610  27.874  24.659  1.00  0.00     0.056 A 
ATOM     19  C   UNL A   1      30.677  26.433  26.064  1.00  0.00     0.004 A 
ATOM     20  C   UNL A   1      31.437  27.402  26.718  1.00  0.00     0.009 A 
BRANCH  16  21
ATOM     21  O   UNL A   1      31.998  26.673  22.645  1.00  0.00    -0.410 OA
BRANCH  21  22
ATOM     22  C   UNL A   1      33.274  26.645  22.098  1.00  0.00     0.412 C 
ATOM     23  N   UNL A   1      33.824  25.397  22.111  1.00  0.00    -0.321 N 
ATOM     24  H   UNL A   1      34.749  25.312  21.782  1.00  0.00     0.167 HD
ATOM     25  O   UNL A   1      33.889  27.599  21.636  1.00  0.00    -0.224 OA
BRANCH  23  26
ATOM     26  C   UNL A   1      33.173  24.187  22.565  1.00  0.00     0.119 C 
BRANCH  26  27
ATOM     27  C   UNL A   1      33.696  23.737  23.927  1.00  0.00     0.021 C 
BRANCH  27  28
ATOM     28  C   UNL A   1      33.739  22.218  24.125  1.00  0.00     0.002 C 
BRANCH  28  29
ATOM     29  C   UNL A   1      33.013  21.702  25.372  1.00  0.00    -0.000 C 
BRANCH  29  30
ATOM     30  C   UNL A   1      31.652  22.348  25.645  1.00  0.00    -0.003 C 
ATOM     31  C   UNL A   1      31.490  22.814  27.083  1.00  0.00     0.004 C 
ENDBRANCH  29  30
ENDBRANCH  28  29
ENDBRANCH  27  28
ENDBRANCH  26  27
ENDBRANCH  23  26
ENDBRANCH  21  22
ENDBRANCH  16  21
ENDBRANCH   9  15
ENDBRANCH   6   8
ENDBRANCH   4   6
ENDBRANCH   3   4
ENDBRANCH   2   3
ENDBRANCH   1   2
BRANCH   1  32
ATOM     32  O   UNL A   1      32.539  36.878  30.653  1.00  0.00    -0.376 OA
BRANCH  32  33
ATOM     33  C   UNL A   1      33.014  36.895  31.991  1.00  0.00     0.188 C 
BRANCH  33  34
ATOM     34  C   UNL A   1      33.679  35.669  32.634  1.00  0.00     0.188 C 
BRANCH  34  35
ATOM     35  O   UNL A   1      35.014  35.846  33.058  1.00  0.00    -0.377 OA
BRANCH  35  36
ATOM     36  C   UNL A   1      35.745  34.669  33.367  1.00  0.00     0.188 C 
BRANCH  36  37
ATOM     37  C   UNL A   1      34.945  33.375  33.614  1.00  0.00     0.188 C 
BRANCH  37  38
ATOM     38  O   UNL A   1      35.548  32.207  33.074  1.00  0.00    -0.376 OA
BRANCH  38  39
ATOM     39  C   UNL A   1      36.895  31.907  33.409  1.00  0.00     0.202 C 
BRANCH  39  40
ATOM     40  C   UNL A   1      37.588  30.756  32.658  1.00  0.00     0.261 C 
BRANCH  40  41
ATOM     41  O   UNL A   1      38.980  30.544  32.946  1.00  0.00    -0.460 OA
BRANCH  41  42
ATOM     42  C   UNL A   1      39.882  30.945  32.029  1.00  0.00     0.338 C 
ATOM     43  O   UNL A   1      39.972  30.575  30.871  1.00  0.00    -0.246 OA
BRANCH  42  44
ATOM     44  C   UNL A   1      40.635  32.083  32.598  1.00  0.00     0.060 A 
ATOM     45  C   UNL A   1      39.936  33.252  32.930  1.00  0.00     0.016 A 
ATOM     46  C   UNL A   1      42.016  32.005  32.796  1.00  0.00     0.016 A 
ATOM     47  C   UNL A   1      40.623  34.364  33.413  1.00  0.00     0.010 A 
ATOM     48  C   UNL A   1      42.708  33.130  33.256  1.00  0.00     0.010 A 
ATOM     49  C   UNL A   1      42.018  34.327  33.526  1.00  0.00    -0.014 A 
BRANCH  49  50
ATOM     50  C   UNL A   1      42.764  35.597  33.697  1.00  0.00     0.031 A 
ATOM     51  C   UNL A   1      42.969  36.115  35.095  1.00  0.00     0.074 A 
ATOM     52  C   UNL A   1      43.288  36.254  32.648  1.00  0.00     0.049 A 
ATOM     53  N   UNL A   1      43.563  37.207  35.503  1.00  0.00    -0.248 NA
ATOM     54  C   UNL A   1      42.429  35.281  36.182  1.00  0.00     0.031 C 
ATOM     55  C   UNL A   1      43.202  35.828  31.254  1.00  0.00     0.029 A 
ATOM     56  N   UNL A   1      43.996  37.429  32.601  1.00  0.00    -0.354 N 
ATOM     57  C   UNL A   1      43.464  37.193  36.888  1.00  0.00     0.074 A 
ATOM     58  C   UNL A   1      42.723  36.006  37.251  1.00  0.00     0.031 C 
ATOM     59  C   UNL A   1      43.827  36.736  30.483  1.00  0.00     0.029 A 
ATOM     60  C   UNL A   1      44.326  37.822  31.327  1.00  0.00     0.049 A 
ATOM     61  H   UNL A   1      44.244  37.942  33.405  1.00  0.00     0.167 HD
ATOM     62  C   UNL A   1      43.955  38.086  37.780  1.00  0.00     0.037 A 
ATOM     63  C   UNL A   1      44.939  38.942  30.897  1.00  0.00     0.037 A 
ATOM     64  C   UNL A   1      44.686  39.271  37.416  1.00  0.00     0.049 A 
ATOM     65  C   UNL A   1      45.401  39.966  31.905  1.00  0.00     0.074 A 
ATOM     66  C   UNL A   1      45.232  40.236  38.242  1.00  0.00     0.029 A 
ATOM     67  N   UNL A   1      44.963  39.657  36.112  1.00  0.00    -0.354 N 
ATOM     68  N   UNL A   1      45.323  39.938  33.214  1.00  0.00    -0.248 NA
ATOM     69  C   UNL A   1      46.041  41.178  31.372  1.00  0.00     0.031 C 
ATOM     70  C   UNL A   1      45.787  41.237  37.439  1.00  0.00     0.029 A 
ATOM     71  C   UNL A   1      45.649  40.862  36.112  1.00  0.00     0.049 A 
ATOM     72  H   UNL A   1      44.711  39.150  35.307  1.00  0.00     0.167 HD
ATOM     73  C   UNL A   1      45.934  41.104  33.660  1.00  0.00     0.074 A 
ATOM     74  C   UNL A   1      46.390  41.812  32.482  1.00  0.00     0.031 C 
ATOM     75  C   UNL A   1      46.105  41.549  34.931  1.00  0.00     0.037 A 
BRANCH  62  76
ATOM     76  C   UNL A   1      43.686  37.830  39.234  1.00  0.00     0.064 A 
ATOM     77  C   UNL A   1      42.491  38.235  39.849  1.00  0.00     0.173 A 
ATOM     78  C   UNL A   1      44.628  37.150  40.020  1.00  0.00     0.173 A 
ATOM     79  F   UNL A   1      41.563  38.904  39.147  1.00  0.00    -0.203 F 
ATOM     80  C   UNL A   1      42.263  37.994  41.201  1.00  0.00     0.198 A 
ATOM     81  C   UNL A   1      44.383  36.882  41.363  1.00  0.00     0.198 A 
ATOM     82  F   UNL A   1      45.787  36.741  39.483  1.00  0.00    -0.203 F 
ATOM     83  F   UNL A   1      41.137  38.438  41.779  1.00  0.00    -0.200 F 
ATOM     84  C   UNL A   1      43.205  37.311  41.956  1.00  0.00     0.200 A 
ATOM     85  F   UNL A   1      45.289  36.210  42.087  1.00  0.00    -0.200 F 
ATOM     86  F   UNL A   1      42.982  37.074  43.255  1.00  0.00    -0.200 F 
ENDBRANCH  62  76
BRANCH  63  87
ATOM     87  C   UNL A   1      45.148  39.168  29.442  1.00  0.00     0.064 A 
ATOM     88  C   UNL A   1      44.143  39.731  28.643  1.00  0.00     0.173 A 
ATOM     89  C   UNL A   1      46.345  38.794  28.812  1.00  0.00     0.173 A 
ATOM     90  F   UNL A   1      42.969  40.080  29.191  1.00  0.00    -0.203 F 
ATOM     91  C   UNL A   1      44.317  39.890  27.270  1.00  0.00     0.198 A 
ATOM     92  C   UNL A   1      46.530  38.982  27.444  1.00  0.00     0.198 A 
ATOM     93  F   UNL A   1      47.338  38.245  29.529  1.00  0.00    -0.203 F 
ATOM     94  F   UNL A   1      43.318  40.379  26.522  1.00  0.00    -0.200 F 
ATOM     95  C   UNL A   1      45.513  39.520  26.672  1.00  0.00     0.200 A 
ATOM     96  F   UNL A   1      47.692  38.635  26.874  1.00  0.00    -0.200 F 
ATOM     97  F   UNL A   1      45.681  39.674  25.352  1.00  0.00    -0.200 F 
ENDBRANCH  63  87
BRANCH  75  98
ATOM     98  C   UNL A   1      46.860  42.837  35.119  1.00  0.00     0.064 A 
ATOM     99  C   UNL A   1      46.236  44.087  35.007  1.00  0.00     0.173 A 
ATOM    100  C   UNL A   1      48.223  42.814  35.454  1.00  0.00     0.173 A 
ATOM    101  F   UNL A   1      44.938  44.167  34.677  1.00  0.00    -0.203 F 
ATOM    102  C   UNL A   1      46.955  45.266  35.188  1.00  0.00     0.198 A 
ATOM    103  C   UNL A   1      48.931  43.993  35.671  1.00  0.00     0.198 A 
ATOM    104  F   UNL A   1      48.870  41.645  35.585  1.00  0.00    -0.203 F 
ATOM    105  F   UNL A   1      46.350  46.450  35.018  1.00  0.00    -0.200 F 
ATOM    106  C   UNL A   1      48.299  45.218  35.526  1.00  0.00     0.200 A 
ATOM    107  F   UNL A   1      50.225  43.943  36.017  1.00  0.00    -0.200 F 
ATOM    108  F   UNL A   1      48.987  46.355  35.707  1.00  0.00    -0.200 F 
ENDBRANCH  75  98
ENDBRANCH  49  50
ENDBRANCH  42  44
ENDBRANCH  41  42
ENDBRANCH  40  41
ENDBRANCH  39  40
ENDBRANCH  38  39
ENDBRANCH  37  38
ENDBRANCH  36  37
ENDBRANCH  35  36
ENDBRANCH  34  35
ENDBRANCH  33  34
ENDBRANCH  32  33
ENDBRANCH   1  32
TORSDOF 29
ENDMDL
MODEL 3
REMARK VINA RESULT:      -8.4      4.464      8.089
REMARK SMILES CCCCCCNC(=O)Oc1cccc(-c2ccc([C@H](C)C(=O)OCCOCCOCCOCCOC(=O)c3ccc(-c4c5nc(c(-c6c(F)c(F)c(F)c(F)c6F)c6ccc([nH]6)c(-c6c(F)c(F)c(F)c(F)c6F)c6nc(c(-c7c(F)c(F)c(F)c(F)c7F)c7ccc4[nH]7)C=C6)C=C5)cc3)cc2F)c1
REMARK SMILES IDX 26 1 25 2 24 3 22 4 23 5 20 6 21 7 19 8 16 9 17 10 103 11
REMARK SMILES IDX 18 12 102 13 104 14 15 15 11 16 12 17 105 18 13 19 14 20
REMARK SMILES IDX 10 21 8 22 7 23 9 25 6 26 5 27 4 28 3 29 2 30 1 31 27 32
REMARK SMILES IDX 28 33 29 34 30 35 31 36 32 37 33 38 34 39 35 40 36 41 37 42
REMARK SMILES IDX 38 43 39 44 40 45 101 46 41 47 100 48 42 49 43 50 44 51
REMARK SMILES IDX 94 52 45 53 99 54 93 55 95 56 46 57 98 58 92 59 91 60 47 62
REMARK SMILES IDX 79 63 59 64 78 65 60 66 63 67 77 68 96 69 61 70 62 71 76 73
REMARK SMILES IDX 97 74 64 75 48 76 49 77 57 78 50 79 51 80 55 81 58 82 52 83
REMARK SMILES IDX 53 84 56 85 54 86 80 87 81 88 89 89 82 90 83 91 87 92 90 93
REMARK SMILES IDX 84 94 85 95 88 96 86 97 65 98 66 99 74 100 67 101 68 102
REMARK SMILES IDX 72 103 75 104 69 105 70 106 73 107 71 108
REMARK H PARENT 7 24 95 61 63 72
REMARK Flexibility Score: inf
ROOT
ATOM      1  C   UNL A   1      33.206  36.539  30.126  1.00  0.00     0.202 C 
ENDROOT
BRANCH   1   2
ATOM      2  C   UNL A   1      33.233  35.100  29.587  1.00  0.00     0.261 C 
BRANCH   2   3
ATOM      3  O   UNL A   1      34.512  34.587  29.193  1.00  0.00    -0.463 OA
BRANCH   3   4
ATOM      4  C   UNL A   1      34.773  33.323  29.603  1.00  0.00     0.313 C 
ATOM      5  O   UNL A   1      34.344  32.834  30.645  1.00  0.00    -0.252 OA
BRANCH   4   6
ATOM      6  C   UNL A   1      35.754  32.571  28.700  1.00  0.00     0.126 C 
ATOM      7  C   UNL A   1      37.048  31.958  29.249  1.00  0.00     0.025 C 
BRANCH   6   8
ATOM      8  C   UNL A   1      34.960  31.487  28.034  1.00  0.00    -0.031 A 
ATOM      9  C   UNL A   1      33.471  29.465  26.855  1.00  0.00     0.018 A 
ATOM     10  C   UNL A   1      34.799  29.222  27.223  1.00  0.00     0.012 A 
ATOM     11  C   UNL A   1      32.902  30.722  27.104  1.00  0.00     0.131 A 
ATOM     12  C   UNL A   1      35.540  30.227  27.817  1.00  0.00     0.005 A 
ATOM     13  C   UNL A   1      33.633  31.732  27.690  1.00  0.00     0.044 A 
ATOM     14  F   UNL A   1      31.631  30.979  26.759  1.00  0.00    -0.206 F 
BRANCH   9  15
ATOM     15  C   UNL A   1      32.718  28.443  26.156  1.00  0.00    -0.012 A 
ATOM     16  C   UNL A   1      32.443  26.118  25.589  1.00  0.00     0.133 A 
ATOM     17  C   UNL A   1      31.324  26.424  24.819  1.00  0.00     0.047 A 
ATOM     18  C   UNL A   1      33.151  27.118  26.236  1.00  0.00     0.056 A 
ATOM     19  C   UNL A   1      30.882  27.745  24.738  1.00  0.00     0.004 A 
ATOM     20  C   UNL A   1      31.572  28.751  25.412  1.00  0.00     0.009 A 
BRANCH  16  21
ATOM     21  O   UNL A   1      32.908  24.798  25.578  1.00  0.00    -0.410 OA
BRANCH  21  22
ATOM     22  C   UNL A   1      32.512  23.953  26.605  1.00  0.00     0.412 C 
ATOM     23  N   UNL A   1      33.423  22.968  26.855  1.00  0.00    -0.321 N 
ATOM     24  H   UNL A   1      33.184  22.302  27.540  1.00  0.00     0.167 HD
ATOM     25  O   UNL A   1      31.477  24.032  27.255  1.00  0.00    -0.224 OA
BRANCH  23  26
ATOM     26  C   UNL A   1      34.706  22.814  26.205  1.00  0.00     0.119 C 
BRANCH  26  27
ATOM     27  C   UNL A   1      34.593  22.017  24.907  1.00  0.00     0.021 C 
BRANCH  27  28
ATOM     28  C   UNL A   1      34.632  20.496  25.087  1.00  0.00     0.002 C 
BRANCH  28  29
ATOM     29  C   UNL A   1      33.383  19.749  24.607  1.00  0.00    -0.000 C 
BRANCH  29  30
ATOM     30  C   UNL A   1      32.874  18.658  25.552  1.00  0.00    -0.003 C 
ATOM     31  C   UNL A   1      32.393  17.414  24.823  1.00  0.00     0.004 C 
ENDBRANCH  29  30
ENDBRANCH  28  29
ENDBRANCH  27  28
ENDBRANCH  26  27
ENDBRANCH  23  26
ENDBRANCH  21  22
ENDBRANCH  16  21
ENDBRANCH   9  15
ENDBRANCH   6   8
ENDBRANCH   4   6
ENDBRANCH   3   4
ENDBRANCH   2   3
ENDBRANCH   1   2
BRANCH   1  32
ATOM     32  O   UNL A   1      32.467  36.906  31.279  1.00  0.00    -0.376 OA
BRANCH  32  33
ATOM     33  C   UNL A   1      33.026  36.892  32.584  1.00  0.00     0.188 C 
BRANCH  33  34
ATOM     34  C   UNL A   1      33.896  35.730  33.086  1.00  0.00     0.188 C 
BRANCH  34  35
ATOM     35  O   UNL A   1      35.291  35.930  33.011  1.00  0.00    -0.377 OA
BRANCH  35  36
ATOM     36  C   UNL A   1      36.099  34.764  32.944  1.00  0.00     0.188 C 
BRANCH  36  37
ATOM     37  C   UNL A   1      35.724  33.582  33.858  1.00  0.00     0.188 C 
BRANCH  37  38
ATOM     38  O   UNL A   1      36.090  32.309  33.341  1.00  0.00    -0.376 OA
BRANCH  38  39
ATOM     39  C   UNL A   1      37.465  31.961  33.273  1.00  0.00     0.202 C 
BRANCH  39  40
ATOM     40  C   UNL A   1      37.988  30.887  34.245  1.00  0.00     0.261 C 
BRANCH  40  41
ATOM     41  O   UNL A   1      39.269  31.132  34.847  1.00  0.00    -0.460 OA
BRANCH  41  42
ATOM     42  C   UNL A   1      39.306  31.865  35.977  1.00  0.00     0.338 C 
ATOM     43  O   UNL A   1      38.783  31.600  37.046  1.00  0.00    -0.246 OA
BRANCH  42  44
ATOM     44  C   UNL A   1      40.275  32.964  35.776  1.00  0.00     0.060 A 
ATOM     45  C   UNL A   1      39.797  34.210  35.350  1.00  0.00     0.016 A 
ATOM     46  C   UNL A   1      41.640  32.768  35.997  1.00  0.00     0.016 A 
ATOM     47  C   UNL A   1      40.689  35.251  35.095  1.00  0.00     0.010 A 
ATOM     48  C   UNL A   1      42.536  33.804  35.715  1.00  0.00     0.010 A 
ATOM     49  C   UNL A   1      42.066  35.035  35.223  1.00  0.00    -0.014 A 
BRANCH  49  50
ATOM     50  C   UNL A   1      43.009  36.009  34.623  1.00  0.00     0.031 A 
ATOM     51  C   UNL A   1      43.334  35.871  33.159  1.00  0.00     0.074 A 
ATOM     52  C   UNL A   1      43.533  37.018  35.340  1.00  0.00     0.049 A 
ATOM     53  N   UNL A   1      44.142  36.578  32.413  1.00  0.00    -0.248 NA
ATOM     54  C   UNL A   1      42.646  34.785  32.442  1.00  0.00     0.031 C 
ATOM     55  C   UNL A   1      43.256  37.287  36.748  1.00  0.00     0.029 A 
ATOM     56  N   UNL A   1      44.415  38.004  34.972  1.00  0.00    -0.354 N 
ATOM     57  C   UNL A   1      44.065  36.020  31.143  1.00  0.00     0.074 A 
ATOM     58  C   UNL A   1      43.160  34.895  31.226  1.00  0.00     0.031 C 
ATOM     59  C   UNL A   1      43.965  38.365  37.131  1.00  0.00     0.029 A 
ATOM     60  C   UNL A   1      44.768  38.839  36.003  1.00  0.00     0.049 A 
ATOM     61  H   UNL A   1      44.762  38.102  34.055  1.00  0.00     0.167 HD
ATOM     62  C   UNL A   1      44.685  36.416  30.006  1.00  0.00     0.037 A 
ATOM     63  C   UNL A   1      45.656  39.852  36.033  1.00  0.00     0.037 A 
ATOM     64  C   UNL A   1      45.591  37.531  29.928  1.00  0.00     0.049 A 
ATOM     65  C   UNL A   1      46.401  40.219  34.773  1.00  0.00     0.074 A 
ATOM     66  C   UNL A   1      46.266  38.018  28.824  1.00  0.00     0.029 A 
ATOM     67  N   UNL A   1      45.957  38.327  31.004  1.00  0.00    -0.354 N 
ATOM     68  N   UNL A   1      46.308  39.702  33.571  1.00  0.00    -0.248 NA
ATOM     69  C   UNL A   1      47.374  41.318  34.876  1.00  0.00     0.031 C 
ATOM     70  C   UNL A   1      47.087  39.071  29.242  1.00  0.00     0.029 A 
ATOM     71  C   UNL A   1      46.871  39.285  30.594  1.00  0.00     0.049 A 
ATOM     72  H   UNL A   1      45.617  38.227  31.922  1.00  0.00     0.167 HD
ATOM     73  C   UNL A   1      47.179  40.433  32.770  1.00  0.00     0.074 A 
ATOM     74  C   UNL A   1      47.781  41.438  33.621  1.00  0.00     0.031 C 
ATOM     75  C   UNL A   1      47.453  40.286  31.450  1.00  0.00     0.037 A 
BRANCH  62  76
ATOM     76  C   UNL A   1      44.429  35.613  28.764  1.00  0.00     0.064 A 
ATOM     77  C   UNL A   1      43.393  35.935  27.874  1.00  0.00     0.173 A 
ATOM     78  C   UNL A   1      45.247  34.518  28.447  1.00  0.00     0.173 A 
ATOM     79  F   UNL A   1      42.571  36.962  28.138  1.00  0.00    -0.203 F 
ATOM     80  C   UNL A   1      43.168  35.173  26.730  1.00  0.00     0.198 A 
ATOM     81  C   UNL A   1      45.041  33.779  27.286  1.00  0.00     0.198 A 
ATOM     82  F   UNL A   1      46.253  34.167  29.263  1.00  0.00    -0.203 F 
ATOM     83  F   UNL A   1      42.139  35.467  25.923  1.00  0.00    -0.200 F 
ATOM     84  C   UNL A   1      43.997  34.101  26.433  1.00  0.00     0.200 A 
ATOM     85  F   UNL A   1      45.851  32.752  26.995  1.00  0.00    -0.200 F 
ATOM     86  F   UNL A   1      43.783  33.373  25.328  1.00  0.00    -0.200 F 
ENDBRANCH  62  76
BRANCH  63  87
ATOM     87  C   UNL A   1      45.903  40.592  37.300  1.00  0.00     0.064 A 
ATOM     88  C   UNL A   1      45.144  41.718  37.642  1.00  0.00     0.173 A 
ATOM     89  C   UNL A   1      46.928  40.206  38.178  1.00  0.00     0.173 A 
ATOM     90  F   UNL A   1      44.171  42.145  36.823  1.00  0.00    -0.203 F 
ATOM     91  C   UNL A   1      45.413  42.445  38.801  1.00  0.00     0.198 A 
ATOM     92  C   UNL A   1      47.176  40.915  39.352  1.00  0.00     0.198 A 
ATOM     93  F   UNL A   1      47.688  39.138  37.895  1.00  0.00    -0.203 F 
ATOM     94  F   UNL A   1      44.708  43.551  39.075  1.00  0.00    -0.200 F 
ATOM     95  C   UNL A   1      46.426  42.039  39.658  1.00  0.00     0.200 A 
ATOM     96  F   UNL A   1      48.147  40.511  40.182  1.00  0.00    -0.200 F 
ATOM     97  F   UNL A   1      46.684  42.736  40.772  1.00  0.00    -0.200 F 
ENDBRANCH  63  87
BRANCH  75  98
ATOM     98  C   UNL A   1      48.410  41.267  30.827  1.00  0.00     0.064 A 
ATOM     99  C   UNL A   1      47.972  42.457  30.231  1.00  0.00     0.173 A 
ATOM    100  C   UNL A   1      49.793  41.023  30.862  1.00  0.00     0.173 A 
ATOM    101  F   UNL A   1      46.660  42.734  30.161  1.00  0.00    -0.203 F 
ATOM    102  C   UNL A   1      48.877  43.351  29.663  1.00  0.00     0.198 A 
ATOM    103  C   UNL A   1      50.698  41.935  30.326  1.00  0.00     0.198 A 
ATOM    104  F   UNL A   1      50.270  39.905  31.429  1.00  0.00    -0.203 F 
ATOM    105  F   UNL A   1      48.429  44.454  29.048  1.00  0.00    -0.200 F 
ATOM    106  C   UNL A   1      50.238  43.092  29.718  1.00  0.00     0.200 A 
ATOM    107  F   UNL A   1      52.013  41.693  30.397  1.00  0.00    -0.200 F 
ATOM    108  F   UNL A   1      51.108  43.958  29.176  1.00  0.00    -0.200 F 
ENDBRANCH  75  98
ENDBRANCH  49  50
ENDBRANCH  42  44
ENDBRANCH  41  42
ENDBRANCH  40  41
ENDBRANCH  39  40
ENDBRANCH  38  39
ENDBRANCH  37  38
ENDBRANCH  36  37
ENDBRANCH  35  36
ENDBRANCH  34  35
ENDBRANCH  33  34
ENDBRANCH  32  33
ENDBRANCH   1  32
TORSDOF 29
ENDMDL
