MODEL 1
REMARK VINA RESULT:      -9.8      0.000      0.000
REMARK SMILES COc1ccccc1[C@@H]1C[N@@H+](Cc2cc(C(C)=O)cn2C)C[C@H]1C(=O)OCCOCCOCCOCCOC(=O)c1ccc(-c2c3nc(c(-c4c(F)c(F)c(F)c(F)c4F)c4ccc([nH]4)c(-c4c(F)c(F)c(F)c(F)c4F)c4nc(c(-c5c(F)c(F)c(F)c(F)c5F)c5ccc2[nH]5)C=C4)C=C3)cc1
REMARK SMILES IDX 31 1 30 2 29 3 28 4 27 5 26 6 24 7 25 8 23 9 9 10 10 11
REMARK SMILES IDX 11 12 22 13 8 15 3 16 4 17 5 18 7 19 6 20 2 21 1 22 12 23
REMARK SMILES IDX 13 24 14 25 20 26 15 27 19 28 21 29 16 30 17 31 18 32 32 33
REMARK SMILES IDX 33 34 34 35 35 36 36 37 37 38 38 39 39 40 40 41 41 42 42 43
REMARK SMILES IDX 103 44 43 45 102 46 44 47 45 48 46 49 96 50 47 51 101 52
REMARK SMILES IDX 95 53 97 54 48 55 100 56 94 57 93 58 49 60 81 61 61 62 80 63
REMARK SMILES IDX 62 64 65 65 79 66 98 67 63 68 64 69 78 71 99 72 66 73 50 74
REMARK SMILES IDX 51 75 59 76 52 77 53 78 57 79 60 80 54 81 55 82 58 83 56 84
REMARK SMILES IDX 82 85 83 86 91 87 84 88 85 89 89 90 92 91 86 92 87 93 90 94
REMARK SMILES IDX 88 95 67 96 68 97 76 98 69 99 70 100 74 101 77 102 71 103
REMARK SMILES IDX 72 104 75 105 73 106
REMARK H PARENT 11 14 97 59 65 70
REMARK Flexibility Score: inf
ROOT
ATOM      1  C   UNL A   1      36.258  31.700  28.914  1.00  0.00     0.188 C 
ENDROOT
BRANCH   1   2
ATOM      2  C   UNL A   1      35.647  30.323  28.636  1.00  0.00     0.188 C 
BRANCH   2   3
ATOM      3  O   UNL A   1      35.295  29.988  27.312  1.00  0.00    -0.376 OA
BRANCH   3   4
ATOM      4  C   UNL A   1      33.981  29.557  27.006  1.00  0.00     0.202 C 
BRANCH   4   5
ATOM      5  C   UNL A   1      33.502  29.176  25.595  1.00  0.00     0.261 C 
BRANCH   5   6
ATOM      6  O   UNL A   1      34.073  28.003  24.979  1.00  0.00    -0.463 OA
BRANCH   6   7
ATOM      7  C   UNL A   1      33.858  27.878  23.655  1.00  0.00     0.315 C 
ATOM      8  O   UNL A   1      34.400  28.604  22.818  1.00  0.00    -0.252 OA
BRANCH   7   9
ATOM      9  C   UNL A   1      32.895  26.806  23.181  1.00  0.00     0.167 C 
ATOM     10  C   UNL A   1      32.205  25.713  24.008  1.00  0.00     0.098 C 
ATOM     11  C   UNL A   1      30.746  25.716  23.511  1.00  0.00     0.272 C 
ATOM     12  N   UNL A   1      30.479  27.060  23.013  1.00  0.00    -0.329 N 
ATOM     13  C   UNL A   1      31.749  27.554  22.484  1.00  0.00     0.278 C 
ATOM     14  H   UNL A   1      29.783  27.027  22.268  1.00  0.00     0.348 HD
BRANCH  10  15
ATOM     15  C   UNL A   1      32.683  24.245  24.044  1.00  0.00     0.004 A 
ATOM     16  C   UNL A   1      33.674  23.597  24.807  1.00  0.00     0.122 A 
ATOM     17  C   UNL A   1      33.827  22.191  24.678  1.00  0.00     0.047 A 
ATOM     18  C   UNL A   1      33.078  21.416  23.800  1.00  0.00     0.004 A 
ATOM     19  C   UNL A   1      31.961  23.423  23.120  1.00  0.00     0.008 A 
ATOM     20  C   UNL A   1      32.152  22.044  22.996  1.00  0.00     0.001 A 
BRANCH  16  21
ATOM     21  O   UNL A   1      34.578  24.003  25.738  1.00  0.00    -0.496 OA
ATOM     22  C   UNL A   1      35.785  23.370  26.079  1.00  0.00     0.278 C 
ENDBRANCH  16  21
ENDBRANCH  10  15
BRANCH  12  23
ATOM     23  C   UNL A   1      29.761  27.955  23.926  1.00  0.00     0.317 C 
BRANCH  23  24
ATOM     24  C   UNL A   1      28.989  29.080  23.307  1.00  0.00     0.073 A 
ATOM     25  C   UNL A   1      29.444  30.338  22.933  1.00  0.00     0.041 A 
ATOM     26  N   UNL A   1      27.630  29.073  23.076  1.00  0.00    -0.349 N 
ATOM     27  C   UNL A   1      28.374  31.049  22.329  1.00  0.00     0.035 A 
ATOM     28  C   UNL A   1      27.277  30.214  22.405  1.00  0.00     0.097 A 
ATOM     29  C   UNL A   1      26.675  28.075  23.501  1.00  0.00     0.149 C 
BRANCH  27  30
ATOM     30  C   UNL A   1      28.344  32.373  21.721  1.00  0.00     0.161 C 
ATOM     31  C   UNL A   1      28.029  32.510  20.253  1.00  0.00     0.093 C 
ATOM     32  O   UNL A   1      28.613  33.373  22.387  1.00  0.00    -0.294 OA
ENDBRANCH  27  30
ENDBRANCH  23  24
ENDBRANCH  12  23
ENDBRANCH   7   9
ENDBRANCH   6   7
ENDBRANCH   5   6
ENDBRANCH   4   5
ENDBRANCH   3   4
ENDBRANCH   2   3
ENDBRANCH   1   2
BRANCH   1  33
ATOM     33  O   UNL A   1      35.429  32.745  29.383  1.00  0.00    -0.377 OA
BRANCH  33  34
ATOM     34  C   UNL A   1      34.368  33.240  28.579  1.00  0.00     0.188 C 
BRANCH  34  35
ATOM     35  C   UNL A   1      34.525  34.547  27.781  1.00  0.00     0.188 C 
BRANCH  35  36
ATOM     36  O   UNL A   1      34.059  35.710  28.442  1.00  0.00    -0.376 OA
BRANCH  36  37
ATOM     37  C   UNL A   1      33.123  35.563  29.499  1.00  0.00     0.202 C 
BRANCH  37  38
ATOM     38  C   UNL A   1      32.939  36.734  30.476  1.00  0.00     0.261 C 
BRANCH  38  39
ATOM     39  O   UNL A   1      33.579  36.625  31.757  1.00  0.00    -0.460 OA
BRANCH  39  40
ATOM     40  C   UNL A   1      33.370  35.509  32.482  1.00  0.00     0.338 C 
ATOM     41  O   UNL A   1      32.327  34.888  32.605  1.00  0.00    -0.246 OA
BRANCH  40  42
ATOM     42  C   UNL A   1      34.676  35.061  33.000  1.00  0.00     0.060 A 
ATOM     43  C   UNL A   1      35.808  35.152  32.179  1.00  0.00     0.016 A 
ATOM     44  C   UNL A   1      34.776  34.539  34.290  1.00  0.00     0.016 A 
ATOM     45  C   UNL A   1      37.042  34.688  32.637  1.00  0.00     0.010 A 
ATOM     46  C   UNL A   1      36.009  34.059  34.741  1.00  0.00     0.010 A 
ATOM     47  C   UNL A   1      37.141  34.103  33.904  1.00  0.00    -0.014 A 
BRANCH  47  48
ATOM     48  C   UNL A   1      38.358  33.339  34.277  1.00  0.00     0.031 A 
ATOM     49  C   UNL A   1      38.794  32.229  33.361  1.00  0.00     0.074 A 
ATOM     50  C   UNL A   1      39.068  33.619  35.384  1.00  0.00     0.049 A 
ATOM     51  N   UNL A   1      39.781  31.380  33.489  1.00  0.00    -0.248 NA
ATOM     52  C   UNL A   1      38.003  32.051  32.131  1.00  0.00     0.031 C 
ATOM     53  C   UNL A   1      38.789  34.705  36.316  1.00  0.00     0.029 A 
ATOM     54  N   UNL A   1      40.170  32.996  35.917  1.00  0.00    -0.354 N 
ATOM     55  C   UNL A   1      39.725  30.571  32.362  1.00  0.00     0.074 A 
ATOM     56  C   UNL A   1      38.584  30.996  31.584  1.00  0.00     0.031 C 
ATOM     57  C   UNL A   1      39.670  34.653  37.331  1.00  0.00     0.029 A 
ATOM     58  C   UNL A   1      40.570  33.522  37.122  1.00  0.00     0.049 A 
ATOM     59  H   UNL A   1      40.630  32.244  35.479  1.00  0.00     0.167 HD
ATOM     60  C   UNL A   1      40.562  29.571  32.002  1.00  0.00     0.037 A 
ATOM     61  C   UNL A   1      41.544  33.124  37.965  1.00  0.00     0.037 A 
ATOM     62  C   UNL A   1      41.700  29.157  32.777  1.00  0.00     0.049 A 
ATOM     63  C   UNL A   1      42.416  31.958  37.580  1.00  0.00     0.074 A 
ATOM     64  C   UNL A   1      42.630  28.175  32.484  1.00  0.00     0.029 A 
ATOM     65  N   UNL A   1      42.056  29.694  34.006  1.00  0.00    -0.354 N 
ATOM     66  N   UNL A   1      42.381  31.219  36.497  1.00  0.00    -0.248 NA
ATOM     67  C   UNL A   1      43.474  31.578  38.527  1.00  0.00     0.031 C 
ATOM     68  C   UNL A   1      43.508  28.071  33.568  1.00  0.00     0.029 A 
ATOM     69  C   UNL A   1      43.171  29.038  34.502  1.00  0.00     0.049 A 
ATOM     70  H   UNL A   1      41.586  30.432  34.458  1.00  0.00     0.167 HD
ATOM     71  C   UNL A   1      43.432  30.317  36.613  1.00  0.00     0.074 A 
ATOM     72  C   UNL A   1      44.091  30.606  37.869  1.00  0.00     0.031 C 
ATOM     73  C   UNL A   1      43.819  29.342  35.754  1.00  0.00     0.037 A 
BRANCH  60  74
ATOM     74  C   UNL A   1      40.257  28.837  30.728  1.00  0.00     0.064 A 
ATOM     75  C   UNL A   1      40.732  29.279  29.484  1.00  0.00     0.173 A 
ATOM     76  C   UNL A   1      39.499  27.657  30.760  1.00  0.00     0.173 A 
ATOM     77  F   UNL A   1      41.446  30.411  29.396  1.00  0.00    -0.203 F 
ATOM     78  C   UNL A   1      40.436  28.581  28.315  1.00  0.00     0.198 A 
ATOM     79  C   UNL A   1      39.233  26.944  29.595  1.00  0.00     0.198 A 
ATOM     80  F   UNL A   1      39.020  27.191  31.924  1.00  0.00    -0.203 F 
ATOM     81  F   UNL A   1      40.855  29.051  27.132  1.00  0.00    -0.200 F 
ATOM     82  C   UNL A   1      39.695  27.411  28.373  1.00  0.00     0.200 A 
ATOM     83  F   UNL A   1      38.529  25.806  29.654  1.00  0.00    -0.200 F 
ATOM     84  F   UNL A   1      39.419  26.734  27.250  1.00  0.00    -0.200 F 
ENDBRANCH  60  74
BRANCH  61  85
ATOM     85  C   UNL A   1      41.752  33.841  39.252  1.00  0.00     0.064 A 
ATOM     86  C   UNL A   1      42.644  34.918  39.347  1.00  0.00     0.173 A 
ATOM     87  C   UNL A   1      41.074  33.454  40.418  1.00  0.00     0.173 A 
ATOM     88  F   UNL A   1      43.336  35.312  38.268  1.00  0.00    -0.203 F 
ATOM     89  C   UNL A   1      42.864  35.567  40.561  1.00  0.00     0.198 A 
ATOM     90  C   UNL A   1      41.273  34.122  41.624  1.00  0.00     0.198 A 
ATOM     91  F   UNL A   1      40.212  32.427  40.385  1.00  0.00    -0.203 F 
ATOM     92  F   UNL A   1      43.759  36.563  40.633  1.00  0.00    -0.200 F 
ATOM     93  C   UNL A   1      42.174  35.173  41.697  1.00  0.00     0.200 A 
ATOM     94  F   UNL A   1      40.595  33.745  42.716  1.00  0.00    -0.200 F 
ATOM     95  F   UNL A   1      42.382  35.801  42.862  1.00  0.00    -0.200 F 
ENDBRANCH  61  85
BRANCH  73  96
ATOM     96  C   UNL A   1      45.036  28.539  36.117  1.00  0.00     0.064 A 
ATOM     97  C   UNL A   1      44.944  27.343  36.843  1.00  0.00     0.173 A 
ATOM     98  C   UNL A   1      46.308  28.949  35.687  1.00  0.00     0.173 A 
ATOM     99  F   UNL A   1      43.753  26.912  37.289  1.00  0.00    -0.203 F 
ATOM    100  C   UNL A   1      46.083  26.603  37.150  1.00  0.00     0.198 A 
ATOM    101  C   UNL A   1      47.439  28.188  35.965  1.00  0.00     0.198 A 
ATOM    102  F   UNL A   1      46.451  30.080  34.980  1.00  0.00    -0.203 F 
ATOM    103  F   UNL A   1      45.977  25.490  37.891  1.00  0.00    -0.200 F 
ATOM    104  C   UNL A   1      47.328  27.021  36.703  1.00  0.00     0.200 A 
ATOM    105  F   UNL A   1      48.639  28.583  35.514  1.00  0.00    -0.200 F 
ATOM    106  F   UNL A   1      48.421  26.301  36.991  1.00  0.00    -0.200 F 
ENDBRANCH  73  96
ENDBRANCH  47  48
ENDBRANCH  40  42
ENDBRANCH  39  40
ENDBRANCH  38  39
ENDBRANCH  37  38
ENDBRANCH  36  37
ENDBRANCH  35  36
ENDBRANCH  34  35
ENDBRANCH  33  34
ENDBRANCH   1  33
TORSDOF 25
ENDMDL
MODEL 2
REMARK VINA RESULT:      -9.7      0.751      6.916
REMARK SMILES COc1ccccc1[C@@H]1C[N@@H+](Cc2cc(C(C)=O)cn2C)C[C@H]1C(=O)OCCOCCOCCOCCOC(=O)c1ccc(-c2c3nc(c(-c4c(F)c(F)c(F)c(F)c4F)c4ccc([nH]4)c(-c4c(F)c(F)c(F)c(F)c4F)c4nc(c(-c5c(F)c(F)c(F)c(F)c5F)c5ccc2[nH]5)C=C4)C=C3)cc1
REMARK SMILES IDX 31 1 30 2 29 3 28 4 27 5 26 6 24 7 25 8 23 9 9 10 10 11
REMARK SMILES IDX 11 12 22 13 8 15 3 16 4 17 5 18 7 19 6 20 2 21 1 22 12 23
REMARK SMILES IDX 13 24 14 25 20 26 15 27 19 28 21 29 16 30 17 31 18 32 32 33
REMARK SMILES IDX 33 34 34 35 35 36 36 37 37 38 38 39 39 40 40 41 41 42 42 43
REMARK SMILES IDX 103 44 43 45 102 46 44 47 45 48 46 49 96 50 47 51 101 52
REMARK SMILES IDX 95 53 97 54 48 55 100 56 94 57 93 58 49 60 81 61 61 62 80 63
REMARK SMILES IDX 62 64 65 65 79 66 98 67 63 68 64 69 78 71 99 72 66 73 50 74
REMARK SMILES IDX 51 75 59 76 52 77 53 78 57 79 60 80 54 81 55 82 58 83 56 84
REMARK SMILES IDX 82 85 83 86 91 87 84 88 85 89 89 90 92 91 86 92 87 93 90 94
REMARK SMILES IDX 88 95 67 96 68 97 76 98 69 99 70 100 74 101 77 102 71 103
REMARK SMILES IDX 72 104 75 105 73 106
REMARK H PARENT 11 14 97 59 65 70
REMARK Flexibility Score: inf
ROOT
ATOM      1  C   UNL A   1      35.968  31.646  28.453  1.00  0.00     0.188 C 
ENDROOT
BRANCH   1   2
ATOM      2  C   UNL A   1      35.056  30.459  28.128  1.00  0.00     0.188 C 
BRANCH   2   3
ATOM      3  O   UNL A   1      34.950  30.026  26.790  1.00  0.00    -0.376 OA
BRANCH   3   4
ATOM      4  C   UNL A   1      33.881  29.188  26.389  1.00  0.00     0.202 C 
BRANCH   4   5
ATOM      5  C   UNL A   1      33.517  28.890  24.924  1.00  0.00     0.261 C 
BRANCH   5   6
ATOM      6  O   UNL A   1      34.118  27.738  24.298  1.00  0.00    -0.463 OA
BRANCH   6   7
ATOM      7  C   UNL A   1      33.703  27.474  23.044  1.00  0.00     0.315 C 
ATOM      8  O   UNL A   1      34.174  28.035  22.052  1.00  0.00    -0.252 OA
BRANCH   7   9
ATOM      9  C   UNL A   1      32.596  26.455  22.853  1.00  0.00     0.167 C 
ATOM     10  C   UNL A   1      31.985  25.506  23.893  1.00  0.00     0.098 C 
ATOM     11  C   UNL A   1      30.465  25.595  23.651  1.00  0.00     0.272 C 
ATOM     12  N   UNL A   1      30.213  26.908  23.068  1.00  0.00    -0.329 N 
ATOM     13  C   UNL A   1      31.402  27.236  22.284  1.00  0.00     0.278 C 
ATOM     14  H   UNL A   1      29.396  26.870  22.459  1.00  0.00     0.348 HD
BRANCH  10  15
ATOM     15  C   UNL A   1      32.353  24.010  24.000  1.00  0.00     0.004 A 
ATOM     16  C   UNL A   1      32.880  23.245  25.060  1.00  0.00     0.122 A 
ATOM     17  C   UNL A   1      33.034  21.844  24.882  1.00  0.00     0.047 A 
ATOM     18  C   UNL A   1      32.735  21.186  23.695  1.00  0.00     0.004 A 
ATOM     19  C   UNL A   1      32.097  23.306  22.780  1.00  0.00     0.008 A 
ATOM     20  C   UNL A   1      32.285  21.929  22.626  1.00  0.00     0.001 A 
BRANCH  16  21
ATOM     21  O   UNL A   1      33.283  23.523  26.328  1.00  0.00    -0.496 OA
ATOM     22  C   UNL A   1      33.104  22.722  27.468  1.00  0.00     0.278 C 
ENDBRANCH  16  21
ENDBRANCH  10  15
BRANCH  12  23
ATOM     23  C   UNL A   1      29.734  27.941  23.991  1.00  0.00     0.317 C 
BRANCH  23  24
ATOM     24  C   UNL A   1      28.976  29.087  23.393  1.00  0.00     0.073 A 
ATOM     25  C   UNL A   1      29.440  30.357  23.073  1.00  0.00     0.041 A 
ATOM     26  N   UNL A   1      27.623  29.089  23.131  1.00  0.00    -0.349 N 
ATOM     27  C   UNL A   1      28.384  31.089  22.470  1.00  0.00     0.035 A 
ATOM     28  C   UNL A   1      27.285  30.253  22.492  1.00  0.00     0.097 A 
ATOM     29  C   UNL A   1      26.658  28.078  23.500  1.00  0.00     0.149 C 
BRANCH  27  30
ATOM     30  C   UNL A   1      28.368  32.433  21.907  1.00  0.00     0.161 C 
ATOM     31  C   UNL A   1      27.971  32.631  20.465  1.00  0.00     0.093 C 
ATOM     32  O   UNL A   1      28.714  33.400  22.586  1.00  0.00    -0.294 OA
ENDBRANCH  27  30
ENDBRANCH  23  24
ENDBRANCH  12  23
ENDBRANCH   7   9
ENDBRANCH   6   7
ENDBRANCH   5   6
ENDBRANCH   4   5
ENDBRANCH   3   4
ENDBRANCH   2   3
ENDBRANCH   1   2
BRANCH   1  33
ATOM     33  O   UNL A   1      35.409  32.816  29.017  1.00  0.00    -0.377 OA
BRANCH  33  34
ATOM     34  C   UNL A   1      34.415  33.550  28.318  1.00  0.00     0.188 C 
BRANCH  34  35
ATOM     35  C   UNL A   1      34.721  34.946  27.745  1.00  0.00     0.188 C 
BRANCH  35  36
ATOM     36  O   UNL A   1      34.164  36.026  28.473  1.00  0.00    -0.376 OA
BRANCH  36  37
ATOM     37  C   UNL A   1      33.109  35.760  29.384  1.00  0.00     0.202 C 
BRANCH  37  38
ATOM     38  C   UNL A   1      32.811  36.798  30.477  1.00  0.00     0.261 C 
BRANCH  38  39
ATOM     39  O   UNL A   1      33.442  36.605  31.752  1.00  0.00    -0.460 OA
BRANCH  39  40
ATOM     40  C   UNL A   1      33.201  35.458  32.417  1.00  0.00     0.338 C 
ATOM     41  O   UNL A   1      32.129  34.895  32.562  1.00  0.00    -0.246 OA
BRANCH  40  42
ATOM     42  C   UNL A   1      34.502  34.898  32.827  1.00  0.00     0.060 A 
ATOM     43  C   UNL A   1      35.621  35.086  32.003  1.00  0.00     0.016 A 
ATOM     44  C   UNL A   1      34.611  34.175  34.016  1.00  0.00     0.016 A 
ATOM     45  C   UNL A   1      36.849  34.521  32.353  1.00  0.00     0.010 A 
ATOM     46  C   UNL A   1      35.836  33.595  34.355  1.00  0.00     0.010 A 
ATOM     47  C   UNL A   1      36.953  33.740  33.509  1.00  0.00    -0.014 A 
BRANCH  47  48
ATOM     48  C   UNL A   1      38.152  32.893  33.728  1.00  0.00     0.031 A 
ATOM     49  C   UNL A   1      38.970  33.146  34.963  1.00  0.00     0.074 A 
ATOM     50  C   UNL A   1      38.508  31.920  32.870  1.00  0.00     0.049 A 
ATOM     51  N   UNL A   1      40.088  32.588  35.354  1.00  0.00    -0.248 NA
ATOM     52  C   UNL A   1      38.457  34.174  35.885  1.00  0.00     0.031 C 
ATOM     53  C   UNL A   1      37.767  31.534  31.674  1.00  0.00     0.029 A 
ATOM     54  N   UNL A   1      39.599  31.085  32.872  1.00  0.00    -0.354 N 
ATOM     55  C   UNL A   1      40.408  33.199  36.558  1.00  0.00     0.074 A 
ATOM     56  C   UNL A   1      39.398  34.200  36.815  1.00  0.00     0.031 C 
ATOM     57  C   UNL A   1      38.441  30.564  31.032  1.00  0.00     0.029 A 
ATOM     58  C   UNL A   1      39.667  30.267  31.770  1.00  0.00     0.049 A 
ATOM     59  H   UNL A   1      40.267  31.072  33.594  1.00  0.00     0.167 HD
ATOM     60  C   UNL A   1      41.447  32.937  37.385  1.00  0.00     0.037 A 
ATOM     61  C   UNL A   1      40.620  29.391  31.394  1.00  0.00     0.037 A 
ATOM     62  C   UNL A   1      42.446  31.935  37.128  1.00  0.00     0.049 A 
ATOM     63  C   UNL A   1      41.809  29.171  32.293  1.00  0.00     0.074 A 
ATOM     64  C   UNL A   1      43.521  31.569  37.917  1.00  0.00     0.029 A 
ATOM     65  N   UNL A   1      42.498  31.147  35.987  1.00  0.00    -0.354 N 
ATOM     66  N   UNL A   1      42.089  29.725  33.448  1.00  0.00    -0.248 NA
ATOM     67  C   UNL A   1      42.808  28.190  31.844  1.00  0.00     0.031 C 
ATOM     68  C   UNL A   1      44.263  30.608  37.222  1.00  0.00     0.029 A 
ATOM     69  C   UNL A   1      43.610  30.321  36.034  1.00  0.00     0.049 A 
ATOM     70  H   UNL A   1      41.842  31.171  35.253  1.00  0.00     0.167 HD
ATOM     71  C   UNL A   1      43.270  29.135  33.881  1.00  0.00     0.074 A 
ATOM     72  C   UNL A   1      43.650  28.173  32.868  1.00  0.00     0.031 C 
ATOM     73  C   UNL A   1      43.972  29.365  35.019  1.00  0.00     0.037 A 
BRANCH  60  74
ATOM     74  C   UNL A   1      41.570  33.769  38.628  1.00  0.00     0.064 A 
ATOM     75  C   UNL A   1      40.977  33.385  39.841  1.00  0.00     0.173 A 
ATOM     76  C   UNL A   1      42.318  34.956  38.610  1.00  0.00     0.173 A 
ATOM     77  F   UNL A   1      40.237  32.268  39.908  1.00  0.00    -0.203 F 
ATOM     78  C   UNL A   1      41.105  34.174  40.982  1.00  0.00     0.198 A 
ATOM     79  C   UNL A   1      42.471  35.724  39.760  1.00  0.00     0.198 A 
ATOM     80  F   UNL A   1      42.905  35.368  37.477  1.00  0.00    -0.203 F 
ATOM     81  F   UNL A   1      40.485  33.815  42.115  1.00  0.00    -0.200 F 
ATOM     82  C   UNL A   1      41.859  35.336  40.943  1.00  0.00     0.200 A 
ATOM     83  F   UNL A   1      43.212  36.840  39.724  1.00  0.00    -0.200 F 
ATOM     84  F   UNL A   1      41.990  36.089  42.044  1.00  0.00    -0.200 F 
ENDBRANCH  60  74
BRANCH  61  85
ATOM     85  C   UNL A   1      40.485  28.649  30.111  1.00  0.00     0.064 A 
ATOM     86  C   UNL A   1      39.753  27.456  30.037  1.00  0.00     0.173 A 
ATOM     87  C   UNL A   1      41.098  29.111  28.937  1.00  0.00     0.173 A 
ATOM     88  F   UNL A   1      39.168  26.959  31.136  1.00  0.00    -0.203 F 
ATOM     89  C   UNL A   1      39.655  26.745  28.842  1.00  0.00     0.198 A 
ATOM     90  C   UNL A   1      40.975  28.414  27.736  1.00  0.00     0.198 A 
ATOM     91  F   UNL A   1      41.814  30.245  28.953  1.00  0.00    -0.203 F 
ATOM     92  F   UNL A   1      38.989  25.581  28.810  1.00  0.00    -0.200 F 
ATOM     93  C   UNL A   1      40.260  27.227  27.691  1.00  0.00     0.200 A 
ATOM     94  F   UNL A   1      41.552  28.890  26.625  1.00  0.00    -0.200 F 
ATOM     95  F   UNL A   1      40.162  26.544  26.543  1.00  0.00    -0.200 F 
ENDBRANCH  61  85
BRANCH  73  96
ATOM     96  C   UNL A   1      45.203  28.536  35.254  1.00  0.00     0.064 A 
ATOM     97  C   UNL A   1      45.148  27.301  35.916  1.00  0.00     0.173 A 
ATOM     98  C   UNL A   1      46.447  28.962  34.763  1.00  0.00     0.173 A 
ATOM     99  F   UNL A   1      43.986  26.852  36.415  1.00  0.00    -0.203 F 
ATOM    100  C   UNL A   1      46.298  26.538  36.103  1.00  0.00     0.198 A 
ATOM    101  C   UNL A   1      47.587  28.180  34.920  1.00  0.00     0.198 A 
ATOM    102  F   UNL A   1      46.554  30.131  34.113  1.00  0.00    -0.203 F 
ATOM    103  F   UNL A   1      46.231  25.386  36.786  1.00  0.00    -0.200 F 
ATOM    104  C   UNL A   1      47.514  26.973  35.598  1.00  0.00     0.200 A 
ATOM    105  F   UNL A   1      48.757  28.594  34.413  1.00  0.00    -0.200 F 
ATOM    106  F   UNL A   1      48.617  26.232  35.770  1.00  0.00    -0.200 F 
ENDBRANCH  73  96
ENDBRANCH  47  48
ENDBRANCH  40  42
ENDBRANCH  39  40
ENDBRANCH  38  39
ENDBRANCH  37  38
ENDBRANCH  36  37
ENDBRANCH  35  36
ENDBRANCH  34  35
ENDBRANCH  33  34
ENDBRANCH   1  33
TORSDOF 25
ENDMDL
MODEL 3
REMARK VINA RESULT:      -9.5      4.397     10.059
REMARK SMILES COc1ccccc1[C@@H]1C[N@@H+](Cc2cc(C(C)=O)cn2C)C[C@H]1C(=O)OCCOCCOCCOCCOC(=O)c1ccc(-c2c3nc(c(-c4c(F)c(F)c(F)c(F)c4F)c4ccc([nH]4)c(-c4c(F)c(F)c(F)c(F)c4F)c4nc(c(-c5c(F)c(F)c(F)c(F)c5F)c5ccc2[nH]5)C=C4)C=C3)cc1
REMARK SMILES IDX 31 1 30 2 29 3 28 4 27 5 26 6 24 7 25 8 23 9 9 10 10 11
REMARK SMILES IDX 11 12 22 13 8 15 3 16 4 17 5 18 7 19 6 20 2 21 1 22 12 23
REMARK SMILES IDX 13 24 14 25 20 26 15 27 19 28 21 29 16 30 17 31 18 32 32 33
REMARK SMILES IDX 33 34 34 35 35 36 36 37 37 38 38 39 39 40 40 41 41 42 42 43
REMARK SMILES IDX 103 44 43 45 102 46 44 47 45 48 46 49 96 50 47 51 101 52
REMARK SMILES IDX 95 53 97 54 48 55 100 56 94 57 93 58 49 60 81 61 61 62 80 63
REMARK SMILES IDX 62 64 65 65 79 66 98 67 63 68 64 69 78 71 99 72 66 73 50 74
REMARK SMILES IDX 51 75 59 76 52 77 53 78 57 79 60 80 54 81 55 82 58 83 56 84
REMARK SMILES IDX 82 85 83 86 91 87 84 88 85 89 89 90 92 91 86 92 87 93 90 94
REMARK SMILES IDX 88 95 67 96 68 97 76 98 69 99 70 100 74 101 77 102 71 103
REMARK SMILES IDX 72 104 75 105 73 106
REMARK H PARENT 11 14 97 59 65 70
REMARK Flexibility Score: inf
ROOT
ATOM      1  C   UNL A   1      35.763  30.895  27.975  1.00  0.00     0.188 C 
ENDROOT
BRANCH   1   2
ATOM      2  C   UNL A   1      34.353  30.426  27.599  1.00  0.00     0.188 C 
BRANCH   2   3
ATOM      3  O   UNL A   1      34.104  29.043  27.477  1.00  0.00    -0.376 OA
BRANCH   3   4
ATOM      4  C   UNL A   1      32.834  28.578  27.058  1.00  0.00     0.202 C 
BRANCH   4   5
ATOM      5  C   UNL A   1      32.568  27.165  26.508  1.00  0.00     0.261 C 
BRANCH   5   6
ATOM      6  O   UNL A   1      31.474  26.414  27.073  1.00  0.00    -0.463 OA
BRANCH   6   7
ATOM      7  C   UNL A   1      31.222  25.225  26.491  1.00  0.00     0.315 C 
ATOM      8  O   UNL A   1      31.388  24.149  27.069  1.00  0.00    -0.252 OA
BRANCH   7   9
ATOM      9  C   UNL A   1      30.730  25.218  25.056  1.00  0.00     0.167 C 
ATOM     10  C   UNL A   1      31.237  26.050  23.871  1.00  0.00     0.098 C 
ATOM     11  C   UNL A   1      31.325  25.046  22.704  1.00  0.00     0.272 C 
ATOM     12  N   UNL A   1      31.530  23.731  23.301  1.00  0.00    -0.329 N 
ATOM     13  C   UNL A   1      30.834  23.759  24.586  1.00  0.00     0.278 C 
ATOM     14  H   UNL A   1      31.127  23.008  22.705  1.00  0.00     0.348 HD
BRANCH  10  15
ATOM     15  C   UNL A   1      30.518  27.312  23.347  1.00  0.00     0.004 A 
ATOM     16  C   UNL A   1      31.004  28.488  22.741  1.00  0.00     0.122 A 
ATOM     17  C   UNL A   1      30.071  29.455  22.280  1.00  0.00     0.047 A 
ATOM     18  C   UNL A   1      28.696  29.326  22.433  1.00  0.00     0.004 A 
ATOM     19  C   UNL A   1      29.100  27.235  23.527  1.00  0.00     0.008 A 
ATOM     20  C   UNL A   1      28.207  28.216  23.085  1.00  0.00     0.001 A 
BRANCH  16  21
ATOM     21  O   UNL A   1      32.240  28.960  22.431  1.00  0.00    -0.496 OA
ATOM     22  C   UNL A   1      33.471  28.323  22.660  1.00  0.00     0.278 C 
ENDBRANCH  16  21
ENDBRANCH  10  15
BRANCH  12  23
ATOM     23  C   UNL A   1      32.911  23.239  23.317  1.00  0.00     0.317 C 
BRANCH  23  24
ATOM     24  C   UNL A   1      33.135  21.864  23.871  1.00  0.00     0.073 A 
ATOM     25  C   UNL A   1      32.511  20.676  23.513  1.00  0.00     0.041 A 
ATOM     26  N   UNL A   1      33.972  21.563  24.923  1.00  0.00    -0.349 N 
ATOM     27  C   UNL A   1      33.087  19.615  24.260  1.00  0.00     0.035 A 
ATOM     28  C   UNL A   1      34.015  20.204  25.095  1.00  0.00     0.097 A 
ATOM     29  C   UNL A   1      34.672  22.494  25.779  1.00  0.00     0.149 C 
BRANCH  27  30
ATOM     30  C   UNL A   1      32.832  18.181  24.216  1.00  0.00     0.161 C 
ATOM     31  C   UNL A   1      33.523  17.333  23.178  1.00  0.00     0.093 C 
ATOM     32  O   UNL A   1      32.026  17.666  24.991  1.00  0.00    -0.294 OA
ENDBRANCH  27  30
ENDBRANCH  23  24
ENDBRANCH  12  23
ENDBRANCH   7   9
ENDBRANCH   6   7
ENDBRANCH   5   6
ENDBRANCH   4   5
ENDBRANCH   3   4
ENDBRANCH   2   3
ENDBRANCH   1   2
BRANCH   1  33
ATOM     33  O   UNL A   1      35.922  31.876  28.980  1.00  0.00    -0.377 OA
BRANCH  33  34
ATOM     34  C   UNL A   1      34.801  32.352  29.709  1.00  0.00     0.188 C 
BRANCH  34  35
ATOM     35  C   UNL A   1      34.875  32.549  31.234  1.00  0.00     0.188 C 
BRANCH  35  36
ATOM     36  O   UNL A   1      35.668  33.644  31.656  1.00  0.00    -0.376 OA
BRANCH  36  37
ATOM     37  C   UNL A   1      36.745  33.401  32.549  1.00  0.00     0.202 C 
BRANCH  37  38
ATOM     38  C   UNL A   1      38.029  32.773  31.987  1.00  0.00     0.261 C 
BRANCH  38  39
ATOM     39  O   UNL A   1      38.769  31.905  32.860  1.00  0.00    -0.460 OA
BRANCH  39  40
ATOM     40  C   UNL A   1      38.520  30.583  32.808  1.00  0.00     0.338 C 
ATOM     41  O   UNL A   1      37.432  30.032  32.814  1.00  0.00    -0.246 OA
BRANCH  40  42
ATOM     42  C   UNL A   1      39.805  29.894  32.585  1.00  0.00     0.060 A 
ATOM     43  C   UNL A   1      39.848  28.494  32.621  1.00  0.00     0.016 A 
ATOM     44  C   UNL A   1      40.966  30.633  32.355  1.00  0.00     0.016 A 
ATOM     45  C   UNL A   1      41.064  27.828  32.460  1.00  0.00     0.010 A 
ATOM     46  C   UNL A   1      42.185  29.966  32.212  1.00  0.00     0.010 A 
ATOM     47  C   UNL A   1      42.245  28.561  32.295  1.00  0.00    -0.014 A 
BRANCH  47  48
ATOM     48  C   UNL A   1      43.561  27.890  32.429  1.00  0.00     0.031 A 
ATOM     49  C   UNL A   1      44.107  27.694  33.816  1.00  0.00     0.074 A 
ATOM     50  C   UNL A   1      44.255  27.453  31.363  1.00  0.00     0.049 A 
ATOM     51  N   UNL A   1      45.253  27.192  34.199  1.00  0.00    -0.248 NA
ATOM     52  C   UNL A   1      43.240  28.128  34.925  1.00  0.00     0.031 C 
ATOM     53  C   UNL A   1      43.808  27.526  29.976  1.00  0.00     0.029 A 
ATOM     54  N   UNL A   1      45.497  26.872  31.284  1.00  0.00    -0.354 N 
ATOM     55  C   UNL A   1      45.242  27.254  35.586  1.00  0.00     0.074 A 
ATOM     56  C   UNL A   1      44.001  27.882  35.978  1.00  0.00     0.031 C 
ATOM     57  C   UNL A   1      44.776  27.044  29.176  1.00  0.00     0.029 A 
ATOM     58  C   UNL A   1      45.914  26.638  29.996  1.00  0.00     0.049 A 
ATOM     59  H   UNL A   1      46.036  26.642  32.075  1.00  0.00     0.167 HD
ATOM     60  C   UNL A   1      46.179  26.811  36.456  1.00  0.00     0.037 A 
ATOM     61  C   UNL A   1      47.089  26.164  29.535  1.00  0.00     0.037 A 
ATOM     62  C   UNL A   1      47.410  26.181  36.060  1.00  0.00     0.049 A 
ATOM     63  C   UNL A   1      48.150  25.749  30.520  1.00  0.00     0.074 A 
ATOM     64  C   UNL A   1      48.412  25.669  36.864  1.00  0.00     0.029 A 
ATOM     65  N   UNL A   1      47.811  25.989  34.746  1.00  0.00    -0.354 N 
ATOM     66  N   UNL A   1      48.121  25.777  31.831  1.00  0.00    -0.248 NA
ATOM     67  C   UNL A   1      49.404  25.221  29.962  1.00  0.00     0.031 C 
ATOM     68  C   UNL A   1      49.450  25.229  36.036  1.00  0.00     0.029 A 
ATOM     69  C   UNL A   1      49.064  25.398  34.716  1.00  0.00     0.049 A 
ATOM     70  H   UNL A   1      47.283  26.235  33.952  1.00  0.00     0.167 HD
ATOM     71  C   UNL A   1      49.329  25.237  32.254  1.00  0.00     0.074 A 
ATOM     72  C   UNL A   1      50.067  24.882  31.060  1.00  0.00     0.031 C 
ATOM     73  C   UNL A   1      49.783  25.046  33.518  1.00  0.00     0.037 A 
BRANCH  60  74
ATOM     74  C   UNL A   1      45.922  27.024  37.919  1.00  0.00     0.064 A 
ATOM     75  C   UNL A   1      46.202  28.245  38.553  1.00  0.00     0.173 A 
ATOM     76  C   UNL A   1      45.362  25.997  38.693  1.00  0.00     0.173 A 
ATOM     77  F   UNL A   1      46.755  29.253  37.863  1.00  0.00    -0.203 F 
ATOM     78  C   UNL A   1      45.956  28.419  39.913  1.00  0.00     0.198 A 
ATOM     79  C   UNL A   1      45.086  26.185  40.044  1.00  0.00     0.198 A 
ATOM     80  F   UNL A   1      45.076  24.810  38.137  1.00  0.00    -0.203 F 
ATOM     81  F   UNL A   1      46.280  29.575  40.508  1.00  0.00    -0.200 F 
ATOM     82  C   UNL A   1      45.390  27.393  40.654  1.00  0.00     0.200 A 
ATOM     83  F   UNL A   1      44.527  25.197  40.755  1.00  0.00    -0.200 F 
ATOM     84  F   UNL A   1      45.143  27.565  41.960  1.00  0.00    -0.200 F 
ENDBRANCH  60  74
BRANCH  61  85
ATOM     85  C   UNL A   1      47.320  26.047  28.070  1.00  0.00     0.064 A 
ATOM     86  C   UNL A   1      47.913  27.089  27.343  1.00  0.00     0.173 A 
ATOM     87  C   UNL A   1      46.940  24.896  27.363  1.00  0.00     0.173 A 
ATOM     88  F   UNL A   1      48.272  28.221  27.967  1.00  0.00    -0.203 F 
ATOM     89  C   UNL A   1      48.099  26.993  25.965  1.00  0.00     0.198 A 
ATOM     90  C   UNL A   1      47.153  24.789  25.990  1.00  0.00     0.198 A 
ATOM     91  F   UNL A   1      46.365  23.870  28.008  1.00  0.00    -0.203 F 
ATOM     92  F   UNL A   1      48.624  28.024  25.289  1.00  0.00    -0.200 F 
ATOM     93  C   UNL A   1      47.725  25.840  25.290  1.00  0.00     0.200 A 
ATOM     94  F   UNL A   1      46.800  23.669  25.345  1.00  0.00    -0.200 F 
ATOM     95  F   UNL A   1      47.908  25.747  23.966  1.00  0.00    -0.200 F 
ENDBRANCH  61  85
BRANCH  73  96
ATOM     96  C   UNL A   1      51.124  24.388  33.682  1.00  0.00     0.064 A 
ATOM     97  C   UNL A   1      52.301  25.133  33.837  1.00  0.00     0.173 A 
ATOM     98  C   UNL A   1      51.221  22.988  33.735  1.00  0.00     0.173 A 
ATOM     99  F   UNL A   1      52.265  26.474  33.782  1.00  0.00    -0.203 F 
ATOM    100  C   UNL A   1      53.530  24.502  34.010  1.00  0.00     0.198 A 
ATOM    101  C   UNL A   1      52.447  22.362  33.945  1.00  0.00     0.198 A 
ATOM    102  F   UNL A   1      50.125  22.227  33.603  1.00  0.00    -0.203 F 
ATOM    103  F   UNL A   1      54.650  25.234  34.103  1.00  0.00    -0.200 F 
ATOM    104  C   UNL A   1      53.601  23.118  34.073  1.00  0.00     0.200 A 
ATOM    105  F   UNL A   1      52.509  21.025  34.025  1.00  0.00    -0.200 F 
ATOM    106  F   UNL A   1      54.784  22.514  34.250  1.00  0.00    -0.200 F 
ENDBRANCH  73  96
ENDBRANCH  47  48
ENDBRANCH  40  42
ENDBRANCH  39  40
ENDBRANCH  38  39
ENDBRANCH  37  38
ENDBRANCH  36  37
ENDBRANCH  35  36
ENDBRANCH  34  35
ENDBRANCH  33  34
ENDBRANCH   1  33
TORSDOF 25
ENDMDL
