MODEL 1
REMARK VINA RESULT:     -10.2      0.000      0.000
REMARK SMILES O=C(OCCOCCOCCOCCOC(=O)c1cc2c(c(S(=O)(=O)Nc3cc(C(F)(F)F)ccc3-n3cccn3)c1)CCC2)c1ccc(-c2c3nc(c(-c4c(F)c(F)c(F)c(F)c4F)c4ccc([nH]4)c(-c4c(F)c(F)c(F)c(F)c4F)c4nc(c(-c5c(F)c(F)c(F)c(F)c5F)c5ccc2[nH]5)C=C4)C=C3)cc1
REMARK SMILES IDX 10 1 9 2 8 3 7 4 6 5 5 6 4 7 3 8 2 9 1 10 46 11 47 12 108 13
REMARK SMILES IDX 48 14 107 15 49 16 50 17 51 18 101 19 52 20 106 21 100 22
REMARK SMILES IDX 102 23 53 24 105 25 99 26 98 27 54 29 86 30 66 31 85 32
REMARK SMILES IDX 67 33 70 34 84 35 103 36 68 37 69 38 83 40 104 41 71 42
REMARK SMILES IDX 55 43 56 44 64 45 57 46 58 47 62 48 65 49 59 50 60 51 63 52
REMARK SMILES IDX 61 53 87 54 88 55 96 56 89 57 90 58 94 59 97 60 91 61 92 62
REMARK SMILES IDX 95 63 93 64 72 65 73 66 81 67 74 68 75 69 79 70 82 71 76 72
REMARK SMILES IDX 77 73 80 74 78 75 11 76 12 77 13 78 14 79 15 80 16 81 17 82
REMARK SMILES IDX 18 83 19 84 42 85 20 86 22 87 21 88 45 89 43 90 44 91 23 92
REMARK SMILES IDX 24 93 25 94 26 95 27 97 28 98 36 99 29 100 35 101 34 102
REMARK SMILES IDX 37 103 38 104 41 105 39 106 40 107 30 108 31 109 32 110
REMARK SMILES IDX 33 111
REMARK H PARENT 102 28 70 39 26 96
REMARK Flexibility Score: inf
ROOT
ATOM      1  C   UNL A   1      30.665  29.109  24.410  1.00  0.00     0.188 C 
ENDROOT
BRANCH   1   2
ATOM      2  O   UNL A   1      31.495  28.635  23.377  1.00  0.00    -0.377 OA
BRANCH   2   3
ATOM      3  C   UNL A   1      32.402  27.626  23.783  1.00  0.00     0.188 C 
BRANCH   3   4
ATOM      4  C   UNL A   1      33.839  28.066  24.121  1.00  0.00     0.188 C 
BRANCH   4   5
ATOM      5  O   UNL A   1      34.293  28.808  25.249  1.00  0.00    -0.376 OA
BRANCH   5   6
ATOM      6  C   UNL A   1      34.583  28.375  26.559  1.00  0.00     0.202 C 
BRANCH   6   7
ATOM      7  C   UNL A   1      34.871  29.375  27.677  1.00  0.00     0.261 C 
BRANCH   7   8
ATOM      8  O   UNL A   1      36.190  29.345  28.206  1.00  0.00    -0.460 OA
BRANCH   8   9
ATOM      9  C   UNL A   1      37.256  30.085  27.846  1.00  0.00     0.338 C 
ATOM     10  O   UNL A   1      37.060  31.242  27.471  1.00  0.00    -0.246 OA
BRANCH   9  11
ATOM     11  C   UNL A   1      38.656  29.590  27.814  1.00  0.00     0.060 A 
ATOM     12  C   UNL A   1      39.292  28.983  26.730  1.00  0.00     0.016 A 
ATOM     13  C   UNL A   1      39.341  29.689  29.041  1.00  0.00     0.016 A 
ATOM     14  C   UNL A   1      40.465  28.289  26.922  1.00  0.00     0.010 A 
ATOM     15  C   UNL A   1      40.528  29.019  29.237  1.00  0.00     0.010 A 
ATOM     16  C   UNL A   1      41.011  28.239  28.197  1.00  0.00    -0.014 A 
BRANCH  16  17
ATOM     17  C   UNL A   1      42.105  27.319  28.397  1.00  0.00     0.031 A 
ATOM     18  C   UNL A   1      42.840  27.532  29.660  1.00  0.00     0.074 A 
ATOM     19  C   UNL A   1      42.361  26.373  27.475  1.00  0.00     0.049 A 
ATOM     20  N   UNL A   1      44.077  27.875  29.807  1.00  0.00    -0.248 NA
ATOM     21  C   UNL A   1      42.062  27.532  30.910  1.00  0.00     0.031 C 
ATOM     22  C   UNL A   1      41.535  26.004  26.320  1.00  0.00     0.029 A 
ATOM     23  N   UNL A   1      43.367  25.463  27.431  1.00  0.00    -0.354 N 
ATOM     24  C   UNL A   1      44.288  27.923  31.181  1.00  0.00     0.074 A 
ATOM     25  C   UNL A   1      42.989  27.898  31.794  1.00  0.00     0.031 C 
ATOM     26  C   UNL A   1      41.940  24.803  25.850  1.00  0.00     0.029 A 
ATOM     27  C   UNL A   1      43.119  24.390  26.586  1.00  0.00     0.049 A 
ATOM     28  H   UNL A   1      44.199  25.557  27.950  1.00  0.00     0.167 HD
ATOM     29  C   UNL A   1      45.524  27.653  31.686  1.00  0.00     0.037 A 
ATOM     30  C   UNL A   1      43.783  23.207  26.592  1.00  0.00     0.037 A 
ATOM     31  C   UNL A   1      46.544  27.908  30.693  1.00  0.00     0.049 A 
ATOM     32  C   UNL A   1      45.081  23.435  27.281  1.00  0.00     0.074 A 
ATOM     33  C   UNL A   1      46.936  29.014  29.962  1.00  0.00     0.029 A 
ATOM     34  N   UNL A   1      47.112  26.829  30.061  1.00  0.00    -0.354 N 
ATOM     35  N   UNL A   1      46.046  24.161  26.787  1.00  0.00    -0.248 NA
ATOM     36  C   UNL A   1      45.124  23.246  28.725  1.00  0.00     0.031 C 
ATOM     37  C   UNL A   1      47.320  28.503  28.685  1.00  0.00     0.029 A 
ATOM     38  C   UNL A   1      47.199  27.114  28.726  1.00  0.00     0.049 A 
ATOM     39  H   UNL A   1      47.406  25.995  30.493  1.00  0.00     0.167 HD
ATOM     40  C   UNL A   1      46.542  24.872  27.870  1.00  0.00     0.074 A 
ATOM     41  C   UNL A   1      46.001  24.201  29.048  1.00  0.00     0.031 C 
ATOM     42  C   UNL A   1      47.099  26.108  27.697  1.00  0.00     0.037 A 
BRANCH  29  43
ATOM     43  C   UNL A   1      45.741  26.689  32.842  1.00  0.00     0.064 A 
ATOM     44  C   UNL A   1      46.704  27.034  33.814  1.00  0.00     0.173 A 
ATOM     45  C   UNL A   1      45.346  25.333  32.847  1.00  0.00     0.173 A 
ATOM     46  F   UNL A   1      47.132  28.300  33.934  1.00  0.00    -0.203 F 
ATOM     47  C   UNL A   1      47.344  26.069  34.594  1.00  0.00     0.198 A 
ATOM     48  C   UNL A   1      45.958  24.379  33.658  1.00  0.00     0.198 A 
ATOM     49  F   UNL A   1      44.425  24.837  32.017  1.00  0.00    -0.203 F 
ATOM     50  F   UNL A   1      48.372  26.424  35.376  1.00  0.00    -0.200 F 
ATOM     51  C   UNL A   1      46.989  24.738  34.496  1.00  0.00     0.200 A 
ATOM     52  F   UNL A   1      45.595  23.093  33.547  1.00  0.00    -0.200 F 
ATOM     53  F   UNL A   1      47.663  23.799  35.170  1.00  0.00    -0.200 F 
ENDBRANCH  29  43
BRANCH  30  54
ATOM     54  C   UNL A   1      43.218  21.855  26.369  1.00  0.00     0.064 A 
ATOM     55  C   UNL A   1      43.785  20.983  25.427  1.00  0.00     0.173 A 
ATOM     56  C   UNL A   1      42.275  21.289  27.253  1.00  0.00     0.173 A 
ATOM     57  F   UNL A   1      44.727  21.426  24.581  1.00  0.00    -0.203 F 
ATOM     58  C   UNL A   1      43.449  19.626  25.387  1.00  0.00     0.198 A 
ATOM     59  C   UNL A   1      41.930  19.939  27.202  1.00  0.00     0.198 A 
ATOM     60  F   UNL A   1      41.737  22.009  28.247  1.00  0.00    -0.203 F 
ATOM     61  F   UNL A   1      44.061  18.811  24.516  1.00  0.00    -0.200 F 
ATOM     62  C   UNL A   1      42.527  19.104  26.279  1.00  0.00     0.200 A 
ATOM     63  F   UNL A   1      41.063  19.441  28.096  1.00  0.00    -0.200 F 
ATOM     64  F   UNL A   1      42.247  17.793  26.278  1.00  0.00    -0.200 F 
ENDBRANCH  30  54
BRANCH  42  65
ATOM     65  C   UNL A   1      47.427  26.533  26.296  1.00  0.00     0.064 A 
ATOM     66  C   UNL A   1      46.548  27.249  25.464  1.00  0.00     0.173 A 
ATOM     67  C   UNL A   1      48.727  26.311  25.824  1.00  0.00     0.173 A 
ATOM     68  F   UNL A   1      45.325  27.594  25.888  1.00  0.00    -0.203 F 
ATOM     69  C   UNL A   1      46.941  27.672  24.196  1.00  0.00     0.198 A 
ATOM     70  C   UNL A   1      49.128  26.769  24.574  1.00  0.00     0.198 A 
ATOM     71  F   UNL A   1      49.625  25.684  26.600  1.00  0.00    -0.203 F 
ATOM     72  F   UNL A   1      46.080  28.338  23.412  1.00  0.00    -0.200 F 
ATOM     73  C   UNL A   1      48.232  27.436  23.755  1.00  0.00     0.200 A 
ATOM     74  F   UNL A   1      50.394  26.584  24.173  1.00  0.00    -0.200 F 
ATOM     75  F   UNL A   1      48.623  27.877  22.550  1.00  0.00    -0.200 F 
ENDBRANCH  42  65
ENDBRANCH  16  17
ENDBRANCH   9  11
ENDBRANCH   8   9
ENDBRANCH   7   8
ENDBRANCH   6   7
ENDBRANCH   5   6
ENDBRANCH   4   5
ENDBRANCH   3   4
ENDBRANCH   2   3
ENDBRANCH   1   2
BRANCH   1  76
ATOM     76  C   UNL A   1      31.146  30.439  25.026  1.00  0.00     0.188 C 
BRANCH  76  77
ATOM     77  O   UNL A   1      31.666  30.495  26.347  1.00  0.00    -0.376 OA
BRANCH  77  78
ATOM     78  C   UNL A   1      32.126  31.718  26.898  1.00  0.00     0.202 C 
BRANCH  78  79
ATOM     79  C   UNL A   1      33.296  31.745  27.892  1.00  0.00     0.261 C 
BRANCH  79  80
ATOM     80  O   UNL A   1      34.108  32.926  27.892  1.00  0.00    -0.460 OA
BRANCH  80  81
ATOM     81  C   UNL A   1      34.204  33.607  29.060  1.00  0.00     0.338 C 
ATOM     82  O   UNL A   1      33.331  34.242  29.631  1.00  0.00    -0.246 OA
BRANCH  81  83
ATOM     83  C   UNL A   1      35.546  33.349  29.627  1.00  0.00     0.061 A 
ATOM     84  C   UNL A   1      36.606  34.098  29.133  1.00  0.00     0.019 A 
ATOM     85  C   UNL A   1      35.750  32.350  30.616  1.00  0.00     0.038 A 
ATOM     86  C   UNL A   1      37.852  33.852  29.663  1.00  0.00    -0.043 A 
ATOM     87  C   UNL A   1      37.043  32.062  31.106  1.00  0.00     0.092 A 
ATOM     88  C   UNL A   1      38.090  32.816  30.595  1.00  0.00    -0.024 A 
ATOM     89  C   UNL A   1      39.101  34.634  29.386  1.00  0.00     0.036 C 
ATOM     90  C   UNL A   1      39.565  32.770  30.842  1.00  0.00     0.037 C 
ATOM     91  C   UNL A   1      39.899  34.252  30.632  1.00  0.00     0.010 C 
BRANCH  87  92
ATOM     92  S   UNL A   1      37.289  30.617  32.127  1.00  0.00     0.262 S 
ATOM     93  O   UNL A   1      36.251  29.666  31.772  1.00  0.00    -0.201 OA
ATOM     94  O   UNL A   1      38.675  30.228  31.983  1.00  0.00    -0.201 OA
BRANCH  92  95
ATOM     95  N   UNL A   1      37.066  30.897  33.803  1.00  0.00    -0.277 N 
ATOM     96  H   UNL A   1      36.353  30.412  34.276  1.00  0.00     0.180 HD
BRANCH  95  97
ATOM     97  C   UNL A   1      37.888  31.818  34.540  1.00  0.00     0.075 A 
ATOM     98  C   UNL A   1      39.025  31.324  35.205  1.00  0.00     0.042 A 
ATOM     99  C   UNL A   1      37.658  33.200  34.512  1.00  0.00     0.089 A 
ATOM    100  C   UNL A   1      39.985  32.202  35.749  1.00  0.00     0.058 A 
ATOM    101  C   UNL A   1      38.600  34.081  35.065  1.00  0.00     0.031 A 
ATOM    102  C   UNL A   1      39.751  33.584  35.683  1.00  0.00     0.015 A 
BRANCH  99 103
ATOM    103  N   UNL A   1      36.504  33.740  33.896  1.00  0.00    -0.239 N 
ATOM    104  C   UNL A   1      36.405  34.895  33.152  1.00  0.00     0.115 A 
ATOM    105  N   UNL A   1      35.287  33.181  34.106  1.00  0.00    -0.177 NA
ATOM    106  C   UNL A   1      35.067  35.186  33.047  1.00  0.00     0.042 A 
ATOM    107  C   UNL A   1      34.426  34.111  33.682  1.00  0.00     0.135 A 
ENDBRANCH  99 103
BRANCH 100 108
ATOM    108  C   UNL A   1      41.284  31.666  36.312  1.00  0.00     0.416 C 
ATOM    109  F   UNL A   1      41.462  31.986  37.621  1.00  0.00    -0.166 F 
ATOM    110  F   UNL A   1      41.350  30.307  36.242  1.00  0.00    -0.166 F 
ATOM    111  F   UNL A   1      42.386  32.120  35.655  1.00  0.00    -0.166 F 
ENDBRANCH 100 108
ENDBRANCH  95  97
ENDBRANCH  92  95
ENDBRANCH  87  92
ENDBRANCH  81  83
ENDBRANCH  80  81
ENDBRANCH  79  80
ENDBRANCH  78  79
ENDBRANCH  77  78
ENDBRANCH  76  77
ENDBRANCH   1  76
TORSDOF 25
ENDMDL
MODEL 2
REMARK VINA RESULT:      -9.8      3.060      5.909
REMARK SMILES O=C(OCCOCCOCCOCCOC(=O)c1cc2c(c(S(=O)(=O)Nc3cc(C(F)(F)F)ccc3-n3cccn3)c1)CCC2)c1ccc(-c2c3nc(c(-c4c(F)c(F)c(F)c(F)c4F)c4ccc([nH]4)c(-c4c(F)c(F)c(F)c(F)c4F)c4nc(c(-c5c(F)c(F)c(F)c(F)c5F)c5ccc2[nH]5)C=C4)C=C3)cc1
REMARK SMILES IDX 10 1 9 2 8 3 7 4 6 5 5 6 4 7 3 8 2 9 1 10 46 11 47 12 108 13
REMARK SMILES IDX 48 14 107 15 49 16 50 17 51 18 101 19 52 20 106 21 100 22
REMARK SMILES IDX 102 23 53 24 105 25 99 26 98 27 54 29 86 30 66 31 85 32
REMARK SMILES IDX 67 33 70 34 84 35 103 36 68 37 69 38 83 40 104 41 71 42
REMARK SMILES IDX 55 43 56 44 64 45 57 46 58 47 62 48 65 49 59 50 60 51 63 52
REMARK SMILES IDX 61 53 87 54 88 55 96 56 89 57 90 58 94 59 97 60 91 61 92 62
REMARK SMILES IDX 95 63 93 64 72 65 73 66 81 67 74 68 75 69 79 70 82 71 76 72
REMARK SMILES IDX 77 73 80 74 78 75 11 76 12 77 13 78 14 79 15 80 16 81 17 82
REMARK SMILES IDX 18 83 19 84 42 85 20 86 22 87 21 88 45 89 43 90 44 91 23 92
REMARK SMILES IDX 24 93 25 94 26 95 27 97 28 98 36 99 29 100 35 101 34 102
REMARK SMILES IDX 37 103 38 104 41 105 39 106 40 107 30 108 31 109 32 110
REMARK SMILES IDX 33 111
REMARK H PARENT 102 28 70 39 26 96
REMARK Flexibility Score: inf
ROOT
ATOM      1  C   UNL A   1      32.814  25.633  24.518  1.00  0.00     0.188 C 
ENDROOT
BRANCH   1   2
ATOM      2  O   UNL A   1      33.611  24.528  24.869  1.00  0.00    -0.377 OA
BRANCH   2   3
ATOM      3  C   UNL A   1      33.087  23.282  24.444  1.00  0.00     0.188 C 
BRANCH   3   4
ATOM      4  C   UNL A   1      34.077  22.109  24.317  1.00  0.00     0.188 C 
BRANCH   4   5
ATOM      5  O   UNL A   1      35.202  21.809  25.139  1.00  0.00    -0.376 OA
BRANCH   5   6
ATOM      6  C   UNL A   1      36.538  22.246  25.037  1.00  0.00     0.202 C 
BRANCH   6   7
ATOM      7  C   UNL A   1      37.704  21.279  25.235  1.00  0.00     0.261 C 
BRANCH   7   8
ATOM      8  O   UNL A   1      38.693  21.691  26.169  1.00  0.00    -0.460 OA
BRANCH   8   9
ATOM      9  C   UNL A   1      39.972  21.282  26.273  1.00  0.00     0.338 C 
ATOM     10  O   UNL A   1      40.190  20.073  26.352  1.00  0.00    -0.246 OA
BRANCH   9  11
ATOM     11  C   UNL A   1      41.146  22.190  26.355  1.00  0.00     0.060 A 
ATOM     12  C   UNL A   1      42.484  21.824  26.204  1.00  0.00     0.016 A 
ATOM     13  C   UNL A   1      40.835  23.519  26.704  1.00  0.00     0.016 A 
ATOM     14  C   UNL A   1      43.481  22.679  26.615  1.00  0.00     0.010 A 
ATOM     15  C   UNL A   1      41.827  24.391  27.093  1.00  0.00     0.010 A 
ATOM     16  C   UNL A   1      43.127  23.913  27.145  1.00  0.00    -0.014 A 
BRANCH  16  17
ATOM     17  C   UNL A   1      44.181  24.676  27.769  1.00  0.00     0.031 A 
ATOM     18  C   UNL A   1      44.201  24.572  29.242  1.00  0.00     0.074 A 
ATOM     19  C   UNL A   1      45.036  25.384  27.007  1.00  0.00     0.049 A 
ATOM     20  N   UNL A   1      44.019  25.517  30.104  1.00  0.00    -0.248 NA
ATOM     21  C   UNL A   1      44.258  23.223  29.829  1.00  0.00     0.031 C 
ATOM     22  C   UNL A   1      45.173  25.348  25.547  1.00  0.00     0.029 A 
ATOM     23  N   UNL A   1      46.042  26.213  27.386  1.00  0.00    -0.354 N 
ATOM     24  C   UNL A   1      44.155  24.914  31.350  1.00  0.00     0.074 A 
ATOM     25  C   UNL A   1      44.105  23.496  31.124  1.00  0.00     0.031 C 
ATOM     26  C   UNL A   1      46.348  25.915  25.197  1.00  0.00     0.029 A 
ATOM     27  C   UNL A   1      46.975  26.458  26.387  1.00  0.00     0.049 A 
ATOM     28  H   UNL A   1      46.104  26.606  28.286  1.00  0.00     0.167 HD
ATOM     29  C   UNL A   1      44.620  25.638  32.405  1.00  0.00     0.037 A 
ATOM     30  C   UNL A   1      48.217  26.970  26.572  1.00  0.00     0.037 A 
ATOM     31  C   UNL A   1      44.367  27.047  32.203  1.00  0.00     0.049 A 
ATOM     32  C   UNL A   1      48.219  27.654  27.892  1.00  0.00     0.074 A 
ATOM     33  C   UNL A   1      43.235  27.814  32.001  1.00  0.00     0.029 A 
ATOM     34  N   UNL A   1      45.422  27.845  31.831  1.00  0.00    -0.354 N 
ATOM     35  N   UNL A   1      47.553  28.748  28.142  1.00  0.00    -0.248 NA
ATOM     36  C   UNL A   1      48.579  26.866  29.063  1.00  0.00     0.031 C 
ATOM     37  C   UNL A   1      43.633  28.841  31.092  1.00  0.00     0.029 A 
ATOM     38  C   UNL A   1      44.995  28.680  30.836  1.00  0.00     0.049 A 
ATOM     39  H   UNL A   1      46.328  27.820  32.214  1.00  0.00     0.167 HD
ATOM     40  C   UNL A   1      47.034  28.563  29.415  1.00  0.00     0.074 A 
ATOM     41  C   UNL A   1      47.772  27.431  29.967  1.00  0.00     0.031 C 
ATOM     42  C   UNL A   1      45.857  29.154  29.780  1.00  0.00     0.037 A 
BRANCH  29  43
ATOM     43  C   UNL A   1      45.730  25.136  33.316  1.00  0.00     0.064 A 
ATOM     44  C   UNL A   1      45.457  25.045  34.697  1.00  0.00     0.173 A 
ATOM     45  C   UNL A   1      47.100  25.099  32.972  1.00  0.00     0.173 A 
ATOM     46  F   UNL A   1      44.193  25.032  35.146  1.00  0.00    -0.203 F 
ATOM     47  C   UNL A   1      46.473  25.099  35.655  1.00  0.00     0.198 A 
ATOM     48  C   UNL A   1      48.111  25.110  33.931  1.00  0.00     0.198 A 
ATOM     49  F   UNL A   1      47.539  25.145  31.712  1.00  0.00    -0.203 F 
ATOM     50  F   UNL A   1      46.155  25.186  36.952  1.00  0.00    -0.200 F 
ATOM     51  C   UNL A   1      47.798  25.159  35.270  1.00  0.00     0.200 A 
ATOM     52  F   UNL A   1      49.391  25.165  33.534  1.00  0.00    -0.200 F 
ATOM     53  F   UNL A   1      48.768  25.306  36.181  1.00  0.00    -0.200 F 
ENDBRANCH  29  43
BRANCH  30  54
ATOM     54  C   UNL A   1      49.462  26.593  25.860  1.00  0.00     0.064 A 
ATOM     55  C   UNL A   1      49.890  27.308  24.731  1.00  0.00     0.173 A 
ATOM     56  C   UNL A   1      50.395  25.695  26.419  1.00  0.00     0.173 A 
ATOM     57  F   UNL A   1      49.084  28.219  24.165  1.00  0.00    -0.203 F 
ATOM     58  C   UNL A   1      51.178  27.151  24.207  1.00  0.00     0.198 A 
ATOM     59  C   UNL A   1      51.674  25.530  25.887  1.00  0.00     0.198 A 
ATOM     60  F   UNL A   1      50.124  25.027  27.549  1.00  0.00    -0.203 F 
ATOM     61  F   UNL A   1      51.571  27.900  23.167  1.00  0.00    -0.200 F 
ATOM     62  C   UNL A   1      52.071  26.268  24.790  1.00  0.00     0.200 A 
ATOM     63  F   UNL A   1      52.539  24.698  26.485  1.00  0.00    -0.200 F 
ATOM     64  F   UNL A   1      53.323  26.160  24.323  1.00  0.00    -0.200 F 
ENDBRANCH  30  54
BRANCH  42  65
ATOM     65  C   UNL A   1      45.311  30.229  28.887  1.00  0.00     0.064 A 
ATOM     66  C   UNL A   1      45.749  31.565  28.905  1.00  0.00     0.173 A 
ATOM     67  C   UNL A   1      44.397  29.861  27.893  1.00  0.00     0.173 A 
ATOM     68  F   UNL A   1      46.702  31.967  29.755  1.00  0.00    -0.203 F 
ATOM     69  C   UNL A   1      45.246  32.498  28.001  1.00  0.00     0.198 A 
ATOM     70  C   UNL A   1      43.926  30.785  26.967  1.00  0.00     0.198 A 
ATOM     71  F   UNL A   1      43.989  28.585  27.793  1.00  0.00    -0.203 F 
ATOM     72  F   UNL A   1      45.664  33.772  28.047  1.00  0.00    -0.200 F 
ATOM     73  C   UNL A   1      44.340  32.107  27.030  1.00  0.00     0.200 A 
ATOM     74  F   UNL A   1      43.089  30.390  25.997  1.00  0.00    -0.200 F 
ATOM     75  F   UNL A   1      43.885  32.995  26.134  1.00  0.00    -0.200 F 
ENDBRANCH  42  65
ENDBRANCH  16  17
ENDBRANCH   9  11
ENDBRANCH   8   9
ENDBRANCH   7   8
ENDBRANCH   6   7
ENDBRANCH   5   6
ENDBRANCH   4   5
ENDBRANCH   3   4
ENDBRANCH   2   3
ENDBRANCH   1   2
BRANCH   1  76
ATOM     76  C   UNL A   1      33.446  26.991  24.889  1.00  0.00     0.188 C 
BRANCH  76  77
ATOM     77  O   UNL A   1      32.726  28.206  24.735  1.00  0.00    -0.376 OA
BRANCH  77  78
ATOM     78  C   UNL A   1      32.738  29.195  25.751  1.00  0.00     0.202 C 
BRANCH  78  79
ATOM     79  C   UNL A   1      33.703  29.091  26.941  1.00  0.00     0.261 C 
BRANCH  79  80
ATOM     80  O   UNL A   1      34.963  29.762  26.802  1.00  0.00    -0.460 OA
BRANCH  80  81
ATOM     81  C   UNL A   1      35.308  30.632  27.782  1.00  0.00     0.338 C 
ATOM     82  O   UNL A   1      34.775  31.695  28.060  1.00  0.00    -0.246 OA
BRANCH  81  83
ATOM     83  C   UNL A   1      36.392  30.016  28.576  1.00  0.00     0.061 A 
ATOM     84  C   UNL A   1      37.295  29.201  27.905  1.00  0.00     0.019 A 
ATOM     85  C   UNL A   1      36.490  30.222  29.978  1.00  0.00     0.038 A 
ATOM     86  C   UNL A   1      38.301  28.629  28.650  1.00  0.00    -0.043 A 
ATOM     87  C   UNL A   1      37.488  29.578  30.742  1.00  0.00     0.092 A 
ATOM     88  C   UNL A   1      38.376  28.761  30.055  1.00  0.00    -0.024 A 
ATOM     89  C   UNL A   1      39.458  27.839  28.115  1.00  0.00     0.036 C 
ATOM     90  C   UNL A   1      39.512  27.908  30.523  1.00  0.00     0.037 C 
ATOM     91  C   UNL A   1      40.419  28.004  29.290  1.00  0.00     0.010 C 
BRANCH  87  92
ATOM     92  S   UNL A   1      37.398  29.637  32.525  1.00  0.00     0.262 S 
ATOM     93  O   UNL A   1      36.182  30.355  32.865  1.00  0.00    -0.201 OA
ATOM     94  O   UNL A   1      37.568  28.282  33.004  1.00  0.00    -0.201 OA
BRANCH  92  95
ATOM     95  N   UNL A   1      38.655  30.541  33.261  1.00  0.00    -0.277 N 
ATOM     96  H   UNL A   1      39.232  30.099  33.924  1.00  0.00     0.180 HD
BRANCH  95  97
ATOM     97  C   UNL A   1      38.893  31.921  32.940  1.00  0.00     0.075 A 
ATOM     98  C   UNL A   1      39.118  32.272  31.596  1.00  0.00     0.042 A 
ATOM     99  C   UNL A   1      38.786  32.933  33.903  1.00  0.00     0.089 A 
ATOM    100  C   UNL A   1      39.132  33.624  31.193  1.00  0.00     0.058 A 
ATOM    101  C   UNL A   1      38.816  34.281  33.513  1.00  0.00     0.031 A 
ATOM    102  C   UNL A   1      38.992  34.622  32.169  1.00  0.00     0.015 A 
BRANCH  99 103
ATOM    103  N   UNL A   1      38.607  32.627  35.273  1.00  0.00    -0.239 N 
ATOM    104  C   UNL A   1      39.410  32.990  36.332  1.00  0.00     0.115 A 
ATOM    105  N   UNL A   1      37.618  31.789  35.667  1.00  0.00    -0.177 NA
ATOM    106  C   UNL A   1      39.039  32.208  37.398  1.00  0.00     0.042 A 
ATOM    107  C   UNL A   1      37.950  31.463  36.921  1.00  0.00     0.135 A 
ENDBRANCH  99 103
BRANCH 100 108
ATOM    108  C   UNL A   1      39.206  33.985  29.725  1.00  0.00     0.416 C 
ATOM    109  F   UNL A   1      40.478  33.985  29.247  1.00  0.00    -0.166 F 
ATOM    110  F   UNL A   1      38.509  33.111  28.946  1.00  0.00    -0.166 F 
ATOM    111  F   UNL A   1      38.694  35.215  29.444  1.00  0.00    -0.166 F 
ENDBRANCH 100 108
ENDBRANCH  95  97
ENDBRANCH  92  95
ENDBRANCH  87  92
ENDBRANCH  81  83
ENDBRANCH  80  81
ENDBRANCH  79  80
ENDBRANCH  78  79
ENDBRANCH  77  78
ENDBRANCH  76  77
ENDBRANCH   1  76
TORSDOF 25
ENDMDL
MODEL 3
REMARK VINA RESULT:      -9.8      3.494      6.403
REMARK SMILES O=C(OCCOCCOCCOCCOC(=O)c1cc2c(c(S(=O)(=O)Nc3cc(C(F)(F)F)ccc3-n3cccn3)c1)CCC2)c1ccc(-c2c3nc(c(-c4c(F)c(F)c(F)c(F)c4F)c4ccc([nH]4)c(-c4c(F)c(F)c(F)c(F)c4F)c4nc(c(-c5c(F)c(F)c(F)c(F)c5F)c5ccc2[nH]5)C=C4)C=C3)cc1
REMARK SMILES IDX 10 1 9 2 8 3 7 4 6 5 5 6 4 7 3 8 2 9 1 10 46 11 47 12 108 13
REMARK SMILES IDX 48 14 107 15 49 16 50 17 51 18 101 19 52 20 106 21 100 22
REMARK SMILES IDX 102 23 53 24 105 25 99 26 98 27 54 29 86 30 66 31 85 32
REMARK SMILES IDX 67 33 70 34 84 35 103 36 68 37 69 38 83 40 104 41 71 42
REMARK SMILES IDX 55 43 56 44 64 45 57 46 58 47 62 48 65 49 59 50 60 51 63 52
REMARK SMILES IDX 61 53 87 54 88 55 96 56 89 57 90 58 94 59 97 60 91 61 92 62
REMARK SMILES IDX 95 63 93 64 72 65 73 66 81 67 74 68 75 69 79 70 82 71 76 72
REMARK SMILES IDX 77 73 80 74 78 75 11 76 12 77 13 78 14 79 15 80 16 81 17 82
REMARK SMILES IDX 18 83 19 84 42 85 20 86 22 87 21 88 45 89 43 90 44 91 23 92
REMARK SMILES IDX 24 93 25 94 26 95 27 97 28 98 36 99 29 100 35 101 34 102
REMARK SMILES IDX 37 103 38 104 41 105 39 106 40 107 30 108 31 109 32 110
REMARK SMILES IDX 33 111
REMARK H PARENT 102 28 70 39 26 96
REMARK Flexibility Score: inf
ROOT
ATOM      1  C   UNL A   1      32.848  25.034  24.101  1.00  0.00     0.188 C 
ENDROOT
BRANCH   1   2
ATOM      2  O   UNL A   1      33.810  24.100  24.530  1.00  0.00    -0.377 OA
BRANCH   2   3
ATOM      3  C   UNL A   1      33.353  22.759  24.524  1.00  0.00     0.188 C 
BRANCH   3   4
ATOM      4  C   UNL A   1      34.409  21.655  24.723  1.00  0.00     0.188 C 
BRANCH   4   5
ATOM      5  O   UNL A   1      35.572  21.683  25.545  1.00  0.00    -0.376 OA
BRANCH   5   6
ATOM      6  C   UNL A   1      36.843  22.241  25.295  1.00  0.00     0.202 C 
BRANCH   6   7
ATOM      7  C   UNL A   1      38.100  21.374  25.292  1.00  0.00     0.261 C 
BRANCH   7   8
ATOM      8  O   UNL A   1      39.072  21.695  26.279  1.00  0.00    -0.460 OA
BRANCH   8   9
ATOM      9  C   UNL A   1      40.370  21.340  26.326  1.00  0.00     0.338 C 
ATOM     10  O   UNL A   1      40.646  20.140  26.275  1.00  0.00    -0.246 OA
BRANCH   9  11
ATOM     11  C   UNL A   1      41.501  22.289  26.492  1.00  0.00     0.060 A 
ATOM     12  C   UNL A   1      42.858  21.983  26.388  1.00  0.00     0.016 A 
ATOM     13  C   UNL A   1      41.121  23.592  26.872  1.00  0.00     0.016 A 
ATOM     14  C   UNL A   1      43.800  22.861  26.872  1.00  0.00     0.010 A 
ATOM     15  C   UNL A   1      42.058  24.488  27.334  1.00  0.00     0.010 A 
ATOM     16  C   UNL A   1      43.373  24.060  27.427  1.00  0.00    -0.014 A 
BRANCH  16  17
ATOM     17  C   UNL A   1      44.368  24.841  28.124  1.00  0.00     0.031 A 
ATOM     18  C   UNL A   1      44.351  24.658  29.589  1.00  0.00     0.074 A 
ATOM     19  C   UNL A   1      45.205  25.632  27.428  1.00  0.00     0.049 A 
ATOM     20  N   UNL A   1      44.095  25.543  30.494  1.00  0.00    -0.248 NA
ATOM     21  C   UNL A   1      44.464  23.283  30.105  1.00  0.00     0.031 C 
ATOM     22  C   UNL A   1      45.385  25.684  25.973  1.00  0.00     0.029 A 
ATOM     23  N   UNL A   1      46.154  26.490  27.881  1.00  0.00    -0.354 N 
ATOM     24  C   UNL A   1      44.228  24.880  31.710  1.00  0.00     0.074 A 
ATOM     25  C   UNL A   1      44.259  23.476  31.407  1.00  0.00     0.031 C 
ATOM     26  C   UNL A   1      46.538  26.328  25.690  1.00  0.00     0.029 A 
ATOM     27  C   UNL A   1      47.101  26.837  26.927  1.00  0.00     0.049 A 
ATOM     28  H   UNL A   1      46.169  26.836  28.803  1.00  0.00     0.167 HD
ATOM     29  C   UNL A   1      44.623  25.569  32.816  1.00  0.00     0.037 A 
ATOM     30  C   UNL A   1      48.308  27.401  27.177  1.00  0.00     0.037 A 
ATOM     31  C   UNL A   1      44.302  26.972  32.682  1.00  0.00     0.049 A 
ATOM     32  C   UNL A   1      48.237  28.012  28.531  1.00  0.00     0.074 A 
ATOM     33  C   UNL A   1      43.137  27.690  32.486  1.00  0.00     0.029 A 
ATOM     34  N   UNL A   1      45.323  27.842  32.385  1.00  0.00    -0.354 N 
ATOM     35  N   UNL A   1      47.507  29.054  28.817  1.00  0.00    -0.248 NA
ATOM     36  C   UNL A   1      48.604  27.180  29.669  1.00  0.00     0.031 C 
ATOM     37  C   UNL A   1      43.505  28.784  31.645  1.00  0.00     0.029 A 
ATOM     38  C   UNL A   1      44.880  28.707  31.423  1.00  0.00     0.049 A 
ATOM     39  H   UNL A   1      46.218  27.843  32.794  1.00  0.00     0.167 HD
ATOM     40  C   UNL A   1      46.962  28.774  30.062  1.00  0.00     0.074 A 
ATOM     41  C   UNL A   1      47.743  27.653  30.576  1.00  0.00     0.031 C 
ATOM     42  C   UNL A   1      45.746  29.282  30.422  1.00  0.00     0.037 A 
BRANCH  29  43
ATOM     43  C   UNL A   1      45.732  25.076  33.733  1.00  0.00     0.064 A 
ATOM     44  C   UNL A   1      45.373  24.646  35.028  1.00  0.00     0.173 A 
ATOM     45  C   UNL A   1      47.107  25.343  33.551  1.00  0.00     0.173 A 
ATOM     46  F   UNL A   1      44.102  24.326  35.315  1.00  0.00    -0.203 F 
ATOM     47  C   UNL A   1      46.281  24.662  36.089  1.00  0.00     0.198 A 
ATOM     48  C   UNL A   1      48.019  25.316  34.604  1.00  0.00     0.198 A 
ATOM     49  F   UNL A   1      47.628  25.731  32.384  1.00  0.00    -0.203 F 
ATOM     50  F   UNL A   1      45.851  24.413  37.332  1.00  0.00    -0.200 F 
ATOM     51  C   UNL A   1      47.598  25.023  35.880  1.00  0.00     0.200 A 
ATOM     52  F   UNL A   1      49.293  25.668  34.378  1.00  0.00    -0.200 F 
ATOM     53  F   UNL A   1      48.448  25.131  36.909  1.00  0.00    -0.200 F 
ENDBRANCH  29  43
BRANCH  30  54
ATOM     54  C   UNL A   1      49.591  27.129  26.485  1.00  0.00     0.064 A 
ATOM     55  C   UNL A   1      50.413  28.181  26.052  1.00  0.00     0.173 A 
ATOM     56  C   UNL A   1      50.165  25.841  26.464  1.00  0.00     0.173 A 
ATOM     57  F   UNL A   1      49.964  29.444  26.086  1.00  0.00    -0.203 F 
ATOM     58  C   UNL A   1      51.734  27.961  25.646  1.00  0.00     0.198 A 
ATOM     59  C   UNL A   1      51.477  25.621  26.046  1.00  0.00     0.198 A 
ATOM     60  F   UNL A   1      49.501  24.778  26.938  1.00  0.00    -0.203 F 
ATOM     61  F   UNL A   1      52.508  29.000  25.301  1.00  0.00    -0.200 F 
ATOM     62  C   UNL A   1      52.266  26.683  25.649  1.00  0.00     0.200 A 
ATOM     63  F   UNL A   1      51.990  24.383  26.090  1.00  0.00    -0.200 F 
ATOM     64  F   UNL A   1      53.549  26.480  25.315  1.00  0.00    -0.200 F 
ENDBRANCH  30  54
BRANCH  42  65
ATOM     65  C   UNL A   1      45.169  30.375  29.570  1.00  0.00     0.064 A 
ATOM     66  C   UNL A   1      45.467  31.739  29.732  1.00  0.00     0.173 A 
ATOM     67  C   UNL A   1      44.380  30.010  28.473  1.00  0.00     0.173 A 
ATOM     68  F   UNL A   1      46.302  32.154  30.693  1.00  0.00    -0.203 F 
ATOM     69  C   UNL A   1      44.948  32.697  28.863  1.00  0.00     0.198 A 
ATOM     70  C   UNL A   1      43.896  30.964  27.584  1.00  0.00     0.198 A 
ATOM     71  F   UNL A   1      44.113  28.716  28.236  1.00  0.00    -0.203 F 
ATOM     72  F   UNL A   1      45.230  33.995  29.046  1.00  0.00    -0.200 F 
ATOM     73  C   UNL A   1      44.168  32.308  27.787  1.00  0.00     0.200 A 
ATOM     74  F   UNL A   1      43.185  30.578  26.515  1.00  0.00    -0.200 F 
ATOM     75  F   UNL A   1      43.701  33.224  26.927  1.00  0.00    -0.200 F 
ENDBRANCH  42  65
ENDBRANCH  16  17
ENDBRANCH   9  11
ENDBRANCH   8   9
ENDBRANCH   7   8
ENDBRANCH   6   7
ENDBRANCH   5   6
ENDBRANCH   4   5
ENDBRANCH   3   4
ENDBRANCH   2   3
ENDBRANCH   1   2
BRANCH   1  76
ATOM     76  C   UNL A   1      33.396  26.471  23.977  1.00  0.00     0.188 C 
BRANCH  76  77
ATOM     77  O   UNL A   1      32.560  27.600  24.186  1.00  0.00    -0.376 OA
BRANCH  77  78
ATOM     78  C   UNL A   1      32.919  28.611  25.114  1.00  0.00     0.202 C 
BRANCH  78  79
ATOM     79  C   UNL A   1      33.583  28.255  26.452  1.00  0.00     0.261 C 
BRANCH  79  80
ATOM     80  O   UNL A   1      34.846  28.876  26.723  1.00  0.00    -0.460 OA
BRANCH  80  81
ATOM     81  C   UNL A   1      34.826  30.017  27.454  1.00  0.00     0.338 C 
ATOM     82  O   UNL A   1      33.887  30.778  27.629  1.00  0.00    -0.246 OA
BRANCH  81  83
ATOM     83  C   UNL A   1      36.131  30.141  28.140  1.00  0.00     0.061 A 
ATOM     84  C   UNL A   1      37.132  29.248  27.778  1.00  0.00     0.019 A 
ATOM     85  C   UNL A   1      36.344  31.113  29.153  1.00  0.00     0.038 A 
ATOM     86  C   UNL A   1      38.343  29.367  28.421  1.00  0.00    -0.043 A 
ATOM     87  C   UNL A   1      37.569  31.182  29.850  1.00  0.00     0.092 A 
ATOM     88  C   UNL A   1      38.555  30.278  29.480  1.00  0.00    -0.024 A 
ATOM     89  C   UNL A   1      39.597  28.613  28.091  1.00  0.00     0.036 C 
ATOM     90  C   UNL A   1      39.934  30.034  30.008  1.00  0.00     0.037 C 
ATOM     91  C   UNL A   1      40.615  29.565  28.716  1.00  0.00     0.010 C 
BRANCH  87  92
ATOM     92  S   UNL A   1      37.693  32.220  31.299  1.00  0.00     0.262 S 
ATOM     93  O   UNL A   1      38.511  31.507  32.264  1.00  0.00    -0.201 OA
ATOM     94  O   UNL A   1      38.120  33.528  30.849  1.00  0.00    -0.201 OA
BRANCH  92  95
ATOM     95  N   UNL A   1      36.202  32.481  32.104  1.00  0.00    -0.277 N 
ATOM     96  H   UNL A   1      35.725  31.709  32.485  1.00  0.00     0.180 HD
BRANCH  95  97
ATOM     97  C   UNL A   1      35.625  33.791  32.239  1.00  0.00     0.075 A 
ATOM     98  C   UNL A   1      34.730  34.240  31.251  1.00  0.00     0.042 A 
ATOM     99  C   UNL A   1      35.834  34.575  33.382  1.00  0.00     0.089 A 
ATOM    100  C   UNL A   1      33.966  35.410  31.444  1.00  0.00     0.058 A 
ATOM    101  C   UNL A   1      35.090  35.750  33.574  1.00  0.00     0.031 A 
ATOM    102  C   UNL A   1      34.167  36.164  32.609  1.00  0.00     0.015 A 
BRANCH  99 103
ATOM    103  N   UNL A   1      36.760  34.188  34.380  1.00  0.00    -0.239 N 
ATOM    104  C   UNL A   1      36.492  33.629  35.610  1.00  0.00     0.115 A 
ATOM    105  N   UNL A   1      38.079  34.467  34.240  1.00  0.00    -0.177 NA
ATOM    106  C   UNL A   1      37.643  33.732  36.352  1.00  0.00     0.042 A 
ATOM    107  C   UNL A   1      38.580  34.286  35.466  1.00  0.00     0.135 A 
ENDBRANCH  99 103
BRANCH 100 108
ATOM    108  C   UNL A   1      32.887  35.792  30.454  1.00  0.00     0.416 C 
ATOM    109  F   UNL A   1      33.220  36.875  29.704  1.00  0.00    -0.166 F 
ATOM    110  F   UNL A   1      32.621  34.788  29.572  1.00  0.00    -0.166 F 
ATOM    111  F   UNL A   1      31.695  36.088  31.041  1.00  0.00    -0.166 F 
ENDBRANCH 100 108
ENDBRANCH  95  97
ENDBRANCH  92  95
ENDBRANCH  87  92
ENDBRANCH  81  83
ENDBRANCH  80  81
ENDBRANCH  79  80
ENDBRANCH  78  79
ENDBRANCH  77  78
ENDBRANCH  76  77
ENDBRANCH   1  76
TORSDOF 25
ENDMDL
