MODEL 1
REMARK VINA RESULT:     -10.8      0.000      0.000
REMARK SMILES Cc1ccc2ncc(/C=C/c3cc(C(=O)OCCOCCOCCOCCOC(=O)c4ccc(-c5c6nc(c(-c7c(F)c(F)c(F)c(F)c7F)c7ccc([nH]7)c(-c7c(F)c(F)c(F)c(F)c7F)c7nc(c(-c8c(F)c(F)c(F)c(F)c8F)c8ccc5[nH]8)C=C7)C=C6)cc4)ncn3)n2c1
REMARK SMILES IDX 22 1 21 2 20 3 19 4 18 5 17 6 16 7 14 8 15 9 13 10 11 11
REMARK SMILES IDX 12 12 96 13 95 14 94 15 10 16 9 17 8 18 1 19 2 20 3 21 98 22
REMARK SMILES IDX 4 23 97 24 5 25 6 26 7 27 23 28 24 29 25 30 26 31 27 32
REMARK SMILES IDX 28 33 29 34 30 35 31 36 32 37 93 38 33 39 92 40 34 41 35 42
REMARK SMILES IDX 36 43 86 44 37 45 91 46 85 47 87 48 38 49 90 50 84 51 83 52
REMARK SMILES IDX 39 54 71 55 51 56 70 57 52 58 55 59 69 60 88 61 53 62 54 63
REMARK SMILES IDX 68 65 89 66 56 67 40 68 41 69 49 70 42 71 43 72 47 73 50 74
REMARK SMILES IDX 44 75 45 76 48 77 46 78 72 79 73 80 81 81 74 82 75 83 79 84
REMARK SMILES IDX 82 85 76 86 77 87 80 88 78 89 57 90 58 91 66 92 59 93 60 94
REMARK SMILES IDX 64 95 67 96 61 97 62 98 65 99 63 100
REMARK H PARENT 87 53 55 64
REMARK Flexibility Score: inf
ROOT
ATOM      1  O   UNL A   1      42.644  20.044  26.641  1.00  0.00    -0.377 OA
ENDROOT
BRANCH   1   2
ATOM      2  C   UNL A   1      41.280  20.207  26.975  1.00  0.00     0.188 C 
BRANCH   2   3
ATOM      3  C   UNL A   1      40.998  21.495  27.764  1.00  0.00     0.188 C 
BRANCH   3   4
ATOM      4  O   UNL A   1      40.494  22.555  26.974  1.00  0.00    -0.376 OA
BRANCH   4   5
ATOM      5  C   UNL A   1      39.730  23.627  27.501  1.00  0.00     0.202 C 
BRANCH   5   6
ATOM      6  C   UNL A   1      38.591  24.365  26.774  1.00  0.00     0.261 C 
BRANCH   6   7
ATOM      7  O   UNL A   1      38.122  23.821  25.547  1.00  0.00    -0.459 OA
BRANCH   7   8
ATOM      8  C   UNL A   1      37.333  22.722  25.612  1.00  0.00     0.357 C 
ATOM      9  O   UNL A   1      37.698  21.571  25.680  1.00  0.00    -0.244 OA
BRANCH   8  10
ATOM     10  C   UNL A   1      35.935  23.228  25.763  1.00  0.00     0.152 A 
ATOM     11  C   UNL A   1      34.190  24.639  25.154  1.00  0.00     0.067 A 
ATOM     12  C   UNL A   1      35.499  24.261  24.969  1.00  0.00     0.064 A 
ATOM     13  N   UNL A   1      33.420  24.153  26.146  1.00  0.00    -0.237 NA
ATOM     14  C   UNL A   1      33.970  23.189  26.900  1.00  0.00     0.223 A 
ATOM     15  N   UNL A   1      35.190  22.666  26.741  1.00  0.00    -0.229 NA
BRANCH  11  16
ATOM     16  C   UNL A   1      33.520  25.530  24.198  1.00  0.00     0.030 C 
ATOM     17  C   UNL A   1      32.386  26.141  24.572  1.00  0.00     0.030 C 
BRANCH  17  18
ATOM     18  C   UNL A   1      31.586  27.070  23.863  1.00  0.00     0.065 A 
ATOM     19  C   UNL A   1      31.507  31.368  26.520  1.00  0.00     0.046 C 
ATOM     20  C   UNL A   1      31.142  30.435  25.408  1.00  0.00    -0.034 A 
ATOM     21  C   UNL A   1      30.230  30.920  24.380  1.00  0.00     0.009 A 
ATOM     22  C   UNL A   1      31.602  29.172  25.315  1.00  0.00     0.096 A 
ATOM     23  C   UNL A   1      29.857  30.143  23.348  1.00  0.00     0.048 A 
ATOM     24  N   UNL A   1      31.248  28.368  24.226  1.00  0.00    -0.300 N 
ATOM     25  C   UNL A   1      30.372  28.823  23.231  1.00  0.00     0.137 A 
ATOM     26  N   UNL A   1      30.142  27.915  22.311  1.00  0.00    -0.236 NA
ATOM     27  C   UNL A   1      30.874  26.836  22.696  1.00  0.00     0.140 A 
ENDBRANCH  17  18
ENDBRANCH  11  16
ENDBRANCH   8  10
ENDBRANCH   7   8
ENDBRANCH   6   7
ENDBRANCH   5   6
ENDBRANCH   4   5
ENDBRANCH   3   4
ENDBRANCH   2   3
ENDBRANCH   1   2
BRANCH   1  28
ATOM     28  C   UNL A   1      42.957  19.127  25.596  1.00  0.00     0.188 C 
BRANCH  28  29
ATOM     29  C   UNL A   1      44.354  19.062  24.932  1.00  0.00     0.188 C 
BRANCH  29  30
ATOM     30  O   UNL A   1      44.648  20.205  24.144  1.00  0.00    -0.376 OA
BRANCH  30  31
ATOM     31  C   UNL A   1      45.703  21.047  24.587  1.00  0.00     0.202 C 
BRANCH  31  32
ATOM     32  C   UNL A   1      45.385  22.077  25.688  1.00  0.00     0.261 C 
BRANCH  32  33
ATOM     33  O   UNL A   1      44.911  23.345  25.199  1.00  0.00    -0.460 OA
BRANCH  33  34
ATOM     34  C   UNL A   1      43.579  23.578  25.122  1.00  0.00     0.338 C 
ATOM     35  O   UNL A   1      42.714  22.772  24.846  1.00  0.00    -0.246 OA
BRANCH  34  36
ATOM     36  C   UNL A   1      43.350  24.889  25.798  1.00  0.00     0.060 A 
ATOM     37  C   UNL A   1      44.042  25.259  26.957  1.00  0.00     0.016 A 
ATOM     38  C   UNL A   1      42.204  25.603  25.413  1.00  0.00     0.016 A 
ATOM     39  C   UNL A   1      43.519  26.267  27.772  1.00  0.00     0.010 A 
ATOM     40  C   UNL A   1      41.675  26.599  26.239  1.00  0.00     0.010 A 
ATOM     41  C   UNL A   1      42.309  26.916  27.441  1.00  0.00    -0.014 A 
BRANCH  41  42
ATOM     42  C   UNL A   1      41.919  28.095  28.239  1.00  0.00     0.031 A 
ATOM     43  C   UNL A   1      42.897  29.215  28.088  1.00  0.00     0.074 A 
ATOM     44  C   UNL A   1      40.763  28.329  28.905  1.00  0.00     0.049 A 
ATOM     45  N   UNL A   1      43.584  29.821  29.002  1.00  0.00    -0.248 NA
ATOM     46  C   UNL A   1      43.232  29.620  26.712  1.00  0.00     0.031 C 
ATOM     47  C   UNL A   1      39.543  27.522  28.928  1.00  0.00     0.029 A 
ATOM     48  N   UNL A   1      40.409  29.429  29.651  1.00  0.00    -0.354 N 
ATOM     49  C   UNL A   1      44.345  30.776  28.332  1.00  0.00     0.074 A 
ATOM     50  C   UNL A   1      44.186  30.524  26.925  1.00  0.00     0.031 C 
ATOM     51  C   UNL A   1      38.533  28.243  29.474  1.00  0.00     0.029 A 
ATOM     52  C   UNL A   1      39.050  29.520  29.942  1.00  0.00     0.049 A 
ATOM     53  H   UNL A   1      41.064  30.098  29.956  1.00  0.00     0.167 HD
ATOM     54  C   UNL A   1      44.910  31.833  28.973  1.00  0.00     0.037 A 
ATOM     55  C   UNL A   1      38.390  30.587  30.470  1.00  0.00     0.037 A 
ATOM     56  C   UNL A   1      45.022  31.607  30.386  1.00  0.00     0.049 A 
ATOM     57  C   UNL A   1      39.389  31.460  31.124  1.00  0.00     0.074 A 
ATOM     58  C   UNL A   1      45.706  30.711  31.183  1.00  0.00     0.029 A 
ATOM     59  N   UNL A   1      44.101  32.204  31.205  1.00  0.00    -0.354 N 
ATOM     60  N   UNL A   1      40.027  31.164  32.219  1.00  0.00    -0.248 NA
ATOM     61  C   UNL A   1      39.946  32.554  30.346  1.00  0.00     0.031 C 
ATOM     62  C   UNL A   1      44.852  30.479  32.301  1.00  0.00     0.029 A 
ATOM     63  C   UNL A   1      43.719  31.273  32.133  1.00  0.00     0.049 A 
ATOM     64  H   UNL A   1      43.776  33.131  31.140  1.00  0.00     0.167 HD
ATOM     65  C   UNL A   1      41.281  31.720  32.046  1.00  0.00     0.074 A 
ATOM     66  C   UNL A   1      41.140  32.652  30.934  1.00  0.00     0.031 C 
ATOM     67  C   UNL A   1      42.374  31.162  32.640  1.00  0.00     0.037 A 
BRANCH  54  68
ATOM     68  C   UNL A   1      45.051  33.203  28.360  1.00  0.00     0.064 A 
ATOM     69  C   UNL A   1      46.333  33.763  28.199  1.00  0.00     0.173 A 
ATOM     70  C   UNL A   1      43.970  34.099  28.207  1.00  0.00     0.173 A 
ATOM     71  F   UNL A   1      47.432  33.010  28.356  1.00  0.00    -0.203 F 
ATOM     72  C   UNL A   1      46.517  35.129  27.964  1.00  0.00     0.198 A 
ATOM     73  C   UNL A   1      44.156  35.448  27.918  1.00  0.00     0.198 A 
ATOM     74  F   UNL A   1      42.704  33.732  28.444  1.00  0.00    -0.203 F 
ATOM     75  F   UNL A   1      47.755  35.638  27.940  1.00  0.00    -0.200 F 
ATOM     76  C   UNL A   1      45.427  35.970  27.827  1.00  0.00     0.200 A 
ATOM     77  F   UNL A   1      43.087  36.251  27.812  1.00  0.00    -0.200 F 
ATOM     78  F   UNL A   1      45.602  37.287  27.660  1.00  0.00    -0.200 F 
ENDBRANCH  54  68
BRANCH  55  79
ATOM     79  C   UNL A   1      37.007  31.085  30.225  1.00  0.00     0.064 A 
ATOM     80  C   UNL A   1      36.168  31.464  31.293  1.00  0.00     0.173 A 
ATOM     81  C   UNL A   1      36.605  31.505  28.945  1.00  0.00     0.173 A 
ATOM     82  F   UNL A   1      36.491  31.145  32.555  1.00  0.00    -0.203 F 
ATOM     83  C   UNL A   1      35.028  32.253  31.094  1.00  0.00     0.198 A 
ATOM     84  C   UNL A   1      35.463  32.286  28.748  1.00  0.00     0.198 A 
ATOM     85  F   UNL A   1      37.369  31.258  27.872  1.00  0.00    -0.203 F 
ATOM     86  F   UNL A   1      34.302  32.660  32.145  1.00  0.00    -0.200 F 
ATOM     87  C   UNL A   1      34.686  32.676  29.821  1.00  0.00     0.200 A 
ATOM     88  F   UNL A   1      35.164  32.721  27.515  1.00  0.00    -0.200 F 
ATOM     89  F   UNL A   1      33.640  33.493  29.636  1.00  0.00    -0.200 F 
ENDBRANCH  55  79
BRANCH  67  90
ATOM     90  C   UNL A   1      42.141  30.162  33.734  1.00  0.00     0.064 A 
ATOM     91  C   UNL A   1      41.843  28.805  33.514  1.00  0.00     0.173 A 
ATOM     92  C   UNL A   1      42.372  30.568  35.056  1.00  0.00     0.173 A 
ATOM     93  F   UNL A   1      41.699  28.318  32.274  1.00  0.00    -0.203 F 
ATOM     94  C   UNL A   1      41.750  27.909  34.577  1.00  0.00     0.198 A 
ATOM     95  C   UNL A   1      42.317  29.663  36.109  1.00  0.00     0.198 A 
ATOM     96  F   UNL A   1      42.708  31.842  35.316  1.00  0.00    -0.203 F 
ATOM     97  F   UNL A   1      41.462  26.620  34.345  1.00  0.00    -0.200 F 
ATOM     98  C   UNL A   1      41.999  28.336  35.871  1.00  0.00     0.200 A 
ATOM     99  F   UNL A   1      42.608  30.070  37.353  1.00  0.00    -0.200 F 
ATOM    100  F   UNL A   1      41.965  27.461  36.887  1.00  0.00    -0.200 F 
ENDBRANCH  67  90
ENDBRANCH  41  42
ENDBRANCH  34  36
ENDBRANCH  33  34
ENDBRANCH  32  33
ENDBRANCH  31  32
ENDBRANCH  30  31
ENDBRANCH  29  30
ENDBRANCH  28  29
ENDBRANCH   1  28
TORSDOF 22
ENDMDL
MODEL 2
REMARK VINA RESULT:     -10.5      3.771      9.812
REMARK SMILES Cc1ccc2ncc(/C=C/c3cc(C(=O)OCCOCCOCCOCCOC(=O)c4ccc(-c5c6nc(c(-c7c(F)c(F)c(F)c(F)c7F)c7ccc([nH]7)c(-c7c(F)c(F)c(F)c(F)c7F)c7nc(c(-c8c(F)c(F)c(F)c(F)c8F)c8ccc5[nH]8)C=C7)C=C6)cc4)ncn3)n2c1
REMARK SMILES IDX 22 1 21 2 20 3 19 4 18 5 17 6 16 7 14 8 15 9 13 10 11 11
REMARK SMILES IDX 12 12 96 13 95 14 94 15 10 16 9 17 8 18 1 19 2 20 3 21 98 22
REMARK SMILES IDX 4 23 97 24 5 25 6 26 7 27 23 28 24 29 25 30 26 31 27 32
REMARK SMILES IDX 28 33 29 34 30 35 31 36 32 37 93 38 33 39 92 40 34 41 35 42
REMARK SMILES IDX 36 43 86 44 37 45 91 46 85 47 87 48 38 49 90 50 84 51 83 52
REMARK SMILES IDX 39 54 71 55 51 56 70 57 52 58 55 59 69 60 88 61 53 62 54 63
REMARK SMILES IDX 68 65 89 66 56 67 40 68 41 69 49 70 42 71 43 72 47 73 50 74
REMARK SMILES IDX 44 75 45 76 48 77 46 78 72 79 73 80 81 81 74 82 75 83 79 84
REMARK SMILES IDX 82 85 76 86 77 87 80 88 78 89 57 90 58 91 66 92 59 93 60 94
REMARK SMILES IDX 64 95 67 96 61 97 62 98 65 99 63 100
REMARK H PARENT 87 53 55 64
REMARK Flexibility Score: inf
ROOT
ATOM      1  O   UNL A   1      33.078  28.465  23.220  1.00  0.00    -0.377 OA
ENDROOT
BRANCH   1   2
ATOM      2  C   UNL A   1      33.207  27.066  23.059  1.00  0.00     0.188 C 
BRANCH   2   3
ATOM      3  C   UNL A   1      33.888  26.379  24.253  1.00  0.00     0.188 C 
BRANCH   3   4
ATOM      4  O   UNL A   1      33.006  26.063  25.314  1.00  0.00    -0.376 OA
BRANCH   4   5
ATOM      5  C   UNL A   1      31.800  25.339  25.138  1.00  0.00     0.202 C 
BRANCH   5   6
ATOM      6  C   UNL A   1      31.689  23.848  24.771  1.00  0.00     0.261 C 
BRANCH   6   7
ATOM      7  O   UNL A   1      31.604  23.506  23.393  1.00  0.00    -0.459 OA
BRANCH   7   8
ATOM      8  C   UNL A   1      32.759  23.211  22.751  1.00  0.00     0.357 C 
ATOM      9  O   UNL A   1      33.230  23.794  21.803  1.00  0.00    -0.244 OA
BRANCH   8  10
ATOM     10  C   UNL A   1      33.416  22.138  23.558  1.00  0.00     0.152 A 
ATOM     11  C   UNL A   1      35.168  21.333  24.857  1.00  0.00     0.067 A 
ATOM     12  C   UNL A   1      34.656  22.364  24.104  1.00  0.00     0.064 A 
ATOM     13  N   UNL A   1      34.585  20.123  24.937  1.00  0.00    -0.237 NA
ATOM     14  C   UNL A   1      33.403  19.996  24.314  1.00  0.00     0.223 A 
ATOM     15  N   UNL A   1      32.758  20.960  23.647  1.00  0.00    -0.229 NA
BRANCH  11  16
ATOM     16  C   UNL A   1      36.344  21.539  25.713  1.00  0.00     0.030 C 
ATOM     17  C   UNL A   1      37.136  22.596  25.478  1.00  0.00     0.030 C 
BRANCH  17  18
ATOM     18  C   UNL A   1      38.285  23.035  26.178  1.00  0.00     0.065 A 
ATOM     19  C   UNL A   1      41.617  19.236  26.189  1.00  0.00     0.046 C 
ATOM     20  C   UNL A   1      41.078  20.588  26.534  1.00  0.00    -0.034 A 
ATOM     21  C   UNL A   1      41.905  21.468  27.349  1.00  0.00     0.009 A 
ATOM     22  C   UNL A   1      39.867  21.029  26.139  1.00  0.00     0.096 A 
ATOM     23  C   UNL A   1      41.491  22.699  27.698  1.00  0.00     0.048 A 
ATOM     24  N   UNL A   1      39.442  22.321  26.466  1.00  0.00    -0.300 N 
ATOM     25  C   UNL A   1      40.229  23.176  27.250  1.00  0.00     0.137 A 
ATOM     26  N   UNL A   1      39.648  24.333  27.470  1.00  0.00    -0.236 NA
ATOM     27  C   UNL A   1      38.454  24.250  26.825  1.00  0.00     0.140 A 
ENDBRANCH  17  18
ENDBRANCH  11  16
ENDBRANCH   8  10
ENDBRANCH   7   8
ENDBRANCH   6   7
ENDBRANCH   5   6
ENDBRANCH   4   5
ENDBRANCH   3   4
ENDBRANCH   2   3
ENDBRANCH   1   2
BRANCH   1  28
ATOM     28  C   UNL A   1      31.767  29.016  23.128  1.00  0.00     0.188 C 
BRANCH  28  29
ATOM     29  C   UNL A   1      30.864  29.236  24.366  1.00  0.00     0.188 C 
BRANCH  29  30
ATOM     30  O   UNL A   1      31.225  30.381  25.120  1.00  0.00    -0.376 OA
BRANCH  30  31
ATOM     31  C   UNL A   1      31.912  30.164  26.344  1.00  0.00     0.202 C 
BRANCH  31  32
ATOM     32  C   UNL A   1      33.408  29.801  26.271  1.00  0.00     0.261 C 
BRANCH  32  33
ATOM     33  O   UNL A   1      34.086  29.804  27.541  1.00  0.00    -0.460 OA
BRANCH  33  34
ATOM     34  C   UNL A   1      34.708  30.930  27.966  1.00  0.00     0.338 C 
ATOM     35  O   UNL A   1      34.195  31.882  28.517  1.00  0.00    -0.246 OA
BRANCH  34  36
ATOM     36  C   UNL A   1      36.168  30.617  27.969  1.00  0.00     0.060 A 
ATOM     37  C   UNL A   1      36.661  29.364  27.588  1.00  0.00     0.016 A 
ATOM     38  C   UNL A   1      37.001  31.515  28.657  1.00  0.00     0.016 A 
ATOM     39  C   UNL A   1      37.943  28.983  27.994  1.00  0.00     0.010 A 
ATOM     40  C   UNL A   1      38.276  31.123  29.075  1.00  0.00     0.010 A 
ATOM     41  C   UNL A   1      38.744  29.843  28.776  1.00  0.00    -0.014 A 
BRANCH  41  42
ATOM     42  C   UNL A   1      40.152  29.456  29.003  1.00  0.00     0.031 A 
ATOM     43  C   UNL A   1      40.419  29.158  30.444  1.00  0.00     0.074 A 
ATOM     44  C   UNL A   1      41.118  29.185  28.094  1.00  0.00     0.049 A 
ATOM     45  N   UNL A   1      41.277  29.708  31.240  1.00  0.00    -0.248 NA
ATOM     46  C   UNL A   1      39.515  28.197  31.099  1.00  0.00     0.031 C 
ATOM     47  C   UNL A   1      41.004  29.098  26.639  1.00  0.00     0.029 A 
ATOM     48  N   UNL A   1      42.429  28.831  28.314  1.00  0.00    -0.354 N 
ATOM     49  C   UNL A   1      41.114  29.072  32.468  1.00  0.00     0.074 A 
ATOM     50  C   UNL A   1      39.940  28.249  32.360  1.00  0.00     0.031 C 
ATOM     51  C   UNL A   1      42.123  28.528  26.129  1.00  0.00     0.029 A 
ATOM     52  C   UNL A   1      43.083  28.308  27.201  1.00  0.00     0.049 A 
ATOM     53  H   UNL A   1      42.869  28.938  29.187  1.00  0.00     0.167 HD
ATOM     54  C   UNL A   1      42.062  29.119  33.441  1.00  0.00     0.037 A 
ATOM     55  C   UNL A   1      44.294  27.687  27.173  1.00  0.00     0.037 A 
ATOM     56  C   UNL A   1      42.974  30.210  33.250  1.00  0.00     0.049 A 
ATOM     57  C   UNL A   1      45.024  28.060  28.405  1.00  0.00     0.074 A 
ATOM     58  C   UNL A   1      42.866  31.586  33.239  1.00  0.00     0.029 A 
ATOM     59  N   UNL A   1      44.205  29.932  32.717  1.00  0.00    -0.354 N 
ATOM     60  N   UNL A   1      45.505  29.244  28.648  1.00  0.00    -0.248 NA
ATOM     61  C   UNL A   1      44.916  27.175  29.551  1.00  0.00     0.031 C 
ATOM     62  C   UNL A   1      43.819  32.029  32.277  1.00  0.00     0.029 A 
ATOM     63  C   UNL A   1      44.473  30.900  31.786  1.00  0.00     0.049 A 
ATOM     64  H   UNL A   1      44.789  29.177  32.958  1.00  0.00     0.167 HD
ATOM     65  C   UNL A   1      45.348  29.403  30.014  1.00  0.00     0.074 A 
ATOM     66  C   UNL A   1      45.087  28.065  30.530  1.00  0.00     0.031 C 
ATOM     67  C   UNL A   1      45.170  30.643  30.550  1.00  0.00     0.037 A 
BRANCH  54  68
ATOM     68  C   UNL A   1      42.359  27.972  34.374  1.00  0.00     0.064 A 
ATOM     69  C   UNL A   1      43.012  26.826  33.880  1.00  0.00     0.173 A 
ATOM     70  C   UNL A   1      41.763  27.834  35.647  1.00  0.00     0.173 A 
ATOM     71  F   UNL A   1      43.583  26.835  32.666  1.00  0.00    -0.203 F 
ATOM     72  C   UNL A   1      43.012  25.618  34.582  1.00  0.00     0.198 A 
ATOM     73  C   UNL A   1      41.814  26.644  36.368  1.00  0.00     0.198 A 
ATOM     74  F   UNL A   1      41.014  28.802  36.190  1.00  0.00    -0.203 F 
ATOM     75  F   UNL A   1      43.537  24.522  34.019  1.00  0.00    -0.200 F 
ATOM     76  C   UNL A   1      42.410  25.528  35.824  1.00  0.00     0.200 A 
ATOM     77  F   UNL A   1      41.204  26.571  37.560  1.00  0.00    -0.200 F 
ATOM     78  F   UNL A   1      42.359  24.356  36.472  1.00  0.00    -0.200 F 
ENDBRANCH  54  68
BRANCH  55  79
ATOM     79  C   UNL A   1      44.785  26.565  26.324  1.00  0.00     0.064 A 
ATOM     80  C   UNL A   1      45.861  26.745  25.430  1.00  0.00     0.173 A 
ATOM     81  C   UNL A   1      44.431  25.235  26.605  1.00  0.00     0.173 A 
ATOM     82  F   UNL A   1      46.297  27.978  25.133  1.00  0.00    -0.203 F 
ATOM     83  C   UNL A   1      46.566  25.659  24.894  1.00  0.00     0.198 A 
ATOM     84  C   UNL A   1      45.131  24.153  26.064  1.00  0.00     0.198 A 
ATOM     85  F   UNL A   1      43.469  24.955  27.495  1.00  0.00    -0.203 F 
ATOM     86  F   UNL A   1      47.635  25.873  24.113  1.00  0.00    -0.200 F 
ATOM     87  C   UNL A   1      46.209  24.364  25.225  1.00  0.00     0.200 A 
ATOM     88  F   UNL A   1      44.799  22.904  26.421  1.00  0.00    -0.200 F 
ATOM     89  F   UNL A   1      46.927  23.326  24.775  1.00  0.00    -0.200 F 
ENDBRANCH  55  79
BRANCH  67  90
ATOM     90  C   UNL A   1      45.482  31.830  29.687  1.00  0.00     0.064 A 
ATOM     91  C   UNL A   1      44.544  32.475  28.861  1.00  0.00     0.173 A 
ATOM     92  C   UNL A   1      46.746  32.422  29.817  1.00  0.00     0.173 A 
ATOM     93  F   UNL A   1      43.286  32.025  28.756  1.00  0.00    -0.203 F 
ATOM     94  C   UNL A   1      44.875  33.641  28.173  1.00  0.00     0.198 A 
ATOM     95  C   UNL A   1      47.059  33.607  29.160  1.00  0.00     0.198 A 
ATOM     96  F   UNL A   1      47.662  31.874  30.631  1.00  0.00    -0.203 F 
ATOM     97  F   UNL A   1      43.967  34.238  27.389  1.00  0.00    -0.200 F 
ATOM     98  C   UNL A   1      46.127  34.212  28.333  1.00  0.00     0.200 A 
ATOM     99  F   UNL A   1      48.254  34.181  29.358  1.00  0.00    -0.200 F 
ATOM    100  F   UNL A   1      46.426  35.364  27.715  1.00  0.00    -0.200 F 
ENDBRANCH  67  90
ENDBRANCH  41  42
ENDBRANCH  34  36
ENDBRANCH  33  34
ENDBRANCH  32  33
ENDBRANCH  31  32
ENDBRANCH  30  31
ENDBRANCH  29  30
ENDBRANCH  28  29
ENDBRANCH   1  28
TORSDOF 22
ENDMDL
MODEL 3
REMARK VINA RESULT:     -10.2      2.086      3.017
REMARK SMILES Cc1ccc2ncc(/C=C/c3cc(C(=O)OCCOCCOCCOCCOC(=O)c4ccc(-c5c6nc(c(-c7c(F)c(F)c(F)c(F)c7F)c7ccc([nH]7)c(-c7c(F)c(F)c(F)c(F)c7F)c7nc(c(-c8c(F)c(F)c(F)c(F)c8F)c8ccc5[nH]8)C=C7)C=C6)cc4)ncn3)n2c1
REMARK SMILES IDX 22 1 21 2 20 3 19 4 18 5 17 6 16 7 14 8 15 9 13 10 11 11
REMARK SMILES IDX 12 12 96 13 95 14 94 15 10 16 9 17 8 18 1 19 2 20 3 21 98 22
REMARK SMILES IDX 4 23 97 24 5 25 6 26 7 27 23 28 24 29 25 30 26 31 27 32
REMARK SMILES IDX 28 33 29 34 30 35 31 36 32 37 93 38 33 39 92 40 34 41 35 42
REMARK SMILES IDX 36 43 86 44 37 45 91 46 85 47 87 48 38 49 90 50 84 51 83 52
REMARK SMILES IDX 39 54 71 55 51 56 70 57 52 58 55 59 69 60 88 61 53 62 54 63
REMARK SMILES IDX 68 65 89 66 56 67 40 68 41 69 49 70 42 71 43 72 47 73 50 74
REMARK SMILES IDX 44 75 45 76 48 77 46 78 72 79 73 80 81 81 74 82 75 83 79 84
REMARK SMILES IDX 82 85 76 86 77 87 80 88 78 89 57 90 58 91 66 92 59 93 60 94
REMARK SMILES IDX 64 95 67 96 61 97 62 98 65 99 63 100
REMARK H PARENT 87 53 55 64
REMARK Flexibility Score: inf
ROOT
ATOM      1  O   UNL A   1      42.883  20.775  26.608  1.00  0.00    -0.377 OA
ENDROOT
BRANCH   1   2
ATOM      2  C   UNL A   1      41.763  21.377  27.224  1.00  0.00     0.188 C 
BRANCH   2   3
ATOM      3  C   UNL A   1      40.691  21.832  26.221  1.00  0.00     0.188 C 
BRANCH   3   4
ATOM      4  O   UNL A   1      39.425  21.233  26.421  1.00  0.00    -0.376 OA
BRANCH   4   5
ATOM      5  C   UNL A   1      38.387  21.261  25.456  1.00  0.00     0.202 C 
BRANCH   5   6
ATOM      6  C   UNL A   1      37.004  21.914  25.638  1.00  0.00     0.261 C 
BRANCH   6   7
ATOM      7  O   UNL A   1      35.872  21.232  25.112  1.00  0.00    -0.459 OA
BRANCH   7   8
ATOM      8  C   UNL A   1      34.703  21.350  25.785  1.00  0.00     0.357 C 
ATOM      9  O   UNL A   1      34.553  21.335  26.984  1.00  0.00    -0.244 OA
BRANCH   8  10
ATOM     10  C   UNL A   1      33.669  21.679  24.757  1.00  0.00     0.152 A 
ATOM     11  C   UNL A   1      32.322  23.194  23.617  1.00  0.00     0.067 A 
ATOM     12  C   UNL A   1      33.251  22.980  24.608  1.00  0.00     0.064 A 
ATOM     13  N   UNL A   1      31.733  22.194  22.936  1.00  0.00    -0.237 NA
ATOM     14  C   UNL A   1      32.176  20.956  23.206  1.00  0.00     0.223 A 
ATOM     15  N   UNL A   1      33.150  20.639  24.066  1.00  0.00    -0.229 NA
BRANCH  11  16
ATOM     16  C   UNL A   1      31.997  24.555  23.171  1.00  0.00     0.030 C 
ATOM     17  C   UNL A   1      31.343  25.370  24.012  1.00  0.00     0.030 C 
BRANCH  17  18
ATOM     18  C   UNL A   1      30.959  26.722  23.842  1.00  0.00     0.065 A 
ATOM     19  C   UNL A   1      33.422  29.462  27.300  1.00  0.00     0.046 C 
ATOM     20  C   UNL A   1      32.457  29.207  26.185  1.00  0.00    -0.034 A 
ATOM     21  C   UNL A   1      31.708  30.339  25.656  1.00  0.00     0.009 A 
ATOM     22  C   UNL A   1      32.240  27.987  25.655  1.00  0.00     0.096 A 
ATOM     23  C   UNL A   1      30.825  30.190  24.653  1.00  0.00     0.048 A 
ATOM     24  N   UNL A   1      31.350  27.828  24.587  1.00  0.00    -0.300 N 
ATOM     25  C   UNL A   1      30.623  28.909  24.069  1.00  0.00     0.137 A 
ATOM     26  N   UNL A   1      29.823  28.554  23.091  1.00  0.00    -0.236 NA
ATOM     27  C   UNL A   1      30.017  27.215  22.952  1.00  0.00     0.140 A 
ENDBRANCH  17  18
ENDBRANCH  11  16
ENDBRANCH   8  10
ENDBRANCH   7   8
ENDBRANCH   6   7
ENDBRANCH   5   6
ENDBRANCH   4   5
ENDBRANCH   3   4
ENDBRANCH   2   3
ENDBRANCH   1   2
BRANCH   1  28
ATOM     28  C   UNL A   1      42.698  19.487  26.026  1.00  0.00     0.188 C 
BRANCH  28  29
ATOM     29  C   UNL A   1      43.820  18.422  25.977  1.00  0.00     0.188 C 
BRANCH  29  30
ATOM     30  O   UNL A   1      44.356  18.239  24.677  1.00  0.00    -0.376 OA
BRANCH  30  31
ATOM     31  C   UNL A   1      45.598  18.868  24.392  1.00  0.00     0.202 C 
BRANCH  31  32
ATOM     32  C   UNL A   1      46.138  19.886  25.415  1.00  0.00     0.261 C 
BRANCH  32  33
ATOM     33  O   UNL A   1      46.349  21.209  24.887  1.00  0.00    -0.460 OA
BRANCH  33  34
ATOM     34  C   UNL A   1      45.327  21.857  24.278  1.00  0.00     0.338 C 
ATOM     35  O   UNL A   1      44.548  21.393  23.472  1.00  0.00    -0.246 OA
BRANCH  34  36
ATOM     36  C   UNL A   1      45.114  23.113  25.057  1.00  0.00     0.060 A 
ATOM     37  C   UNL A   1      45.627  23.283  26.348  1.00  0.00     0.016 A 
ATOM     38  C   UNL A   1      44.128  23.990  24.577  1.00  0.00     0.016 A 
ATOM     39  C   UNL A   1      45.071  24.260  27.179  1.00  0.00     0.010 A 
ATOM     40  C   UNL A   1      43.564  24.954  25.417  1.00  0.00     0.010 A 
ATOM     41  C   UNL A   1      44.007  25.074  26.735  1.00  0.00    -0.014 A 
BRANCH  41  42
ATOM     42  C   UNL A   1      43.602  26.207  27.592  1.00  0.00     0.031 A 
ATOM     43  C   UNL A   1      44.529  27.371  27.448  1.00  0.00     0.074 A 
ATOM     44  C   UNL A   1      42.464  26.369  28.308  1.00  0.00     0.049 A 
ATOM     45  N   UNL A   1      45.226  27.969  28.360  1.00  0.00    -0.248 NA
ATOM     46  C   UNL A   1      44.795  27.840  26.077  1.00  0.00     0.031 C 
ATOM     47  C   UNL A   1      41.279  25.512  28.345  1.00  0.00     0.029 A 
ATOM     48  N   UNL A   1      42.096  27.424  29.109  1.00  0.00    -0.354 N 
ATOM     49  C   UNL A   1      45.922  28.979  27.699  1.00  0.00     0.074 A 
ATOM     50  C   UNL A   1      45.720  28.773  26.290  1.00  0.00     0.031 C 
ATOM     51  C   UNL A   1      40.263  26.170  28.955  1.00  0.00     0.029 A 
ATOM     52  C   UNL A   1      40.746  27.449  29.453  1.00  0.00     0.049 A 
ATOM     53  H   UNL A   1      42.735  28.107  29.415  1.00  0.00     0.167 HD
ATOM     54  C   UNL A   1      46.470  30.033  28.359  1.00  0.00     0.037 A 
ATOM     55  C   UNL A   1      40.066  28.468  30.046  1.00  0.00     0.037 A 
ATOM     56  C   UNL A   1      46.645  29.760  29.757  1.00  0.00     0.049 A 
ATOM     57  C   UNL A   1      41.054  29.356  30.696  1.00  0.00     0.074 A 
ATOM     58  C   UNL A   1      47.393  28.863  30.493  1.00  0.00     0.029 A 
ATOM     59  N   UNL A   1      45.733  30.288  30.632  1.00  0.00    -0.354 N 
ATOM     60  N   UNL A   1      41.744  29.046  31.754  1.00  0.00    -0.248 NA
ATOM     61  C   UNL A   1      41.538  30.500  29.941  1.00  0.00     0.031 C 
ATOM     62  C   UNL A   1      46.593  28.555  31.632  1.00  0.00     0.029 A 
ATOM     63  C   UNL A   1      45.423  29.308  31.537  1.00  0.00     0.049 A 
ATOM     64  H   UNL A   1      45.370  31.203  30.615  1.00  0.00     0.167 HD
ATOM     65  C   UNL A   1      42.969  29.658  31.557  1.00  0.00     0.074 A 
ATOM     66  C   UNL A   1      42.748  30.625  30.487  1.00  0.00     0.031 C 
ATOM     67  C   UNL A   1      44.104  29.124  32.089  1.00  0.00     0.037 A 
BRANCH  54  68
ATOM     68  C   UNL A   1      46.534  31.430  27.795  1.00  0.00     0.064 A 
ATOM     69  C   UNL A   1      45.343  32.084  27.425  1.00  0.00     0.173 A 
ATOM     70  C   UNL A   1      47.727  32.024  27.329  1.00  0.00     0.173 A 
ATOM     71  F   UNL A   1      44.150  31.586  27.785  1.00  0.00    -0.203 F 
ATOM     72  C   UNL A   1      45.347  33.211  26.599  1.00  0.00     0.198 A 
ATOM     73  C   UNL A   1      47.729  33.180  26.552  1.00  0.00     0.198 A 
ATOM     74  F   UNL A   1      48.924  31.451  27.507  1.00  0.00    -0.203 F 
ATOM     75  F   UNL A   1      44.187  33.726  26.172  1.00  0.00    -0.200 F 
ATOM     76  C   UNL A   1      46.541  33.756  26.161  1.00  0.00     0.200 A 
ATOM     77  F   UNL A   1      48.896  33.679  26.119  1.00  0.00    -0.200 F 
ATOM     78  F   UNL A   1      46.544  34.800  25.322  1.00  0.00    -0.200 F 
ENDBRANCH  54  68
BRANCH  55  79
ATOM     79  C   UNL A   1      38.656  28.919  29.871  1.00  0.00     0.064 A 
ATOM     80  C   UNL A   1      37.846  29.227  30.983  1.00  0.00     0.173 A 
ATOM     81  C   UNL A   1      38.188  29.365  28.623  1.00  0.00     0.173 A 
ATOM     82  F   UNL A   1      38.230  28.879  32.220  1.00  0.00    -0.203 F 
ATOM     83  C   UNL A   1      36.669  29.976  30.855  1.00  0.00     0.198 A 
ATOM     84  C   UNL A   1      37.010  30.105  28.497  1.00  0.00     0.198 A 
ATOM     85  F   UNL A   1      38.918  29.184  27.513  1.00  0.00    -0.203 F 
ATOM     86  F   UNL A   1      35.970  30.319  31.947  1.00  0.00    -0.200 F 
ATOM     87  C   UNL A   1      36.261  30.428  29.612  1.00  0.00     0.200 A 
ATOM     88  F   UNL A   1      36.645  30.569  27.292  1.00  0.00    -0.200 F 
ATOM     89  F   UNL A   1      35.177  31.208  29.496  1.00  0.00    -0.200 F 
ENDBRANCH  55  79
BRANCH  67  90
ATOM     90  C   UNL A   1      43.952  28.075  33.151  1.00  0.00     0.064 A 
ATOM     91  C   UNL A   1      43.674  28.352  34.501  1.00  0.00     0.173 A 
ATOM     92  C   UNL A   1      43.947  26.732  32.751  1.00  0.00     0.173 A 
ATOM     93  F   UNL A   1      43.569  29.613  34.944  1.00  0.00    -0.203 F 
ATOM     94  C   UNL A   1      43.434  27.323  35.410  1.00  0.00     0.198 A 
ATOM     95  C   UNL A   1      43.668  25.711  33.653  1.00  0.00     0.198 A 
ATOM     96  F   UNL A   1      44.159  26.414  31.463  1.00  0.00    -0.203 F 
ATOM     97  F   UNL A   1      43.172  27.610  36.694  1.00  0.00    -0.200 F 
ATOM     98  C   UNL A   1      43.419  26.006  34.984  1.00  0.00     0.200 A 
ATOM     99  F   UNL A   1      43.606  24.442  33.224  1.00  0.00    -0.200 F 
ATOM    100  F   UNL A   1      43.132  25.021  35.847  1.00  0.00    -0.200 F 
ENDBRANCH  67  90
ENDBRANCH  41  42
ENDBRANCH  34  36
ENDBRANCH  33  34
ENDBRANCH  32  33
ENDBRANCH  31  32
ENDBRANCH  30  31
ENDBRANCH  29  30
ENDBRANCH  28  29
ENDBRANCH   1  28
TORSDOF 22
ENDMDL
