MODEL 1
REMARK VINA RESULT:     -10.2      0.000      0.000
REMARK SMILES CC[C@@H]1CCC[C@@](CC[NH+]2CCOCC2)(C(=O)OCCOCCOCCOCCOC(=O)c2ccc(-c3c4nc(c(-c5c(F)c(F)c(F)c(F)c5F)c5ccc([nH]5)c(-c5c(F)c(F)c(F)c(F)c5F)c5nc(c(-c6c(F)c(F)c(F)c(F)c6F)c6ccc3[nH]6)C=C5)C=C4)cc2)C1
REMARK SMILES IDX 23 1 22 2 21 3 20 4 19 5 18 6 16 7 17 8 7 9 3 10 4 11 96 12
REMARK SMILES IDX 5 13 6 14 2 15 1 16 8 17 9 18 10 19 11 20 15 21 12 23 14 24
REMARK SMILES IDX 13 25 24 26 25 27 26 28 27 29 28 30 29 31 30 32 31 33 32 34
REMARK SMILES IDX 33 35 34 36 95 37 35 38 94 39 36 40 37 41 38 42 88 43 39 44
REMARK SMILES IDX 93 45 87 46 89 47 40 48 92 49 86 50 85 51 41 53 73 54 53 55
REMARK SMILES IDX 72 56 54 57 57 58 71 59 90 60 55 61 56 62 70 64 91 65 58 66
REMARK SMILES IDX 42 67 43 68 51 69 44 70 45 71 49 72 52 73 46 74 47 75 50 76
REMARK SMILES IDX 48 77 74 78 75 79 83 80 76 81 77 82 81 83 84 84 78 85 79 86
REMARK SMILES IDX 82 87 80 88 59 89 60 90 68 91 61 92 62 93 66 94 69 95 63 96
REMARK SMILES IDX 64 97 67 98 65 99
REMARK H PARENT 10 22 89 52 57 63
REMARK Flexibility Score: inf
ROOT
ATOM      1  C   UNL A   1      39.893  20.106  25.703  1.00  0.00     0.188 C 
ENDROOT
BRANCH   1   2
ATOM      2  C   UNL A   1      38.573  19.483  25.250  1.00  0.00     0.188 C 
BRANCH   2   3
ATOM      3  O   UNL A   1      37.444  20.327  25.090  1.00  0.00    -0.376 OA
BRANCH   3   4
ATOM      4  C   UNL A   1      37.638  21.728  24.945  1.00  0.00     0.202 C 
BRANCH   4   5
ATOM      5  C   UNL A   1      36.781  22.517  23.948  1.00  0.00     0.261 C 
BRANCH   5   6
ATOM      6  O   UNL A   1      35.591  23.158  24.472  1.00  0.00    -0.463 OA
BRANCH   6   7
ATOM      7  C   UNL A   1      34.442  22.980  23.766  1.00  0.00     0.312 C 
ATOM      8  O   UNL A   1      34.386  23.086  22.542  1.00  0.00    -0.252 OA
BRANCH   7   9
ATOM      9  C   UNL A   1      33.177  22.693  24.619  1.00  0.00     0.074 C 
ATOM     10  C   UNL A   1      32.642  25.175  25.021  1.00  0.00    -0.010 C 
ATOM     11  C   UNL A   1      31.202  25.038  24.528  1.00  0.00     0.003 C 
ATOM     12  C   UNL A   1      33.064  23.849  25.672  1.00  0.00     0.022 C 
ATOM     13  C   UNL A   1      30.960  23.820  23.636  1.00  0.00     0.001 C 
ATOM     14  C   UNL A   1      31.806  22.556  23.897  1.00  0.00     0.019 C 
BRANCH  10  15
ATOM     15  C   UNL A   1      32.820  26.400  25.939  1.00  0.00     0.000 C 
ATOM     16  C   UNL A   1      31.586  27.304  25.885  1.00  0.00     0.004 C 
ENDBRANCH  10  15
BRANCH   9  17
ATOM     17  C   UNL A   1      33.488  21.374  25.400  1.00  0.00     0.080 C 
BRANCH  17  18
ATOM     18  C   UNL A   1      33.690  20.068  24.593  1.00  0.00     0.263 C 
BRANCH  18  19
ATOM     19  N   UNL A   1      32.580  19.110  24.561  1.00  0.00    -0.331 N 
ATOM     20  C   UNL A   1      32.719  18.053  25.587  1.00  0.00     0.291 C 
ATOM     21  C   UNL A   1      32.314  18.461  23.262  1.00  0.00     0.291 C 
ATOM     22  H   UNL A   1      31.778  19.710  24.758  1.00  0.00     0.348 HD
ATOM     23  C   UNL A   1      33.664  16.908  25.175  1.00  0.00     0.221 C 
ATOM     24  C   UNL A   1      33.290  17.350  22.894  1.00  0.00     0.221 C 
ATOM     25  O   UNL A   1      33.304  16.341  23.909  1.00  0.00    -0.370 OA
ENDBRANCH  18  19
ENDBRANCH  17  18
ENDBRANCH   9  17
ENDBRANCH   7   9
ENDBRANCH   6   7
ENDBRANCH   5   6
ENDBRANCH   4   5
ENDBRANCH   3   4
ENDBRANCH   2   3
ENDBRANCH   1   2
BRANCH   1  26
ATOM     26  O   UNL A   1      40.747  19.293  26.473  1.00  0.00    -0.377 OA
BRANCH  26  27
ATOM     27  C   UNL A   1      41.359  19.859  27.611  1.00  0.00     0.188 C 
BRANCH  27  28
ATOM     28  C   UNL A   1      41.731  21.344  27.565  1.00  0.00     0.188 C 
BRANCH  28  29
ATOM     29  O   UNL A   1      43.008  21.619  27.031  1.00  0.00    -0.376 OA
BRANCH  29  30
ATOM     30  C   UNL A   1      43.356  21.462  25.669  1.00  0.00     0.202 C 
BRANCH  30  31
ATOM     31  C   UNL A   1      43.947  22.531  24.730  1.00  0.00     0.261 C 
BRANCH  31  32
ATOM     32  O   UNL A   1      43.398  23.845  24.703  1.00  0.00    -0.460 OA
BRANCH  32  33
ATOM     33  C   UNL A   1      44.186  24.876  25.070  1.00  0.00     0.338 C 
ATOM     34  O   UNL A   1      45.284  25.152  24.644  1.00  0.00    -0.246 OA
BRANCH  33  35
ATOM     35  C   UNL A   1      43.374  25.730  25.971  1.00  0.00     0.060 A 
ATOM     36  C   UNL A   1      43.588  27.115  25.978  1.00  0.00     0.016 A 
ATOM     37  C   UNL A   1      42.406  25.159  26.801  1.00  0.00     0.016 A 
ATOM     38  C   UNL A   1      42.875  27.928  26.855  1.00  0.00     0.010 A 
ATOM     39  C   UNL A   1      41.715  25.968  27.702  1.00  0.00     0.010 A 
ATOM     40  C   UNL A   1      41.982  27.348  27.763  1.00  0.00    -0.014 A 
BRANCH  40  41
ATOM     41  C   UNL A   1      41.524  28.130  28.934  1.00  0.00     0.031 A 
ATOM     42  C   UNL A   1      42.309  28.002  30.210  1.00  0.00     0.074 A 
ATOM     43  C   UNL A   1      40.459  28.943  28.864  1.00  0.00     0.049 A 
ATOM     44  N   UNL A   1      42.072  28.510  31.392  1.00  0.00    -0.248 NA
ATOM     45  C   UNL A   1      43.529  27.179  30.143  1.00  0.00     0.031 C 
ATOM     46  C   UNL A   1      39.659  29.190  27.666  1.00  0.00     0.029 A 
ATOM     47  N   UNL A   1      39.860  29.705  29.835  1.00  0.00    -0.354 N 
ATOM     48  C   UNL A   1      43.102  28.058  32.206  1.00  0.00     0.074 A 
ATOM     49  C   UNL A   1      43.948  27.210  31.397  1.00  0.00     0.031 C 
ATOM     50  C   UNL A   1      38.659  30.031  27.978  1.00  0.00     0.029 A 
ATOM     51  C   UNL A   1      38.727  30.349  29.404  1.00  0.00     0.049 A 
ATOM     52  H   UNL A   1      40.208  29.781  30.752  1.00  0.00     0.167 HD
ATOM     53  C   UNL A   1      43.323  28.333  33.513  1.00  0.00     0.037 A 
ATOM     54  C   UNL A   1      37.835  31.085  30.096  1.00  0.00     0.037 A 
ATOM     55  C   UNL A   1      42.472  29.177  34.309  1.00  0.00     0.049 A 
ATOM     56  C   UNL A   1      38.058  31.307  31.573  1.00  0.00     0.074 A 
ATOM     57  C   UNL A   1      42.610  29.533  35.638  1.00  0.00     0.029 A 
ATOM     58  N   UNL A   1      41.316  29.789  33.847  1.00  0.00    -0.354 N 
ATOM     59  N   UNL A   1      39.040  30.894  32.337  1.00  0.00    -0.248 NA
ATOM     60  C   UNL A   1      37.044  32.102  32.281  1.00  0.00     0.031 C 
ATOM     61  C   UNL A   1      41.503  30.307  35.997  1.00  0.00     0.029 A 
ATOM     62  C   UNL A   1      40.712  30.494  34.875  1.00  0.00     0.049 A 
ATOM     63  H   UNL A   1      40.974  29.729  32.925  1.00  0.00     0.167 HD
ATOM     64  C   UNL A   1      38.784  31.406  33.603  1.00  0.00     0.074 A 
ATOM     65  C   UNL A   1      37.559  32.172  33.500  1.00  0.00     0.031 C 
ATOM     66  C   UNL A   1      39.496  31.259  34.748  1.00  0.00     0.037 A 
BRANCH  53  67
ATOM     67  C   UNL A   1      44.508  27.686  34.168  1.00  0.00     0.064 A 
ATOM     68  C   UNL A   1      45.787  28.262  34.128  1.00  0.00     0.173 A 
ATOM     69  C   UNL A   1      44.358  26.477  34.865  1.00  0.00     0.173 A 
ATOM     70  F   UNL A   1      45.991  29.407  33.459  1.00  0.00    -0.203 F 
ATOM     71  C   UNL A   1      46.874  27.639  34.737  1.00  0.00     0.198 A 
ATOM     72  C   UNL A   1      45.440  25.875  35.503  1.00  0.00     0.198 A 
ATOM     73  F   UNL A   1      43.158  25.881  34.935  1.00  0.00    -0.203 F 
ATOM     74  F   UNL A   1      48.096  28.181  34.639  1.00  0.00    -0.200 F 
ATOM     75  C   UNL A   1      46.698  26.452  35.431  1.00  0.00     0.200 A 
ATOM     76  F   UNL A   1      45.264  24.734  36.184  1.00  0.00    -0.200 F 
ATOM     77  F   UNL A   1      47.742  25.858  36.024  1.00  0.00    -0.200 F 
ENDBRANCH  53  67
BRANCH  54  78
ATOM     78  C   UNL A   1      36.642  31.650  29.412  1.00  0.00     0.064 A 
ATOM     79  C   UNL A   1      35.587  30.825  29.000  1.00  0.00     0.173 A 
ATOM     80  C   UNL A   1      36.543  33.021  29.134  1.00  0.00     0.173 A 
ATOM     81  F   UNL A   1      35.645  29.503  29.219  1.00  0.00    -0.203 F 
ATOM     82  C   UNL A   1      34.490  31.345  28.315  1.00  0.00     0.198 A 
ATOM     83  C   UNL A   1      35.430  33.545  28.479  1.00  0.00     0.198 A 
ATOM     84  F   UNL A   1      37.524  33.856  29.504  1.00  0.00    -0.203 F 
ATOM     85  F   UNL A   1      33.522  30.525  27.884  1.00  0.00    -0.200 F 
ATOM     86  C   UNL A   1      34.409  32.706  28.062  1.00  0.00     0.200 A 
ATOM     87  F   UNL A   1      35.350  34.863  28.249  1.00  0.00    -0.200 F 
ATOM     88  F   UNL A   1      33.353  33.206  27.405  1.00  0.00    -0.200 F 
ENDBRANCH  54  78
BRANCH  66  89
ATOM     89  C   UNL A   1      39.000  31.979  35.972  1.00  0.00     0.064 A 
ATOM     90  C   UNL A   1      39.304  33.326  36.214  1.00  0.00     0.173 A 
ATOM     91  C   UNL A   1      38.168  31.319  36.890  1.00  0.00     0.173 A 
ATOM     92  F   UNL A   1      40.103  34.000  35.373  1.00  0.00    -0.203 F 
ATOM     93  C   UNL A   1      38.821  33.977  37.346  1.00  0.00     0.198 A 
ATOM     94  C   UNL A   1      37.656  31.984  38.001  1.00  0.00     0.198 A 
ATOM     95  F   UNL A   1      37.836  30.033  36.701  1.00  0.00    -0.203 F 
ATOM     96  F   UNL A   1      39.170  35.248  37.585  1.00  0.00    -0.200 F 
ATOM     97  C   UNL A   1      37.990  33.308  38.234  1.00  0.00     0.200 A 
ATOM     98  F   UNL A   1      36.838  31.341  38.845  1.00  0.00    -0.200 F 
ATOM     99  F   UNL A   1      37.518  33.939  39.316  1.00  0.00    -0.200 F 
ENDBRANCH  66  89
ENDBRANCH  40  41
ENDBRANCH  33  35
ENDBRANCH  32  33
ENDBRANCH  31  32
ENDBRANCH  30  31
ENDBRANCH  29  30
ENDBRANCH  28  29
ENDBRANCH  27  28
ENDBRANCH  26  27
ENDBRANCH   1  26
TORSDOF 24
ENDMDL
MODEL 2
REMARK VINA RESULT:     -10.2      1.218      3.467
REMARK SMILES CC[C@@H]1CCC[C@@](CC[NH+]2CCOCC2)(C(=O)OCCOCCOCCOCCOC(=O)c2ccc(-c3c4nc(c(-c5c(F)c(F)c(F)c(F)c5F)c5ccc([nH]5)c(-c5c(F)c(F)c(F)c(F)c5F)c5nc(c(-c6c(F)c(F)c(F)c(F)c6F)c6ccc3[nH]6)C=C5)C=C4)cc2)C1
REMARK SMILES IDX 23 1 22 2 21 3 20 4 19 5 18 6 16 7 17 8 7 9 3 10 4 11 96 12
REMARK SMILES IDX 5 13 6 14 2 15 1 16 8 17 9 18 10 19 11 20 15 21 12 23 14 24
REMARK SMILES IDX 13 25 24 26 25 27 26 28 27 29 28 30 29 31 30 32 31 33 32 34
REMARK SMILES IDX 33 35 34 36 95 37 35 38 94 39 36 40 37 41 38 42 88 43 39 44
REMARK SMILES IDX 93 45 87 46 89 47 40 48 92 49 86 50 85 51 41 53 73 54 53 55
REMARK SMILES IDX 72 56 54 57 57 58 71 59 90 60 55 61 56 62 70 64 91 65 58 66
REMARK SMILES IDX 42 67 43 68 51 69 44 70 45 71 49 72 52 73 46 74 47 75 50 76
REMARK SMILES IDX 48 77 74 78 75 79 83 80 76 81 77 82 81 83 84 84 78 85 79 86
REMARK SMILES IDX 82 87 80 88 59 89 60 90 68 91 61 92 62 93 66 94 69 95 63 96
REMARK SMILES IDX 64 97 67 98 65 99
REMARK H PARENT 10 22 89 52 57 63
REMARK Flexibility Score: inf
ROOT
ATOM      1  C   UNL A   1      39.632  20.427  25.534  1.00  0.00     0.188 C 
ENDROOT
BRANCH   1   2
ATOM      2  C   UNL A   1      38.292  19.862  25.065  1.00  0.00     0.188 C 
BRANCH   2   3
ATOM      3  O   UNL A   1      37.191  20.747  24.932  1.00  0.00    -0.376 OA
BRANCH   3   4
ATOM      4  C   UNL A   1      37.434  22.143  24.804  1.00  0.00     0.202 C 
BRANCH   4   5
ATOM      5  C   UNL A   1      36.701  22.947  23.724  1.00  0.00     0.261 C 
BRANCH   5   6
ATOM      6  O   UNL A   1      35.545  23.712  24.149  1.00  0.00    -0.463 OA
BRANCH   6   7
ATOM      7  C   UNL A   1      34.368  23.434  23.528  1.00  0.00     0.312 C 
ATOM      8  O   UNL A   1      34.247  23.409  22.304  1.00  0.00    -0.252 OA
BRANCH   7   9
ATOM      9  C   UNL A   1      33.156  23.208  24.471  1.00  0.00     0.074 C 
ATOM     10  C   UNL A   1      33.797  20.785  25.041  1.00  0.00    -0.010 C 
ATOM     11  C   UNL A   1      33.737  21.028  26.549  1.00  0.00     0.003 C 
ATOM     12  C   UNL A   1      32.765  21.694  24.358  1.00  0.00     0.022 C 
ATOM     13  C   UNL A   1      33.863  22.497  26.950  1.00  0.00     0.001 C 
ATOM     14  C   UNL A   1      33.309  23.560  25.978  1.00  0.00     0.019 C 
BRANCH  10  15
ATOM     15  C   UNL A   1      33.634  19.292  24.694  1.00  0.00     0.000 C 
ATOM     16  C   UNL A   1      32.374  19.063  23.856  1.00  0.00     0.004 C 
ENDBRANCH  10  15
BRANCH   9  17
ATOM     17  C   UNL A   1      31.985  24.044  23.856  1.00  0.00     0.080 C 
BRANCH  17  18
ATOM     18  C   UNL A   1      32.050  25.588  23.952  1.00  0.00     0.263 C 
BRANCH  18  19
ATOM     19  N   UNL A   1      30.936  26.276  24.610  1.00  0.00    -0.331 N 
ATOM     20  C   UNL A   1      29.876  26.672  23.656  1.00  0.00     0.291 C 
ATOM     21  C   UNL A   1      31.286  27.456  25.426  1.00  0.00     0.291 C 
ATOM     22  H   UNL A   1      30.599  25.563  25.257  1.00  0.00     0.348 HD
ATOM     23  C   UNL A   1      30.181  27.978  22.897  1.00  0.00     0.221 C 
ATOM     24  C   UNL A   1      31.597  28.714  24.626  1.00  0.00     0.221 C 
ATOM     25  O   UNL A   1      30.491  29.059  23.786  1.00  0.00    -0.370 OA
ENDBRANCH  18  19
ENDBRANCH  17  18
ENDBRANCH   9  17
ENDBRANCH   7   9
ENDBRANCH   6   7
ENDBRANCH   5   6
ENDBRANCH   4   5
ENDBRANCH   3   4
ENDBRANCH   2   3
ENDBRANCH   1   2
BRANCH   1  26
ATOM     26  O   UNL A   1      40.467  19.558  26.264  1.00  0.00    -0.377 OA
BRANCH  26  27
ATOM     27  C   UNL A   1      41.159  20.077  27.377  1.00  0.00     0.188 C 
BRANCH  27  28
ATOM     28  C   UNL A   1      41.794  21.465  27.247  1.00  0.00     0.188 C 
BRANCH  28  29
ATOM     29  O   UNL A   1      43.136  21.465  26.810  1.00  0.00    -0.376 OA
BRANCH  29  30
ATOM     30  C   UNL A   1      43.536  21.371  25.458  1.00  0.00     0.202 C 
BRANCH  30  31
ATOM     31  C   UNL A   1      43.851  22.533  24.496  1.00  0.00     0.261 C 
BRANCH  31  32
ATOM     32  O   UNL A   1      43.265  23.815  24.705  1.00  0.00    -0.460 OA
BRANCH  32  33
ATOM     33  C   UNL A   1      44.069  24.834  25.070  1.00  0.00     0.338 C 
ATOM     34  O   UNL A   1      45.173  25.089  24.647  1.00  0.00    -0.246 OA
BRANCH  33  35
ATOM     35  C   UNL A   1      43.269  25.705  25.965  1.00  0.00     0.060 A 
ATOM     36  C   UNL A   1      43.501  27.087  25.961  1.00  0.00     0.016 A 
ATOM     37  C   UNL A   1      42.295  25.153  26.800  1.00  0.00     0.016 A 
ATOM     38  C   UNL A   1      42.798  27.916  26.832  1.00  0.00     0.010 A 
ATOM     39  C   UNL A   1      41.614  25.978  27.696  1.00  0.00     0.010 A 
ATOM     40  C   UNL A   1      41.898  27.354  27.746  1.00  0.00    -0.014 A 
BRANCH  40  41
ATOM     41  C   UNL A   1      41.452  28.151  28.911  1.00  0.00     0.031 A 
ATOM     42  C   UNL A   1      42.247  28.035  30.182  1.00  0.00     0.074 A 
ATOM     43  C   UNL A   1      40.388  28.965  28.839  1.00  0.00     0.049 A 
ATOM     44  N   UNL A   1      42.019  28.558  31.360  1.00  0.00    -0.248 NA
ATOM     45  C   UNL A   1      43.464  27.209  30.115  1.00  0.00     0.031 C 
ATOM     46  C   UNL A   1      39.580  29.200  27.645  1.00  0.00     0.029 A 
ATOM     47  N   UNL A   1      39.798  29.740  29.806  1.00  0.00    -0.354 N 
ATOM     48  C   UNL A   1      43.054  28.113  32.172  1.00  0.00     0.074 A 
ATOM     49  C   UNL A   1      43.892  27.253  31.366  1.00  0.00     0.031 C 
ATOM     50  C   UNL A   1      38.583  30.048  27.955  1.00  0.00     0.029 A 
ATOM     51  C   UNL A   1      38.664  30.382  29.376  1.00  0.00     0.049 A 
ATOM     52  H   UNL A   1      40.154  29.826  30.719  1.00  0.00     0.167 HD
ATOM     53  C   UNL A   1      43.287  28.403  33.474  1.00  0.00     0.037 A 
ATOM     54  C   UNL A   1      37.779  31.128  30.067  1.00  0.00     0.037 A 
ATOM     55  C   UNL A   1      42.444  29.258  34.266  1.00  0.00     0.049 A 
ATOM     56  C   UNL A   1      38.013  31.367  31.539  1.00  0.00     0.074 A 
ATOM     57  C   UNL A   1      42.593  29.629  35.589  1.00  0.00     0.029 A 
ATOM     58  N   UNL A   1      41.285  29.867  33.806  1.00  0.00    -0.354 N 
ATOM     59  N   UNL A   1      39.000  30.960  32.300  1.00  0.00    -0.248 NA
ATOM     60  C   UNL A   1      37.007  32.172  32.246  1.00  0.00     0.031 C 
ATOM     61  C   UNL A   1      41.490  30.410  35.948  1.00  0.00     0.029 A 
ATOM     62  C   UNL A   1      40.691  30.586  34.830  1.00  0.00     0.049 A 
ATOM     63  H   UNL A   1      40.936  29.797  32.887  1.00  0.00     0.167 HD
ATOM     64  C   UNL A   1      38.755  31.487  33.563  1.00  0.00     0.074 A 
ATOM     65  C   UNL A   1      37.531  32.255  33.460  1.00  0.00     0.031 C 
ATOM     66  C   UNL A   1      39.476  31.352  34.703  1.00  0.00     0.037 A 
BRANCH  53  67
ATOM     67  C   UNL A   1      44.475  27.760  34.127  1.00  0.00     0.064 A 
ATOM     68  C   UNL A   1      44.396  26.500  34.740  1.00  0.00     0.173 A 
ATOM     69  C   UNL A   1      45.721  28.406  34.119  1.00  0.00     0.173 A 
ATOM     70  F   UNL A   1      43.225  25.847  34.792  1.00  0.00    -0.203 F 
ATOM     71  C   UNL A   1      45.510  25.926  35.346  1.00  0.00     0.198 A 
ATOM     72  C   UNL A   1      46.842  27.813  34.696  1.00  0.00     0.198 A 
ATOM     73  F   UNL A   1      45.855  29.612  33.547  1.00  0.00    -0.203 F 
ATOM     74  F   UNL A   1      45.397  24.747  35.974  1.00  0.00    -0.200 F 
ATOM     75  C   UNL A   1      46.734  26.578  35.316  1.00  0.00     0.200 A 
ATOM     76  F   UNL A   1      48.026  28.439  34.653  1.00  0.00    -0.200 F 
ATOM     77  F   UNL A   1      47.808  26.020  35.891  1.00  0.00    -0.200 F 
ENDBRANCH  53  67
BRANCH  54  78
ATOM     78  C   UNL A   1      36.582  31.687  29.386  1.00  0.00     0.064 A 
ATOM     79  C   UNL A   1      35.517  30.862  29.000  1.00  0.00     0.173 A 
ATOM     80  C   UNL A   1      36.488  33.054  29.084  1.00  0.00     0.173 A 
ATOM     81  F   UNL A   1      35.570  29.544  29.242  1.00  0.00    -0.203 F 
ATOM     82  C   UNL A   1      34.416  31.376  28.317  1.00  0.00     0.198 A 
ATOM     83  C   UNL A   1      35.371  33.573  28.431  1.00  0.00     0.198 A 
ATOM     84  F   UNL A   1      37.478  33.889  29.428  1.00  0.00    -0.203 F 
ATOM     85  F   UNL A   1      33.438  30.555  27.911  1.00  0.00    -0.200 F 
ATOM     86  C   UNL A   1      34.340  32.733  28.040  1.00  0.00     0.200 A 
ATOM     87  F   UNL A   1      35.296  34.887  28.178  1.00  0.00    -0.200 F 
ATOM     88  F   UNL A   1      33.280  33.227  27.385  1.00  0.00    -0.200 F 
ENDBRANCH  54  78
BRANCH  66  89
ATOM     89  C   UNL A   1      38.991  32.087  35.922  1.00  0.00     0.064 A 
ATOM     90  C   UNL A   1      38.186  31.468  36.890  1.00  0.00     0.173 A 
ATOM     91  C   UNL A   1      39.378  33.418  36.145  1.00  0.00     0.173 A 
ATOM     92  F   UNL A   1      37.779  30.201  36.721  1.00  0.00    -0.203 F 
ATOM     93  C   UNL A   1      37.761  32.163  38.019  1.00  0.00     0.198 A 
ATOM     94  C   UNL A   1      38.981  34.098  37.294  1.00  0.00     0.198 A 
ATOM     95  F   UNL A   1      40.156  34.055  35.258  1.00  0.00    -0.203 F 
ATOM     96  F   UNL A   1      36.947  31.569  38.902  1.00  0.00    -0.200 F 
ATOM     97  C   UNL A   1      38.166  33.474  38.224  1.00  0.00     0.200 A 
ATOM     98  F   UNL A   1      39.391  35.357  37.498  1.00  0.00    -0.200 F 
ATOM     99  F   UNL A   1      37.764  34.138  39.316  1.00  0.00    -0.200 F 
ENDBRANCH  66  89
ENDBRANCH  40  41
ENDBRANCH  33  35
ENDBRANCH  32  33
ENDBRANCH  31  32
ENDBRANCH  30  31
ENDBRANCH  29  30
ENDBRANCH  28  29
ENDBRANCH  27  28
ENDBRANCH  26  27
ENDBRANCH   1  26
TORSDOF 24
ENDMDL
MODEL 3
REMARK VINA RESULT:      -9.8      5.894     12.396
REMARK SMILES CC[C@@H]1CCC[C@@](CC[NH+]2CCOCC2)(C(=O)OCCOCCOCCOCCOC(=O)c2ccc(-c3c4nc(c(-c5c(F)c(F)c(F)c(F)c5F)c5ccc([nH]5)c(-c5c(F)c(F)c(F)c(F)c5F)c5nc(c(-c6c(F)c(F)c(F)c(F)c6F)c6ccc3[nH]6)C=C5)C=C4)cc2)C1
REMARK SMILES IDX 23 1 22 2 21 3 20 4 19 5 18 6 16 7 17 8 7 9 3 10 4 11 96 12
REMARK SMILES IDX 5 13 6 14 2 15 1 16 8 17 9 18 10 19 11 20 15 21 12 23 14 24
REMARK SMILES IDX 13 25 24 26 25 27 26 28 27 29 28 30 29 31 30 32 31 33 32 34
REMARK SMILES IDX 33 35 34 36 95 37 35 38 94 39 36 40 37 41 38 42 88 43 39 44
REMARK SMILES IDX 93 45 87 46 89 47 40 48 92 49 86 50 85 51 41 53 73 54 53 55
REMARK SMILES IDX 72 56 54 57 57 58 71 59 90 60 55 61 56 62 70 64 91 65 58 66
REMARK SMILES IDX 42 67 43 68 51 69 44 70 45 71 49 72 52 73 46 74 47 75 50 76
REMARK SMILES IDX 48 77 74 78 75 79 83 80 76 81 77 82 81 83 84 84 78 85 79 86
REMARK SMILES IDX 82 87 80 88 59 89 60 90 68 91 61 92 62 93 66 94 69 95 63 96
REMARK SMILES IDX 64 97 67 98 65 99
REMARK H PARENT 10 22 89 52 57 63
REMARK Flexibility Score: inf
ROOT
ATOM      1  C   UNL A   1      32.806  35.994  32.254  1.00  0.00     0.188 C 
ENDROOT
BRANCH   1   2
ATOM      2  C   UNL A   1      34.303  36.221  32.457  1.00  0.00     0.188 C 
BRANCH   2   3
ATOM      3  O   UNL A   1      34.872  35.907  33.719  1.00  0.00    -0.376 OA
BRANCH   3   4
ATOM      4  C   UNL A   1      34.777  34.577  34.212  1.00  0.00     0.202 C 
BRANCH   4   5
ATOM      5  C   UNL A   1      34.839  33.396  33.237  1.00  0.00     0.261 C 
BRANCH   5   6
ATOM      6  O   UNL A   1      36.126  33.110  32.635  1.00  0.00    -0.463 OA
BRANCH   6   7
ATOM      7  C   UNL A   1      36.668  31.892  32.904  1.00  0.00     0.312 C 
ATOM      8  O   UNL A   1      36.155  30.836  32.537  1.00  0.00    -0.252 OA
BRANCH   7   9
ATOM      9  C   UNL A   1      37.959  31.916  33.767  1.00  0.00     0.074 C 
ATOM     10  C   UNL A   1      38.893  34.043  32.668  1.00  0.00    -0.010 C 
ATOM     11  C   UNL A   1      39.103  34.751  34.006  1.00  0.00     0.003 C 
ATOM     12  C   UNL A   1      39.092  32.534  32.877  1.00  0.00     0.022 C 
ATOM     13  C   UNL A   1      38.265  34.182  35.151  1.00  0.00     0.001 C 
ATOM     14  C   UNL A   1      37.935  32.675  35.123  1.00  0.00     0.019 C 
BRANCH  10  15
ATOM     15  C   UNL A   1      39.784  34.637  31.559  1.00  0.00     0.000 C 
ATOM     16  C   UNL A   1      39.072  34.589  30.205  1.00  0.00     0.004 C 
ENDBRANCH  10  15
BRANCH   9  17
ATOM     17  C   UNL A   1      38.323  30.414  34.016  1.00  0.00     0.080 C 
BRANCH  17  18
ATOM     18  C   UNL A   1      39.333  30.077  35.139  1.00  0.00     0.263 C 
BRANCH  18  19
ATOM     19  N   UNL A   1      40.760  30.103  34.802  1.00  0.00    -0.331 N 
ATOM     20  C   UNL A   1      41.058  29.353  33.561  1.00  0.00     0.291 C 
ATOM     21  C   UNL A   1      41.689  29.644  35.853  1.00  0.00     0.291 C 
ATOM     22  H   UNL A   1      40.929  31.101  34.677  1.00  0.00     0.348 HD
ATOM     23  C   UNL A   1      41.178  27.831  33.768  1.00  0.00     0.221 C 
ATOM     24  C   UNL A   1      41.753  28.132  36.030  1.00  0.00     0.221 C 
ATOM     25  O   UNL A   1      42.117  27.499  34.799  1.00  0.00    -0.370 OA
ENDBRANCH  18  19
ENDBRANCH  17  18
ENDBRANCH   9  17
ENDBRANCH   7   9
ENDBRANCH   6   7
ENDBRANCH   5   6
ENDBRANCH   4   5
ENDBRANCH   3   4
ENDBRANCH   2   3
ENDBRANCH   1   2
BRANCH   1  26
ATOM     26  O   UNL A   1      32.247  36.480  31.055  1.00  0.00    -0.377 OA
BRANCH  26  27
ATOM     27  C   UNL A   1      33.115  37.036  30.093  1.00  0.00     0.188 C 
BRANCH  27  28
ATOM     28  C   UNL A   1      33.330  36.268  28.786  1.00  0.00     0.188 C 
BRANCH  28  29
ATOM     29  O   UNL A   1      32.709  35.001  28.734  1.00  0.00    -0.376 OA
BRANCH  29  30
ATOM     30  C   UNL A   1      33.371  33.801  28.387  1.00  0.00     0.202 C 
BRANCH  30  31
ATOM     31  C   UNL A   1      34.674  33.246  28.994  1.00  0.00     0.261 C 
BRANCH  31  32
ATOM     32  O   UNL A   1      34.765  31.873  29.362  1.00  0.00    -0.460 OA
BRANCH  32  33
ATOM     33  C   UNL A   1      34.713  30.944  28.385  1.00  0.00     0.338 C 
ATOM     34  O   UNL A   1      33.857  30.811  27.540  1.00  0.00    -0.246 OA
BRANCH  33  35
ATOM     35  C   UNL A   1      36.005  30.218  28.421  1.00  0.00     0.060 A 
ATOM     36  C   UNL A   1      36.349  29.487  29.567  1.00  0.00     0.016 A 
ATOM     37  C   UNL A   1      36.870  30.262  27.324  1.00  0.00     0.016 A 
ATOM     38  C   UNL A   1      37.582  28.843  29.642  1.00  0.00     0.010 A 
ATOM     39  C   UNL A   1      38.118  29.645  27.412  1.00  0.00     0.010 A 
ATOM     40  C   UNL A   1      38.495  28.974  28.589  1.00  0.00    -0.014 A 
BRANCH  40  41
ATOM     41  C   UNL A   1      39.918  28.636  28.815  1.00  0.00     0.031 A 
ATOM     42  C   UNL A   1      40.790  29.679  29.459  1.00  0.00     0.074 A 
ATOM     43  C   UNL A   1      40.419  27.438  28.477  1.00  0.00     0.049 A 
ATOM     44  N   UNL A   1      42.078  29.666  29.688  1.00  0.00    -0.248 NA
ATOM     45  C   UNL A   1      40.113  30.911  29.899  1.00  0.00     0.031 C 
ATOM     46  C   UNL A   1      39.656  26.334  27.901  1.00  0.00     0.029 A 
ATOM     47  N   UNL A   1      41.701  26.958  28.562  1.00  0.00    -0.354 N 
ATOM     48  C   UNL A   1      42.364  30.887  30.285  1.00  0.00     0.074 A 
ATOM     49  C   UNL A   1      41.126  31.631  30.353  1.00  0.00     0.031 C 
ATOM     50  C   UNL A   1      40.490  25.306  27.665  1.00  0.00     0.029 A 
ATOM     51  C   UNL A   1      41.849  25.698  28.037  1.00  0.00     0.049 A 
ATOM     52  H   UNL A   1      42.443  27.466  28.961  1.00  0.00     0.167 HD
ATOM     53  C   UNL A   1      43.554  31.343  30.740  1.00  0.00     0.037 A 
ATOM     54  C   UNL A   1      42.965  24.964  27.854  1.00  0.00     0.037 A 
ATOM     55  C   UNL A   1      44.780  30.594  30.663  1.00  0.00     0.049 A 
ATOM     56  C   UNL A   1      44.294  25.530  28.291  1.00  0.00     0.074 A 
ATOM     57  C   UNL A   1      46.040  30.955  31.105  1.00  0.00     0.029 A 
ATOM     58  N   UNL A   1      44.899  29.333  30.097  1.00  0.00    -0.354 N 
ATOM     59  N   UNL A   1      44.559  26.676  28.870  1.00  0.00    -0.248 NA
ATOM     60  C   UNL A   1      45.479  24.694  28.050  1.00  0.00     0.031 C 
ATOM     61  C   UNL A   1      46.932  29.940  30.748  1.00  0.00     0.029 A 
ATOM     62  C   UNL A   1      46.218  28.915  30.148  1.00  0.00     0.049 A 
ATOM     63  H   UNL A   1      44.155  28.813  29.714  1.00  0.00     0.167 HD
ATOM     64  C   UNL A   1      45.931  26.685  29.094  1.00  0.00     0.074 A 
ATOM     65  C   UNL A   1      46.440  25.422  28.600  1.00  0.00     0.031 C 
ATOM     66  C   UNL A   1      46.701  27.648  29.659  1.00  0.00     0.037 A 
BRANCH  53  67
ATOM     67  C   UNL A   1      43.591  32.725  31.323  1.00  0.00     0.064 A 
ATOM     68  C   UNL A   1      43.411  32.959  32.695  1.00  0.00     0.173 A 
ATOM     69  C   UNL A   1      43.832  33.834  30.497  1.00  0.00     0.173 A 
ATOM     70  F   UNL A   1      43.159  31.936  33.527  1.00  0.00    -0.203 F 
ATOM     71  C   UNL A   1      43.443  34.251  33.213  1.00  0.00     0.198 A 
ATOM     72  C   UNL A   1      43.898  35.122  31.024  1.00  0.00     0.198 A 
ATOM     73  F   UNL A   1      44.011  33.670  29.178  1.00  0.00    -0.203 F 
ATOM     74  F   UNL A   1      43.213  34.454  34.518  1.00  0.00    -0.200 F 
ATOM     75  C   UNL A   1      43.695  35.331  32.379  1.00  0.00     0.200 A 
ATOM     76  F   UNL A   1      44.155  36.161  30.218  1.00  0.00    -0.200 F 
ATOM     77  F   UNL A   1      43.733  36.572  32.880  1.00  0.00    -0.200 F 
ENDBRANCH  53  67
BRANCH  54  78
ATOM     78  C   UNL A   1      42.880  23.627  27.210  1.00  0.00     0.064 A 
ATOM     79  C   UNL A   1      43.274  23.438  25.878  1.00  0.00     0.173 A 
ATOM     80  C   UNL A   1      42.382  22.514  27.905  1.00  0.00     0.173 A 
ATOM     81  F   UNL A   1      43.733  24.475  25.163  1.00  0.00    -0.203 F 
ATOM     82  C   UNL A   1      43.150  22.196  25.258  1.00  0.00     0.198 A 
ATOM     83  C   UNL A   1      42.290  21.264  27.294  1.00  0.00     0.198 A 
ATOM     84  F   UNL A   1      41.989  22.638  29.180  1.00  0.00    -0.203 F 
ATOM     85  F   UNL A   1      43.482  22.057  23.968  1.00  0.00    -0.200 F 
ATOM     86  C   UNL A   1      42.665  21.108  25.969  1.00  0.00     0.200 A 
ATOM     87  F   UNL A   1      41.834  20.214  27.990  1.00  0.00    -0.200 F 
ATOM     88  F   UNL A   1      42.548  19.914  25.373  1.00  0.00    -0.200 F 
ENDBRANCH  54  78
BRANCH  66  89
ATOM     89  C   UNL A   1      48.168  27.357  29.820  1.00  0.00     0.064 A 
ATOM     90  C   UNL A   1      49.094  27.625  28.800  1.00  0.00     0.173 A 
ATOM     91  C   UNL A   1      48.658  26.847  31.033  1.00  0.00     0.173 A 
ATOM     92  F   UNL A   1      48.677  28.102  27.618  1.00  0.00    -0.203 F 
ATOM     93  C   UNL A   1      50.449  27.362  28.976  1.00  0.00     0.198 A 
ATOM     94  C   UNL A   1      50.020  26.621  31.218  1.00  0.00     0.198 A 
ATOM     95  F   UNL A   1      47.819  26.584  32.045  1.00  0.00    -0.203 F 
ATOM     96  F   UNL A   1      51.307  27.572  27.969  1.00  0.00    -0.200 F 
ATOM     97  C   UNL A   1      50.913  26.869  30.188  1.00  0.00     0.200 A 
ATOM     98  F   UNL A   1      50.465  26.164  32.396  1.00  0.00    -0.200 F 
ATOM     99  F   UNL A   1      52.219  26.627  30.359  1.00  0.00    -0.200 F 
ENDBRANCH  66  89
ENDBRANCH  40  41
ENDBRANCH  33  35
ENDBRANCH  32  33
ENDBRANCH  31  32
ENDBRANCH  30  31
ENDBRANCH  29  30
ENDBRANCH  28  29
ENDBRANCH  27  28
ENDBRANCH  26  27
ENDBRANCH   1  26
TORSDOF 24
ENDMDL
