MODEL 1
REMARK VINA RESULT:     -10.6      0.000      0.000
REMARK SMILES CNC(=O)[C@H](C)S(=O)(=O)c1cc(C(=O)OCCOCCOCCOCCOC(=O)c2ccc(-c3c4nc(c(-c5c(F)c(F)c(F)c(F)c5F)c5ccc([nH]5)c(-c5c(F)c(F)c(F)c(F)c5F)c5nc(c(-c6c(F)c(F)c(F)c(F)c6F)c6ccc3[nH]6)C=C5)C=C4)cc2)c(C)cc1C
REMARK SMILES IDX 20 1 19 2 18 3 17 4 16 5 15 6 13 7 14 8 12 9 10 10 11 11
REMARK SMILES IDX 96 12 95 13 97 14 93 15 94 16 7 17 8 18 9 19 5 20 6 21 3 22
REMARK SMILES IDX 1 23 2 24 4 26 21 27 22 28 23 29 24 30 25 31 26 32 27 33
REMARK SMILES IDX 28 34 29 35 30 36 31 37 92 38 32 39 91 40 33 41 34 42 35 43
REMARK SMILES IDX 85 44 36 45 90 46 84 47 86 48 37 49 89 50 83 51 82 52 38 54
REMARK SMILES IDX 70 55 50 56 69 57 51 58 54 59 68 60 87 61 52 62 53 63 67 65
REMARK SMILES IDX 88 66 55 67 39 68 40 69 48 70 41 71 42 72 46 73 49 74 43 75
REMARK SMILES IDX 44 76 47 77 45 78 71 79 72 80 80 81 73 82 74 83 78 84 81 85
REMARK SMILES IDX 75 86 76 87 79 88 77 89 56 90 57 91 65 92 58 93 59 94 63 95
REMARK SMILES IDX 66 96 60 97 61 98 64 99 62 100
REMARK H PARENT 2 25 86 53 54 64
REMARK Flexibility Score: inf
ROOT
ATOM      1  C   UNL A   1      43.067  20.197  25.733  1.00  0.00     0.188 C 
ENDROOT
BRANCH   1   2
ATOM      2  C   UNL A   1      41.809  19.445  26.214  1.00  0.00     0.188 C 
BRANCH   2   3
ATOM      3  O   UNL A   1      41.234  19.884  27.427  1.00  0.00    -0.376 OA
BRANCH   3   4
ATOM      4  C   UNL A   1      40.914  21.246  27.661  1.00  0.00     0.202 C 
BRANCH   4   5
ATOM      5  C   UNL A   1      40.266  22.220  26.656  1.00  0.00     0.261 C 
BRANCH   5   6
ATOM      6  O   UNL A   1      38.909  21.988  26.290  1.00  0.00    -0.460 OA
BRANCH   6   7
ATOM      7  C   UNL A   1      38.067  23.037  26.241  1.00  0.00     0.338 C 
ATOM      8  O   UNL A   1      38.355  24.200  26.464  1.00  0.00    -0.246 OA
BRANCH   7   9
ATOM      9  C   UNL A   1      36.770  22.602  25.640  1.00  0.00     0.064 A 
ATOM     10  C   UNL A   1      34.490  23.324  25.049  1.00  0.00     0.071 A 
ATOM     11  C   UNL A   1      35.750  23.585  25.611  1.00  0.00     0.036 A 
ATOM     12  C   UNL A   1      34.183  21.998  24.695  1.00  0.00    -0.032 A 
ATOM     13  C   UNL A   1      35.224  21.048  24.654  1.00  0.00     0.009 A 
ATOM     14  C   UNL A   1      32.805  21.460  24.416  1.00  0.00     0.046 C 
ATOM     15  C   UNL A   1      36.532  21.336  25.074  1.00  0.00    -0.036 A 
ATOM     16  C   UNL A   1      37.539  20.222  24.953  1.00  0.00     0.045 C 
BRANCH  10  17
ATOM     17  S   UNL A   1      33.281  24.653  24.967  1.00  0.00     0.190 S 
ATOM     18  O   UNL A   1      34.076  25.864  25.092  1.00  0.00    -0.223 OA
ATOM     19  O   UNL A   1      32.259  24.365  25.957  1.00  0.00    -0.223 OA
BRANCH  17  20
ATOM     20  C   UNL A   1      32.436  24.739  23.425  1.00  0.00     0.199 C 
ATOM     21  C   UNL A   1      33.159  24.299  22.168  1.00  0.00     0.036 C 
BRANCH  20  22
ATOM     22  C   UNL A   1      30.977  24.359  23.503  1.00  0.00     0.238 C 
ATOM     23  C   UNL A   1      30.003  26.581  24.268  1.00  0.00     0.142 C 
ATOM     24  N   UNL A   1      29.988  25.200  23.888  1.00  0.00    -0.358 N 
ATOM     25  H   UNL A   1      29.095  24.787  23.910  1.00  0.00     0.163 HD
ATOM     26  O   UNL A   1      30.628  23.191  23.289  1.00  0.00    -0.274 OA
ENDBRANCH  20  22
ENDBRANCH  17  20
ENDBRANCH  10  17
ENDBRANCH   7   9
ENDBRANCH   6   7
ENDBRANCH   5   6
ENDBRANCH   4   5
ENDBRANCH   3   4
ENDBRANCH   2   3
ENDBRANCH   1   2
BRANCH   1  27
ATOM     27  O   UNL A   1      43.767  19.522  24.706  1.00  0.00    -0.377 OA
BRANCH  27  28
ATOM     28  C   UNL A   1      45.091  19.089  25.003  1.00  0.00     0.188 C 
BRANCH  28  29
ATOM     29  C   UNL A   1      46.310  20.029  24.833  1.00  0.00     0.188 C 
BRANCH  29  30
ATOM     30  O   UNL A   1      46.094  21.358  25.294  1.00  0.00    -0.376 OA
BRANCH  30  31
ATOM     31  C   UNL A   1      46.086  22.412  24.345  1.00  0.00     0.202 C 
BRANCH  31  32
ATOM     32  C   UNL A   1      44.747  23.141  24.199  1.00  0.00     0.261 C 
BRANCH  32  33
ATOM     33  O   UNL A   1      44.345  23.914  25.336  1.00  0.00    -0.460 OA
BRANCH  33  34
ATOM     34  C   UNL A   1      44.765  25.197  25.383  1.00  0.00     0.338 C 
ATOM     35  O   UNL A   1      45.543  25.751  24.629  1.00  0.00    -0.246 OA
BRANCH  34  36
ATOM     36  C   UNL A   1      43.976  25.868  26.430  1.00  0.00     0.060 A 
ATOM     37  C   UNL A   1      44.163  27.237  26.668  1.00  0.00     0.016 A 
ATOM     38  C   UNL A   1      43.026  25.142  27.151  1.00  0.00     0.016 A 
ATOM     39  C   UNL A   1      43.413  27.881  27.652  1.00  0.00     0.010 A 
ATOM     40  C   UNL A   1      42.295  25.780  28.150  1.00  0.00     0.010 A 
ATOM     41  C   UNL A   1      42.509  27.142  28.426  1.00  0.00    -0.014 A 
BRANCH  41  42
ATOM     42  C   UNL A   1      41.956  27.696  29.682  1.00  0.00     0.031 A 
ATOM     43  C   UNL A   1      40.687  28.493  29.585  1.00  0.00     0.074 A 
ATOM     44  C   UNL A   1      42.588  27.554  30.861  1.00  0.00     0.049 A 
ATOM     45  N   UNL A   1      40.103  29.246  30.478  1.00  0.00    -0.248 NA
ATOM     46  C   UNL A   1      39.992  28.444  28.287  1.00  0.00     0.031 C 
ATOM     47  C   UNL A   1      43.792  26.762  31.086  1.00  0.00     0.029 A 
ATOM     48  N   UNL A   1      42.308  28.107  32.085  1.00  0.00    -0.354 N 
ATOM     49  C   UNL A   1      38.988  29.778  29.844  1.00  0.00     0.074 A 
ATOM     50  C   UNL A   1      38.988  29.282  28.486  1.00  0.00     0.031 C 
ATOM     51  C   UNL A   1      44.168  26.903  32.371  1.00  0.00     0.029 A 
ATOM     52  C   UNL A   1      43.258  27.833  33.038  1.00  0.00     0.049 A 
ATOM     53  H   UNL A   1      41.504  28.648  32.264  1.00  0.00     0.167 HD
ATOM     54  C   UNL A   1      38.049  30.610  30.352  1.00  0.00     0.037 A 
ATOM     55  C   UNL A   1      43.394  28.317  34.289  1.00  0.00     0.037 A 
ATOM     56  C   UNL A   1      38.064  31.104  31.702  1.00  0.00     0.049 A 
ATOM     57  C   UNL A   1      42.380  29.310  34.810  1.00  0.00     0.074 A 
ATOM     58  C   UNL A   1      37.159  31.945  32.322  1.00  0.00     0.029 A 
ATOM     59  N   UNL A   1      39.045  30.806  32.637  1.00  0.00    -0.354 N 
ATOM     60  N   UNL A   1      41.323  29.806  34.213  1.00  0.00    -0.248 NA
ATOM     61  C   UNL A   1      42.582  29.812  36.177  1.00  0.00     0.031 C 
ATOM     62  C   UNL A   1      37.624  32.205  33.614  1.00  0.00     0.029 A 
ATOM     63  C   UNL A   1      38.778  31.466  33.824  1.00  0.00     0.049 A 
ATOM     64  H   UNL A   1      39.815  30.214  32.479  1.00  0.00     0.167 HD
ATOM     65  C   UNL A   1      40.709  30.636  35.144  1.00  0.00     0.074 A 
ATOM     66  C   UNL A   1      41.515  30.581  36.345  1.00  0.00     0.031 C 
ATOM     67  C   UNL A   1      39.576  31.370  35.020  1.00  0.00     0.037 A 
BRANCH  54  68
ATOM     68  C   UNL A   1      36.956  31.066  29.431  1.00  0.00     0.064 A 
ATOM     69  C   UNL A   1      35.915  30.213  29.034  1.00  0.00     0.173 A 
ATOM     70  C   UNL A   1      36.940  32.385  28.952  1.00  0.00     0.173 A 
ATOM     71  F   UNL A   1      35.894  28.936  29.448  1.00  0.00    -0.203 F 
ATOM     72  C   UNL A   1      34.916  30.653  28.170  1.00  0.00     0.198 A 
ATOM     73  C   UNL A   1      35.921  32.833  28.116  1.00  0.00     0.198 A 
ATOM     74  F   UNL A   1      37.911  33.243  29.298  1.00  0.00    -0.203 F 
ATOM     75  F   UNL A   1      33.966  29.803  27.760  1.00  0.00    -0.200 F 
ATOM     76  C   UNL A   1      34.915  31.964  27.719  1.00  0.00     0.200 A 
ATOM     77  F   UNL A   1      35.915  34.103  27.692  1.00  0.00    -0.200 F 
ATOM     78  F   UNL A   1      33.949  32.389  26.892  1.00  0.00    -0.200 F 
ENDBRANCH  54  68
BRANCH  55  79
ATOM     79  C   UNL A   1      44.540  27.893  35.136  1.00  0.00     0.064 A 
ATOM     80  C   UNL A   1      45.724  28.643  35.176  1.00  0.00     0.173 A 
ATOM     81  C   UNL A   1      44.491  26.716  35.900  1.00  0.00     0.173 A 
ATOM     82  F   UNL A   1      45.832  29.761  34.444  1.00  0.00    -0.203 F 
ATOM     83  C   UNL A   1      46.820  28.223  35.928  1.00  0.00     0.198 A 
ATOM     84  C   UNL A   1      45.575  26.314  36.677  1.00  0.00     0.198 A 
ATOM     85  F   UNL A   1      43.383  25.959  35.896  1.00  0.00    -0.203 F 
ATOM     86  F   UNL A   1      47.956  28.932  35.905  1.00  0.00    -0.200 F 
ATOM     87  C   UNL A   1      46.742  27.062  36.683  1.00  0.00     0.200 A 
ATOM     88  F   UNL A   1      45.491  25.199  37.415  1.00  0.00    -0.200 F 
ATOM     89  F   UNL A   1      47.795  26.659  37.407  1.00  0.00    -0.200 F 
ENDBRANCH  55  79
BRANCH  67  90
ATOM     90  C   UNL A   1      39.081  32.112  36.230  1.00  0.00     0.064 A 
ATOM     91  C   UNL A   1      39.435  33.443  36.487  1.00  0.00     0.173 A 
ATOM     92  C   UNL A   1      38.167  31.495  37.101  1.00  0.00     0.173 A 
ATOM     93  F   UNL A   1      40.313  34.074  35.692  1.00  0.00    -0.203 F 
ATOM     94  C   UNL A   1      38.905  34.126  37.579  1.00  0.00     0.198 A 
ATOM     95  C   UNL A   1      37.613  32.191  38.171  1.00  0.00     0.198 A 
ATOM     96  F   UNL A   1      37.788  30.225  36.894  1.00  0.00    -0.203 F 
ATOM     97  F   UNL A   1      39.285  35.387  37.828  1.00  0.00    -0.200 F 
ATOM     98  C   UNL A   1      37.986  33.503  38.413  1.00  0.00     0.200 A 
ATOM     99  F   UNL A   1      36.711  31.593  38.961  1.00  0.00    -0.200 F 
ATOM    100  F   UNL A   1      37.462  34.170  39.450  1.00  0.00    -0.200 F 
ENDBRANCH  67  90
ENDBRANCH  41  42
ENDBRANCH  34  36
ENDBRANCH  33  34
ENDBRANCH  32  33
ENDBRANCH  31  32
ENDBRANCH  30  31
ENDBRANCH  29  30
ENDBRANCH  28  29
ENDBRANCH  27  28
ENDBRANCH   1  27
TORSDOF 23
ENDMDL
MODEL 2
REMARK VINA RESULT:      -9.9      5.182     10.816
REMARK SMILES CNC(=O)[C@H](C)S(=O)(=O)c1cc(C(=O)OCCOCCOCCOCCOC(=O)c2ccc(-c3c4nc(c(-c5c(F)c(F)c(F)c(F)c5F)c5ccc([nH]5)c(-c5c(F)c(F)c(F)c(F)c5F)c5nc(c(-c6c(F)c(F)c(F)c(F)c6F)c6ccc3[nH]6)C=C5)C=C4)cc2)c(C)cc1C
REMARK SMILES IDX 20 1 19 2 18 3 17 4 16 5 15 6 13 7 14 8 12 9 10 10 11 11
REMARK SMILES IDX 96 12 95 13 97 14 93 15 94 16 7 17 8 18 9 19 5 20 6 21 3 22
REMARK SMILES IDX 1 23 2 24 4 26 21 27 22 28 23 29 24 30 25 31 26 32 27 33
REMARK SMILES IDX 28 34 29 35 30 36 31 37 92 38 32 39 91 40 33 41 34 42 35 43
REMARK SMILES IDX 85 44 36 45 90 46 84 47 86 48 37 49 89 50 83 51 82 52 38 54
REMARK SMILES IDX 70 55 50 56 69 57 51 58 54 59 68 60 87 61 52 62 53 63 67 65
REMARK SMILES IDX 88 66 55 67 39 68 40 69 48 70 41 71 42 72 46 73 49 74 43 75
REMARK SMILES IDX 44 76 47 77 45 78 71 79 72 80 80 81 73 82 74 83 78 84 81 85
REMARK SMILES IDX 75 86 76 87 79 88 77 89 56 90 57 91 65 92 58 93 59 94 63 95
REMARK SMILES IDX 66 96 60 97 61 98 64 99 62 100
REMARK H PARENT 2 25 86 53 54 64
REMARK Flexibility Score: inf
ROOT
ATOM      1  C   UNL A   1      34.142  33.365  28.802  1.00  0.00     0.188 C 
ENDROOT
BRANCH   1   2
ATOM      2  C   UNL A   1      34.346  32.075  27.981  1.00  0.00     0.188 C 
BRANCH   2   3
ATOM      3  O   UNL A   1      35.066  31.033  28.606  1.00  0.00    -0.376 OA
BRANCH   3   4
ATOM      4  C   UNL A   1      35.319  29.797  27.958  1.00  0.00     0.202 C 
BRANCH   4   5
ATOM      5  C   UNL A   1      34.728  29.331  26.612  1.00  0.00     0.261 C 
BRANCH   5   6
ATOM      6  O   UNL A   1      34.013  28.099  26.595  1.00  0.00    -0.460 OA
BRANCH   6   7
ATOM      7  C   UNL A   1      33.655  27.579  25.406  1.00  0.00     0.338 C 
ATOM      8  O   UNL A   1      33.851  28.081  24.314  1.00  0.00    -0.246 OA
BRANCH   7   9
ATOM      9  C   UNL A   1      33.188  26.172  25.603  1.00  0.00     0.064 A 
ATOM     10  C   UNL A   1      33.917  23.841  25.914  1.00  0.00     0.071 A 
ATOM     11  C   UNL A   1      34.210  25.197  25.700  1.00  0.00     0.036 A 
ATOM     12  C   UNL A   1      32.575  23.429  25.827  1.00  0.00    -0.032 A 
ATOM     13  C   UNL A   1      31.564  24.412  25.809  1.00  0.00     0.009 A 
ATOM     14  C   UNL A   1      32.099  22.009  25.677  1.00  0.00     0.046 C 
ATOM     15  C   UNL A   1      31.842  25.787  25.746  1.00  0.00    -0.036 A 
ATOM     16  C   UNL A   1      30.655  26.714  25.752  1.00  0.00     0.045 C 
BRANCH  10  17
ATOM     17  S   UNL A   1      35.276  22.679  26.118  1.00  0.00     0.190 S 
ATOM     18  O   UNL A   1      34.757  21.687  27.046  1.00  0.00    -0.223 OA
ATOM     19  O   UNL A   1      36.450  23.451  26.481  1.00  0.00    -0.223 OA
BRANCH  17  20
ATOM     20  C   UNL A   1      35.704  21.833  24.634  1.00  0.00     0.199 C 
ATOM     21  C   UNL A   1      36.364  22.610  23.513  1.00  0.00     0.036 C 
BRANCH  20  22
ATOM     22  C   UNL A   1      36.231  20.436  24.854  1.00  0.00     0.238 C 
ATOM     23  C   UNL A   1      34.037  19.149  24.820  1.00  0.00     0.142 C 
ATOM     24  N   UNL A   1      35.452  19.331  24.937  1.00  0.00    -0.358 N 
ATOM     25  H   UNL A   1      35.951  18.500  25.110  1.00  0.00     0.163 HD
ATOM     26  O   UNL A   1      37.437  20.252  25.059  1.00  0.00    -0.274 OA
ENDBRANCH  20  22
ENDBRANCH  17  20
ENDBRANCH  10  17
ENDBRANCH   7   9
ENDBRANCH   6   7
ENDBRANCH   5   6
ENDBRANCH   4   5
ENDBRANCH   3   4
ENDBRANCH   2   3
ENDBRANCH   1   2
BRANCH   1  27
ATOM     27  O   UNL A   1      33.116  34.196  28.297  1.00  0.00    -0.377 OA
BRANCH  27  28
ATOM     28  C   UNL A   1      32.905  35.439  28.959  1.00  0.00     0.188 C 
BRANCH  28  29
ATOM     29  C   UNL A   1      33.539  35.740  30.340  1.00  0.00     0.188 C 
BRANCH  29  30
ATOM     30  O   UNL A   1      32.596  36.027  31.367  1.00  0.00    -0.376 OA
BRANCH  30  31
ATOM     31  C   UNL A   1      33.081  36.383  32.651  1.00  0.00     0.202 C 
BRANCH  31  32
ATOM     32  C   UNL A   1      34.534  35.982  32.928  1.00  0.00     0.261 C 
BRANCH  32  33
ATOM     33  O   UNL A   1      34.701  34.852  33.791  1.00  0.00    -0.460 OA
BRANCH  33  34
ATOM     34  C   UNL A   1      34.471  33.633  33.256  1.00  0.00     0.338 C 
ATOM     35  O   UNL A   1      33.395  33.109  33.040  1.00  0.00    -0.246 OA
BRANCH  34  36
ATOM     36  C   UNL A   1      35.775  33.103  32.820  1.00  0.00     0.060 A 
ATOM     37  C   UNL A   1      36.576  32.401  33.731  1.00  0.00     0.016 A 
ATOM     38  C   UNL A   1      36.183  33.276  31.496  1.00  0.00     0.016 A 
ATOM     39  C   UNL A   1      37.808  31.888  33.323  1.00  0.00     0.010 A 
ATOM     40  C   UNL A   1      37.423  32.786  31.095  1.00  0.00     0.010 A 
ATOM     41  C   UNL A   1      38.253  32.119  32.015  1.00  0.00    -0.014 A 
BRANCH  41  42
ATOM     42  C   UNL A   1      39.669  31.899  31.645  1.00  0.00     0.031 A 
ATOM     43  C   UNL A   1      40.637  33.013  31.928  1.00  0.00     0.074 A 
ATOM     44  C   UNL A   1      40.077  30.780  31.024  1.00  0.00     0.049 A 
ATOM     45  N   UNL A   1      41.872  33.167  31.533  1.00  0.00    -0.248 NA
ATOM     46  C   UNL A   1      40.125  34.117  32.758  1.00  0.00     0.031 C 
ATOM     47  C   UNL A   1      39.244  29.614  30.747  1.00  0.00     0.029 A 
ATOM     48  N   UNL A   1      41.299  30.462  30.486  1.00  0.00    -0.354 N 
ATOM     49  C   UNL A   1      42.276  34.392  32.046  1.00  0.00     0.074 A 
ATOM     50  C   UNL A   1      41.151  34.952  32.760  1.00  0.00     0.031 C 
ATOM     51  C   UNL A   1      39.973  28.715  30.061  1.00  0.00     0.029 A 
ATOM     52  C   UNL A   1      41.304  29.265  29.811  1.00  0.00     0.049 A 
ATOM     53  H   UNL A   1      42.095  31.036  30.575  1.00  0.00     0.167 HD
ATOM     54  C   UNL A   1      43.482  34.997  31.928  1.00  0.00     0.037 A 
ATOM     55  C   UNL A   1      42.264  28.708  29.046  1.00  0.00     0.037 A 
ATOM     56  C   UNL A   1      44.592  34.433  31.208  1.00  0.00     0.049 A 
ATOM     57  C   UNL A   1      43.574  29.438  28.859  1.00  0.00     0.074 A 
ATOM     58  C   UNL A   1      45.859  34.956  31.032  1.00  0.00     0.029 A 
ATOM     59  N   UNL A   1      44.558  33.220  30.535  1.00  0.00    -0.354 N 
ATOM     60  N   UNL A   1      43.959  30.592  29.351  1.00  0.00    -0.248 NA
ATOM     61  C   UNL A   1      44.582  28.789  28.007  1.00  0.00     0.031 C 
ATOM     62  C   UNL A   1      46.574  34.089  30.201  1.00  0.00     0.029 A 
ATOM     63  C   UNL A   1      45.778  32.989  29.923  1.00  0.00     0.049 A 
ATOM     64  H   UNL A   1      43.782  32.615  30.499  1.00  0.00     0.167 HD
ATOM     65  C   UNL A   1      45.264  30.782  28.910  1.00  0.00     0.074 A 
ATOM     66  C   UNL A   1      45.604  29.627  28.107  1.00  0.00     0.031 C 
ATOM     67  C   UNL A   1      46.108  31.815  29.156  1.00  0.00     0.037 A 
BRANCH  54  68
ATOM     68  C   UNL A   1      43.644  36.349  32.558  1.00  0.00     0.064 A 
ATOM     69  C   UNL A   1      43.859  36.505  33.935  1.00  0.00     0.173 A 
ATOM     70  C   UNL A   1      43.602  37.507  31.765  1.00  0.00     0.173 A 
ATOM     71  F   UNL A   1      43.888  35.432  34.740  1.00  0.00    -0.203 F 
ATOM     72  C   UNL A   1      43.995  37.771  34.500  1.00  0.00     0.198 A 
ATOM     73  C   UNL A   1      43.774  38.768  32.328  1.00  0.00     0.198 A 
ATOM     74  F   UNL A   1      43.398  37.415  30.443  1.00  0.00    -0.203 F 
ATOM     75  F   UNL A   1      44.142  37.898  35.826  1.00  0.00    -0.200 F 
ATOM     76  C   UNL A   1      43.962  38.899  33.696  1.00  0.00     0.200 A 
ATOM     77  F   UNL A   1      43.755  39.856  31.546  1.00  0.00    -0.200 F 
ATOM     78  F   UNL A   1      44.101  40.116  34.240  1.00  0.00    -0.200 F 
ENDBRANCH  54  68
BRANCH  55  79
ATOM     79  C   UNL A   1      42.025  27.400  28.380  1.00  0.00     0.064 A 
ATOM     80  C   UNL A   1      41.374  27.331  27.140  1.00  0.00     0.173 A 
ATOM     81  C   UNL A   1      42.415  26.192  28.977  1.00  0.00     0.173 A 
ATOM     82  F   UNL A   1      40.957  28.456  26.540  1.00  0.00    -0.203 F 
ATOM     83  C   UNL A   1      41.101  26.105  26.536  1.00  0.00     0.198 A 
ATOM     84  C   UNL A   1      42.172  24.969  28.356  1.00  0.00     0.198 A 
ATOM     85  F   UNL A   1      43.041  26.199  30.164  1.00  0.00    -0.203 F 
ATOM     86  F   UNL A   1      40.429  26.067  25.377  1.00  0.00    -0.200 F 
ATOM     87  C   UNL A   1      41.507  24.925  27.141  1.00  0.00     0.200 A 
ATOM     88  F   UNL A   1      42.577  23.831  28.938  1.00  0.00    -0.200 F 
ATOM     89  F   UNL A   1      41.247  23.747  26.558  1.00  0.00    -0.200 F 
ENDBRANCH  55  79
BRANCH  67  90
ATOM     90  C   UNL A   1      47.511  31.718  28.627  1.00  0.00     0.064 A 
ATOM     91  C   UNL A   1      47.917  32.380  27.461  1.00  0.00     0.173 A 
ATOM     92  C   UNL A   1      48.485  31.014  29.356  1.00  0.00     0.173 A 
ATOM     93  F   UNL A   1      47.025  33.057  26.722  1.00  0.00    -0.203 F 
ATOM     94  C   UNL A   1      49.243  32.328  27.035  1.00  0.00     0.198 A 
ATOM     95  C   UNL A   1      49.813  30.993  28.946  1.00  0.00     0.198 A 
ATOM     96  F   UNL A   1      48.149  30.372  30.485  1.00  0.00    -0.203 F 
ATOM     97  F   UNL A   1      49.602  32.938  25.896  1.00  0.00    -0.200 F 
ATOM     98  C   UNL A   1      50.191  31.645  27.783  1.00  0.00     0.200 A 
ATOM     99  F   UNL A   1      50.730  30.350  29.682  1.00  0.00    -0.200 F 
ATOM    100  F   UNL A   1      51.469  31.616  27.382  1.00  0.00    -0.200 F 
ENDBRANCH  67  90
ENDBRANCH  41  42
ENDBRANCH  34  36
ENDBRANCH  33  34
ENDBRANCH  32  33
ENDBRANCH  31  32
ENDBRANCH  30  31
ENDBRANCH  29  30
ENDBRANCH  28  29
ENDBRANCH  27  28
ENDBRANCH   1  27
TORSDOF 23
ENDMDL
MODEL 3
REMARK VINA RESULT:      -9.7      4.653      9.193
REMARK SMILES CNC(=O)[C@H](C)S(=O)(=O)c1cc(C(=O)OCCOCCOCCOCCOC(=O)c2ccc(-c3c4nc(c(-c5c(F)c(F)c(F)c(F)c5F)c5ccc([nH]5)c(-c5c(F)c(F)c(F)c(F)c5F)c5nc(c(-c6c(F)c(F)c(F)c(F)c6F)c6ccc3[nH]6)C=C5)C=C4)cc2)c(C)cc1C
REMARK SMILES IDX 20 1 19 2 18 3 17 4 16 5 15 6 13 7 14 8 12 9 10 10 11 11
REMARK SMILES IDX 96 12 95 13 97 14 93 15 94 16 7 17 8 18 9 19 5 20 6 21 3 22
REMARK SMILES IDX 1 23 2 24 4 26 21 27 22 28 23 29 24 30 25 31 26 32 27 33
REMARK SMILES IDX 28 34 29 35 30 36 31 37 92 38 32 39 91 40 33 41 34 42 35 43
REMARK SMILES IDX 85 44 36 45 90 46 84 47 86 48 37 49 89 50 83 51 82 52 38 54
REMARK SMILES IDX 70 55 50 56 69 57 51 58 54 59 68 60 87 61 52 62 53 63 67 65
REMARK SMILES IDX 88 66 55 67 39 68 40 69 48 70 41 71 42 72 46 73 49 74 43 75
REMARK SMILES IDX 44 76 47 77 45 78 71 79 72 80 80 81 73 82 74 83 78 84 81 85
REMARK SMILES IDX 75 86 76 87 79 88 77 89 56 90 57 91 65 92 58 93 59 94 63 95
REMARK SMILES IDX 66 96 60 97 61 98 64 99 62 100
REMARK H PARENT 2 25 86 53 54 64
REMARK Flexibility Score: inf
ROOT
ATOM      1  C   UNL A   1      41.244  25.372  28.403  1.00  0.00     0.188 C 
ENDROOT
BRANCH   1   2
ATOM      2  C   UNL A   1      40.755  26.834  28.351  1.00  0.00     0.188 C 
BRANCH   2   3
ATOM      3  O   UNL A   1      40.581  27.489  29.590  1.00  0.00    -0.376 OA
BRANCH   3   4
ATOM      4  C   UNL A   1      39.353  27.447  30.299  1.00  0.00     0.202 C 
BRANCH   4   5
ATOM      5  C   UNL A   1      38.589  28.654  30.879  1.00  0.00     0.261 C 
BRANCH   5   6
ATOM      6  O   UNL A   1      38.830  28.999  32.240  1.00  0.00    -0.460 OA
BRANCH   6   7
ATOM      7  C   UNL A   1      39.414  30.181  32.512  1.00  0.00     0.338 C 
ATOM      8  O   UNL A   1      40.504  30.552  32.112  1.00  0.00    -0.246 OA
BRANCH   7   9
ATOM      9  C   UNL A   1      38.426  31.077  33.186  1.00  0.00     0.064 A 
ATOM     10  C   UNL A   1      36.496  32.565  32.827  1.00  0.00     0.071 A 
ATOM     11  C   UNL A   1      37.499  31.718  32.328  1.00  0.00     0.036 A 
ATOM     12  C   UNL A   1      36.551  32.932  34.184  1.00  0.00    -0.032 A 
ATOM     13  C   UNL A   1      37.424  32.231  35.041  1.00  0.00     0.009 A 
ATOM     14  C   UNL A   1      35.803  34.075  34.817  1.00  0.00     0.046 C 
ATOM     15  C   UNL A   1      38.334  31.268  34.577  1.00  0.00    -0.036 A 
ATOM     16  C   UNL A   1      39.188  30.592  35.617  1.00  0.00     0.045 C 
BRANCH  10  17
ATOM     17  S   UNL A   1      35.301  33.268  31.681  1.00  0.00     0.190 S 
ATOM     18  O   UNL A   1      35.475  34.704  31.825  1.00  0.00    -0.223 OA
ATOM     19  O   UNL A   1      34.013  32.671  31.985  1.00  0.00    -0.223 OA
BRANCH  17  20
ATOM     20  C   UNL A   1      35.624  32.867  29.997  1.00  0.00     0.199 C 
ATOM     21  C   UNL A   1      34.744  31.844  29.306  1.00  0.00     0.036 C 
BRANCH  20  22
ATOM     22  C   UNL A   1      36.033  34.050  29.153  1.00  0.00     0.238 C 
ATOM     23  C   UNL A   1      38.500  34.167  29.762  1.00  0.00     0.142 C 
ATOM     24  N   UNL A   1      37.286  34.562  29.113  1.00  0.00    -0.358 N 
ATOM     25  H   UNL A   1      37.379  35.351  28.532  1.00  0.00     0.163 HD
ATOM     26  O   UNL A   1      35.184  34.671  28.502  1.00  0.00    -0.274 OA
ENDBRANCH  20  22
ENDBRANCH  17  20
ENDBRANCH  10  17
ENDBRANCH   7   9
ENDBRANCH   6   7
ENDBRANCH   5   6
ENDBRANCH   4   5
ENDBRANCH   3   4
ENDBRANCH   2   3
ENDBRANCH   1   2
BRANCH   1  27
ATOM     27  O   UNL A   1      40.862  24.611  27.274  1.00  0.00    -0.377 OA
BRANCH  27  28
ATOM     28  C   UNL A   1      40.588  23.230  27.487  1.00  0.00     0.188 C 
BRANCH  28  29
ATOM     29  C   UNL A   1      40.903  22.164  26.408  1.00  0.00     0.188 C 
BRANCH  29  30
ATOM     30  O   UNL A   1      42.292  21.970  26.164  1.00  0.00    -0.376 OA
BRANCH  30  31
ATOM     31  C   UNL A   1      42.919  22.750  25.160  1.00  0.00     0.202 C 
BRANCH  31  32
ATOM     32  C   UNL A   1      44.105  23.591  25.642  1.00  0.00     0.261 C 
BRANCH  32  33
ATOM     33  O   UNL A   1      44.092  24.961  25.223  1.00  0.00    -0.460 OA
BRANCH  33  34
ATOM     34  C   UNL A   1      45.280  25.604  25.197  1.00  0.00     0.338 C 
ATOM     35  O   UNL A   1      46.241  25.360  24.492  1.00  0.00    -0.246 OA
BRANCH  34  36
ATOM     36  C   UNL A   1      45.150  26.780  26.075  1.00  0.00     0.060 A 
ATOM     37  C   UNL A   1      46.300  27.368  26.619  1.00  0.00     0.016 A 
ATOM     38  C   UNL A   1      43.886  27.316  26.328  1.00  0.00     0.016 A 
ATOM     39  C   UNL A   1      46.185  28.487  27.444  1.00  0.00     0.010 A 
ATOM     40  C   UNL A   1      43.769  28.418  27.171  1.00  0.00     0.010 A 
ATOM     41  C   UNL A   1      44.914  28.987  27.757  1.00  0.00    -0.014 A 
BRANCH  41  42
ATOM     42  C   UNL A   1      44.727  29.936  28.878  1.00  0.00     0.031 A 
ATOM     43  C   UNL A   1      44.433  29.356  30.232  1.00  0.00     0.074 A 
ATOM     44  C   UNL A   1      44.754  31.267  28.694  1.00  0.00     0.049 A 
ATOM     45  N   UNL A   1      44.035  29.948  31.326  1.00  0.00    -0.248 NA
ATOM     46  C   UNL A   1      44.594  27.897  30.357  1.00  0.00     0.031 C 
ATOM     47  C   UNL A   1      45.080  31.943  27.443  1.00  0.00     0.029 A 
ATOM     48  N   UNL A   1      44.467  32.286  29.568  1.00  0.00    -0.354 N 
ATOM     49  C   UNL A   1      43.875  28.933  32.260  1.00  0.00     0.074 A 
ATOM     50  C   UNL A   1      44.196  27.687  31.601  1.00  0.00     0.031 C 
ATOM     51  C   UNL A   1      44.946  33.270  27.621  1.00  0.00     0.029 A 
ATOM     52  C   UNL A   1      44.478  33.528  28.982  1.00  0.00     0.049 A 
ATOM     53  H   UNL A   1      44.271  32.140  30.522  1.00  0.00     0.167 HD
ATOM     54  C   UNL A   1      43.492  29.034  33.554  1.00  0.00     0.037 A 
ATOM     55  C   UNL A   1      44.109  34.724  29.482  1.00  0.00     0.037 A 
ATOM     56  C   UNL A   1      43.167  30.279  34.196  1.00  0.00     0.049 A 
ATOM     57  C   UNL A   1      43.604  34.804  30.904  1.00  0.00     0.074 A 
ATOM     58  C   UNL A   1      42.775  30.497  35.504  1.00  0.00     0.029 A 
ATOM     59  N   UNL A   1      43.188  31.516  33.569  1.00  0.00    -0.354 N 
ATOM     60  N   UNL A   1      43.462  33.847  31.790  1.00  0.00    -0.248 NA
ATOM     61  C   UNL A   1      43.206  36.132  31.395  1.00  0.00     0.031 C 
ATOM     62  C   UNL A   1      42.499  31.859  35.652  1.00  0.00     0.029 A 
ATOM     63  C   UNL A   1      42.793  32.501  34.459  1.00  0.00     0.049 A 
ATOM     64  H   UNL A   1      43.445  31.671  32.631  1.00  0.00     0.167 HD
ATOM     65  C   UNL A   1      43.007  34.461  32.951  1.00  0.00     0.074 A 
ATOM     66  C   UNL A   1      42.893  35.874  32.657  1.00  0.00     0.031 C 
ATOM     67  C   UNL A   1      42.719  33.907  34.155  1.00  0.00     0.037 A 
BRANCH  54  68
ATOM     68  C   UNL A   1      43.367  27.764  34.342  1.00  0.00     0.064 A 
ATOM     69  C   UNL A   1      42.155  27.063  34.433  1.00  0.00     0.173 A 
ATOM     70  C   UNL A   1      44.484  27.229  35.002  1.00  0.00     0.173 A 
ATOM     71  F   UNL A   1      41.052  27.543  33.837  1.00  0.00    -0.203 F 
ATOM     72  C   UNL A   1      42.058  25.892  35.179  1.00  0.00     0.198 A 
ATOM     73  C   UNL A   1      44.393  26.039  35.718  1.00  0.00     0.198 A 
ATOM     74  F   UNL A   1      45.667  27.858  34.949  1.00  0.00    -0.203 F 
ATOM     75  F   UNL A   1      40.876  25.272  35.299  1.00  0.00    -0.200 F 
ATOM     76  C   UNL A   1      43.178  25.376  35.813  1.00  0.00     0.200 A 
ATOM     77  F   UNL A   1      45.479  25.536  36.318  1.00  0.00    -0.200 F 
ATOM     78  F   UNL A   1      43.085  24.244  36.525  1.00  0.00    -0.200 F 
ENDBRANCH  54  68
BRANCH  55  79
ATOM     79  C   UNL A   1      44.179  35.944  28.635  1.00  0.00     0.064 A 
ATOM     80  C   UNL A   1      43.044  36.424  27.966  1.00  0.00     0.173 A 
ATOM     81  C   UNL A   1      45.384  36.640  28.451  1.00  0.00     0.173 A 
ATOM     82  F   UNL A   1      41.874  35.779  28.088  1.00  0.00    -0.203 F 
ATOM     83  C   UNL A   1      43.115  37.537  27.130  1.00  0.00     0.198 A 
ATOM     84  C   UNL A   1      45.447  37.771  27.640  1.00  0.00     0.198 A 
ATOM     85  F   UNL A   1      46.501  36.223  29.065  1.00  0.00    -0.203 F 
ATOM     86  F   UNL A   1      42.026  37.941  26.462  1.00  0.00    -0.200 F 
ATOM     87  C   UNL A   1      44.315  38.214  26.973  1.00  0.00     0.200 A 
ATOM     88  F   UNL A   1      46.606  38.430  27.502  1.00  0.00    -0.200 F 
ATOM     89  F   UNL A   1      44.384  39.285  26.171  1.00  0.00    -0.200 F 
ENDBRANCH  55  79
BRANCH  67  90
ATOM     90  C   UNL A   1      42.332  34.828  35.279  1.00  0.00     0.064 A 
ATOM     91  C   UNL A   1      40.995  35.101  35.593  1.00  0.00     0.173 A 
ATOM     92  C   UNL A   1      43.328  35.376  36.105  1.00  0.00     0.173 A 
ATOM     93  F   UNL A   1      40.007  34.611  34.829  1.00  0.00    -0.203 F 
ATOM     94  C   UNL A   1      40.667  35.903  36.685  1.00  0.00     0.198 A 
ATOM     95  C   UNL A   1      42.995  36.147  37.214  1.00  0.00     0.198 A 
ATOM     96  F   UNL A   1      44.623  35.136  35.853  1.00  0.00    -0.203 F 
ATOM     97  F   UNL A   1      39.382  36.182  36.946  1.00  0.00    -0.200 F 
ATOM     98  C   UNL A   1      41.666  36.415  37.500  1.00  0.00     0.200 A 
ATOM     99  F   UNL A   1      43.962  36.623  38.011  1.00  0.00    -0.200 F 
ATOM    100  F   UNL A   1      41.346  37.167  38.562  1.00  0.00    -0.200 F 
ENDBRANCH  67  90
ENDBRANCH  41  42
ENDBRANCH  34  36
ENDBRANCH  33  34
ENDBRANCH  32  33
ENDBRANCH  31  32
ENDBRANCH  30  31
ENDBRANCH  29  30
ENDBRANCH  28  29
ENDBRANCH  27  28
ENDBRANCH   1  27
TORSDOF 23
ENDMDL
