MODEL 1
REMARK VINA RESULT:     -11.1      0.000      0.000
REMARK SMILES CS(=O)(=O)c1ccc(/C=C(/C(=O)OCCOCCOCCOCCOC(=O)c2ccc(-c3c4nc(c(-c5c(F)c(F)c(F)c(F)c5F)c5ccc([nH]5)c(-c5c(F)c(F)c(F)c(F)c5F)c5nc(c(-c6c(F)c(F)c(F)c(F)c6F)c6ccc3[nH]6)C=C5)C=C4)cc2)c2ccccc2)cc1
REMARK SMILES IDX 19 1 18 2 17 3 16 4 15 5 14 6 13 7 11 8 12 9 10 10 9 11 8 12
REMARK SMILES IDX 5 13 6 14 98 15 7 16 97 17 2 18 1 19 3 20 4 21 91 22 92 23
REMARK SMILES IDX 96 24 93 25 95 26 94 27 20 28 21 29 22 30 23 31 24 32 25 33
REMARK SMILES IDX 26 34 27 35 28 36 29 37 90 38 30 39 89 40 31 41 32 42 33 43
REMARK SMILES IDX 83 44 34 45 88 46 82 47 84 48 35 49 87 50 81 51 80 52 36 54
REMARK SMILES IDX 68 55 48 56 67 57 49 58 52 59 66 60 85 61 50 62 51 63 65 65
REMARK SMILES IDX 86 66 53 67 37 68 38 69 46 70 39 71 40 72 44 73 47 74 41 75
REMARK SMILES IDX 42 76 45 77 43 78 69 79 70 80 78 81 71 82 72 83 76 84 79 85
REMARK SMILES IDX 73 86 74 87 77 88 75 89 54 90 55 91 63 92 56 93 57 94 61 95
REMARK SMILES IDX 64 96 58 97 59 98 62 99 60 100
REMARK H PARENT 84 53 52 64
REMARK Flexibility Score: inf
ROOT
ATOM      1  O   UNL A   1      32.845  20.734  26.151  1.00  0.00    -0.377 OA
ENDROOT
BRANCH   1   2
ATOM      2  C   UNL A   1      33.655  21.454  27.066  1.00  0.00     0.188 C 
BRANCH   2   3
ATOM      3  C   UNL A   1      33.045  22.657  27.821  1.00  0.00     0.188 C 
BRANCH   3   4
ATOM      4  O   UNL A   1      31.645  22.786  27.644  1.00  0.00    -0.376 OA
BRANCH   4   5
ATOM      5  C   UNL A   1      31.191  23.765  26.728  1.00  0.00     0.202 C 
BRANCH   5   6
ATOM      6  C   UNL A   1      30.903  23.332  25.280  1.00  0.00     0.261 C 
BRANCH   6   7
ATOM      7  O   UNL A   1      31.758  23.883  24.265  1.00  0.00    -0.460 OA
BRANCH   7   8
ATOM      8  C   UNL A   1      32.616  24.866  24.633  1.00  0.00     0.338 C 
ATOM      9  O   UNL A   1      33.765  24.690  25.008  1.00  0.00    -0.246 OA
BRANCH   8  10
ATOM     10  C   UNL A   1      32.010  26.221  24.373  1.00  0.00     0.067 C 
ATOM     11  C   UNL A   1      31.244  26.403  23.269  1.00  0.00     0.024 C 
BRANCH  11  12
ATOM     12  C   UNL A   1      30.403  27.571  22.898  1.00  0.00    -0.025 A 
ATOM     13  C   UNL A   1      28.834  29.893  22.689  1.00  0.00     0.067 A 
ATOM     14  C   UNL A   1      30.119  29.878  22.156  1.00  0.00     0.021 A 
ATOM     15  C   UNL A   1      28.272  28.725  23.199  1.00  0.00     0.021 A 
ATOM     16  C   UNL A   1      30.877  28.710  22.232  1.00  0.00     0.009 A 
ATOM     17  C   UNL A   1      29.058  27.570  23.301  1.00  0.00     0.009 A 
BRANCH  13  18
ATOM     18  S   UNL A   1      27.945  31.428  22.734  1.00  0.00     0.175 S 
ATOM     19  C   UNL A   1      29.139  32.595  23.347  1.00  0.00     0.163 C 
ATOM     20  O   UNL A   1      26.904  31.305  23.737  1.00  0.00    -0.224 OA
ATOM     21  O   UNL A   1      27.630  31.774  21.363  1.00  0.00    -0.224 OA
ENDBRANCH  13  18
ENDBRANCH  11  12
BRANCH  10  22
ATOM     22  C   UNL A   1      32.264  27.291  25.362  1.00  0.00    -0.011 A 
ATOM     23  C   UNL A   1      31.460  27.399  26.513  1.00  0.00     0.009 A 
ATOM     24  C   UNL A   1      33.383  28.118  25.244  1.00  0.00     0.009 A 
ATOM     25  C   UNL A   1      31.780  28.294  27.533  1.00  0.00     0.001 A 
ATOM     26  C   UNL A   1      33.709  29.006  26.273  1.00  0.00     0.001 A 
ATOM     27  C   UNL A   1      32.913  29.090  27.416  1.00  0.00     0.000 A 
ENDBRANCH  10  22
ENDBRANCH   8  10
ENDBRANCH   7   8
ENDBRANCH   6   7
ENDBRANCH   5   6
ENDBRANCH   4   5
ENDBRANCH   3   4
ENDBRANCH   2   3
ENDBRANCH   1   2
BRANCH   1  28
ATOM     28  C   UNL A   1      33.290  19.471  25.667  1.00  0.00     0.188 C 
BRANCH  28  29
ATOM     29  C   UNL A   1      34.365  19.373  24.558  1.00  0.00     0.188 C 
BRANCH  29  30
ATOM     30  O   UNL A   1      35.703  19.524  25.003  1.00  0.00    -0.376 OA
BRANCH  30  31
ATOM     31  C   UNL A   1      36.331  20.780  24.821  1.00  0.00     0.202 C 
BRANCH  31  32
ATOM     32  C   UNL A   1      37.863  20.815  24.922  1.00  0.00     0.261 C 
BRANCH  32  33
ATOM     33  O   UNL A   1      38.399  21.097  26.223  1.00  0.00    -0.460 OA
BRANCH  33  34
ATOM     34  C   UNL A   1      39.740  21.196  26.319  1.00  0.00     0.338 C 
ATOM     35  O   UNL A   1      40.575  20.458  25.816  1.00  0.00    -0.246 OA
BRANCH  34  36
ATOM     36  C   UNL A   1      40.058  22.474  26.982  1.00  0.00     0.060 A 
ATOM     37  C   UNL A   1      39.323  23.615  26.633  1.00  0.00     0.016 A 
ATOM     38  C   UNL A   1      41.078  22.549  27.934  1.00  0.00     0.016 A 
ATOM     39  C   UNL A   1      39.649  24.849  27.189  1.00  0.00     0.010 A 
ATOM     40  C   UNL A   1      41.420  23.792  28.474  1.00  0.00     0.010 A 
ATOM     41  C   UNL A   1      40.740  24.952  28.061  1.00  0.00    -0.014 A 
BRANCH  41  42
ATOM     42  C   UNL A   1      41.312  26.294  28.324  1.00  0.00     0.031 A 
ATOM     43  C   UNL A   1      42.694  26.587  27.806  1.00  0.00     0.074 A 
ATOM     44  C   UNL A   1      40.597  27.255  28.934  1.00  0.00     0.049 A 
ATOM     45  N   UNL A   1      43.397  27.688  27.876  1.00  0.00    -0.248 NA
ATOM     46  C   UNL A   1      43.377  25.483  27.111  1.00  0.00     0.031 C 
ATOM     47  C   UNL A   1      39.234  27.104  29.439  1.00  0.00     0.029 A 
ATOM     48  N   UNL A   1      40.926  28.555  29.226  1.00  0.00    -0.354 N 
ATOM     49  C   UNL A   1      44.599  27.407  27.239  1.00  0.00     0.074 A 
ATOM     50  C   UNL A   1      44.550  26.023  26.827  1.00  0.00     0.031 C 
ATOM     51  C   UNL A   1      38.841  28.270  29.981  1.00  0.00     0.029 A 
ATOM     52  C   UNL A   1      39.934  29.237  29.886  1.00  0.00     0.049 A 
ATOM     53  H   UNL A   1      41.790  28.959  28.985  1.00  0.00     0.167 HD
ATOM     54  C   UNL A   1      45.645  28.235  27.004  1.00  0.00     0.037 A 
ATOM     55  C   UNL A   1      39.923  30.496  30.367  1.00  0.00     0.037 A 
ATOM     56  C   UNL A   1      45.690  29.612  27.418  1.00  0.00     0.049 A 
ATOM     57  C   UNL A   1      41.129  31.376  30.156  1.00  0.00     0.074 A 
ATOM     58  C   UNL A   1      46.698  30.539  27.224  1.00  0.00     0.029 A 
ATOM     59  N   UNL A   1      44.684  30.257  28.123  1.00  0.00    -0.354 N 
ATOM     60  N   UNL A   1      42.252  31.114  29.529  1.00  0.00    -0.248 NA
ATOM     61  C   UNL A   1      41.059  32.736  30.710  1.00  0.00     0.031 C 
ATOM     62  C   UNL A   1      46.329  31.726  27.865  1.00  0.00     0.029 A 
ATOM     63  C   UNL A   1      45.059  31.563  28.395  1.00  0.00     0.049 A 
ATOM     64  H   UNL A   1      43.829  29.847  28.390  1.00  0.00     0.167 HD
ATOM     65  C   UNL A   1      43.003  32.283  29.583  1.00  0.00     0.074 A 
ATOM     66  C   UNL A   1      42.199  33.259  30.287  1.00  0.00     0.031 C 
ATOM     67  C   UNL A   1      44.245  32.527  29.092  1.00  0.00     0.037 A 
BRANCH  54  68
ATOM     68  C   UNL A   1      46.837  27.659  26.296  1.00  0.00     0.064 A 
ATOM     69  C   UNL A   1      46.970  27.712  24.899  1.00  0.00     0.173 A 
ATOM     70  C   UNL A   1      47.874  27.060  27.027  1.00  0.00     0.173 A 
ATOM     71  F   UNL A   1      46.000  28.258  24.148  1.00  0.00    -0.203 F 
ATOM     72  C   UNL A   1      48.079  27.162  24.262  1.00  0.00     0.198 A 
ATOM     73  C   UNL A   1      48.998  26.542  26.390  1.00  0.00     0.198 A 
ATOM     74  F   UNL A   1      47.799  26.981  28.364  1.00  0.00    -0.203 F 
ATOM     75  F   UNL A   1      48.157  27.176  22.923  1.00  0.00    -0.200 F 
ATOM     76  C   UNL A   1      49.096  26.586  25.008  1.00  0.00     0.200 A 
ATOM     77  F   UNL A   1      49.986  25.998  27.115  1.00  0.00    -0.200 F 
ATOM     78  F   UNL A   1      50.166  26.064  24.394  1.00  0.00    -0.200 F 
ENDBRANCH  54  68
BRANCH  55  79
ATOM     79  C   UNL A   1      38.732  31.003  31.100  1.00  0.00     0.064 A 
ATOM     80  C   UNL A   1      37.677  31.636  30.426  1.00  0.00     0.173 A 
ATOM     81  C   UNL A   1      38.640  30.897  32.496  1.00  0.00     0.173 A 
ATOM     82  F   UNL A   1      37.728  31.787  29.094  1.00  0.00    -0.203 F 
ATOM     83  C   UNL A   1      36.591  32.165  31.121  1.00  0.00     0.198 A 
ATOM     84  C   UNL A   1      37.537  31.395  33.186  1.00  0.00     0.198 A 
ATOM     85  F   UNL A   1      39.621  30.303  33.191  1.00  0.00    -0.203 F 
ATOM     86  F   UNL A   1      35.626  32.816  30.457  1.00  0.00    -0.200 F 
ATOM     87  C   UNL A   1      36.520  32.039  32.500  1.00  0.00     0.200 A 
ATOM     88  F   UNL A   1      37.465  31.259  34.517  1.00  0.00    -0.200 F 
ATOM     89  F   UNL A   1      35.475  32.547  33.168  1.00  0.00    -0.200 F 
ENDBRANCH  55  79
BRANCH  67  90
ATOM     90  C   UNL A   1      44.789  33.920  29.254  1.00  0.00     0.064 A 
ATOM     91  C   UNL A   1      45.570  34.291  30.360  1.00  0.00     0.173 A 
ATOM     92  C   UNL A   1      44.536  34.896  28.277  1.00  0.00     0.173 A 
ATOM     93  F   UNL A   1      45.835  33.401  31.329  1.00  0.00    -0.203 F 
ATOM     94  C   UNL A   1      46.035  35.596  30.505  1.00  0.00     0.198 A 
ATOM     95  C   UNL A   1      45.037  36.189  28.404  1.00  0.00     0.198 A 
ATOM     96  F   UNL A   1      43.807  34.595  27.192  1.00  0.00    -0.203 F 
ATOM     97  F   UNL A   1      46.716  35.945  31.604  1.00  0.00    -0.200 F 
ATOM     98  C   UNL A   1      45.773  36.542  29.524  1.00  0.00     0.200 A 
ATOM     99  F   UNL A   1      44.801  37.095  27.445  1.00  0.00    -0.200 F 
ATOM    100  F   UNL A   1      46.222  37.797  29.664  1.00  0.00    -0.200 F 
ENDBRANCH  67  90
ENDBRANCH  41  42
ENDBRANCH  34  36
ENDBRANCH  33  34
ENDBRANCH  32  33
ENDBRANCH  31  32
ENDBRANCH  30  31
ENDBRANCH  29  30
ENDBRANCH  28  29
ENDBRANCH   1  28
TORSDOF 23
ENDMDL
MODEL 2
REMARK VINA RESULT:     -10.8      3.728      9.491
REMARK SMILES CS(=O)(=O)c1ccc(/C=C(/C(=O)OCCOCCOCCOCCOC(=O)c2ccc(-c3c4nc(c(-c5c(F)c(F)c(F)c(F)c5F)c5ccc([nH]5)c(-c5c(F)c(F)c(F)c(F)c5F)c5nc(c(-c6c(F)c(F)c(F)c(F)c6F)c6ccc3[nH]6)C=C5)C=C4)cc2)c2ccccc2)cc1
REMARK SMILES IDX 19 1 18 2 17 3 16 4 15 5 14 6 13 7 11 8 12 9 10 10 9 11 8 12
REMARK SMILES IDX 5 13 6 14 98 15 7 16 97 17 2 18 1 19 3 20 4 21 91 22 92 23
REMARK SMILES IDX 96 24 93 25 95 26 94 27 20 28 21 29 22 30 23 31 24 32 25 33
REMARK SMILES IDX 26 34 27 35 28 36 29 37 90 38 30 39 89 40 31 41 32 42 33 43
REMARK SMILES IDX 83 44 34 45 88 46 82 47 84 48 35 49 87 50 81 51 80 52 36 54
REMARK SMILES IDX 68 55 48 56 67 57 49 58 52 59 66 60 85 61 50 62 51 63 65 65
REMARK SMILES IDX 86 66 53 67 37 68 38 69 46 70 39 71 40 72 44 73 47 74 41 75
REMARK SMILES IDX 42 76 45 77 43 78 69 79 70 80 78 81 71 82 72 83 76 84 79 85
REMARK SMILES IDX 73 86 74 87 77 88 75 89 54 90 55 91 63 92 56 93 57 94 61 95
REMARK SMILES IDX 64 96 58 97 59 98 62 99 60 100
REMARK H PARENT 84 53 52 64
REMARK Flexibility Score: inf
ROOT
ATOM      1  O   UNL A   1      32.922  35.396  29.446  1.00  0.00    -0.377 OA
ENDROOT
BRANCH   1   2
ATOM      2  C   UNL A   1      33.898  35.256  28.426  1.00  0.00     0.188 C 
BRANCH   2   3
ATOM      3  C   UNL A   1      34.423  33.843  28.080  1.00  0.00     0.188 C 
BRANCH   3   4
ATOM      4  O   UNL A   1      33.393  32.899  27.840  1.00  0.00    -0.376 OA
BRANCH   4   5
ATOM      5  C   UNL A   1      33.767  31.538  27.740  1.00  0.00     0.202 C 
BRANCH   5   6
ATOM      6  C   UNL A   1      32.781  30.557  27.080  1.00  0.00     0.261 C 
BRANCH   6   7
ATOM      7  O   UNL A   1      33.291  29.778  25.985  1.00  0.00    -0.460 OA
BRANCH   7   8
ATOM      8  C   UNL A   1      34.033  28.684  26.286  1.00  0.00     0.338 C 
ATOM      9  O   UNL A   1      34.912  28.644  27.133  1.00  0.00    -0.246 OA
BRANCH   8  10
ATOM     10  C   UNL A   1      33.526  27.479  25.538  1.00  0.00     0.067 C 
ATOM     11  C   UNL A   1      34.029  26.255  25.837  1.00  0.00     0.024 C 
BRANCH  11  12
ATOM     12  C   UNL A   1      33.567  24.919  25.378  1.00  0.00    -0.025 A 
ATOM     13  C   UNL A   1      33.125  22.224  24.711  1.00  0.00     0.067 A 
ATOM     14  C   UNL A   1      32.355  22.825  25.701  1.00  0.00     0.021 A 
ATOM     15  C   UNL A   1      34.015  22.985  23.955  1.00  0.00     0.021 A 
ATOM     16  C   UNL A   1      32.556  24.173  26.000  1.00  0.00     0.009 A 
ATOM     17  C   UNL A   1      34.232  24.328  24.291  1.00  0.00     0.009 A 
BRANCH  13  18
ATOM     18  S   UNL A   1      32.977  20.475  24.454  1.00  0.00     0.175 S 
ATOM     19  C   UNL A   1      32.273  20.340  22.826  1.00  0.00     0.163 C 
ATOM     20  O   UNL A   1      31.993  19.973  25.395  1.00  0.00    -0.224 OA
ATOM     21  O   UNL A   1      34.322  19.938  24.416  1.00  0.00    -0.224 OA
ENDBRANCH  13  18
ENDBRANCH  11  12
BRANCH  10  22
ATOM     22  C   UNL A   1      32.473  27.690  24.522  1.00  0.00    -0.011 A 
ATOM     23  C   UNL A   1      32.750  27.479  23.158  1.00  0.00     0.009 A 
ATOM     24  C   UNL A   1      31.158  27.962  24.906  1.00  0.00     0.009 A 
ATOM     25  C   UNL A   1      31.735  27.513  22.203  1.00  0.00     0.001 A 
ATOM     26  C   UNL A   1      30.139  27.985  23.949  1.00  0.00     0.001 A 
ATOM     27  C   UNL A   1      30.426  27.756  22.602  1.00  0.00     0.000 A 
ENDBRANCH  10  22
ENDBRANCH   8  10
ENDBRANCH   7   8
ENDBRANCH   6   7
ENDBRANCH   5   6
ENDBRANCH   4   5
ENDBRANCH   3   4
ENDBRANCH   2   3
ENDBRANCH   1   2
BRANCH   1  28
ATOM     28  C   UNL A   1      33.214  36.195  30.587  1.00  0.00     0.188 C 
BRANCH  28  29
ATOM     29  C   UNL A   1      33.260  35.577  32.006  1.00  0.00     0.188 C 
BRANCH  29  30
ATOM     30  O   UNL A   1      34.076  36.268  32.936  1.00  0.00    -0.376 OA
BRANCH  30  31
ATOM     31  C   UNL A   1      35.206  35.597  33.463  1.00  0.00     0.202 C 
BRANCH  31  32
ATOM     32  C   UNL A   1      35.968  34.662  32.513  1.00  0.00     0.261 C 
BRANCH  32  33
ATOM     33  O   UNL A   1      36.179  33.323  32.986  1.00  0.00    -0.460 OA
BRANCH  33  34
ATOM     34  C   UNL A   1      35.506  32.342  32.354  1.00  0.00     0.338 C 
ATOM     35  O   UNL A   1      34.294  32.244  32.218  1.00  0.00    -0.246 OA
BRANCH  34  36
ATOM     36  C   UNL A   1      36.487  31.482  31.668  1.00  0.00     0.060 A 
ATOM     37  C   UNL A   1      37.399  30.751  32.441  1.00  0.00     0.016 A 
ATOM     38  C   UNL A   1      36.514  31.402  30.273  1.00  0.00     0.016 A 
ATOM     39  C   UNL A   1      38.382  29.987  31.820  1.00  0.00     0.010 A 
ATOM     40  C   UNL A   1      37.516  30.654  29.649  1.00  0.00     0.010 A 
ATOM     41  C   UNL A   1      38.484  29.988  30.423  1.00  0.00    -0.014 A 
BRANCH  41  42
ATOM     42  C   UNL A   1      39.744  29.510  29.804  1.00  0.00     0.031 A 
ATOM     43  C   UNL A   1      40.913  30.457  29.762  1.00  0.00     0.074 A 
ATOM     44  C   UNL A   1      39.876  28.247  29.366  1.00  0.00     0.049 A 
ATOM     45  N   UNL A   1      42.125  30.268  29.307  1.00  0.00    -0.248 NA
ATOM     46  C   UNL A   1      40.681  31.804  30.308  1.00  0.00     0.031 C 
ATOM     47  C   UNL A   1      38.831  27.227  29.397  1.00  0.00     0.029 A 
ATOM     48  N   UNL A   1      40.957  27.609  28.812  1.00  0.00    -0.354 N 
ATOM     49  C   UNL A   1      42.795  31.468  29.512  1.00  0.00     0.074 A 
ATOM     50  C   UNL A   1      41.845  32.392  30.090  1.00  0.00     0.031 C 
ATOM     51  C   UNL A   1      39.322  26.087  28.881  1.00  0.00     0.029 A 
ATOM     52  C   UNL A   1      40.705  26.306  28.460  1.00  0.00     0.049 A 
ATOM     53  H   UNL A   1      41.830  28.044  28.680  1.00  0.00     0.167 HD
ATOM     54  C   UNL A   1      44.090  31.768  29.255  1.00  0.00     0.037 A 
ATOM     55  C   UNL A   1      41.502  25.403  27.856  1.00  0.00     0.037 A 
ATOM     56  C   UNL A   1      45.030  30.846  28.677  1.00  0.00     0.049 A 
ATOM     57  C   UNL A   1      42.921  25.785  27.514  1.00  0.00     0.074 A 
ATOM     58  C   UNL A   1      46.367  31.046  28.383  1.00  0.00     0.029 A 
ATOM     59  N   UNL A   1      44.728  29.547  28.294  1.00  0.00    -0.354 N 
ATOM     60  N   UNL A   1      43.556  26.912  27.734  1.00  0.00    -0.248 NA
ATOM     61  C   UNL A   1      43.738  24.761  26.849  1.00  0.00     0.031 C 
ATOM     62  C   UNL A   1      46.857  29.891  27.765  1.00  0.00     0.029 A 
ATOM     63  C   UNL A   1      45.846  28.944  27.741  1.00  0.00     0.049 A 
ATOM     64  H   UNL A   1      43.847  29.118  28.400  1.00  0.00     0.167 HD
ATOM     65  C   UNL A   1      44.852  26.720  27.269  1.00  0.00     0.074 A 
ATOM     66  C   UNL A   1      44.916  25.361  26.773  1.00  0.00     0.031 C 
ATOM     67  C   UNL A   1      45.896  27.587  27.257  1.00  0.00     0.037 A 
BRANCH  54  68
ATOM     68  C   UNL A   1      44.552  33.163  29.567  1.00  0.00     0.064 A 
ATOM     69  C   UNL A   1      44.314  34.237  28.694  1.00  0.00     0.173 A 
ATOM     70  C   UNL A   1      45.227  33.433  30.766  1.00  0.00     0.173 A 
ATOM     71  F   UNL A   1      43.688  34.032  27.525  1.00  0.00    -0.203 F 
ATOM     72  C   UNL A   1      44.760  35.521  28.998  1.00  0.00     0.198 A 
ATOM     73  C   UNL A   1      45.642  34.724  31.083  1.00  0.00     0.198 A 
ATOM     74  F   UNL A   1      45.482  32.445  31.636  1.00  0.00    -0.203 F 
ATOM     75  F   UNL A   1      44.571  36.520  28.124  1.00  0.00    -0.200 F 
ATOM     76  C   UNL A   1      45.416  35.764  30.196  1.00  0.00     0.200 A 
ATOM     77  F   UNL A   1      46.263  34.959  32.247  1.00  0.00    -0.200 F 
ATOM     78  F   UNL A   1      45.839  37.001  30.490  1.00  0.00    -0.200 F 
ENDBRANCH  54  68
BRANCH  55  79
ATOM     79  C   UNL A   1      40.981  24.049  27.529  1.00  0.00     0.064 A 
ATOM     80  C   UNL A   1      41.492  22.902  28.155  1.00  0.00     0.173 A 
ATOM     81  C   UNL A   1      39.985  23.870  26.558  1.00  0.00     0.173 A 
ATOM     82  F   UNL A   1      42.464  23.016  29.071  1.00  0.00    -0.203 F 
ATOM     83  C   UNL A   1      41.045  21.629  27.803  1.00  0.00     0.198 A 
ATOM     84  C   UNL A   1      39.515  22.599  26.232  1.00  0.00     0.198 A 
ATOM     85  F   UNL A   1      39.463  24.932  25.927  1.00  0.00    -0.203 F 
ATOM     86  F   UNL A   1      41.593  20.548  28.375  1.00  0.00    -0.200 F 
ATOM     87  C   UNL A   1      40.053  21.480  26.846  1.00  0.00     0.200 A 
ATOM     88  F   UNL A   1      38.546  22.460  25.317  1.00  0.00    -0.200 F 
ATOM     89  F   UNL A   1      39.624  20.256  26.510  1.00  0.00    -0.200 F 
ENDBRANCH  55  79
BRANCH  67  90
ATOM     90  C   UNL A   1      47.211  27.076  26.735  1.00  0.00     0.064 A 
ATOM     91  C   UNL A   1      47.506  27.042  25.364  1.00  0.00     0.173 A 
ATOM     92  C   UNL A   1      48.199  26.626  27.627  1.00  0.00     0.173 A 
ATOM     93  F   UNL A   1      46.595  27.450  24.466  1.00  0.00    -0.203 F 
ATOM     94  C   UNL A   1      48.718  26.533  24.902  1.00  0.00     0.198 A 
ATOM     95  C   UNL A   1      49.426  26.157  27.164  1.00  0.00     0.198 A 
ATOM     96  F   UNL A   1      47.978  26.649  28.949  1.00  0.00    -0.203 F 
ATOM     97  F   UNL A   1      48.948  26.443  23.585  1.00  0.00    -0.200 F 
ATOM     98  C   UNL A   1      49.679  26.097  25.803  1.00  0.00     0.200 A 
ATOM     99  F   UNL A   1      50.360  25.756  28.037  1.00  0.00    -0.200 F 
ATOM    100  F   UNL A   1      50.845  25.609  25.358  1.00  0.00    -0.200 F 
ENDBRANCH  67  90
ENDBRANCH  41  42
ENDBRANCH  34  36
ENDBRANCH  33  34
ENDBRANCH  32  33
ENDBRANCH  31  32
ENDBRANCH  30  31
ENDBRANCH  29  30
ENDBRANCH  28  29
ENDBRANCH   1  28
TORSDOF 23
ENDMDL
MODEL 3
REMARK VINA RESULT:     -10.6      4.888     10.944
REMARK SMILES CS(=O)(=O)c1ccc(/C=C(/C(=O)OCCOCCOCCOCCOC(=O)c2ccc(-c3c4nc(c(-c5c(F)c(F)c(F)c(F)c5F)c5ccc([nH]5)c(-c5c(F)c(F)c(F)c(F)c5F)c5nc(c(-c6c(F)c(F)c(F)c(F)c6F)c6ccc3[nH]6)C=C5)C=C4)cc2)c2ccccc2)cc1
REMARK SMILES IDX 19 1 18 2 17 3 16 4 15 5 14 6 13 7 11 8 12 9 10 10 9 11 8 12
REMARK SMILES IDX 5 13 6 14 98 15 7 16 97 17 2 18 1 19 3 20 4 21 91 22 92 23
REMARK SMILES IDX 96 24 93 25 95 26 94 27 20 28 21 29 22 30 23 31 24 32 25 33
REMARK SMILES IDX 26 34 27 35 28 36 29 37 90 38 30 39 89 40 31 41 32 42 33 43
REMARK SMILES IDX 83 44 34 45 88 46 82 47 84 48 35 49 87 50 81 51 80 52 36 54
REMARK SMILES IDX 68 55 48 56 67 57 49 58 52 59 66 60 85 61 50 62 51 63 65 65
REMARK SMILES IDX 86 66 53 67 37 68 38 69 46 70 39 71 40 72 44 73 47 74 41 75
REMARK SMILES IDX 42 76 45 77 43 78 69 79 70 80 78 81 71 82 72 83 76 84 79 85
REMARK SMILES IDX 73 86 74 87 77 88 75 89 54 90 55 91 63 92 56 93 57 94 61 95
REMARK SMILES IDX 64 96 58 97 59 98 62 99 60 100
REMARK H PARENT 84 53 52 64
REMARK Flexibility Score: inf
ROOT
ATOM      1  O   UNL A   1      34.041  29.333  25.484  1.00  0.00    -0.377 OA
ENDROOT
BRANCH   1   2
ATOM      2  C   UNL A   1      32.677  29.562  25.168  1.00  0.00     0.188 C 
BRANCH   2   3
ATOM      3  C   UNL A   1      31.799  28.368  24.727  1.00  0.00     0.188 C 
BRANCH   3   4
ATOM      4  O   UNL A   1      32.534  27.320  24.119  1.00  0.00    -0.376 OA
BRANCH   4   5
ATOM      5  C   UNL A   1      32.757  27.404  22.724  1.00  0.00     0.202 C 
BRANCH   5   6
ATOM      6  C   UNL A   1      33.195  26.133  21.976  1.00  0.00     0.261 C 
BRANCH   6   7
ATOM      7  O   UNL A   1      32.860  24.879  22.595  1.00  0.00    -0.460 OA
BRANCH   7   8
ATOM      8  C   UNL A   1      33.566  23.785  22.218  1.00  0.00     0.338 C 
ATOM      9  O   UNL A   1      33.670  23.378  21.071  1.00  0.00    -0.246 OA
BRANCH   8  10
ATOM     10  C   UNL A   1      34.333  23.222  23.387  1.00  0.00     0.067 C 
ATOM     11  C   UNL A   1      35.672  23.039  23.273  1.00  0.00     0.024 C 
BRANCH  11  12
ATOM     12  C   UNL A   1      36.657  22.679  24.326  1.00  0.00    -0.025 A 
ATOM     13  C   UNL A   1      38.848  21.967  25.936  1.00  0.00     0.067 A 
ATOM     14  C   UNL A   1      38.336  23.258  26.001  1.00  0.00     0.021 A 
ATOM     15  C   UNL A   1      38.198  20.990  25.185  1.00  0.00     0.021 A 
ATOM     16  C   UNL A   1      37.225  23.593  25.226  1.00  0.00     0.009 A 
ATOM     17  C   UNL A   1      37.106  21.350  24.384  1.00  0.00     0.009 A 
BRANCH  13  18
ATOM     18  S   UNL A   1      40.356  21.601  26.797  1.00  0.00     0.175 S 
ATOM     19  C   UNL A   1      41.627  22.192  25.701  1.00  0.00     0.163 C 
ATOM     20  O   UNL A   1      40.483  20.158  26.870  1.00  0.00    -0.224 OA
ATOM     21  O   UNL A   1      40.368  22.418  27.994  1.00  0.00    -0.224 OA
ENDBRANCH  13  18
ENDBRANCH  11  12
BRANCH  10  22
ATOM     22  C   UNL A   1      33.581  22.919  24.624  1.00  0.00    -0.011 A 
ATOM     23  C   UNL A   1      33.591  23.825  25.701  1.00  0.00     0.009 A 
ATOM     24  C   UNL A   1      32.740  21.806  24.690  1.00  0.00     0.009 A 
ATOM     25  C   UNL A   1      32.763  23.638  26.807  1.00  0.00     0.001 A 
ATOM     26  C   UNL A   1      31.902  21.626  25.794  1.00  0.00     0.001 A 
ATOM     27  C   UNL A   1      31.910  22.542  26.847  1.00  0.00     0.000 A 
ENDBRANCH  10  22
ENDBRANCH   8  10
ENDBRANCH   7   8
ENDBRANCH   6   7
ENDBRANCH   5   6
ENDBRANCH   4   5
ENDBRANCH   3   4
ENDBRANCH   2   3
ENDBRANCH   1   2
BRANCH   1  28
ATOM     28  C   UNL A   1      34.401  28.987  26.816  1.00  0.00     0.188 C 
BRANCH  28  29
ATOM     29  C   UNL A   1      35.294  29.919  27.672  1.00  0.00     0.188 C 
BRANCH  29  30
ATOM     30  O   UNL A   1      34.979  31.299  27.584  1.00  0.00    -0.376 OA
BRANCH  30  31
ATOM     31  C   UNL A   1      33.719  31.729  28.066  1.00  0.00     0.202 C 
BRANCH  31  32
ATOM     32  C   UNL A   1      33.229  33.108  27.602  1.00  0.00     0.261 C 
BRANCH  32  33
ATOM     33  O   UNL A   1      32.534  33.890  28.585  1.00  0.00    -0.460 OA
BRANCH  33  34
ATOM     34  C   UNL A   1      33.145  35.014  29.009  1.00  0.00     0.338 C 
ATOM     35  O   UNL A   1      32.739  36.163  28.900  1.00  0.00    -0.246 OA
BRANCH  34  36
ATOM     36  C   UNL A   1      34.316  34.624  29.816  1.00  0.00     0.060 A 
ATOM     37  C   UNL A   1      35.594  34.765  29.258  1.00  0.00     0.016 A 
ATOM     38  C   UNL A   1      34.155  34.116  31.107  1.00  0.00     0.016 A 
ATOM     39  C   UNL A   1      36.712  34.338  29.968  1.00  0.00     0.010 A 
ATOM     40  C   UNL A   1      35.277  33.666  31.810  1.00  0.00     0.010 A 
ATOM     41  C   UNL A   1      36.551  33.727  31.218  1.00  0.00    -0.014 A 
BRANCH  41  42
ATOM     42  C   UNL A   1      37.677  32.935  31.770  1.00  0.00     0.031 A 
ATOM     43  C   UNL A   1      38.193  33.299  33.135  1.00  0.00     0.074 A 
ATOM     44  C   UNL A   1      38.175  31.873  31.115  1.00  0.00     0.049 A 
ATOM     45  N   UNL A   1      39.140  32.742  33.846  1.00  0.00    -0.248 NA
ATOM     46  C   UNL A   1      37.550  34.451  33.789  1.00  0.00     0.031 C 
ATOM     47  C   UNL A   1      37.726  31.397  29.809  1.00  0.00     0.029 A 
ATOM     48  N   UNL A   1      39.170  30.998  31.472  1.00  0.00    -0.354 N 
ATOM     49  C   UNL A   1      39.205  33.476  35.025  1.00  0.00     0.074 A 
ATOM     50  C   UNL A   1      38.236  34.543  34.917  1.00  0.00     0.031 C 
ATOM     51  C   UNL A   1      38.447  30.313  29.471  1.00  0.00     0.029 A 
ATOM     52  C   UNL A   1      39.424  30.037  30.525  1.00  0.00     0.049 A 
ATOM     53  H   UNL A   1      39.656  31.054  32.326  1.00  0.00     0.167 HD
ATOM     54  C   UNL A   1      39.993  33.269  36.107  1.00  0.00     0.037 A 
ATOM     55  C   UNL A   1      40.349  29.059  30.511  1.00  0.00     0.037 A 
ATOM     56  C   UNL A   1      40.958  32.208  36.208  1.00  0.00     0.049 A 
ATOM     57  C   UNL A   1      41.265  28.893  31.699  1.00  0.00     0.074 A 
ATOM     58  C   UNL A   1      41.801  31.904  37.262  1.00  0.00     0.029 A 
ATOM     59  N   UNL A   1      41.217  31.279  35.210  1.00  0.00    -0.354 N 
ATOM     60  N   UNL A   1      41.304  29.573  32.821  1.00  0.00    -0.248 NA
ATOM     61  C   UNL A   1      42.258  27.813  31.621  1.00  0.00     0.031 C 
ATOM     62  C   UNL A   1      42.613  30.833  36.878  1.00  0.00     0.029 A 
ATOM     63  C   UNL A   1      42.226  30.419  35.614  1.00  0.00     0.049 A 
ATOM     64  H   UNL A   1      40.752  31.237  34.343  1.00  0.00     0.167 HD
ATOM     65  C   UNL A   1      42.297  28.981  33.593  1.00  0.00     0.074 A 
ATOM     66  C   UNL A   1      42.820  27.876  32.818  1.00  0.00     0.031 C 
ATOM     67  C   UNL A   1      42.734  29.319  34.833  1.00  0.00     0.037 A 
BRANCH  54  68
ATOM     68  C   UNL A   1      39.864  34.233  37.251  1.00  0.00     0.064 A 
ATOM     69  C   UNL A   1      39.010  33.987  38.338  1.00  0.00     0.173 A 
ATOM     70  C   UNL A   1      40.620  35.415  37.269  1.00  0.00     0.173 A 
ATOM     71  F   UNL A   1      38.250  32.881  38.363  1.00  0.00    -0.203 F 
ATOM     72  C   UNL A   1      38.898  34.900  39.383  1.00  0.00     0.198 A 
ATOM     73  C   UNL A   1      40.532  36.309  38.333  1.00  0.00     0.198 A 
ATOM     74  F   UNL A   1      41.451  35.701  36.256  1.00  0.00    -0.203 F 
ATOM     75  F   UNL A   1      38.034  34.670  40.383  1.00  0.00    -0.200 F 
ATOM     76  C   UNL A   1      39.665  36.056  39.384  1.00  0.00     0.200 A 
ATOM     77  F   UNL A   1      41.284  37.418  38.338  1.00  0.00    -0.200 F 
ATOM     78  F   UNL A   1      39.561  36.930  40.394  1.00  0.00    -0.200 F 
ENDBRANCH  54  68
BRANCH  55  79
ATOM     79  C   UNL A   1      40.464  28.157  29.333  1.00  0.00     0.064 A 
ATOM     80  C   UNL A   1      41.337  28.449  28.275  1.00  0.00     0.173 A 
ATOM     81  C   UNL A   1      39.676  27.001  29.226  1.00  0.00     0.173 A 
ATOM     82  F   UNL A   1      42.093  29.555  28.316  1.00  0.00    -0.203 F 
ATOM     83  C   UNL A   1      41.397  27.635  27.145  1.00  0.00     0.198 A 
ATOM     84  C   UNL A   1      39.762  26.170  28.111  1.00  0.00     0.198 A 
ATOM     85  F   UNL A   1      38.822  26.676  30.208  1.00  0.00    -0.203 F 
ATOM     86  F   UNL A   1      42.197  27.970  26.123  1.00  0.00    -0.200 F 
ATOM     87  C   UNL A   1      40.614  26.494  27.067  1.00  0.00     0.200 A 
ATOM     88  F   UNL A   1      39.014  25.060  28.046  1.00  0.00    -0.200 F 
ATOM     89  F   UNL A   1      40.674  25.711  25.981  1.00  0.00    -0.200 F 
ENDBRANCH  55  79
BRANCH  67  90
ATOM     90  C   UNL A   1      43.798  28.452  35.449  1.00  0.00     0.064 A 
ATOM     91  C   UNL A   1      45.165  28.687  35.237  1.00  0.00     0.173 A 
ATOM     92  C   UNL A   1      43.441  27.377  36.278  1.00  0.00     0.173 A 
ATOM     93  F   UNL A   1      45.563  29.695  34.445  1.00  0.00    -0.203 F 
ATOM     94  C   UNL A   1      46.132  27.850  35.791  1.00  0.00     0.198 A 
ATOM     95  C   UNL A   1      44.411  26.567  36.865  1.00  0.00     0.198 A 
ATOM     96  F   UNL A   1      42.150  27.113  36.528  1.00  0.00    -0.203 F 
ATOM     97  F   UNL A   1      47.427  28.051  35.515  1.00  0.00    -0.200 F 
ATOM     98  C   UNL A   1      45.754  26.796  36.610  1.00  0.00     0.200 A 
ATOM     99  F   UNL A   1      44.044  25.562  37.671  1.00  0.00    -0.200 F 
ATOM    100  F   UNL A   1      46.685  25.992  37.143  1.00  0.00    -0.200 F 
ENDBRANCH  67  90
ENDBRANCH  41  42
ENDBRANCH  34  36
ENDBRANCH  33  34
ENDBRANCH  32  33
ENDBRANCH  31  32
ENDBRANCH  30  31
ENDBRANCH  29  30
ENDBRANCH  28  29
ENDBRANCH   1  28
TORSDOF 23
ENDMDL
