MODEL 1
REMARK VINA RESULT:      -9.4      0.000      0.000
REMARK SMILES C[C@@H](C(=O)OCCOCCOCCOCCOC(=O)c1ccc(-c2c3nc(c(-c4c(F)c(F)c(F)c(F)c4F)c4ccc([nH]4)c(-c4c(F)c(F)c(F)c(F)c4F)c4nc(c(-c5c(F)c(F)c(F)c(F)c5F)c5ccc2[nH]5)C=C4)C=C3)cc1)c1ccc(-c2cccc(OC(=O)Nc3ccccc3)c2)c(F)c1
REMARK SMILES IDX 9 1 8 2 7 3 6 4 5 5 3 6 4 7 2 8 1 9 83 10 84 11 105 12 85 13
REMARK SMILES IDX 103 14 86 15 104 16 87 17 88 18 102 19 89 20 91 21 90 22
REMARK SMILES IDX 92 23 93 24 94 25 95 26 96 28 97 29 101 30 98 31 100 32
REMARK SMILES IDX 99 33 10 34 11 35 12 36 13 37 14 38 15 39 16 40 17 41 18 42
REMARK SMILES IDX 19 43 20 44 21 45 82 46 22 47 81 48 23 49 24 50 25 51 75 52
REMARK SMILES IDX 26 53 80 54 74 55 76 56 27 57 79 58 73 59 72 60 28 62 60 63
REMARK SMILES IDX 40 64 59 65 41 66 44 67 58 68 77 69 42 70 43 71 57 73 78 74
REMARK SMILES IDX 45 75 29 76 30 77 38 78 31 79 32 80 36 81 39 82 33 83 34 84
REMARK SMILES IDX 37 85 35 86 61 87 62 88 70 89 63 90 64 91 68 92 71 93 65 94
REMARK SMILES IDX 66 95 69 96 67 97 46 98 47 99 55 100 48 101 49 102 53 103
REMARK SMILES IDX 56 104 50 105 51 106 54 107 52 108
REMARK H PARENT 95 27 76 61 44 72
REMARK Flexibility Score: inf
ROOT
ATOM      1  C   UNL A   1      35.575  22.774  26.098  1.00  0.00     0.188 C 
ENDROOT
BRANCH   1   2
ATOM      2  O   UNL A   1      34.913  22.342  27.269  1.00  0.00    -0.376 OA
BRANCH   2   3
ATOM      3  C   UNL A   1      33.602  21.801  27.218  1.00  0.00     0.202 C 
BRANCH   3   4
ATOM      4  C   UNL A   1      32.393  22.421  26.481  1.00  0.00     0.261 C 
BRANCH   4   5
ATOM      5  O   UNL A   1      32.133  23.812  26.703  1.00  0.00    -0.463 OA
BRANCH   5   6
ATOM      6  C   UNL A   1      30.861  24.242  26.530  1.00  0.00     0.313 C 
ATOM      7  O   UNL A   1      29.897  23.794  27.142  1.00  0.00    -0.252 OA
BRANCH   6   8
ATOM      8  C   UNL A   1      30.751  25.412  25.536  1.00  0.00     0.126 C 
ATOM      9  C   UNL A   1      31.011  25.000  24.080  1.00  0.00     0.025 C 
BRANCH   8  10
ATOM     10  C   UNL A   1      31.449  26.676  26.048  1.00  0.00    -0.031 A 
ATOM     11  C   UNL A   1      31.206  27.284  27.291  1.00  0.00     0.005 A 
ATOM     12  C   UNL A   1      32.428  27.266  25.231  1.00  0.00     0.044 A 
ATOM     13  C   UNL A   1      31.901  28.446  27.685  1.00  0.00     0.012 A 
ATOM     14  C   UNL A   1      33.111  28.415  25.625  1.00  0.00     0.131 A 
ATOM     15  C   UNL A   1      32.869  29.033  26.855  1.00  0.00     0.018 A 
ATOM     16  F   UNL A   1      34.034  28.911  24.787  1.00  0.00    -0.206 F 
BRANCH  15  17
ATOM     17  C   UNL A   1      33.612  30.246  27.238  1.00  0.00    -0.012 A 
ATOM     18  C   UNL A   1      32.992  31.504  27.285  1.00  0.00     0.009 A 
ATOM     19  C   UNL A   1      34.961  30.154  27.632  1.00  0.00     0.056 A 
ATOM     20  C   UNL A   1      33.689  32.631  27.733  1.00  0.00     0.004 A 
ATOM     21  C   UNL A   1      35.657  31.279  28.068  1.00  0.00     0.133 A 
ATOM     22  C   UNL A   1      35.021  32.518  28.130  1.00  0.00     0.047 A 
BRANCH  21  23
ATOM     23  O   UNL A   1      37.016  31.278  28.476  1.00  0.00    -0.410 OA
BRANCH  23  24
ATOM     24  C   UNL A   1      37.478  31.224  29.791  1.00  0.00     0.417 C 
ATOM     25  O   UNL A   1      37.208  32.028  30.678  1.00  0.00    -0.224 OA
ATOM     26  N   UNL A   1      38.195  30.098  30.108  1.00  0.00    -0.291 N 
ATOM     27  H   UNL A   1      38.377  29.986  31.069  1.00  0.00     0.173 HD
BRANCH  26  28
ATOM     28  C   UNL A   1      38.712  29.081  29.295  1.00  0.00     0.044 A 
ATOM     29  C   UNL A   1      38.949  27.842  29.905  1.00  0.00     0.026 A 
ATOM     30  C   UNL A   1      39.037  29.247  27.948  1.00  0.00     0.026 A 
ATOM     31  C   UNL A   1      39.459  26.772  29.169  1.00  0.00     0.002 A 
ATOM     32  C   UNL A   1      39.572  28.181  27.217  1.00  0.00     0.002 A 
ATOM     33  C   UNL A   1      39.772  26.943  27.824  1.00  0.00     0.000 A 
ENDBRANCH  26  28
ENDBRANCH  23  24
ENDBRANCH  21  23
ENDBRANCH  15  17
ENDBRANCH   8  10
ENDBRANCH   6   8
ENDBRANCH   5   6
ENDBRANCH   4   5
ENDBRANCH   3   4
ENDBRANCH   2   3
ENDBRANCH   1   2
BRANCH   1  34
ATOM     34  C   UNL A   1      36.151  21.697  25.166  1.00  0.00     0.188 C 
BRANCH  34  35
ATOM     35  O   UNL A   1      37.491  21.912  24.762  1.00  0.00    -0.377 OA
BRANCH  35  36
ATOM     36  C   UNL A   1      38.518  21.184  25.421  1.00  0.00     0.188 C 
BRANCH  36  37
ATOM     37  C   UNL A   1      39.490  21.892  26.386  1.00  0.00     0.188 C 
BRANCH  37  38
ATOM     38  O   UNL A   1      40.286  21.017  27.175  1.00  0.00    -0.376 OA
BRANCH  38  39
ATOM     39  C   UNL A   1      40.997  19.978  26.517  1.00  0.00     0.202 C 
BRANCH  39  40
ATOM     40  C   UNL A   1      42.399  20.335  25.996  1.00  0.00     0.261 C 
BRANCH  40  41
ATOM     41  O   UNL A   1      43.026  21.473  26.609  1.00  0.00    -0.460 OA
BRANCH  41  42
ATOM     42  C   UNL A   1      43.085  22.619  25.896  1.00  0.00     0.338 C 
ATOM     43  O   UNL A   1      42.947  22.754  24.697  1.00  0.00    -0.246 OA
BRANCH  42  44
ATOM     44  C   UNL A   1      43.161  23.739  26.856  1.00  0.00     0.060 A 
ATOM     45  C   UNL A   1      44.261  24.604  26.796  1.00  0.00     0.016 A 
ATOM     46  C   UNL A   1      42.161  23.929  27.812  1.00  0.00     0.016 A 
ATOM     47  C   UNL A   1      44.386  25.638  27.723  1.00  0.00     0.010 A 
ATOM     48  C   UNL A   1      42.297  24.953  28.753  1.00  0.00     0.010 A 
ATOM     49  C   UNL A   1      43.429  25.787  28.735  1.00  0.00    -0.014 A 
BRANCH  49  50
ATOM     50  C   UNL A   1      43.716  26.669  29.894  1.00  0.00     0.031 A 
ATOM     51  C   UNL A   1      44.360  26.058  31.108  1.00  0.00     0.074 A 
ATOM     52  C   UNL A   1      43.433  27.981  29.867  1.00  0.00     0.049 A 
ATOM     53  N   UNL A   1      44.657  26.603  32.260  1.00  0.00    -0.248 NA
ATOM     54  C   UNL A   1      44.712  24.632  31.009  1.00  0.00     0.031 C 
ATOM     55  C   UNL A   1      42.851  28.699  28.736  1.00  0.00     0.029 A 
ATOM     56  N   UNL A   1      43.593  28.945  30.833  1.00  0.00    -0.354 N 
ATOM     57  C   UNL A   1      45.227  25.590  33.019  1.00  0.00     0.074 A 
ATOM     58  C   UNL A   1      45.201  24.388  32.214  1.00  0.00     0.031 C 
ATOM     59  C   UNL A   1      42.686  29.988  29.078  1.00  0.00     0.029 A 
ATOM     60  C   UNL A   1      43.119  30.178  30.463  1.00  0.00     0.049 A 
ATOM     61  H   UNL A   1      44.008  28.767  31.708  1.00  0.00     0.167 HD
ATOM     62  C   UNL A   1      45.737  25.658  34.272  1.00  0.00     0.037 A 
ATOM     63  C   UNL A   1      43.024  31.321  31.172  1.00  0.00     0.037 A 
ATOM     64  C   UNL A   1      45.755  26.852  35.073  1.00  0.00     0.049 A 
ATOM     65  C   UNL A   1      43.522  31.351  32.596  1.00  0.00     0.074 A 
ATOM     66  C   UNL A   1      46.254  27.027  36.352  1.00  0.00     0.029 A 
ATOM     67  N   UNL A   1      45.238  28.076  34.674  1.00  0.00    -0.354 N 
ATOM     68  N   UNL A   1      44.081  30.396  33.302  1.00  0.00    -0.248 NA
ATOM     69  C   UNL A   1      43.381  32.623  33.322  1.00  0.00     0.031 C 
ATOM     70  C   UNL A   1      45.987  28.341  36.749  1.00  0.00     0.029 A 
ATOM     71  C   UNL A   1      45.382  29.004  35.693  1.00  0.00     0.049 A 
ATOM     72  H   UNL A   1      44.829  28.258  33.797  1.00  0.00     0.167 HD
ATOM     73  C   UNL A   1      44.384  30.958  34.537  1.00  0.00     0.074 A 
ATOM     74  C   UNL A   1      43.960  32.341  34.481  1.00  0.00     0.031 C 
ATOM     75  C   UNL A   1      44.962  30.381  35.620  1.00  0.00     0.037 A 
BRANCH  62  76
ATOM     76  C   UNL A   1      46.291  24.393  34.860  1.00  0.00     0.064 A 
ATOM     77  C   UNL A   1      47.567  23.916  34.522  1.00  0.00     0.173 A 
ATOM     78  C   UNL A   1      45.542  23.657  35.792  1.00  0.00     0.173 A 
ATOM     79  F   UNL A   1      48.317  24.573  33.624  1.00  0.00    -0.203 F 
ATOM     80  C   UNL A   1      48.061  22.736  35.073  1.00  0.00     0.198 A 
ATOM     81  C   UNL A   1      46.053  22.495  36.365  1.00  0.00     0.198 A 
ATOM     82  F   UNL A   1      44.318  24.068  36.151  1.00  0.00    -0.203 F 
ATOM     83  F   UNL A   1      49.259  22.272  34.694  1.00  0.00    -0.200 F 
ATOM     84  C   UNL A   1      47.306  22.031  35.999  1.00  0.00     0.200 A 
ATOM     85  F   UNL A   1      45.327  21.822  37.269  1.00  0.00    -0.200 F 
ATOM     86  F   UNL A   1      47.785  20.898  36.532  1.00  0.00    -0.200 F 
ENDBRANCH  62  76
BRANCH  63  87
ATOM     87  C   UNL A   1      42.413  32.529  30.558  1.00  0.00     0.064 A 
ATOM     88  C   UNL A   1      41.069  32.859  30.781  1.00  0.00     0.173 A 
ATOM     89  C   UNL A   1      43.155  33.366  29.710  1.00  0.00     0.173 A 
ATOM     90  F   UNL A   1      40.308  32.074  31.559  1.00  0.00    -0.203 F 
ATOM     91  C   UNL A   1      40.486  33.965  30.166  1.00  0.00     0.198 A 
ATOM     92  C   UNL A   1      42.580  34.491  29.122  1.00  0.00     0.198 A 
ATOM     93  F   UNL A   1      44.444  33.095  29.459  1.00  0.00    -0.203 F 
ATOM     94  F   UNL A   1      39.185  34.226  30.356  1.00  0.00    -0.200 F 
ATOM     95  C   UNL A   1      41.243  34.784  29.342  1.00  0.00     0.200 A 
ATOM     96  F   UNL A   1      43.319  35.284  28.335  1.00  0.00    -0.200 F 
ATOM     97  F   UNL A   1      40.682  35.849  28.754  1.00  0.00    -0.200 F 
ENDBRANCH  63  87
BRANCH  75  98
ATOM     98  C   UNL A   1      45.214  31.251  36.819  1.00  0.00     0.064 A 
ATOM     99  C   UNL A   1      44.239  31.450  37.808  1.00  0.00     0.173 A 
ATOM    100  C   UNL A   1      46.468  31.855  37.005  1.00  0.00     0.173 A 
ATOM    101  F   UNL A   1      43.021  30.906  37.674  1.00  0.00    -0.203 F 
ATOM    102  C   UNL A   1      44.501  32.244  38.923  1.00  0.00     0.198 A 
ATOM    103  C   UNL A   1      46.737  32.619  38.137  1.00  0.00     0.198 A 
ATOM    104  F   UNL A   1      47.440  31.690  36.096  1.00  0.00    -0.203 F 
ATOM    105  F   UNL A   1      43.537  32.460  39.829  1.00  0.00    -0.200 F 
ATOM    106  C   UNL A   1      45.751  32.820  39.090  1.00  0.00     0.200 A 
ATOM    107  F   UNL A   1      47.952  33.160  38.306  1.00  0.00    -0.200 F 
ATOM    108  F   UNL A   1      46.004  33.574  40.168  1.00  0.00    -0.200 F 
ENDBRANCH  75  98
ENDBRANCH  49  50
ENDBRANCH  42  44
ENDBRANCH  41  42
ENDBRANCH  40  41
ENDBRANCH  39  40
ENDBRANCH  38  39
ENDBRANCH  37  38
ENDBRANCH  36  37
ENDBRANCH  35  36
ENDBRANCH  34  35
ENDBRANCH   1  34
TORSDOF 25
ENDMDL
MODEL 2
REMARK VINA RESULT:      -9.3      0.657      6.917
REMARK SMILES C[C@@H](C(=O)OCCOCCOCCOCCOC(=O)c1ccc(-c2c3nc(c(-c4c(F)c(F)c(F)c(F)c4F)c4ccc([nH]4)c(-c4c(F)c(F)c(F)c(F)c4F)c4nc(c(-c5c(F)c(F)c(F)c(F)c5F)c5ccc2[nH]5)C=C4)C=C3)cc1)c1ccc(-c2cccc(OC(=O)Nc3ccccc3)c2)c(F)c1
REMARK SMILES IDX 9 1 8 2 7 3 6 4 5 5 3 6 4 7 2 8 1 9 83 10 84 11 105 12 85 13
REMARK SMILES IDX 103 14 86 15 104 16 87 17 88 18 102 19 89 20 91 21 90 22
REMARK SMILES IDX 92 23 93 24 94 25 95 26 96 28 97 29 101 30 98 31 100 32
REMARK SMILES IDX 99 33 10 34 11 35 12 36 13 37 14 38 15 39 16 40 17 41 18 42
REMARK SMILES IDX 19 43 20 44 21 45 82 46 22 47 81 48 23 49 24 50 25 51 75 52
REMARK SMILES IDX 26 53 80 54 74 55 76 56 27 57 79 58 73 59 72 60 28 62 60 63
REMARK SMILES IDX 40 64 59 65 41 66 44 67 58 68 77 69 42 70 43 71 57 73 78 74
REMARK SMILES IDX 45 75 29 76 30 77 38 78 31 79 32 80 36 81 39 82 33 83 34 84
REMARK SMILES IDX 37 85 35 86 61 87 62 88 70 89 63 90 64 91 68 92 71 93 65 94
REMARK SMILES IDX 66 95 69 96 67 97 46 98 47 99 55 100 48 101 49 102 53 103
REMARK SMILES IDX 56 104 50 105 51 106 54 107 52 108
REMARK H PARENT 95 27 76 61 44 72
REMARK Flexibility Score: inf
ROOT
ATOM      1  C   UNL A   1      35.531  22.689  26.108  1.00  0.00     0.188 C 
ENDROOT
BRANCH   1   2
ATOM      2  O   UNL A   1      34.850  22.181  27.237  1.00  0.00    -0.376 OA
BRANCH   2   3
ATOM      3  C   UNL A   1      33.544  21.635  27.125  1.00  0.00     0.202 C 
BRANCH   3   4
ATOM      4  C   UNL A   1      32.340  22.299  26.419  1.00  0.00     0.261 C 
BRANCH   4   5
ATOM      5  O   UNL A   1      32.113  23.688  26.681  1.00  0.00    -0.463 OA
BRANCH   5   6
ATOM      6  C   UNL A   1      30.844  24.146  26.550  1.00  0.00     0.313 C 
ATOM      7  O   UNL A   1      29.887  23.702  27.177  1.00  0.00    -0.252 OA
BRANCH   6   8
ATOM      8  C   UNL A   1      30.732  25.341  25.587  1.00  0.00     0.126 C 
ATOM      9  C   UNL A   1      30.896  24.951  24.111  1.00  0.00     0.025 C 
BRANCH   8  10
ATOM     10  C   UNL A   1      31.510  26.564  26.086  1.00  0.00    -0.031 A 
ATOM     11  C   UNL A   1      31.256  27.246  27.287  1.00  0.00     0.005 A 
ATOM     12  C   UNL A   1      32.578  27.031  25.301  1.00  0.00     0.044 A 
ATOM     13  C   UNL A   1      32.028  28.362  27.671  1.00  0.00     0.012 A 
ATOM     14  C   UNL A   1      33.336  28.134  25.686  1.00  0.00     0.131 A 
ATOM     15  C   UNL A   1      33.085  28.826  26.874  1.00  0.00     0.018 A 
ATOM     16  F   UNL A   1      34.341  28.512  24.880  1.00  0.00    -0.206 F 
BRANCH  15  17
ATOM     17  C   UNL A   1      33.911  29.988  27.248  1.00  0.00    -0.012 A 
ATOM     18  C   UNL A   1      33.373  31.283  27.308  1.00  0.00     0.009 A 
ATOM     19  C   UNL A   1      35.257  29.808  27.620  1.00  0.00     0.056 A 
ATOM     20  C   UNL A   1      34.147  32.362  27.748  1.00  0.00     0.004 A 
ATOM     21  C   UNL A   1      36.030  30.885  28.049  1.00  0.00     0.133 A 
ATOM     22  C   UNL A   1      35.476  32.162  28.123  1.00  0.00     0.047 A 
BRANCH  21  23
ATOM     23  O   UNL A   1      37.393  30.796  28.435  1.00  0.00    -0.410 OA
BRANCH  23  24
ATOM     24  C   UNL A   1      37.865  30.537  29.722  1.00  0.00     0.417 C 
ATOM     25  O   UNL A   1      37.562  31.161  30.735  1.00  0.00    -0.224 OA
ATOM     26  N   UNL A   1      38.638  29.410  29.839  1.00  0.00    -0.291 N 
ATOM     27  H   UNL A   1      38.832  29.143  30.767  1.00  0.00     0.173 HD
BRANCH  26  28
ATOM     28  C   UNL A   1      39.199  28.577  28.864  1.00  0.00     0.044 A 
ATOM     29  C   UNL A   1      39.241  27.206  29.150  1.00  0.00     0.026 A 
ATOM     30  C   UNL A   1      39.747  29.037  27.665  1.00  0.00     0.026 A 
ATOM     31  C   UNL A   1      39.780  26.303  28.233  1.00  0.00     0.002 A 
ATOM     32  C   UNL A   1      40.309  28.134  26.756  1.00  0.00     0.002 A 
ATOM     33  C   UNL A   1      40.316  26.768  27.035  1.00  0.00     0.000 A 
ENDBRANCH  26  28
ENDBRANCH  23  24
ENDBRANCH  21  23
ENDBRANCH  15  17
ENDBRANCH   8  10
ENDBRANCH   6   8
ENDBRANCH   5   6
ENDBRANCH   4   5
ENDBRANCH   3   4
ENDBRANCH   2   3
ENDBRANCH   1   2
BRANCH   1  34
ATOM     34  C   UNL A   1      36.145  21.676  25.130  1.00  0.00     0.188 C 
BRANCH  34  35
ATOM     35  O   UNL A   1      37.496  21.924  24.784  1.00  0.00    -0.377 OA
BRANCH  35  36
ATOM     36  C   UNL A   1      38.508  21.174  25.442  1.00  0.00     0.188 C 
BRANCH  36  37
ATOM     37  C   UNL A   1      39.460  21.849  26.448  1.00  0.00     0.188 C 
BRANCH  37  38
ATOM     38  O   UNL A   1      40.286  20.953  27.178  1.00  0.00    -0.376 OA
BRANCH  38  39
ATOM     39  C   UNL A   1      40.970  19.933  26.462  1.00  0.00     0.202 C 
BRANCH  39  40
ATOM     40  C   UNL A   1      42.366  20.293  25.929  1.00  0.00     0.261 C 
BRANCH  40  41
ATOM     41  O   UNL A   1      43.063  21.330  26.640  1.00  0.00    -0.460 OA
BRANCH  41  42
ATOM     42  C   UNL A   1      43.136  22.549  26.064  1.00  0.00     0.338 C 
ATOM     43  O   UNL A   1      42.997  22.823  24.889  1.00  0.00    -0.246 OA
BRANCH  42  44
ATOM     44  C   UNL A   1      43.234  23.550  27.146  1.00  0.00     0.060 A 
ATOM     45  C   UNL A   1      44.309  24.447  27.140  1.00  0.00     0.016 A 
ATOM     46  C   UNL A   1      42.277  23.596  28.163  1.00  0.00     0.016 A 
ATOM     47  C   UNL A   1      44.455  25.368  28.177  1.00  0.00     0.010 A 
ATOM     48  C   UNL A   1      42.436  24.506  29.212  1.00  0.00     0.010 A 
ATOM     49  C   UNL A   1      43.545  25.368  29.242  1.00  0.00    -0.014 A 
BRANCH  49  50
ATOM     50  C   UNL A   1      43.869  26.115  30.483  1.00  0.00     0.031 A 
ATOM     51  C   UNL A   1      43.562  27.586  30.526  1.00  0.00     0.074 A 
ATOM     52  C   UNL A   1      44.403  25.503  31.554  1.00  0.00     0.049 A 
ATOM     53  N   UNL A   1      43.801  28.462  31.469  1.00  0.00    -0.248 NA
ATOM     54  C   UNL A   1      42.897  28.147  29.339  1.00  0.00     0.031 C 
ATOM     55  C   UNL A   1      44.705  24.078  31.651  1.00  0.00     0.029 A 
ATOM     56  N   UNL A   1      44.795  26.017  32.766  1.00  0.00    -0.354 N 
ATOM     57  C   UNL A   1      43.320  29.673  30.987  1.00  0.00     0.074 A 
ATOM     58  C   UNL A   1      42.808  29.428  29.657  1.00  0.00     0.031 C 
ATOM     59  C   UNL A   1      45.252  23.831  32.854  1.00  0.00     0.029 A 
ATOM     60  C   UNL A   1      45.370  25.087  33.596  1.00  0.00     0.049 A 
ATOM     61  H   UNL A   1      44.676  26.962  33.015  1.00  0.00     0.167 HD
ATOM     62  C   UNL A   1      43.296  30.878  31.605  1.00  0.00     0.037 A 
ATOM     63  C   UNL A   1      45.946  25.241  34.805  1.00  0.00     0.037 A 
ATOM     64  C   UNL A   1      43.812  31.119  32.926  1.00  0.00     0.049 A 
ATOM     65  C   UNL A   1      45.983  26.610  35.438  1.00  0.00     0.074 A 
ATOM     66  C   UNL A   1      43.830  32.302  33.643  1.00  0.00     0.029 A 
ATOM     67  N   UNL A   1      44.414  30.158  33.724  1.00  0.00    -0.354 N 
ATOM     68  N   UNL A   1      45.506  27.747  34.988  1.00  0.00    -0.248 NA
ATOM     69  C   UNL A   1      46.636  26.717  36.752  1.00  0.00     0.031 C 
ATOM     70  C   UNL A   1      44.494  32.071  34.851  1.00  0.00     0.029 A 
ATOM     71  C   UNL A   1      44.831  30.729  34.916  1.00  0.00     0.049 A 
ATOM     72  H   UNL A   1      44.528  29.211  33.480  1.00  0.00     0.167 HD
ATOM     73  C   UNL A   1      45.772  28.691  35.973  1.00  0.00     0.074 A 
ATOM     74  C   UNL A   1      46.441  27.993  37.051  1.00  0.00     0.031 C 
ATOM     75  C   UNL A   1      45.488  30.018  35.985  1.00  0.00     0.037 A 
BRANCH  62  76
ATOM     76  C   UNL A   1      42.716  32.032  30.840  1.00  0.00     0.064 A 
ATOM     77  C   UNL A   1      41.356  32.368  30.925  1.00  0.00     0.173 A 
ATOM     78  C   UNL A   1      43.537  32.828  30.027  1.00  0.00     0.173 A 
ATOM     79  F   UNL A   1      40.524  31.629  31.676  1.00  0.00    -0.203 F 
ATOM     80  C   UNL A   1      40.834  33.438  30.203  1.00  0.00     0.198 A 
ATOM     81  C   UNL A   1      43.019  33.917  29.332  1.00  0.00     0.198 A 
ATOM     82  F   UNL A   1      44.845  32.553  29.911  1.00  0.00    -0.203 F 
ATOM     83  F   UNL A   1      39.523  33.705  30.257  1.00  0.00    -0.200 F 
ATOM     84  C   UNL A   1      41.668  34.216  29.412  1.00  0.00     0.200 A 
ATOM     85  F   UNL A   1      43.828  34.675  28.578  1.00  0.00    -0.200 F 
ATOM     86  F   UNL A   1      41.166  35.249  28.721  1.00  0.00    -0.200 F 
ENDBRANCH  62  76
BRANCH  63  87
ATOM     87  C   UNL A   1      46.557  24.072  35.492  1.00  0.00     0.064 A 
ATOM     88  C   UNL A   1      47.868  23.664  35.208  1.00  0.00     0.173 A 
ATOM     89  C   UNL A   1      45.832  23.320  36.429  1.00  0.00     0.173 A 
ATOM     90  F   UNL A   1      48.593  24.331  34.297  1.00  0.00    -0.203 F 
ATOM     91  C   UNL A   1      48.421  22.540  35.817  1.00  0.00     0.198 A 
ATOM     92  C   UNL A   1      46.397  22.216  37.062  1.00  0.00     0.198 A 
ATOM     93  F   UNL A   1      44.572  23.664  36.735  1.00  0.00    -0.203 F 
ATOM     94  F   UNL A   1      49.658  22.142  35.487  1.00  0.00    -0.200 F 
ATOM     95  C   UNL A   1      47.689  21.820  36.749  1.00  0.00     0.200 A 
ATOM     96  F   UNL A   1      45.689  21.531  37.970  1.00  0.00    -0.200 F 
ATOM     97  F   UNL A   1      48.223  20.742  37.337  1.00  0.00    -0.200 F 
ENDBRANCH  63  87
BRANCH  75  98
ATOM     98  C   UNL A   1      45.856  30.797  37.216  1.00  0.00     0.064 A 
ATOM     99  C   UNL A   1      47.146  31.313  37.408  1.00  0.00     0.173 A 
ATOM    100  C   UNL A   1      44.888  31.071  38.195  1.00  0.00     0.173 A 
ATOM    101  F   UNL A   1      48.111  31.071  36.510  1.00  0.00    -0.203 F 
ATOM    102  C   UNL A   1      47.460  32.051  38.548  1.00  0.00     0.198 A 
ATOM    103  C   UNL A   1      45.196  31.837  39.316  1.00  0.00     0.198 A 
ATOM    104  F   UNL A   1      43.636  30.610  38.057  1.00  0.00    -0.203 F 
ATOM    105  F   UNL A   1      48.712  32.492  38.734  1.00  0.00    -0.200 F 
ATOM    106  C   UNL A   1      46.483  32.319  39.496  1.00  0.00     0.200 A 
ATOM    107  F   UNL A   1      44.246  32.110  40.222  1.00  0.00    -0.200 F 
ATOM    108  F   UNL A   1      46.784  33.037  40.586  1.00  0.00    -0.200 F 
ENDBRANCH  75  98
ENDBRANCH  49  50
ENDBRANCH  42  44
ENDBRANCH  41  42
ENDBRANCH  40  41
ENDBRANCH  39  40
ENDBRANCH  38  39
ENDBRANCH  37  38
ENDBRANCH  36  37
ENDBRANCH  35  36
ENDBRANCH  34  35
ENDBRANCH   1  34
TORSDOF 25
ENDMDL
MODEL 3
REMARK VINA RESULT:      -8.6      4.619      9.339
REMARK SMILES C[C@@H](C(=O)OCCOCCOCCOCCOC(=O)c1ccc(-c2c3nc(c(-c4c(F)c(F)c(F)c(F)c4F)c4ccc([nH]4)c(-c4c(F)c(F)c(F)c(F)c4F)c4nc(c(-c5c(F)c(F)c(F)c(F)c5F)c5ccc2[nH]5)C=C4)C=C3)cc1)c1ccc(-c2cccc(OC(=O)Nc3ccccc3)c2)c(F)c1
REMARK SMILES IDX 9 1 8 2 7 3 6 4 5 5 3 6 4 7 2 8 1 9 83 10 84 11 105 12 85 13
REMARK SMILES IDX 103 14 86 15 104 16 87 17 88 18 102 19 89 20 91 21 90 22
REMARK SMILES IDX 92 23 93 24 94 25 95 26 96 28 97 29 101 30 98 31 100 32
REMARK SMILES IDX 99 33 10 34 11 35 12 36 13 37 14 38 15 39 16 40 17 41 18 42
REMARK SMILES IDX 19 43 20 44 21 45 82 46 22 47 81 48 23 49 24 50 25 51 75 52
REMARK SMILES IDX 26 53 80 54 74 55 76 56 27 57 79 58 73 59 72 60 28 62 60 63
REMARK SMILES IDX 40 64 59 65 41 66 44 67 58 68 77 69 42 70 43 71 57 73 78 74
REMARK SMILES IDX 45 75 29 76 30 77 38 78 31 79 32 80 36 81 39 82 33 83 34 84
REMARK SMILES IDX 37 85 35 86 61 87 62 88 70 89 63 90 64 91 68 92 71 93 65 94
REMARK SMILES IDX 66 95 69 96 67 97 46 98 47 99 55 100 48 101 49 102 53 103
REMARK SMILES IDX 56 104 50 105 51 106 54 107 52 108
REMARK H PARENT 95 27 76 61 44 72
REMARK Flexibility Score: inf
ROOT
ATOM      1  C   UNL A   1      43.867  26.241  33.305  1.00  0.00     0.188 C 
ENDROOT
BRANCH   1   2
ATOM      2  O   UNL A   1      42.953  25.902  34.329  1.00  0.00    -0.376 OA
BRANCH   2   3
ATOM      3  C   UNL A   1      42.108  26.880  34.916  1.00  0.00     0.202 C 
BRANCH   3   4
ATOM      4  C   UNL A   1      41.493  28.100  34.193  1.00  0.00     0.261 C 
BRANCH   4   5
ATOM      5  O   UNL A   1      40.822  29.071  35.003  1.00  0.00    -0.463 OA
BRANCH   5   6
ATOM      6  C   UNL A   1      39.960  29.911  34.380  1.00  0.00     0.313 C 
ATOM      7  O   UNL A   1      38.790  29.634  34.135  1.00  0.00    -0.252 OA
BRANCH   6   8
ATOM      8  C   UNL A   1      40.575  31.288  34.076  1.00  0.00     0.126 C 
ATOM      9  C   UNL A   1      41.972  31.204  33.442  1.00  0.00     0.025 C 
BRANCH   8  10
ATOM     10  C   UNL A   1      40.383  32.278  35.230  1.00  0.00    -0.031 A 
ATOM     11  C   UNL A   1      41.417  32.802  36.024  1.00  0.00     0.005 A 
ATOM     12  C   UNL A   1      39.079  32.721  35.509  1.00  0.00     0.044 A 
ATOM     13  C   UNL A   1      41.148  33.715  37.065  1.00  0.00     0.012 A 
ATOM     14  C   UNL A   1      38.820  33.622  36.539  1.00  0.00     0.131 A 
ATOM     15  C   UNL A   1      39.840  34.141  37.341  1.00  0.00     0.018 A 
ATOM     16  F   UNL A   1      37.547  33.997  36.735  1.00  0.00    -0.206 F 
BRANCH  15  17
ATOM     17  C   UNL A   1      39.528  35.094  38.421  1.00  0.00    -0.012 A 
ATOM     18  C   UNL A   1      39.757  36.471  38.273  1.00  0.00     0.009 A 
ATOM     19  C   UNL A   1      38.927  34.642  39.611  1.00  0.00     0.056 A 
ATOM     20  C   UNL A   1      39.377  37.373  39.273  1.00  0.00     0.004 A 
ATOM     21  C   UNL A   1      38.558  35.540  40.611  1.00  0.00     0.133 A 
ATOM     22  C   UNL A   1      38.772  36.908  40.441  1.00  0.00     0.047 A 
BRANCH  21  23
ATOM     23  O   UNL A   1      37.955  35.172  41.841  1.00  0.00    -0.410 OA
BRANCH  23  24
ATOM     24  C   UNL A   1      38.560  35.217  43.097  1.00  0.00     0.417 C 
ATOM     25  O   UNL A   1      38.886  36.237  43.699  1.00  0.00    -0.224 OA
ATOM     26  N   UNL A   1      38.676  34.005  43.728  1.00  0.00    -0.291 N 
ATOM     27  H   UNL A   1      38.950  34.060  44.672  1.00  0.00     0.173 HD
BRANCH  26  28
ATOM     28  C   UNL A   1      38.470  32.702  43.257  1.00  0.00     0.044 A 
ATOM     29  C   UNL A   1      39.580  31.848  43.254  1.00  0.00     0.026 A 
ATOM     30  C   UNL A   1      37.252  32.235  42.761  1.00  0.00     0.026 A 
ATOM     31  C   UNL A   1      39.464  30.532  42.805  1.00  0.00     0.002 A 
ATOM     32  C   UNL A   1      37.143  30.923  42.287  1.00  0.00     0.002 A 
ATOM     33  C   UNL A   1      38.244  30.070  42.320  1.00  0.00     0.000 A 
ENDBRANCH  26  28
ENDBRANCH  23  24
ENDBRANCH  21  23
ENDBRANCH  15  17
ENDBRANCH   8  10
ENDBRANCH   6   8
ENDBRANCH   5   6
ENDBRANCH   4   5
ENDBRANCH   3   4
ENDBRANCH   2   3
ENDBRANCH   1   2
BRANCH   1  34
ATOM     34  C   UNL A   1      44.491  25.093  32.498  1.00  0.00     0.188 C 
BRANCH  34  35
ATOM     35  O   UNL A   1      44.165  25.088  31.120  1.00  0.00    -0.377 OA
BRANCH  35  36
ATOM     36  C   UNL A   1      44.119  23.839  30.443  1.00  0.00     0.188 C 
BRANCH  36  37
ATOM     37  C   UNL A   1      43.110  23.596  29.304  1.00  0.00     0.188 C 
BRANCH  37  38
ATOM     38  O   UNL A   1      43.143  22.288  28.749  1.00  0.00    -0.376 OA
BRANCH  38  39
ATOM     39  C   UNL A   1      42.738  22.121  27.397  1.00  0.00     0.202 C 
BRANCH  39  40
ATOM     40  C   UNL A   1      41.485  21.260  27.163  1.00  0.00     0.261 C 
BRANCH  40  41
ATOM     41  O   UNL A   1      40.236  21.846  27.564  1.00  0.00    -0.460 OA
BRANCH  41  42
ATOM     42  C   UNL A   1      39.578  22.605  26.661  1.00  0.00     0.338 C 
ATOM     43  O   UNL A   1      38.879  22.227  25.743  1.00  0.00    -0.246 OA
BRANCH  42  44
ATOM     44  C   UNL A   1      39.697  24.014  27.090  1.00  0.00     0.060 A 
ATOM     45  C   UNL A   1      40.251  24.945  26.202  1.00  0.00     0.016 A 
ATOM     46  C   UNL A   1      39.275  24.410  28.361  1.00  0.00     0.016 A 
ATOM     47  C   UNL A   1      40.424  26.270  26.600  1.00  0.00     0.010 A 
ATOM     48  C   UNL A   1      39.467  25.734  28.766  1.00  0.00     0.010 A 
ATOM     49  C   UNL A   1      40.077  26.659  27.900  1.00  0.00    -0.014 A 
BRANCH  49  50
ATOM     50  C   UNL A   1      40.545  27.966  28.425  1.00  0.00     0.031 A 
ATOM     51  C   UNL A   1      42.022  28.161  28.628  1.00  0.00     0.074 A 
ATOM     52  C   UNL A   1      39.687  28.963  28.697  1.00  0.00     0.049 A 
ATOM     53  N   UNL A   1      42.669  29.185  29.124  1.00  0.00    -0.248 NA
ATOM     54  C   UNL A   1      42.888  27.044  28.218  1.00  0.00     0.031 C 
ATOM     55  C   UNL A   1      38.241  28.913  28.502  1.00  0.00     0.029 A 
ATOM     56  N   UNL A   1      39.917  30.217  29.209  1.00  0.00    -0.354 N 
ATOM     57  C   UNL A   1      44.012  28.834  29.087  1.00  0.00     0.074 A 
ATOM     58  C   UNL A   1      44.087  27.491  28.556  1.00  0.00     0.031 C 
ATOM     59  C   UNL A   1      37.707  30.079  28.906  1.00  0.00     0.029 A 
ATOM     60  C   UNL A   1      38.770  30.943  29.419  1.00  0.00     0.049 A 
ATOM     61  H   UNL A   1      40.817  30.562  29.407  1.00  0.00     0.167 HD
ATOM     62  C   UNL A   1      45.088  29.570  29.453  1.00  0.00     0.037 A 
ATOM     63  C   UNL A   1      38.602  32.155  29.984  1.00  0.00     0.037 A 
ATOM     64  C   UNL A   1      45.010  30.903  29.988  1.00  0.00     0.049 A 
ATOM     65  C   UNL A   1      39.809  32.924  30.462  1.00  0.00     0.074 A 
ATOM     66  C   UNL A   1      46.042  31.736  30.384  1.00  0.00     0.029 A 
ATOM     67  N   UNL A   1      43.829  31.594  30.214  1.00  0.00    -0.354 N 
ATOM     68  N   UNL A   1      41.078  32.596  30.404  1.00  0.00    -0.248 NA
ATOM     69  C   UNL A   1      39.560  34.234  31.080  1.00  0.00     0.031 C 
ATOM     70  C   UNL A   1      45.483  32.908  30.903  1.00  0.00     0.029 A 
ATOM     71  C   UNL A   1      44.105  32.833  30.769  1.00  0.00     0.049 A 
ATOM     72  H   UNL A   1      42.928  31.254  30.010  1.00  0.00     0.167 HD
ATOM     73  C   UNL A   1      41.777  33.668  30.947  1.00  0.00     0.074 A 
ATOM     74  C   UNL A   1      40.791  34.663  31.317  1.00  0.00     0.031 C 
ATOM     75  C   UNL A   1      43.113  33.818  31.124  1.00  0.00     0.037 A 
BRANCH  62  76
ATOM     76  C   UNL A   1      46.440  28.933  29.312  1.00  0.00     0.064 A 
ATOM     77  C   UNL A   1      46.986  28.126  30.322  1.00  0.00     0.173 A 
ATOM     78  C   UNL A   1      47.191  29.115  28.141  1.00  0.00     0.173 A 
ATOM     79  F   UNL A   1      46.317  27.933  31.469  1.00  0.00    -0.203 F 
ATOM     80  C   UNL A   1      48.246  27.550  30.177  1.00  0.00     0.198 A 
ATOM     81  C   UNL A   1      48.436  28.511  27.986  1.00  0.00     0.198 A 
ATOM     82  F   UNL A   1      46.716  29.875  27.144  1.00  0.00    -0.203 F 
ATOM     83  F   UNL A   1      48.771  26.829  31.177  1.00  0.00    -0.200 F 
ATOM     84  C   UNL A   1      48.966  27.737  29.007  1.00  0.00     0.200 A 
ATOM     85  F   UNL A   1      49.125  28.683  26.849  1.00  0.00    -0.200 F 
ATOM     86  F   UNL A   1      50.176  27.177  28.866  1.00  0.00    -0.200 F 
ENDBRANCH  62  76
BRANCH  63  87
ATOM     87  C   UNL A   1      37.234  32.714  30.151  1.00  0.00     0.064 A 
ATOM     88  C   UNL A   1      36.470  32.439  31.294  1.00  0.00     0.173 A 
ATOM     89  C   UNL A   1      36.649  33.513  29.157  1.00  0.00     0.173 A 
ATOM     90  F   UNL A   1      36.971  31.656  32.261  1.00  0.00    -0.203 F 
ATOM     91  C   UNL A   1      35.170  32.924  31.427  1.00  0.00     0.198 A 
ATOM     92  C   UNL A   1      35.362  34.024  29.305  1.00  0.00     0.198 A 
ATOM     93  F   UNL A   1      37.334  33.803  28.040  1.00  0.00    -0.203 F 
ATOM     94  F   UNL A   1      34.445  32.602  32.507  1.00  0.00    -0.200 F 
ATOM     95  C   UNL A   1      34.620  33.722  30.436  1.00  0.00     0.200 A 
ATOM     96  F   UNL A   1      34.839  34.804  28.349  1.00  0.00    -0.200 F 
ATOM     97  F   UNL A   1      33.371  34.191  30.566  1.00  0.00    -0.200 F 
ENDBRANCH  63  87
BRANCH  75  98
ATOM     98  C   UNL A   1      43.598  35.118  31.701  1.00  0.00     0.064 A 
ATOM     99  C   UNL A   1      43.791  35.290  33.080  1.00  0.00     0.173 A 
ATOM    100  C   UNL A   1      43.920  36.191  30.855  1.00  0.00     0.173 A 
ATOM    101  F   UNL A   1      43.488  34.301  33.932  1.00  0.00    -0.203 F 
ATOM    102  C   UNL A   1      44.261  36.498  33.592  1.00  0.00     0.198 A 
ATOM    103  C   UNL A   1      44.421  37.384  31.368  1.00  0.00     0.198 A 
ATOM    104  F   UNL A   1      43.764  36.078  29.528  1.00  0.00    -0.203 F 
ATOM    105  F   UNL A   1      44.390  36.656  34.917  1.00  0.00    -0.200 F 
ATOM    106  C   UNL A   1      44.583  37.540  32.736  1.00  0.00     0.200 A 
ATOM    107  F   UNL A   1      44.750  38.384  30.537  1.00  0.00    -0.200 F 
ATOM    108  F   UNL A   1      45.045  38.697  33.229  1.00  0.00    -0.200 F 
ENDBRANCH  75  98
ENDBRANCH  49  50
ENDBRANCH  42  44
ENDBRANCH  41  42
ENDBRANCH  40  41
ENDBRANCH  39  40
ENDBRANCH  38  39
ENDBRANCH  37  38
ENDBRANCH  36  37
ENDBRANCH  35  36
ENDBRANCH  34  35
ENDBRANCH   1  34
TORSDOF 25
ENDMDL
