MODEL 1
REMARK VINA RESULT:     -10.6      0.000      0.000
REMARK SMILES O=C(OCCOCCOCCOCCOC(=O)[C@H]1CSC2(CCCCC2)[NH2+]1)c1ccc(-c2c3nc(c(-c4c(F)c(F)c(F)c(F)c4F)c4ccc([nH]4)c(-c4c(F)c(F)c(F)c(F)c4F)c4nc(c(-c5c(F)c(F)c(F)c(F)c5F)c5ccc2[nH]5)C=C4)C=C3)cc1
REMARK SMILES IDX 8 1 7 2 6 3 5 4 4 5 3 6 2 7 1 8 28 9 29 10 90 11 30 12 89 13
REMARK SMILES IDX 31 14 32 15 33 16 83 17 34 18 88 19 82 20 84 21 35 22 87 23
REMARK SMILES IDX 81 24 80 25 36 27 68 28 48 29 67 30 49 31 52 32 66 33 85 34
REMARK SMILES IDX 50 35 51 36 65 38 86 39 53 40 37 41 38 42 46 43 39 44 40 45
REMARK SMILES IDX 44 46 47 47 41 48 42 49 45 50 43 51 69 52 70 53 78 54 71 55
REMARK SMILES IDX 72 56 76 57 79 58 73 59 74 60 77 61 75 62 54 63 55 64 63 65
REMARK SMILES IDX 56 66 57 67 61 68 64 69 58 70 59 71 62 72 60 73 9 74 10 75
REMARK SMILES IDX 11 76 12 77 13 78 14 79 15 80 16 81 17 82 18 83 19 84 27 85
REMARK SMILES IDX 20 86 21 87 22 90 26 91 23 92 25 93 24 94
REMARK H PARENT 84 26 52 37 27 88 27 89
REMARK Flexibility Score: inf
ROOT
ATOM      1  C   UNL A   1      39.942  21.711  26.470  1.00  0.00     0.188 C 
ENDROOT
BRANCH   1   2
ATOM      2  C   UNL A   1      41.444  21.524  26.680  1.00  0.00     0.188 C 
BRANCH   2   3
ATOM      3  O   UNL A   1      42.186  21.554  25.456  1.00  0.00    -0.376 OA
BRANCH   3   4
ATOM      4  C   UNL A   1      43.582  21.266  25.556  1.00  0.00     0.202 C 
BRANCH   4   5
ATOM      5  C   UNL A   1      44.511  22.469  25.383  1.00  0.00     0.261 C 
BRANCH   5   6
ATOM      6  O   UNL A   1      43.838  23.642  24.907  1.00  0.00    -0.460 OA
BRANCH   6   7
ATOM      7  C   UNL A   1      44.094  24.942  25.194  1.00  0.00     0.338 C 
ATOM      8  O   UNL A   1      45.114  25.443  24.720  1.00  0.00    -0.246 OA
BRANCH   7   9
ATOM      9  C   UNL A   1      43.237  25.815  26.063  1.00  0.00     0.060 A 
ATOM     10  C   UNL A   1      43.366  27.195  26.224  1.00  0.00     0.016 A 
ATOM     11  C   UNL A   1      42.189  25.178  26.754  1.00  0.00     0.016 A 
ATOM     12  C   UNL A   1      42.550  27.917  27.076  1.00  0.00     0.010 A 
ATOM     13  C   UNL A   1      41.367  25.888  27.636  1.00  0.00     0.010 A 
ATOM     14  C   UNL A   1      41.593  27.253  27.831  1.00  0.00    -0.014 A 
BRANCH  14  15
ATOM     15  C   UNL A   1      41.115  27.969  29.023  1.00  0.00     0.031 A 
ATOM     16  C   UNL A   1      41.997  27.918  30.234  1.00  0.00     0.074 A 
ATOM     17  C   UNL A   1      40.073  28.809  28.928  1.00  0.00     0.049 A 
ATOM     18  N   UNL A   1      41.837  28.465  31.408  1.00  0.00    -0.248 NA
ATOM     19  C   UNL A   1      43.257  27.165  30.093  1.00  0.00     0.031 C 
ATOM     20  C   UNL A   1      39.298  29.058  27.711  1.00  0.00     0.029 A 
ATOM     21  N   UNL A   1      39.523  29.649  29.855  1.00  0.00    -0.354 N 
ATOM     22  C   UNL A   1      42.948  28.082  32.150  1.00  0.00     0.074 A 
ATOM     23  C   UNL A   1      43.781  27.266  31.301  1.00  0.00     0.031 C 
ATOM     24  C   UNL A   1      38.380  30.005  27.965  1.00  0.00     0.029 A 
ATOM     25  C   UNL A   1      38.461  30.371  29.374  1.00  0.00     0.049 A 
ATOM     26  H   UNL A   1      39.856  29.726  30.778  1.00  0.00     0.167 HD
ATOM     27  C   UNL A   1      43.229  28.383  33.438  1.00  0.00     0.037 A 
ATOM     28  C   UNL A   1      37.635  31.206  30.030  1.00  0.00     0.037 A 
ATOM     29  C   UNL A   1      42.372  29.208  34.241  1.00  0.00     0.049 A 
ATOM     30  C   UNL A   1      37.898  31.427  31.498  1.00  0.00     0.074 A 
ATOM     31  C   UNL A   1      42.482  29.537  35.577  1.00  0.00     0.029 A 
ATOM     32  N   UNL A   1      41.229  29.838  33.759  1.00  0.00    -0.354 N 
ATOM     33  N   UNL A   1      38.888  30.983  32.239  1.00  0.00    -0.248 NA
ATOM     34  C   UNL A   1      36.925  32.249  32.224  1.00  0.00     0.031 C 
ATOM     35  C   UNL A   1      41.371  30.316  35.917  1.00  0.00     0.029 A 
ATOM     36  C   UNL A   1      40.610  30.537  34.778  1.00  0.00     0.049 A 
ATOM     37  H   UNL A   1      40.910  29.794  32.830  1.00  0.00     0.167 HD
ATOM     38  C   UNL A   1      38.680  31.498  33.509  1.00  0.00     0.074 A 
ATOM     39  C   UNL A   1      37.470  32.297  33.432  1.00  0.00     0.031 C 
ATOM     40  C   UNL A   1      39.413  31.333  34.639  1.00  0.00     0.037 A 
BRANCH  27  41
ATOM     41  C   UNL A   1      44.428  27.716  34.047  1.00  0.00     0.064 A 
ATOM     42  C   UNL A   1      44.366  26.448  34.647  1.00  0.00     0.173 A 
ATOM     43  C   UNL A   1      45.652  28.403  34.099  1.00  0.00     0.173 A 
ATOM     44  F   UNL A   1      43.213  25.762  34.661  1.00  0.00    -0.203 F 
ATOM     45  C   UNL A   1      45.470  25.915  35.314  1.00  0.00     0.198 A 
ATOM     46  C   UNL A   1      46.761  27.853  34.736  1.00  0.00     0.198 A 
ATOM     47  F   UNL A   1      45.765  29.622  33.554  1.00  0.00    -0.203 F 
ATOM     48  F   UNL A   1      45.363  24.741  35.951  1.00  0.00    -0.200 F 
ATOM     49  C   UNL A   1      46.665  26.616  35.355  1.00  0.00     0.200 A 
ATOM     50  F   UNL A   1      47.915  28.533  34.772  1.00  0.00    -0.200 F 
ATOM     51  F   UNL A   1      47.719  26.110  36.010  1.00  0.00    -0.200 F 
ENDBRANCH  27  41
BRANCH  28  52
ATOM     52  C   UNL A   1      36.484  31.838  29.332  1.00  0.00     0.064 A 
ATOM     53  C   UNL A   1      36.440  33.219  29.098  1.00  0.00     0.173 A 
ATOM     54  C   UNL A   1      35.390  31.073  28.893  1.00  0.00     0.173 A 
ATOM     55  F   UNL A   1      37.448  34.001  29.512  1.00  0.00    -0.203 F 
ATOM     56  C   UNL A   1      35.343  33.811  28.473  1.00  0.00     0.198 A 
ATOM     57  C   UNL A   1      34.309  31.661  28.239  1.00  0.00     0.198 A 
ATOM     58  F   UNL A   1      35.374  29.746  29.092  1.00  0.00    -0.203 F 
ATOM     59  F   UNL A   1      35.306  35.141  28.306  1.00  0.00    -0.200 F 
ATOM     60  C   UNL A   1      34.281  33.032  28.039  1.00  0.00     0.200 A 
ATOM     61  F   UNL A   1      33.294  30.899  27.809  1.00  0.00    -0.200 F 
ATOM     62  F   UNL A   1      33.228  33.601  27.437  1.00  0.00    -0.200 F 
ENDBRANCH  28  52
BRANCH  40  63
ATOM     63  C   UNL A   1      38.961  32.087  35.853  1.00  0.00     0.064 A 
ATOM     64  C   UNL A   1      38.180  31.488  36.851  1.00  0.00     0.173 A 
ATOM     65  C   UNL A   1      39.361  33.420  36.035  1.00  0.00     0.173 A 
ATOM     66  F   UNL A   1      37.764  30.220  36.712  1.00  0.00    -0.203 F 
ATOM     67  C   UNL A   1      37.786  32.208  37.973  1.00  0.00     0.198 A 
ATOM     68  C   UNL A   1      38.998  34.123  37.177  1.00  0.00     0.198 A 
ATOM     69  F   UNL A   1      40.119  34.031  35.113  1.00  0.00    -0.203 F 
ATOM     70  F   UNL A   1      36.990  31.636  38.887  1.00  0.00    -0.200 F 
ATOM     71  C   UNL A   1      38.204  33.521  38.140  1.00  0.00     0.200 A 
ATOM     72  F   UNL A   1      39.420  35.384  37.346  1.00  0.00    -0.200 F 
ATOM     73  F   UNL A   1      37.832  34.210  39.228  1.00  0.00    -0.200 F 
ENDBRANCH  40  63
ENDBRANCH  14  15
ENDBRANCH   7   9
ENDBRANCH   6   7
ENDBRANCH   5   6
ENDBRANCH   4   5
ENDBRANCH   3   4
ENDBRANCH   2   3
ENDBRANCH   1   2
BRANCH   1  74
ATOM     74  O   UNL A   1      39.446  23.024  26.686  1.00  0.00    -0.377 OA
BRANCH  74  75
ATOM     75  C   UNL A   1      38.226  23.356  26.041  1.00  0.00     0.188 C 
BRANCH  75  76
ATOM     76  C   UNL A   1      37.215  22.220  25.730  1.00  0.00     0.188 C 
BRANCH  76  77
ATOM     77  O   UNL A   1      35.861  22.596  25.895  1.00  0.00    -0.376 OA
BRANCH  77  78
ATOM     78  C   UNL A   1      35.035  21.694  26.617  1.00  0.00     0.202 C 
BRANCH  78  79
ATOM     79  C   UNL A   1      33.508  21.905  26.634  1.00  0.00     0.261 C 
BRANCH  79  80
ATOM     80  O   UNL A   1      33.021  23.218  26.974  1.00  0.00    -0.459 OA
BRANCH  80  81
ATOM     81  C   UNL A   1      31.820  23.639  26.479  1.00  0.00     0.365 C 
ATOM     82  O   UNL A   1      30.891  23.993  27.175  1.00  0.00    -0.245 OA
BRANCH  81  83
ATOM     83  C   UNL A   1      31.899  23.681  24.925  1.00  0.00     0.304 C 
ATOM     84  C   UNL A   1      30.683  24.347  24.319  1.00  0.00     0.153 C 
ATOM     85  N   UNL A   1      33.099  24.366  24.371  1.00  0.00    -0.320 N 
ATOM     86  S   UNL A   1      31.093  26.105  24.372  1.00  0.00    -0.089 SA
ATOM     87  C   UNL A   1      32.896  25.811  24.248  1.00  0.00     0.143 C 
ATOM     88  H   UNL A   1      33.302  23.982  23.449  1.00  0.00     0.348 HD
ATOM     89  H   UNL A   1      33.876  24.209  25.014  1.00  0.00     0.348 HD
ATOM     90  C   UNL A   1      33.725  26.564  25.311  1.00  0.00     0.081 C 
ATOM     91  C   UNL A   1      33.397  26.233  22.851  1.00  0.00     0.081 C 
ATOM     92  C   UNL A   1      33.701  28.082  25.134  1.00  0.00     0.007 C 
ATOM     93  C   UNL A   1      33.321  27.746  22.636  1.00  0.00     0.007 C 
ATOM     94  C   UNL A   1      34.077  28.513  23.716  1.00  0.00     0.001 C 
ENDBRANCH  81  83
ENDBRANCH  80  81
ENDBRANCH  79  80
ENDBRANCH  78  79
ENDBRANCH  77  78
ENDBRANCH  76  77
ENDBRANCH  75  76
ENDBRANCH  74  75
ENDBRANCH   1  74
TORSDOF 20
ENDMDL
MODEL 2
REMARK VINA RESULT:     -10.4      1.142      2.349
REMARK SMILES O=C(OCCOCCOCCOCCOC(=O)[C@H]1CSC2(CCCCC2)[NH2+]1)c1ccc(-c2c3nc(c(-c4c(F)c(F)c(F)c(F)c4F)c4ccc([nH]4)c(-c4c(F)c(F)c(F)c(F)c4F)c4nc(c(-c5c(F)c(F)c(F)c(F)c5F)c5ccc2[nH]5)C=C4)C=C3)cc1
REMARK SMILES IDX 8 1 7 2 6 3 5 4 4 5 3 6 2 7 1 8 28 9 29 10 90 11 30 12 89 13
REMARK SMILES IDX 31 14 32 15 33 16 83 17 34 18 88 19 82 20 84 21 35 22 87 23
REMARK SMILES IDX 81 24 80 25 36 27 68 28 48 29 67 30 49 31 52 32 66 33 85 34
REMARK SMILES IDX 50 35 51 36 65 38 86 39 53 40 37 41 38 42 46 43 39 44 40 45
REMARK SMILES IDX 44 46 47 47 41 48 42 49 45 50 43 51 69 52 70 53 78 54 71 55
REMARK SMILES IDX 72 56 76 57 79 58 73 59 74 60 77 61 75 62 54 63 55 64 63 65
REMARK SMILES IDX 56 66 57 67 61 68 64 69 58 70 59 71 62 72 60 73 9 74 10 75
REMARK SMILES IDX 11 76 12 77 13 78 14 79 15 80 16 81 17 82 18 83 19 84 27 85
REMARK SMILES IDX 20 86 21 87 22 90 26 91 23 92 25 93 24 94
REMARK H PARENT 84 26 52 37 27 88 27 89
REMARK Flexibility Score: inf
ROOT
ATOM      1  C   UNL A   1      43.109  18.444  25.996  1.00  0.00     0.188 C 
ENDROOT
BRANCH   1   2
ATOM      2  C   UNL A   1      44.358  19.032  25.340  1.00  0.00     0.188 C 
BRANCH   2   3
ATOM      3  O   UNL A   1      44.082  20.205  24.568  1.00  0.00    -0.376 OA
BRANCH   3   4
ATOM      4  C   UNL A   1      44.575  21.439  25.095  1.00  0.00     0.202 C 
BRANCH   4   5
ATOM      5  C   UNL A   1      44.474  22.638  24.152  1.00  0.00     0.261 C 
BRANCH   5   6
ATOM      6  O   UNL A   1      43.610  23.673  24.640  1.00  0.00    -0.460 OA
BRANCH   6   7
ATOM      7  C   UNL A   1      43.929  24.929  25.037  1.00  0.00     0.338 C 
ATOM      8  O   UNL A   1      45.004  25.395  24.655  1.00  0.00    -0.246 OA
BRANCH   7   9
ATOM      9  C   UNL A   1      43.081  25.791  25.924  1.00  0.00     0.060 A 
ATOM     10  C   UNL A   1      43.173  27.177  26.055  1.00  0.00     0.016 A 
ATOM     11  C   UNL A   1      42.082  25.136  26.670  1.00  0.00     0.016 A 
ATOM     12  C   UNL A   1      42.369  27.890  26.928  1.00  0.00     0.010 A 
ATOM     13  C   UNL A   1      41.274  25.836  27.571  1.00  0.00     0.010 A 
ATOM     14  C   UNL A   1      41.465  27.211  27.733  1.00  0.00    -0.014 A 
BRANCH  14  15
ATOM     15  C   UNL A   1      41.012  27.934  28.930  1.00  0.00     0.031 A 
ATOM     16  C   UNL A   1      41.909  27.871  30.130  1.00  0.00     0.074 A 
ATOM     17  C   UNL A   1      39.983  28.791  28.848  1.00  0.00     0.049 A 
ATOM     18  N   UNL A   1      41.772  28.420  31.305  1.00  0.00    -0.248 NA
ATOM     19  C   UNL A   1      43.155  27.098  29.974  1.00  0.00     0.031 C 
ATOM     20  C   UNL A   1      39.197  29.052  27.641  1.00  0.00     0.029 A 
ATOM     21  N   UNL A   1      39.457  29.639  29.782  1.00  0.00    -0.354 N 
ATOM     22  C   UNL A   1      42.886  28.020  32.034  1.00  0.00     0.074 A 
ATOM     23  C   UNL A   1      43.696  27.192  31.175  1.00  0.00     0.031 C 
ATOM     24  C   UNL A   1      38.296  30.012  27.906  1.00  0.00     0.029 A 
ATOM     25  C   UNL A   1      38.400  30.377  29.314  1.00  0.00     0.049 A 
ATOM     26  H   UNL A   1      39.803  29.711  30.700  1.00  0.00     0.167 HD
ATOM     27  C   UNL A   1      43.188  28.317  33.318  1.00  0.00     0.037 A 
ATOM     28  C   UNL A   1      37.596  31.225  29.980  1.00  0.00     0.037 A 
ATOM     29  C   UNL A   1      42.354  29.155  34.131  1.00  0.00     0.049 A 
ATOM     30  C   UNL A   1      37.880  31.442  31.444  1.00  0.00     0.074 A 
ATOM     31  C   UNL A   1      42.486  29.483  35.466  1.00  0.00     0.029 A 
ATOM     32  N   UNL A   1      41.215  29.803  33.664  1.00  0.00    -0.354 N 
ATOM     33  N   UNL A   1      38.873  30.984  32.172  1.00  0.00    -0.248 NA
ATOM     34  C   UNL A   1      36.930  32.280  32.182  1.00  0.00     0.031 C 
ATOM     35  C   UNL A   1      41.391  30.279  35.820  1.00  0.00     0.029 A 
ATOM     36  C   UNL A   1      40.619  30.512  34.690  1.00  0.00     0.049 A 
ATOM     37  H   UNL A   1      40.883  29.764  32.738  1.00  0.00     0.167 HD
ATOM     38  C   UNL A   1      38.689  31.502  33.445  1.00  0.00     0.074 A 
ATOM     39  C   UNL A   1      37.490  32.319  33.382  1.00  0.00     0.031 C 
ATOM     40  C   UNL A   1      39.433  31.326  34.566  1.00  0.00     0.037 A 
BRANCH  27  41
ATOM     41  C   UNL A   1      44.385  27.632  33.912  1.00  0.00     0.064 A 
ATOM     42  C   UNL A   1      45.677  28.176  33.848  1.00  0.00     0.173 A 
ATOM     43  C   UNL A   1      44.240  26.361  34.491  1.00  0.00     0.173 A 
ATOM     44  F   UNL A   1      45.881  29.370  33.271  1.00  0.00    -0.203 F 
ATOM     45  C   UNL A   1      46.783  27.454  34.298  1.00  0.00     0.198 A 
ATOM     46  C   UNL A   1      45.341  25.658  34.970  1.00  0.00     0.198 A 
ATOM     47  F   UNL A   1      43.030  25.788  34.566  1.00  0.00    -0.203 F 
ATOM     48  F   UNL A   1      48.016  27.957  34.150  1.00  0.00    -0.200 F 
ATOM     49  C   UNL A   1      46.613  26.198  34.861  1.00  0.00     0.200 A 
ATOM     50  F   UNL A   1      45.173  24.445  35.515  1.00  0.00    -0.200 F 
ATOM     51  F   UNL A   1      47.677  25.499  35.279  1.00  0.00    -0.200 F 
ENDBRANCH  27  41
BRANCH  28  52
ATOM     52  C   UNL A   1      36.446  31.875  29.295  1.00  0.00     0.064 A 
ATOM     53  C   UNL A   1      36.413  33.258  29.074  1.00  0.00     0.173 A 
ATOM     54  C   UNL A   1      35.341  31.124  28.858  1.00  0.00     0.173 A 
ATOM     55  F   UNL A   1      37.432  34.026  29.488  1.00  0.00    -0.203 F 
ATOM     56  C   UNL A   1      35.318  33.866  28.462  1.00  0.00     0.198 A 
ATOM     57  C   UNL A   1      34.261  31.728  28.218  1.00  0.00     0.198 A 
ATOM     58  F   UNL A   1      35.313  29.796  29.046  1.00  0.00    -0.203 F 
ATOM     59  F   UNL A   1      35.292  35.198  28.308  1.00  0.00    -0.200 F 
ATOM     60  C   UNL A   1      34.245  33.101  28.030  1.00  0.00     0.200 A 
ATOM     61  F   UNL A   1      33.235  30.980  27.789  1.00  0.00    -0.200 F 
ATOM     62  F   UNL A   1      33.193  33.686  27.440  1.00  0.00    -0.200 F 
ENDBRANCH  28  52
BRANCH  40  63
ATOM     63  C   UNL A   1      39.008  32.087  35.785  1.00  0.00     0.064 A 
ATOM     64  C   UNL A   1      39.344  33.433  35.975  1.00  0.00     0.173 A 
ATOM     65  C   UNL A   1      38.208  31.460  36.753  1.00  0.00     0.173 A 
ATOM     66  F   UNL A   1      40.117  34.069  35.081  1.00  0.00    -0.203 F 
ATOM     67  C   UNL A   1      38.924  34.118  37.110  1.00  0.00     0.198 A 
ATOM     68  C   UNL A   1      37.757  32.159  37.867  1.00  0.00     0.198 A 
ATOM     69  F   UNL A   1      37.851  30.175  36.608  1.00  0.00    -0.203 F 
ATOM     70  F   UNL A   1      39.305  35.388  37.303  1.00  0.00    -0.200 F 
ATOM     71  C   UNL A   1      38.123  33.483  38.049  1.00  0.00     0.200 A 
ATOM     72  F   UNL A   1      36.967  31.550  38.762  1.00  0.00    -0.200 F 
ATOM     73  F   UNL A   1      37.710  34.148  39.137  1.00  0.00    -0.200 F 
ENDBRANCH  40  63
ENDBRANCH  14  15
ENDBRANCH   7   9
ENDBRANCH   6   7
ENDBRANCH   5   6
ENDBRANCH   4   5
ENDBRANCH   3   4
ENDBRANCH   2   3
ENDBRANCH   1   2
BRANCH   1  74
ATOM     74  O   UNL A   1      41.867  18.953  25.530  1.00  0.00    -0.377 OA
BRANCH  74  75
ATOM     75  C   UNL A   1      41.096  19.695  26.463  1.00  0.00     0.188 C 
BRANCH  75  76
ATOM     76  C   UNL A   1      39.616  20.013  26.120  1.00  0.00     0.188 C 
BRANCH  76  77
ATOM     77  O   UNL A   1      39.245  21.355  26.367  1.00  0.00    -0.376 OA
BRANCH  77  78
ATOM     78  C   UNL A   1      38.359  21.952  25.430  1.00  0.00     0.202 C 
BRANCH  78  79
ATOM     79  C   UNL A   1      36.885  21.506  25.384  1.00  0.00     0.261 C 
BRANCH  79  80
ATOM     80  O   UNL A   1      35.877  22.516  25.582  1.00  0.00    -0.459 OA
BRANCH  80  81
ATOM     81  C   UNL A   1      34.655  22.160  26.079  1.00  0.00     0.365 C 
ATOM     82  O   UNL A   1      34.437  21.970  27.258  1.00  0.00    -0.245 OA
BRANCH  81  83
ATOM     83  C   UNL A   1      33.619  22.149  24.918  1.00  0.00     0.304 C 
ATOM     84  C   UNL A   1      32.293  21.567  25.356  1.00  0.00     0.153 C 
ATOM     85  N   UNL A   1      33.338  23.478  24.310  1.00  0.00    -0.320 N 
ATOM     86  S   UNL A   1      31.433  22.975  26.090  1.00  0.00    -0.089 SA
ATOM     87  C   UNL A   1      32.290  24.201  25.035  1.00  0.00     0.143 C 
ATOM     88  H   UNL A   1      33.037  23.343  23.345  1.00  0.00     0.348 HD
ATOM     89  H   UNL A   1      34.193  24.033  24.353  1.00  0.00     0.348 HD
ATOM     90  C   UNL A   1      32.897  25.384  25.820  1.00  0.00     0.081 C 
ATOM     91  C   UNL A   1      31.307  24.766  23.989  1.00  0.00     0.081 C 
ATOM     92  C   UNL A   1      31.846  26.289  26.461  1.00  0.00     0.007 C 
ATOM     93  C   UNL A   1      30.210  25.625  24.622  1.00  0.00     0.007 C 
ATOM     94  C   UNL A   1      30.790  26.760  25.461  1.00  0.00     0.001 C 
ENDBRANCH  81  83
ENDBRANCH  80  81
ENDBRANCH  79  80
ENDBRANCH  78  79
ENDBRANCH  77  78
ENDBRANCH  76  77
ENDBRANCH  75  76
ENDBRANCH  74  75
ENDBRANCH   1  74
TORSDOF 20
ENDMDL
MODEL 3
REMARK VINA RESULT:     -10.3      1.685      3.007
REMARK SMILES O=C(OCCOCCOCCOCCOC(=O)[C@H]1CSC2(CCCCC2)[NH2+]1)c1ccc(-c2c3nc(c(-c4c(F)c(F)c(F)c(F)c4F)c4ccc([nH]4)c(-c4c(F)c(F)c(F)c(F)c4F)c4nc(c(-c5c(F)c(F)c(F)c(F)c5F)c5ccc2[nH]5)C=C4)C=C3)cc1
REMARK SMILES IDX 8 1 7 2 6 3 5 4 4 5 3 6 2 7 1 8 28 9 29 10 90 11 30 12 89 13
REMARK SMILES IDX 31 14 32 15 33 16 83 17 34 18 88 19 82 20 84 21 35 22 87 23
REMARK SMILES IDX 81 24 80 25 36 27 68 28 48 29 67 30 49 31 52 32 66 33 85 34
REMARK SMILES IDX 50 35 51 36 65 38 86 39 53 40 37 41 38 42 46 43 39 44 40 45
REMARK SMILES IDX 44 46 47 47 41 48 42 49 45 50 43 51 69 52 70 53 78 54 71 55
REMARK SMILES IDX 72 56 76 57 79 58 73 59 74 60 77 61 75 62 54 63 55 64 63 65
REMARK SMILES IDX 56 66 57 67 61 68 64 69 58 70 59 71 62 72 60 73 9 74 10 75
REMARK SMILES IDX 11 76 12 77 13 78 14 79 15 80 16 81 17 82 18 83 19 84 27 85
REMARK SMILES IDX 20 86 21 87 22 90 26 91 23 92 25 93 24 94
REMARK H PARENT 84 26 52 37 27 88 27 89
REMARK Flexibility Score: inf
ROOT
ATOM      1  C   UNL A   1      43.591  18.521  25.382  1.00  0.00     0.188 C 
ENDROOT
BRANCH   1   2
ATOM      2  C   UNL A   1      44.772  19.328  24.844  1.00  0.00     0.188 C 
BRANCH   2   3
ATOM      3  O   UNL A   1      44.379  20.578  24.270  1.00  0.00    -0.376 OA
BRANCH   3   4
ATOM      4  C   UNL A   1      44.483  21.724  25.118  1.00  0.00     0.202 C 
BRANCH   4   5
ATOM      5  C   UNL A   1      45.091  22.966  24.466  1.00  0.00     0.261 C 
BRANCH   5   6
ATOM      6  O   UNL A   1      44.240  24.118  24.535  1.00  0.00    -0.460 OA
BRANCH   6   7
ATOM      7  C   UNL A   1      44.495  25.330  25.084  1.00  0.00     0.338 C 
ATOM      8  O   UNL A   1      45.577  25.859  24.829  1.00  0.00    -0.246 OA
BRANCH   7   9
ATOM      9  C   UNL A   1      43.565  26.071  25.999  1.00  0.00     0.060 A 
ATOM     10  C   UNL A   1      43.386  27.454  26.046  1.00  0.00     0.016 A 
ATOM     11  C   UNL A   1      42.781  25.288  26.869  1.00  0.00     0.016 A 
ATOM     12  C   UNL A   1      42.529  28.057  26.949  1.00  0.00     0.010 A 
ATOM     13  C   UNL A   1      41.924  25.880  27.802  1.00  0.00     0.010 A 
ATOM     14  C   UNL A   1      41.847  27.274  27.871  1.00  0.00    -0.014 A 
BRANCH  14  15
ATOM     15  C   UNL A   1      41.356  27.979  29.063  1.00  0.00     0.031 A 
ATOM     16  C   UNL A   1      42.246  27.953  30.271  1.00  0.00     0.074 A 
ATOM     17  C   UNL A   1      40.292  28.792  28.974  1.00  0.00     0.049 A 
ATOM     18  N   UNL A   1      42.078  28.497  31.444  1.00  0.00    -0.248 NA
ATOM     19  C   UNL A   1      43.525  27.233  30.124  1.00  0.00     0.031 C 
ATOM     20  C   UNL A   1      39.505  29.018  27.760  1.00  0.00     0.029 A 
ATOM     21  N   UNL A   1      39.725  29.617  29.903  1.00  0.00    -0.354 N 
ATOM     22  C   UNL A   1      43.202  28.145  32.181  1.00  0.00     0.074 A 
ATOM     23  C   UNL A   1      44.052  27.350  31.329  1.00  0.00     0.031 C 
ATOM     24  C   UNL A   1      38.563  29.940  28.018  1.00  0.00     0.029 A 
ATOM     25  C   UNL A   1      38.642  30.311  29.427  1.00  0.00     0.049 A 
ATOM     26  H   UNL A   1      40.061  29.705  30.824  1.00  0.00     0.167 HD
ATOM     27  C   UNL A   1      43.483  28.455  33.466  1.00  0.00     0.037 A 
ATOM     28  C   UNL A   1      37.798  31.125  30.086  1.00  0.00     0.037 A 
ATOM     29  C   UNL A   1      42.609  29.258  34.273  1.00  0.00     0.049 A 
ATOM     30  C   UNL A   1      38.063  31.355  31.551  1.00  0.00     0.074 A 
ATOM     31  C   UNL A   1      42.717  29.592  35.609  1.00  0.00     0.029 A 
ATOM     32  N   UNL A   1      41.447  29.858  33.797  1.00  0.00    -0.354 N 
ATOM     33  N   UNL A   1      39.068  30.939  32.287  1.00  0.00    -0.248 NA
ATOM     34  C   UNL A   1      37.073  32.152  32.282  1.00  0.00     0.031 C 
ATOM     35  C   UNL A   1      41.588  30.342  35.953  1.00  0.00     0.029 A 
ATOM     36  C   UNL A   1      40.815  30.541  34.818  1.00  0.00     0.049 A 
ATOM     37  H   UNL A   1      41.124  29.804  32.869  1.00  0.00     0.167 HD
ATOM     38  C   UNL A   1      38.854  31.450  33.558  1.00  0.00     0.074 A 
ATOM     39  C   UNL A   1      37.623  32.216  33.486  1.00  0.00     0.031 C 
ATOM     40  C   UNL A   1      39.597  31.306  34.685  1.00  0.00     0.037 A 
BRANCH  27  41
ATOM     41  C   UNL A   1      44.702  27.821  34.070  1.00  0.00     0.064 A 
ATOM     42  C   UNL A   1      44.677  26.552  34.671  1.00  0.00     0.173 A 
ATOM     43  C   UNL A   1      45.907  28.540  34.116  1.00  0.00     0.173 A 
ATOM     44  F   UNL A   1      43.543  25.836  34.692  1.00  0.00    -0.203 F 
ATOM     45  C   UNL A   1      45.798  26.049  35.333  1.00  0.00     0.198 A 
ATOM     46  C   UNL A   1      47.034  28.020  34.747  1.00  0.00     0.198 A 
ATOM     47  F   UNL A   1      45.985  29.761  33.569  1.00  0.00    -0.203 F 
ATOM     48  F   UNL A   1      45.725  24.874  35.972  1.00  0.00    -0.200 F 
ATOM     49  C   UNL A   1      46.974  26.782  35.368  1.00  0.00     0.200 A 
ATOM     50  F   UNL A   1      48.169  28.730  34.777  1.00  0.00    -0.200 F 
ATOM     51  F   UNL A   1      48.045  26.305  36.017  1.00  0.00    -0.200 F 
ENDBRANCH  27  41
BRANCH  28  52
ATOM     52  C   UNL A   1      36.627  31.726  29.392  1.00  0.00     0.064 A 
ATOM     53  C   UNL A   1      35.543  30.942  28.977  1.00  0.00     0.173 A 
ATOM     54  C   UNL A   1      36.573  33.102  29.115  1.00  0.00     0.173 A 
ATOM     55  F   UNL A   1      35.550  29.619  29.198  1.00  0.00    -0.203 F 
ATOM     56  C   UNL A   1      34.463  31.504  28.297  1.00  0.00     0.198 A 
ATOM     57  C   UNL A   1      35.479  33.669  28.465  1.00  0.00     0.198 A 
ATOM     58  F   UNL A   1      37.584  33.904  29.485  1.00  0.00    -0.203 F 
ATOM     59  F   UNL A   1      33.462  30.722  27.869  1.00  0.00    -0.200 F 
ATOM     60  C   UNL A   1      34.428  32.867  28.047  1.00  0.00     0.200 A 
ATOM     61  F   UNL A   1      35.446  34.990  28.240  1.00  0.00    -0.200 F 
ATOM     62  F   UNL A   1      33.390  33.408  27.395  1.00  0.00    -0.200 F 
ENDBRANCH  28  52
BRANCH  40  63
ATOM     63  C   UNL A   1      39.131  32.049  35.900  1.00  0.00     0.064 A 
ATOM     64  C   UNL A   1      39.504  33.377  36.147  1.00  0.00     0.173 A 
ATOM     65  C   UNL A   1      38.257  31.427  36.805  1.00  0.00     0.173 A 
ATOM     66  F   UNL A   1      40.348  34.007  35.315  1.00  0.00    -0.203 F 
ATOM     67  C   UNL A   1      39.046  34.046  37.276  1.00  0.00     0.198 A 
ATOM     68  C   UNL A   1      37.770  32.112  37.911  1.00  0.00     0.198 A 
ATOM     69  F   UNL A   1      37.863  30.161  36.604  1.00  0.00    -0.203 F 
ATOM     70  F   UNL A   1      39.461  35.295  37.526  1.00  0.00    -0.200 F 
ATOM     71  C   UNL A   1      38.172  33.417  38.151  1.00  0.00     0.200 A 
ATOM     72  F   UNL A   1      36.910  31.510  38.744  1.00  0.00    -0.200 F 
ATOM     73  F   UNL A   1      37.723  34.067  39.234  1.00  0.00    -0.200 F 
ENDBRANCH  40  63
ENDBRANCH  14  15
ENDBRANCH   7   9
ENDBRANCH   6   7
ENDBRANCH   5   6
ENDBRANCH   4   5
ENDBRANCH   3   4
ENDBRANCH   2   3
ENDBRANCH   1   2
BRANCH   1  74
ATOM     74  O   UNL A   1      42.324  19.161  25.316  1.00  0.00    -0.377 OA
BRANCH  74  75
ATOM     75  C   UNL A   1      41.787  19.634  26.542  1.00  0.00     0.188 C 
BRANCH  75  76
ATOM     76  C   UNL A   1      40.402  20.335  26.528  1.00  0.00     0.188 C 
BRANCH  76  77
ATOM     77  O   UNL A   1      40.295  21.412  27.438  1.00  0.00    -0.376 OA
BRANCH  77  78
ATOM     78  C   UNL A   1      39.866  22.656  26.903  1.00  0.00     0.202 C 
BRANCH  78  79
ATOM     79  C   UNL A   1      38.569  22.723  26.072  1.00  0.00     0.261 C 
BRANCH  79  80
ATOM     80  O   UNL A   1      37.524  23.597  26.540  1.00  0.00    -0.459 OA
BRANCH  80  81
ATOM     81  C   UNL A   1      36.266  23.479  26.019  1.00  0.00     0.365 C 
ATOM     82  O   UNL A   1      35.700  24.369  25.420  1.00  0.00    -0.245 OA
BRANCH  81  83
ATOM     83  C   UNL A   1      35.762  22.022  26.233  1.00  0.00     0.304 C 
ATOM     84  C   UNL A   1      34.518  21.979  27.092  1.00  0.00     0.153 C 
ATOM     85  N   UNL A   1      35.463  21.268  24.985  1.00  0.00    -0.320 N 
ATOM     86  S   UNL A   1      33.178  22.253  25.912  1.00  0.00    -0.089 SA
ATOM     87  C   UNL A   1      34.097  21.509  24.514  1.00  0.00     0.143 C 
ATOM     88  H   UNL A   1      35.578  20.271  25.166  1.00  0.00     0.348 HD
ATOM     89  H   UNL A   1      36.108  21.586  24.261  1.00  0.00     0.348 HD
ATOM     90  C   UNL A   1      34.112  22.383  23.242  1.00  0.00     0.081 C 
ATOM     91  C   UNL A   1      33.481  20.140  24.157  1.00  0.00     0.081 C 
ATOM     92  C   UNL A   1      32.736  22.533  22.593  1.00  0.00     0.007 C 
ATOM     93  C   UNL A   1      32.076  20.269  23.563  1.00  0.00     0.007 C 
ATOM     94  C   UNL A   1      32.057  21.186  22.344  1.00  0.00     0.001 C 
ENDBRANCH  81  83
ENDBRANCH  80  81
ENDBRANCH  79  80
ENDBRANCH  78  79
ENDBRANCH  77  78
ENDBRANCH  76  77
ENDBRANCH  75  76
ENDBRANCH  74  75
ENDBRANCH   1  74
TORSDOF 20
ENDMDL
