MODEL 1
REMARK VINA RESULT:     -10.9      0.000      0.000
REMARK SMILES Cc1cc2c(c(C)c1Br)C=C(C(=O)OCCOCCOCCOCCOC(=O)c1ccc(-c3c4nc(c(-c5c(F)c(F)c(F)c(F)c5F)c5ccc([nH]5)c(-c5c(F)c(F)c(F)c(F)c5F)c5nc(c(-c6c(F)c(F)c(F)c(F)c6F)c6ccc3[nH]6)C=C5)C=C4)cc1)[C@@H](C(F)(F)F)O2
REMARK SMILES IDX 21 1 20 2 19 3 18 4 17 5 16 6 15 7 14 8 12 9 13 10 11 11
REMARK SMILES IDX 1 12 2 13 3 14 8 15 4 16 6 17 9 18 5 19 97 20 7 21 10 22
REMARK SMILES IDX 92 23 93 24 94 25 95 26 96 27 22 28 23 29 24 30 25 31 26 32
REMARK SMILES IDX 27 33 28 34 29 35 30 36 91 37 31 38 90 39 32 40 33 41 34 42
REMARK SMILES IDX 84 43 35 44 89 45 83 46 85 47 36 48 88 49 82 50 81 51 37 53
REMARK SMILES IDX 69 54 49 55 68 56 50 57 53 58 67 59 86 60 51 61 52 62 66 64
REMARK SMILES IDX 87 65 54 66 38 67 39 68 47 69 40 70 41 71 45 72 48 73 42 74
REMARK SMILES IDX 43 75 46 76 44 77 70 78 71 79 79 80 72 81 73 82 77 83 80 84
REMARK SMILES IDX 74 85 75 86 78 87 76 88 55 89 56 90 64 91 57 92 58 93 62 94
REMARK SMILES IDX 65 95 59 96 60 97 63 98 61 99
REMARK H PARENT 85 52 53 63
REMARK Flexibility Score: inf
ROOT
ATOM      1  C   UNL A   1      28.794  32.952  23.057  1.00  0.00     0.188 C 
ENDROOT
BRANCH   1   2
ATOM      2  O   UNL A   1      28.974  32.672  21.666  1.00  0.00    -0.377 OA
BRANCH   2   3
ATOM      3  C   UNL A   1      27.935  31.991  20.978  1.00  0.00     0.188 C 
BRANCH   3   4
ATOM      4  C   UNL A   1      28.028  30.455  21.085  1.00  0.00     0.188 C 
BRANCH   4   5
ATOM      5  O   UNL A   1      29.359  29.995  21.252  1.00  0.00    -0.376 OA
BRANCH   5   6
ATOM      6  C   UNL A   1      29.670  29.070  22.280  1.00  0.00     0.202 C 
BRANCH   6   7
ATOM      7  C   UNL A   1      31.091  28.939  22.859  1.00  0.00     0.261 C 
BRANCH   7   8
ATOM      8  O   UNL A   1      31.790  27.721  22.587  1.00  0.00    -0.460 OA
BRANCH   8   9
ATOM      9  C   UNL A   1      33.121  27.707  22.784  1.00  0.00     0.338 C 
ATOM     10  O   UNL A   1      33.925  28.533  22.390  1.00  0.00    -0.246 OA
BRANCH   9  11
ATOM     11  C   UNL A   1      33.422  26.603  23.722  1.00  0.00     0.087 C 
ATOM     12  C   UNL A   1      33.654  21.202  27.255  1.00  0.00     0.046 C 
ATOM     13  C   UNL A   1      33.625  22.199  26.128  1.00  0.00    -0.033 A 
ATOM     14  C   UNL A   1      33.983  23.519  26.431  1.00  0.00     0.051 A 
ATOM     15  C   UNL A   1      33.297  21.876  24.795  1.00  0.00     0.024 A 
ATOM     16  C   UNL A   1      33.890  24.526  25.475  1.00  0.00     0.128 A 
ATOM     17  C   UNL A   1      33.214  22.885  23.804  1.00  0.00    -0.026 A 
ATOM     18  Br  UNL A   1      32.952  20.044  24.356  1.00  0.00    -0.050 Br
ATOM     19  C   UNL A   1      33.449  24.233  24.183  1.00  0.00     0.021 A 
ATOM     20  O   UNL A   1      34.238  25.769  25.918  1.00  0.00    -0.475 OA
ATOM     21  C   UNL A   1      32.904  22.575  22.355  1.00  0.00     0.046 C 
ATOM     22  C   UNL A   1      33.180  25.359  23.289  1.00  0.00     0.027 C 
ATOM     23  C   UNL A   1      34.049  26.917  25.051  1.00  0.00     0.316 C 
BRANCH  23  24
ATOM     24  C   UNL A   1      33.263  27.973  25.839  1.00  0.00     0.430 C 
ATOM     25  F   UNL A   1      31.926  27.773  25.731  1.00  0.00    -0.167 F 
ATOM     26  F   UNL A   1      33.551  27.942  27.161  1.00  0.00    -0.167 F 
ATOM     27  F   UNL A   1      33.522  29.225  25.398  1.00  0.00    -0.167 F 
ENDBRANCH  23  24
ENDBRANCH   9  11
ENDBRANCH   8   9
ENDBRANCH   7   8
ENDBRANCH   6   7
ENDBRANCH   5   6
ENDBRANCH   4   5
ENDBRANCH   3   4
ENDBRANCH   2   3
ENDBRANCH   1   2
BRANCH   1  28
ATOM     28  C   UNL A   1      29.200  31.953  24.171  1.00  0.00     0.188 C 
BRANCH  28  29
ATOM     29  O   UNL A   1      30.266  32.395  24.999  1.00  0.00    -0.376 OA
BRANCH  29  30
ATOM     30  C   UNL A   1      30.973  31.425  25.751  1.00  0.00     0.202 C 
BRANCH  30  31
ATOM     31  C   UNL A   1      31.600  31.923  27.059  1.00  0.00     0.261 C 
BRANCH  31  32
ATOM     32  O   UNL A   1      32.983  31.590  27.251  1.00  0.00    -0.460 OA
BRANCH  32  33
ATOM     33  C   UNL A   1      33.816  32.582  27.628  1.00  0.00     0.338 C 
ATOM     34  O   UNL A   1      33.552  33.767  27.746  1.00  0.00    -0.246 OA
BRANCH  33  35
ATOM     35  C   UNL A   1      35.078  31.955  28.067  1.00  0.00     0.060 A 
ATOM     36  C   UNL A   1      35.133  30.562  28.219  1.00  0.00     0.016 A 
ATOM     37  C   UNL A   1      36.209  32.739  28.306  1.00  0.00     0.016 A 
ATOM     38  C   UNL A   1      36.315  29.954  28.639  1.00  0.00     0.010 A 
ATOM     39  C   UNL A   1      37.385  32.131  28.750  1.00  0.00     0.010 A 
ATOM     40  C   UNL A   1      37.433  30.741  28.950  1.00  0.00    -0.014 A 
BRANCH  40  41
ATOM     41  C   UNL A   1      38.570  30.139  29.685  1.00  0.00     0.031 A 
ATOM     42  C   UNL A   1      38.814  30.591  31.097  1.00  0.00     0.074 A 
ATOM     43  C   UNL A   1      39.348  29.194  29.130  1.00  0.00     0.049 A 
ATOM     44  N   UNL A   1      39.759  30.241  31.932  1.00  0.00    -0.248 NA
ATOM     45  C   UNL A   1      37.861  31.571  31.645  1.00  0.00     0.031 C 
ATOM     46  C   UNL A   1      39.177  28.638  27.791  1.00  0.00     0.029 A 
ATOM     47  N   UNL A   1      40.443  28.536  29.633  1.00  0.00    -0.354 N 
ATOM     48  C   UNL A   1      39.509  30.951  33.099  1.00  0.00     0.074 A 
ATOM     49  C   UNL A   1      38.351  31.781  32.856  1.00  0.00     0.031 C 
ATOM     50  C   UNL A   1      40.137  27.721  27.577  1.00  0.00     0.029 A 
ATOM     51  C   UNL A   1      41.009  27.650  28.749  1.00  0.00     0.049 A 
ATOM     52  H   UNL A   1      40.791  28.685  30.542  1.00  0.00     0.167 HD
ATOM     53  C   UNL A   1      40.177  30.901  34.274  1.00  0.00     0.037 A 
ATOM     54  C   UNL A   1      42.112  26.885  28.872  1.00  0.00     0.037 A 
ATOM     55  C   UNL A   1      41.333  30.079  34.511  1.00  0.00     0.049 A 
ATOM     56  C   UNL A   1      42.902  26.926  30.158  1.00  0.00     0.074 A 
ATOM     57  C   UNL A   1      42.081  29.962  35.668  1.00  0.00     0.029 A 
ATOM     58  N   UNL A   1      41.910  29.239  33.571  1.00  0.00    -0.354 N 
ATOM     59  N   UNL A   1      42.654  27.589  31.261  1.00  0.00    -0.248 NA
ATOM     60  C   UNL A   1      44.127  26.112  30.213  1.00  0.00     0.031 C 
ATOM     61  C   UNL A   1      43.145  29.094  35.411  1.00  0.00     0.029 A 
ATOM     62  C   UNL A   1      43.023  28.620  34.114  1.00  0.00     0.049 A 
ATOM     63  H   UNL A   1      41.577  29.102  32.654  1.00  0.00     0.167 HD
ATOM     64  C   UNL A   1      43.668  27.252  32.149  1.00  0.00     0.074 A 
ATOM     65  C   UNL A   1      44.531  26.316  31.460  1.00  0.00     0.031 C 
ATOM     66  C   UNL A   1      43.867  27.680  33.421  1.00  0.00     0.037 A 
BRANCH  53  67
ATOM     67  C   UNL A   1      39.684  31.768  35.394  1.00  0.00     0.064 A 
ATOM     68  C   UNL A   1      40.171  33.070  35.583  1.00  0.00     0.173 A 
ATOM     69  C   UNL A   1      38.670  31.315  36.251  1.00  0.00     0.173 A 
ATOM     70  F   UNL A   1      41.153  33.544  34.801  1.00  0.00    -0.203 F 
ATOM     71  C   UNL A   1      39.669  33.882  36.596  1.00  0.00     0.198 A 
ATOM     72  C   UNL A   1      38.149  32.140  37.243  1.00  0.00     0.198 A 
ATOM     73  F   UNL A   1      38.170  30.078  36.113  1.00  0.00    -0.203 F 
ATOM     74  F   UNL A   1      40.173  35.110  36.781  1.00  0.00    -0.200 F 
ATOM     75  C   UNL A   1      38.651  33.421  37.418  1.00  0.00     0.200 A 
ATOM     76  F   UNL A   1      37.157  31.697  38.028  1.00  0.00    -0.200 F 
ATOM     77  F   UNL A   1      38.156  34.211  38.381  1.00  0.00    -0.200 F 
ENDBRANCH  53  67
BRANCH  54  78
ATOM     78  C   UNL A   1      42.536  26.009  27.746  1.00  0.00     0.064 A 
ATOM     79  C   UNL A   1      41.966  24.742  27.565  1.00  0.00     0.173 A 
ATOM     80  C   UNL A   1      43.518  26.418  26.831  1.00  0.00     0.173 A 
ATOM     81  F   UNL A   1      41.045  24.293  28.430  1.00  0.00    -0.203 F 
ATOM     82  C   UNL A   1      42.366  23.914  26.517  1.00  0.00     0.198 A 
ATOM     83  C   UNL A   1      43.896  25.603  25.766  1.00  0.00     0.198 A 
ATOM     84  F   UNL A   1      44.101  27.618  26.963  1.00  0.00    -0.203 F 
ATOM     85  F   UNL A   1      41.833  22.692  26.391  1.00  0.00    -0.200 F 
ATOM     86  C   UNL A   1      43.323  24.349  25.614  1.00  0.00     0.200 A 
ATOM     87  F   UNL A   1      44.814  26.032  24.890  1.00  0.00    -0.200 F 
ATOM     88  F   UNL A   1      43.699  23.558  24.599  1.00  0.00    -0.200 F 
ENDBRANCH  54  78
BRANCH  66  89
ATOM     89  C   UNL A   1      45.044  27.130  34.175  1.00  0.00     0.064 A 
ATOM     90  C   UNL A   1      44.952  25.946  34.919  1.00  0.00     0.173 A 
ATOM     91  C   UNL A   1      46.302  27.744  34.069  1.00  0.00     0.173 A 
ATOM     92  F   UNL A   1      43.771  25.326  35.059  1.00  0.00    -0.203 F 
ATOM     93  C   UNL A   1      46.075  25.401  35.539  1.00  0.00     0.198 A 
ATOM     94  C   UNL A   1      47.428  27.178  34.662  1.00  0.00     0.198 A 
ATOM     95  F   UNL A   1      46.448  28.873  33.359  1.00  0.00    -0.203 F 
ATOM     96  F   UNL A   1      45.957  24.284  36.270  1.00  0.00    -0.200 F 
ATOM     97  C   UNL A   1      47.313  26.010  35.399  1.00  0.00     0.200 A 
ATOM     98  F   UNL A   1      48.627  27.759  34.508  1.00  0.00    -0.200 F 
ATOM     99  F   UNL A   1      48.396  25.470  35.976  1.00  0.00    -0.200 F 
ENDBRANCH  66  89
ENDBRANCH  40  41
ENDBRANCH  33  35
ENDBRANCH  32  33
ENDBRANCH  31  32
ENDBRANCH  30  31
ENDBRANCH  29  30
ENDBRANCH  28  29
ENDBRANCH   1  28
TORSDOF 21
ENDMDL
MODEL 2
REMARK VINA RESULT:     -10.8      1.929      2.661
REMARK SMILES Cc1cc2c(c(C)c1Br)C=C(C(=O)OCCOCCOCCOCCOC(=O)c1ccc(-c3c4nc(c(-c5c(F)c(F)c(F)c(F)c5F)c5ccc([nH]5)c(-c5c(F)c(F)c(F)c(F)c5F)c5nc(c(-c6c(F)c(F)c(F)c(F)c6F)c6ccc3[nH]6)C=C5)C=C4)cc1)[C@@H](C(F)(F)F)O2
REMARK SMILES IDX 21 1 20 2 19 3 18 4 17 5 16 6 15 7 14 8 12 9 13 10 11 11
REMARK SMILES IDX 1 12 2 13 3 14 8 15 4 16 6 17 9 18 5 19 97 20 7 21 10 22
REMARK SMILES IDX 92 23 93 24 94 25 95 26 96 27 22 28 23 29 24 30 25 31 26 32
REMARK SMILES IDX 27 33 28 34 29 35 30 36 91 37 31 38 90 39 32 40 33 41 34 42
REMARK SMILES IDX 84 43 35 44 89 45 83 46 85 47 36 48 88 49 82 50 81 51 37 53
REMARK SMILES IDX 69 54 49 55 68 56 50 57 53 58 67 59 86 60 51 61 52 62 66 64
REMARK SMILES IDX 87 65 54 66 38 67 39 68 47 69 40 70 41 71 45 72 48 73 42 74
REMARK SMILES IDX 43 75 46 76 44 77 70 78 71 79 79 80 72 81 73 82 77 83 80 84
REMARK SMILES IDX 74 85 75 86 78 87 76 88 55 89 56 90 64 91 57 92 58 93 62 94
REMARK SMILES IDX 65 95 59 96 60 97 63 98 61 99
REMARK H PARENT 85 52 53 63
REMARK Flexibility Score: inf
ROOT
ATOM      1  C   UNL A   1      29.277  30.774  23.728  1.00  0.00     0.188 C 
ENDROOT
BRANCH   1   2
ATOM      2  O   UNL A   1      29.739  30.230  22.489  1.00  0.00    -0.377 OA
BRANCH   2   3
ATOM      3  C   UNL A   1      30.785  29.270  22.527  1.00  0.00     0.188 C 
BRANCH   3   4
ATOM      4  C   UNL A   1      30.283  27.812  22.570  1.00  0.00     0.188 C 
BRANCH   4   5
ATOM      5  O   UNL A   1      29.693  27.471  23.814  1.00  0.00    -0.376 OA
BRANCH   5   6
ATOM      6  C   UNL A   1      30.379  26.624  24.720  1.00  0.00     0.202 C 
BRANCH   6   7
ATOM      7  C   UNL A   1      31.602  27.104  25.522  1.00  0.00     0.261 C 
BRANCH   7   8
ATOM      8  O   UNL A   1      32.679  26.176  25.676  1.00  0.00    -0.460 OA
BRANCH   8   9
ATOM      9  C   UNL A   1      33.514  26.009  24.635  1.00  0.00     0.338 C 
ATOM     10  O   UNL A   1      33.854  26.857  23.829  1.00  0.00    -0.246 OA
BRANCH   9  11
ATOM     11  C   UNL A   1      34.097  24.652  24.741  1.00  0.00     0.087 C 
ATOM     12  C   UNL A   1      37.789  19.355  24.867  1.00  0.00     0.046 C 
ATOM     13  C   UNL A   1      37.197  20.718  25.109  1.00  0.00    -0.033 A 
ATOM     14  C   UNL A   1      35.848  20.898  24.776  1.00  0.00     0.051 A 
ATOM     15  C   UNL A   1      37.903  21.798  25.678  1.00  0.00     0.024 A 
ATOM     16  C   UNL A   1      35.245  22.148  24.872  1.00  0.00     0.128 A 
ATOM     17  C   UNL A   1      37.300  23.074  25.800  1.00  0.00    -0.026 A 
ATOM     18  Br  UNL A   1      39.701  21.506  26.268  1.00  0.00    -0.050 Br
ATOM     19  C   UNL A   1      35.975  23.251  25.321  1.00  0.00     0.021 A 
ATOM     20  O   UNL A   1      33.938  22.185  24.482  1.00  0.00    -0.475 OA
ATOM     21  C   UNL A   1      38.010  24.248  26.440  1.00  0.00     0.046 C 
ATOM     22  C   UNL A   1      35.349  24.567  25.208  1.00  0.00     0.027 C 
ATOM     23  C   UNL A   1      33.247  23.458  24.409  1.00  0.00     0.316 C 
BRANCH  23  24
ATOM     24  C   UNL A   1      32.603  23.561  23.021  1.00  0.00     0.430 C 
ATOM     25  F   UNL A   1      33.357  24.313  22.183  1.00  0.00    -0.167 F 
ATOM     26  F   UNL A   1      32.463  22.350  22.432  1.00  0.00    -0.167 F 
ATOM     27  F   UNL A   1      31.375  24.126  23.078  1.00  0.00    -0.167 F 
ENDBRANCH  23  24
ENDBRANCH   9  11
ENDBRANCH   8   9
ENDBRANCH   7   8
ENDBRANCH   6   7
ENDBRANCH   5   6
ENDBRANCH   4   5
ENDBRANCH   3   4
ENDBRANCH   2   3
ENDBRANCH   1   2
BRANCH   1  28
ATOM     28  C   UNL A   1      30.222  31.474  24.738  1.00  0.00     0.188 C 
BRANCH  28  29
ATOM     29  O   UNL A   1      31.160  30.611  25.363  1.00  0.00    -0.376 OA
BRANCH  29  30
ATOM     30  C   UNL A   1      31.630  30.958  26.653  1.00  0.00     0.202 C 
BRANCH  30  31
ATOM     31  C   UNL A   1      31.678  32.460  26.963  1.00  0.00     0.261 C 
BRANCH  31  32
ATOM     32  O   UNL A   1      32.976  33.069  26.888  1.00  0.00    -0.460 OA
BRANCH  32  33
ATOM     33  C   UNL A   1      33.441  33.681  27.997  1.00  0.00     0.338 C 
ATOM     34  O   UNL A   1      32.891  34.550  28.651  1.00  0.00    -0.246 OA
BRANCH  33  35
ATOM     35  C   UNL A   1      34.672  32.976  28.405  1.00  0.00     0.060 A 
ATOM     36  C   UNL A   1      34.627  31.592  28.623  1.00  0.00     0.016 A 
ATOM     37  C   UNL A   1      35.872  33.677  28.550  1.00  0.00     0.016 A 
ATOM     38  C   UNL A   1      35.779  30.911  29.016  1.00  0.00     0.010 A 
ATOM     39  C   UNL A   1      37.018  32.998  28.967  1.00  0.00     0.010 A 
ATOM     40  C   UNL A   1      36.969  31.619  29.233  1.00  0.00    -0.014 A 
BRANCH  40  41
ATOM     41  C   UNL A   1      38.093  30.963  29.942  1.00  0.00     0.031 A 
ATOM     42  C   UNL A   1      38.299  31.293  31.394  1.00  0.00     0.074 A 
ATOM     43  C   UNL A   1      38.892  30.074  29.328  1.00  0.00     0.049 A 
ATOM     44  N   UNL A   1      39.225  30.878  32.219  1.00  0.00    -0.248 NA
ATOM     45  C   UNL A   1      37.324  32.216  32.000  1.00  0.00     0.031 C 
ATOM     46  C   UNL A   1      38.758  29.636  27.942  1.00  0.00     0.029 A 
ATOM     47  N   UNL A   1      39.980  29.382  29.799  1.00  0.00    -0.354 N 
ATOM     48  C   UNL A   1      38.941  31.483  33.436  1.00  0.00     0.074 A 
ATOM     49  C   UNL A   1      37.783  32.324  33.237  1.00  0.00     0.031 C 
ATOM     50  C   UNL A   1      39.731  28.746  27.673  1.00  0.00     0.029 A 
ATOM     51  C   UNL A   1      40.574  28.580  28.856  1.00  0.00     0.049 A 
ATOM     52  H   UNL A   1      40.303  29.454  30.726  1.00  0.00     0.167 HD
ATOM     53  C   UNL A   1      39.580  31.336  34.619  1.00  0.00     0.037 A 
ATOM     54  C   UNL A   1      41.681  27.814  28.940  1.00  0.00     0.037 A 
ATOM     55  C   UNL A   1      40.737  30.503  34.813  1.00  0.00     0.049 A 
ATOM     56  C   UNL A   1      42.438  27.748  30.245  1.00  0.00     0.074 A 
ATOM     57  C   UNL A   1      41.457  30.291  35.974  1.00  0.00     0.029 A 
ATOM     58  N   UNL A   1      41.344  29.751  33.819  1.00  0.00    -0.354 N 
ATOM     59  N   UNL A   1      42.157  28.312  31.395  1.00  0.00    -0.248 NA
ATOM     60  C   UNL A   1      43.668  26.940  30.260  1.00  0.00     0.031 C 
ATOM     61  C   UNL A   1      42.535  29.455  35.670  1.00  0.00     0.029 A 
ATOM     62  C   UNL A   1      42.448  29.095  34.334  1.00  0.00     0.049 A 
ATOM     63  H   UNL A   1      41.035  29.692  32.886  1.00  0.00     0.167 HD
ATOM     64  C   UNL A   1      43.153  27.905  32.275  1.00  0.00     0.074 A 
ATOM     65  C   UNL A   1      44.040  27.037  31.530  1.00  0.00     0.031 C 
ATOM     66  C   UNL A   1      43.316  28.223  33.584  1.00  0.00     0.037 A 
BRANCH  53  67
ATOM     67  C   UNL A   1      39.053  32.099  35.797  1.00  0.00     0.064 A 
ATOM     68  C   UNL A   1      38.200  31.502  36.736  1.00  0.00     0.173 A 
ATOM     69  C   UNL A   1      39.451  33.425  36.021  1.00  0.00     0.173 A 
ATOM     70  F   UNL A   1      37.774  30.241  36.558  1.00  0.00    -0.203 F 
ATOM     71  C   UNL A   1      37.756  32.207  37.852  1.00  0.00     0.198 A 
ATOM     72  C   UNL A   1      39.031  34.118  37.153  1.00  0.00     0.198 A 
ATOM     73  F   UNL A   1      40.266  34.043  35.153  1.00  0.00    -0.203 F 
ATOM     74  F   UNL A   1      36.914  31.628  38.718  1.00  0.00    -0.200 F 
ATOM     75  C   UNL A   1      38.182  33.511  38.065  1.00  0.00     0.200 A 
ATOM     76  F   UNL A   1      39.454  35.373  37.364  1.00  0.00    -0.200 F 
ATOM     77  F   UNL A   1      37.769  34.182  39.149  1.00  0.00    -0.200 F 
ENDBRANCH  53  67
BRANCH  54  78
ATOM     78  C   UNL A   1      42.139  27.041  27.755  1.00  0.00     0.064 A 
ATOM     79  C   UNL A   1      41.681  25.737  27.523  1.00  0.00     0.173 A 
ATOM     80  C   UNL A   1      43.043  27.587  26.830  1.00  0.00     0.173 A 
ATOM     81  F   UNL A   1      40.840  25.159  28.393  1.00  0.00    -0.203 F 
ATOM     82  C   UNL A   1      42.114  25.006  26.418  1.00  0.00     0.198 A 
ATOM     83  C   UNL A   1      43.452  26.867  25.710  1.00  0.00     0.198 A 
ATOM     84  F   UNL A   1      43.518  28.829  27.009  1.00  0.00    -0.203 F 
ATOM     85  F   UNL A   1      41.691  23.748  26.243  1.00  0.00    -0.200 F 
ATOM     86  C   UNL A   1      42.992  25.575  25.508  1.00  0.00     0.200 A 
ATOM     87  F   UNL A   1      44.292  27.425  24.828  1.00  0.00    -0.200 F 
ATOM     88  F   UNL A   1      43.399  24.877  24.440  1.00  0.00    -0.200 F 
ENDBRANCH  54  78
BRANCH  66  89
ATOM     89  C   UNL A   1      44.479  27.617  34.317  1.00  0.00     0.064 A 
ATOM     90  C   UNL A   1      44.381  26.369  34.947  1.00  0.00     0.173 A 
ATOM     91  C   UNL A   1      45.733  28.249  34.303  1.00  0.00     0.173 A 
ATOM     92  F   UNL A   1      43.204  25.728  34.996  1.00  0.00    -0.203 F 
ATOM     93  C   UNL A   1      45.493  25.780  35.545  1.00  0.00     0.198 A 
ATOM     94  C   UNL A   1      46.849  27.643  34.873  1.00  0.00     0.198 A 
ATOM     95  F   UNL A   1      45.884  29.440  33.704  1.00  0.00    -0.203 F 
ATOM     96  F   UNL A   1      45.369  24.599  36.167  1.00  0.00    -0.200 F 
ATOM     97  C   UNL A   1      46.728  26.411  35.496  1.00  0.00     0.200 A 
ATOM     98  F   UNL A   1      48.045  28.246  34.806  1.00  0.00    -0.200 F 
ATOM     99  F   UNL A   1      47.800  25.830  36.051  1.00  0.00    -0.200 F 
ENDBRANCH  66  89
ENDBRANCH  40  41
ENDBRANCH  33  35
ENDBRANCH  32  33
ENDBRANCH  31  32
ENDBRANCH  30  31
ENDBRANCH  29  30
ENDBRANCH  28  29
ENDBRANCH   1  28
TORSDOF 21
ENDMDL
MODEL 3
REMARK VINA RESULT:     -10.6      2.586      7.782
REMARK SMILES Cc1cc2c(c(C)c1Br)C=C(C(=O)OCCOCCOCCOCCOC(=O)c1ccc(-c3c4nc(c(-c5c(F)c(F)c(F)c(F)c5F)c5ccc([nH]5)c(-c5c(F)c(F)c(F)c(F)c5F)c5nc(c(-c6c(F)c(F)c(F)c(F)c6F)c6ccc3[nH]6)C=C5)C=C4)cc1)[C@@H](C(F)(F)F)O2
REMARK SMILES IDX 21 1 20 2 19 3 18 4 17 5 16 6 15 7 14 8 12 9 13 10 11 11
REMARK SMILES IDX 1 12 2 13 3 14 8 15 4 16 6 17 9 18 5 19 97 20 7 21 10 22
REMARK SMILES IDX 92 23 93 24 94 25 95 26 96 27 22 28 23 29 24 30 25 31 26 32
REMARK SMILES IDX 27 33 28 34 29 35 30 36 91 37 31 38 90 39 32 40 33 41 34 42
REMARK SMILES IDX 84 43 35 44 89 45 83 46 85 47 36 48 88 49 82 50 81 51 37 53
REMARK SMILES IDX 69 54 49 55 68 56 50 57 53 58 67 59 86 60 51 61 52 62 66 64
REMARK SMILES IDX 87 65 54 66 38 67 39 68 47 69 40 70 41 71 45 72 48 73 42 74
REMARK SMILES IDX 43 75 46 76 44 77 70 78 71 79 79 80 72 81 73 82 77 83 80 84
REMARK SMILES IDX 74 85 75 86 78 87 76 88 55 89 56 90 64 91 57 92 58 93 62 94
REMARK SMILES IDX 65 95 59 96 60 97 63 98 61 99
REMARK H PARENT 85 52 53 63
REMARK Flexibility Score: inf
ROOT
ATOM      1  C   UNL A   1      31.452  29.941  25.212  1.00  0.00     0.188 C 
ENDROOT
BRANCH   1   2
ATOM      2  O   UNL A   1      31.151  29.477  23.894  1.00  0.00    -0.377 OA
BRANCH   2   3
ATOM      3  C   UNL A   1      29.816  29.605  23.426  1.00  0.00     0.188 C 
BRANCH   3   4
ATOM      4  C   UNL A   1      29.280  28.335  22.736  1.00  0.00     0.188 C 
BRANCH   4   5
ATOM      5  O   UNL A   1      28.876  27.337  23.660  1.00  0.00    -0.376 OA
BRANCH   5   6
ATOM      6  C   UNL A   1      29.720  26.230  23.928  1.00  0.00     0.202 C 
BRANCH   6   7
ATOM      7  C   UNL A   1      30.697  26.216  25.117  1.00  0.00     0.261 C 
BRANCH   7   8
ATOM      8  O   UNL A   1      31.629  25.132  25.177  1.00  0.00    -0.460 OA
BRANCH   8   9
ATOM      9  C   UNL A   1      32.689  25.173  24.350  1.00  0.00     0.338 C 
ATOM     10  O   UNL A   1      33.048  26.118  23.670  1.00  0.00    -0.246 OA
BRANCH   9  11
ATOM     11  C   UNL A   1      33.457  23.923  24.545  1.00  0.00     0.087 C 
ATOM     12  C   UNL A   1      37.848  19.204  24.947  1.00  0.00     0.046 C 
ATOM     13  C   UNL A   1      37.082  20.491  25.099  1.00  0.00    -0.033 A 
ATOM     14  C   UNL A   1      35.710  20.457  24.819  1.00  0.00     0.051 A 
ATOM     15  C   UNL A   1      37.654  21.705  25.535  1.00  0.00     0.024 A 
ATOM     16  C   UNL A   1      34.944  21.618  24.836  1.00  0.00     0.128 A 
ATOM     17  C   UNL A   1      36.885  22.895  25.575  1.00  0.00    -0.026 A 
ATOM     18  Br  UNL A   1      39.496  21.713  26.057  1.00  0.00    -0.050 Br
ATOM     19  C   UNL A   1      35.532  22.846  25.150  1.00  0.00     0.021 A 
ATOM     20  O   UNL A   1      33.630  21.443  24.511  1.00  0.00    -0.475 OA
ATOM     21  C   UNL A   1      37.450  24.207  26.074  1.00  0.00     0.046 C 
ATOM     22  C   UNL A   1      34.725  24.050  24.955  1.00  0.00     0.027 C 
ATOM     23  C   UNL A   1      32.768  22.599  24.362  1.00  0.00     0.316 C 
BRANCH  23  24
ATOM     24  C   UNL A   1      32.064  22.486  23.004  1.00  0.00     0.430 C 
ATOM     25  F   UNL A   1      32.770  23.109  22.029  1.00  0.00    -0.167 F 
ATOM     26  F   UNL A   1      31.918  21.198  22.611  1.00  0.00    -0.167 F 
ATOM     27  F   UNL A   1      30.831  23.041  23.030  1.00  0.00    -0.167 F 
ENDBRANCH  23  24
ENDBRANCH   9  11
ENDBRANCH   8   9
ENDBRANCH   7   8
ENDBRANCH   6   7
ENDBRANCH   5   6
ENDBRANCH   4   5
ENDBRANCH   3   4
ENDBRANCH   2   3
ENDBRANCH   1   2
BRANCH   1  28
ATOM     28  C   UNL A   1      32.768  29.576  25.947  1.00  0.00     0.188 C 
BRANCH  28  29
ATOM     29  O   UNL A   1      32.857  30.069  27.276  1.00  0.00    -0.376 OA
BRANCH  29  30
ATOM     30  C   UNL A   1      33.574  31.270  27.496  1.00  0.00     0.202 C 
BRANCH  30  31
ATOM     31  C   UNL A   1      32.726  32.544  27.599  1.00  0.00     0.261 C 
BRANCH  31  32
ATOM     32  O   UNL A   1      33.450  33.781  27.508  1.00  0.00    -0.460 OA
BRANCH  32  33
ATOM     33  C   UNL A   1      33.411  34.605  28.576  1.00  0.00     0.338 C 
ATOM     34  O   UNL A   1      32.539  35.407  28.863  1.00  0.00    -0.246 OA
BRANCH  33  35
ATOM     35  C   UNL A   1      34.533  34.232  29.460  1.00  0.00     0.060 A 
ATOM     36  C   UNL A   1      35.846  34.348  28.983  1.00  0.00     0.016 A 
ATOM     37  C   UNL A   1      34.288  33.791  30.763  1.00  0.00     0.016 A 
ATOM     38  C   UNL A   1      36.918  33.994  29.802  1.00  0.00     0.010 A 
ATOM     39  C   UNL A   1      35.361  33.414  31.573  1.00  0.00     0.010 A 
ATOM     40  C   UNL A   1      36.677  33.483  31.085  1.00  0.00    -0.014 A 
BRANCH  40  41
ATOM     41  C   UNL A   1      37.776  32.820  31.827  1.00  0.00     0.031 A 
ATOM     42  C   UNL A   1      38.404  31.600  31.216  1.00  0.00     0.074 A 
ATOM     43  C   UNL A   1      38.228  33.303  32.997  1.00  0.00     0.049 A 
ATOM     44  N   UNL A   1      39.353  30.829  31.682  1.00  0.00    -0.248 NA
ATOM     45  C   UNL A   1      37.895  31.194  29.895  1.00  0.00     0.031 C 
ATOM     46  C   UNL A   1      37.735  34.506  33.661  1.00  0.00     0.029 A 
ATOM     47  N   UNL A   1      39.209  32.832  33.834  1.00  0.00    -0.354 N 
ATOM     48  C   UNL A   1      39.555  29.856  30.713  1.00  0.00     0.074 A 
ATOM     49  C   UNL A   1      38.607  30.106  29.650  1.00  0.00     0.031 C 
ATOM     50  C   UNL A   1      38.418  34.679  34.807  1.00  0.00     0.029 A 
ATOM     51  C   UNL A   1      39.369  33.582  34.973  1.00  0.00     0.049 A 
ATOM     52  H   UNL A   1      39.747  32.032  33.636  1.00  0.00     0.167 HD
ATOM     53  C   UNL A   1      40.463  28.853  30.703  1.00  0.00     0.037 A 
ATOM     54  C   UNL A   1      40.182  33.389  36.033  1.00  0.00     0.037 A 
ATOM     55  C   UNL A   1      41.400  28.603  31.764  1.00  0.00     0.049 A 
ATOM     56  C   UNL A   1      41.113  32.201  36.045  1.00  0.00     0.074 A 
ATOM     57  C   UNL A   1      42.358  27.609  31.848  1.00  0.00     0.029 A 
ATOM     58  N   UNL A   1      41.492  29.350  32.929  1.00  0.00    -0.354 N 
ATOM     59  N   UNL A   1      41.309  31.293  35.120  1.00  0.00    -0.248 NA
ATOM     60  C   UNL A   1      41.936  32.013  37.250  1.00  0.00     0.031 C 
ATOM     61  C   UNL A   1      42.992  27.719  33.088  1.00  0.00     0.029 A 
ATOM     62  C   UNL A   1      42.473  28.822  33.750  1.00  0.00     0.049 A 
ATOM     63  H   UNL A   1      40.942  30.139  33.139  1.00  0.00     0.167 HD
ATOM     64  C   UNL A   1      42.293  30.446  35.615  1.00  0.00     0.074 A 
ATOM     65  C   UNL A   1      42.664  30.955  36.919  1.00  0.00     0.031 C 
ATOM     66  C   UNL A   1      42.841  29.346  35.041  1.00  0.00     0.037 A 
BRANCH  53  67
ATOM     67  C   UNL A   1      40.481  27.941  29.513  1.00  0.00     0.064 A 
ATOM     68  C   UNL A   1      41.359  28.154  28.439  1.00  0.00     0.173 A 
ATOM     69  C   UNL A   1      39.655  26.809  29.471  1.00  0.00     0.173 A 
ATOM     70  F   UNL A   1      42.157  29.233  28.422  1.00  0.00    -0.203 F 
ATOM     71  C   UNL A   1      41.401  27.272  27.362  1.00  0.00     0.198 A 
ATOM     72  C   UNL A   1      39.722  25.912  28.408  1.00  0.00     0.198 A 
ATOM     73  F   UNL A   1      38.798  26.559  30.472  1.00  0.00    -0.203 F 
ATOM     74  F   UNL A   1      42.222  27.514  26.332  1.00  0.00    -0.200 F 
ATOM     75  C   UNL A   1      40.590  26.146  27.354  1.00  0.00     0.200 A 
ATOM     76  F   UNL A   1      38.947  24.818  28.408  1.00  0.00    -0.200 F 
ATOM     77  F   UNL A   1      40.645  25.288  26.326  1.00  0.00    -0.200 F 
ENDBRANCH  53  67
BRANCH  54  78
ATOM     78  C   UNL A   1      40.156  34.347  37.170  1.00  0.00     0.064 A 
ATOM     79  C   UNL A   1      41.036  35.437  37.216  1.00  0.00     0.173 A 
ATOM     80  C   UNL A   1      39.253  34.195  38.234  1.00  0.00     0.173 A 
ATOM     81  F   UNL A   1      41.938  35.609  36.238  1.00  0.00    -0.203 F 
ATOM     82  C   UNL A   1      41.021  36.333  38.284  1.00  0.00     0.198 A 
ATOM     83  C   UNL A   1      39.218  35.107  39.287  1.00  0.00     0.198 A 
ATOM     84  F   UNL A   1      38.394  33.166  38.244  1.00  0.00    -0.203 F 
ATOM     85  F   UNL A   1      41.900  37.342  38.321  1.00  0.00    -0.200 F 
ATOM     86  C   UNL A   1      40.106  36.172  39.313  1.00  0.00     0.200 A 
ATOM     87  F   UNL A   1      38.325  34.954  40.274  1.00  0.00    -0.200 F 
ATOM     88  F   UNL A   1      40.083  37.039  40.334  1.00  0.00    -0.200 F 
ENDBRANCH  54  78
BRANCH  66  89
ATOM     89  C   UNL A   1      43.919  28.619  35.794  1.00  0.00     0.064 A 
ATOM     90  C   UNL A   1      43.623  27.564  36.667  1.00  0.00     0.173 A 
ATOM     91  C   UNL A   1      45.271  28.920  35.562  1.00  0.00     0.173 A 
ATOM     92  F   UNL A   1      42.347  27.243  36.930  1.00  0.00    -0.203 F 
ATOM     93  C   UNL A   1      44.640  26.842  37.288  1.00  0.00     0.198 A 
ATOM     94  C   UNL A   1      46.284  28.175  36.158  1.00  0.00     0.198 A 
ATOM     95  F   UNL A   1      45.610  29.914  34.726  1.00  0.00    -0.203 F 
ATOM     96  F   UNL A   1      44.333  25.855  38.142  1.00  0.00    -0.200 F 
ATOM     97  C   UNL A   1      45.969  27.140  37.023  1.00  0.00     0.200 A 
ATOM     98  F   UNL A   1      47.567  28.453  35.885  1.00  0.00    -0.200 F 
ATOM     99  F   UNL A   1      46.944  26.427  37.603  1.00  0.00    -0.200 F 
ENDBRANCH  66  89
ENDBRANCH  40  41
ENDBRANCH  33  35
ENDBRANCH  32  33
ENDBRANCH  31  32
ENDBRANCH  30  31
ENDBRANCH  29  30
ENDBRANCH  28  29
ENDBRANCH   1  28
TORSDOF 21
ENDMDL
