MODEL 1
REMARK VINA RESULT:     -10.6      0.000      0.000
REMARK SMILES O=C(Cc1cc(=O)nc(SCc2cccc(Cl)c2)[nH]1)OCCOCCOCCOCCOC(=O)c1ccc(-c2c3nc(c(-c4c(F)c(F)c(F)c(F)c4F)c4ccc([nH]4)c(-c4c(F)c(F)c(F)c(F)c4F)c4nc(c(-c5c(F)c(F)c(F)c(F)c5F)c5ccc2[nH]5)C=C4)C=C3)cc1
REMARK SMILES IDX 25 1 24 2 23 3 22 4 21 5 20 6 2 7 1 8 3 9 4 10 5 11 19 12
REMARK SMILES IDX 6 13 9 14 7 16 8 17 10 18 11 19 12 20 13 21 18 22 14 23
REMARK SMILES IDX 16 24 15 25 17 26 26 27 27 28 28 29 29 30 30 31 31 32 32 33
REMARK SMILES IDX 33 34 34 35 35 36 36 37 97 38 37 39 96 40 38 41 39 42 40 43
REMARK SMILES IDX 90 44 41 45 95 46 89 47 91 48 42 49 94 50 88 51 87 52 43 54
REMARK SMILES IDX 75 55 55 56 74 57 56 58 59 59 73 60 92 61 57 62 58 63 72 65
REMARK SMILES IDX 93 66 60 67 44 68 45 69 53 70 46 71 47 72 51 73 54 74 48 75
REMARK SMILES IDX 49 76 52 77 50 78 76 79 77 80 85 81 78 82 79 83 83 84 86 85
REMARK SMILES IDX 80 86 81 87 84 88 82 89 61 90 62 91 70 92 63 93 64 94 68 95
REMARK SMILES IDX 71 96 65 97 66 98 69 99 67 100
REMARK H PARENT 19 15 91 53 59 64
REMARK Flexibility Score: inf
ROOT
ATOM      1  C   UNL A   1      42.588  18.590  26.090  1.00  0.00     0.188 C 
ENDROOT
BRANCH   1   2
ATOM      2  C   UNL A   1      42.486  20.101  25.923  1.00  0.00     0.188 C 
BRANCH   2   3
ATOM      3  O   UNL A   1      41.527  20.803  26.698  1.00  0.00    -0.376 OA
BRANCH   3   4
ATOM      4  C   UNL A   1      40.121  20.750  26.551  1.00  0.00     0.202 C 
BRANCH   4   5
ATOM      5  C   UNL A   1      39.269  21.931  26.091  1.00  0.00     0.261 C 
BRANCH   5   6
ATOM      6  O   UNL A   1      37.849  21.779  26.121  1.00  0.00    -0.463 OA
BRANCH   6   7
ATOM      7  C   UNL A   1      37.152  21.310  25.065  1.00  0.00     0.311 C 
ATOM      8  O   UNL A   1      36.785  20.139  25.022  1.00  0.00    -0.252 OA
BRANCH   7   9
ATOM      9  C   UNL A   1      36.974  22.223  23.879  1.00  0.00     0.176 C 
BRANCH   9  10
ATOM     10  C   UNL A   1      35.701  22.993  23.899  1.00  0.00     0.034 A 
ATOM     11  C   UNL A   1      35.211  23.649  22.837  1.00  0.00     0.095 A 
ATOM     12  N   UNL A   1      34.895  22.852  24.997  1.00  0.00    -0.337 N 
ATOM     13  C   UNL A   1      33.870  24.276  22.976  1.00  0.00     0.273 A 
ATOM     14  C   UNL A   1      33.555  23.058  24.876  1.00  0.00     0.169 A 
ATOM     15  H   UNL A   1      35.282  22.602  25.866  1.00  0.00     0.168 HD
ATOM     16  O   UNL A   1      33.582  25.194  22.216  1.00  0.00    -0.267 OA
ATOM     17  N   UNL A   1      33.016  23.730  23.909  1.00  0.00    -0.185 NA
BRANCH  14  18
ATOM     18  S   UNL A   1      32.506  22.327  26.060  1.00  0.00    -0.083 SA
BRANCH  18  19
ATOM     19  C   UNL A   1      33.246  20.693  26.328  1.00  0.00     0.113 C 
BRANCH  19  20
ATOM     20  C   UNL A   1      32.944  19.630  25.296  1.00  0.00    -0.036 A 
ATOM     21  C   UNL A   1      32.727  19.979  23.951  1.00  0.00     0.005 A 
ATOM     22  C   UNL A   1      32.977  18.267  25.629  1.00  0.00     0.025 A 
ATOM     23  C   UNL A   1      32.510  19.002  22.975  1.00  0.00     0.002 A 
ATOM     24  C   UNL A   1      32.789  17.292  24.645  1.00  0.00     0.041 A 
ATOM     25  C   UNL A   1      32.548  17.654  23.322  1.00  0.00     0.020 A 
ATOM     26  Cl  UNL A   1      32.892  15.627  25.064  1.00  0.00    -0.084 Cl
ENDBRANCH  19  20
ENDBRANCH  18  19
ENDBRANCH  14  18
ENDBRANCH   9  10
ENDBRANCH   7   9
ENDBRANCH   6   7
ENDBRANCH   5   6
ENDBRANCH   4   5
ENDBRANCH   3   4
ENDBRANCH   2   3
ENDBRANCH   1   2
BRANCH   1  27
ATOM     27  O   UNL A   1      43.885  18.073  25.832  1.00  0.00    -0.377 OA
BRANCH  27  28
ATOM     28  C   UNL A   1      44.644  18.858  24.931  1.00  0.00     0.188 C 
BRANCH  28  29
ATOM     29  C   UNL A   1      46.127  19.095  25.303  1.00  0.00     0.188 C 
BRANCH  29  30
ATOM     30  O   UNL A   1      46.725  20.378  25.217  1.00  0.00    -0.376 OA
BRANCH  30  31
ATOM     31  C   UNL A   1      45.979  21.484  24.736  1.00  0.00     0.202 C 
BRANCH  31  32
ATOM     32  C   UNL A   1      45.678  22.664  25.670  1.00  0.00     0.261 C 
BRANCH  32  33
ATOM     33  O   UNL A   1      45.094  23.809  25.030  1.00  0.00    -0.460 OA
BRANCH  33  34
ATOM     34  C   UNL A   1      43.741  23.834  24.948  1.00  0.00     0.338 C 
ATOM     35  O   UNL A   1      43.028  23.143  24.238  1.00  0.00    -0.246 OA
BRANCH  34  36
ATOM     36  C   UNL A   1      43.228  24.673  26.056  1.00  0.00     0.060 A 
ATOM     37  C   UNL A   1      42.123  24.272  26.812  1.00  0.00     0.016 A 
ATOM     38  C   UNL A   1      43.796  25.942  26.254  1.00  0.00     0.016 A 
ATOM     39  C   UNL A   1      41.602  25.135  27.780  1.00  0.00     0.010 A 
ATOM     40  C   UNL A   1      43.255  26.816  27.199  1.00  0.00     0.010 A 
ATOM     41  C   UNL A   1      42.171  26.404  27.988  1.00  0.00    -0.014 A 
BRANCH  41  42
ATOM     42  C   UNL A   1      41.797  27.186  29.190  1.00  0.00     0.031 A 
ATOM     43  C   UNL A   1      42.581  27.153  30.462  1.00  0.00     0.074 A 
ATOM     44  C   UNL A   1      40.699  27.955  29.089  1.00  0.00     0.049 A 
ATOM     45  N   UNL A   1      42.415  27.872  31.544  1.00  0.00    -0.248 NA
ATOM     46  C   UNL A   1      43.690  26.194  30.537  1.00  0.00     0.031 C 
ATOM     47  C   UNL A   1      39.855  28.045  27.897  1.00  0.00     0.029 A 
ATOM     48  N   UNL A   1      40.116  28.815  29.982  1.00  0.00    -0.354 N 
ATOM     49  C   UNL A   1      43.419  27.484  32.420  1.00  0.00     0.074 A 
ATOM     50  C   UNL A   1      44.154  26.421  31.762  1.00  0.00     0.031 C 
ATOM     51  C   UNL A   1      38.883  28.940  28.117  1.00  0.00     0.029 A 
ATOM     52  C   UNL A   1      39.025  29.467  29.470  1.00  0.00     0.049 A 
ATOM     53  H   UNL A   1      40.448  28.950  30.898  1.00  0.00     0.167 HD
ATOM     54  C   UNL A   1      43.705  27.988  33.647  1.00  0.00     0.037 A 
ATOM     55  C   UNL A   1      38.233  30.404  30.021  1.00  0.00     0.037 A 
ATOM     56  C   UNL A   1      42.937  29.019  34.306  1.00  0.00     0.049 A 
ATOM     57  C   UNL A   1      38.531  30.891  31.407  1.00  0.00     0.074 A 
ATOM     58  C   UNL A   1      43.154  29.601  35.544  1.00  0.00     0.029 A 
ATOM     59  N   UNL A   1      41.793  29.612  33.789  1.00  0.00    -0.354 N 
ATOM     60  N   UNL A   1      39.517  30.562  32.204  1.00  0.00    -0.248 NA
ATOM     61  C   UNL A   1      37.608  31.887  31.966  1.00  0.00     0.031 C 
ATOM     62  C   UNL A   1      42.115  30.504  35.798  1.00  0.00     0.029 A 
ATOM     63  C   UNL A   1      41.278  30.530  34.695  1.00  0.00     0.049 A 
ATOM     64  H   UNL A   1      41.402  29.410  32.908  1.00  0.00     0.167 HD
ATOM     65  C   UNL A   1      39.347  31.322  33.353  1.00  0.00     0.074 A 
ATOM     66  C   UNL A   1      38.173  32.145  33.136  1.00  0.00     0.031 C 
ATOM     67  C   UNL A   1      40.098  31.334  34.482  1.00  0.00     0.037 A 
BRANCH  54  68
ATOM     68  C   UNL A   1      44.910  27.442  34.361  1.00  0.00     0.064 A 
ATOM     69  C   UNL A   1      46.160  28.074  34.266  1.00  0.00     0.173 A 
ATOM     70  C   UNL A   1      44.808  26.322  35.200  1.00  0.00     0.173 A 
ATOM     71  F   UNL A   1      46.315  29.147  33.475  1.00  0.00    -0.203 F 
ATOM     72  C   UNL A   1      47.266  27.592  34.963  1.00  0.00     0.198 A 
ATOM     73  C   UNL A   1      45.909  25.859  35.920  1.00  0.00     0.198 A 
ATOM     74  F   UNL A   1      43.636  25.685  35.339  1.00  0.00    -0.203 F 
ATOM     75  F   UNL A   1      48.457  28.190  34.823  1.00  0.00    -0.200 F 
ATOM     76  C   UNL A   1      47.138  26.491  35.795  1.00  0.00     0.200 A 
ATOM     77  F   UNL A   1      45.780  24.804  36.735  1.00  0.00    -0.200 F 
ATOM     78  F   UNL A   1      48.200  26.033  36.473  1.00  0.00    -0.200 F 
ENDBRANCH  54  68
BRANCH  55  79
ATOM     79  C   UNL A   1      37.131  30.979  29.214  1.00  0.00     0.064 A 
ATOM     80  C   UNL A   1      35.971  30.235  28.960  1.00  0.00     0.173 A 
ATOM     81  C   UNL A   1      37.180  32.300  28.745  1.00  0.00     0.173 A 
ATOM     82  F   UNL A   1      35.886  28.965  29.383  1.00  0.00    -0.203 F 
ATOM     83  C   UNL A   1      34.900  30.791  28.265  1.00  0.00     0.198 A 
ATOM     84  C   UNL A   1      36.099  32.863  28.073  1.00  0.00     0.198 A 
ATOM     85  F   UNL A   1      38.265  33.054  28.976  1.00  0.00    -0.203 F 
ATOM     86  F   UNL A   1      33.810  30.053  28.020  1.00  0.00    -0.200 F 
ATOM     87  C   UNL A   1      34.961  32.107  27.831  1.00  0.00     0.200 A 
ATOM     88  F   UNL A   1      36.151  34.141  27.674  1.00  0.00    -0.200 F 
ATOM     89  F   UNL A   1      33.921  32.647  27.183  1.00  0.00    -0.200 F 
ENDBRANCH  55  79
BRANCH  67  90
ATOM     90  C   UNL A   1      39.673  32.272  35.576  1.00  0.00     0.064 A 
ATOM     91  C   UNL A   1      38.738  31.888  36.550  1.00  0.00     0.173 A 
ATOM     92  C   UNL A   1      40.223  33.559  35.669  1.00  0.00     0.173 A 
ATOM     93  F   UNL A   1      38.168  30.675  36.497  1.00  0.00    -0.203 F 
ATOM     94  C   UNL A   1      38.352  32.766  37.561  1.00  0.00     0.198 A 
ATOM     95  C   UNL A   1      39.859  34.423  36.699  1.00  0.00     0.198 A 
ATOM     96  F   UNL A   1      41.123  33.977  34.767  1.00  0.00    -0.203 F 
ATOM     97  F   UNL A   1      37.419  32.395  38.448  1.00  0.00    -0.200 F 
ATOM     98  C   UNL A   1      38.918  34.030  37.638  1.00  0.00     0.200 A 
ATOM     99  F   UNL A   1      40.417  35.640  36.780  1.00  0.00    -0.200 F 
ATOM    100  F   UNL A   1      38.550  34.871  38.614  1.00  0.00    -0.200 F 
ENDBRANCH  67  90
ENDBRANCH  41  42
ENDBRANCH  34  36
ENDBRANCH  33  34
ENDBRANCH  32  33
ENDBRANCH  31  32
ENDBRANCH  30  31
ENDBRANCH  29  30
ENDBRANCH  28  29
ENDBRANCH  27  28
ENDBRANCH   1  27
TORSDOF 24
ENDMDL
MODEL 2
REMARK VINA RESULT:     -10.3      3.646      8.880
REMARK SMILES O=C(Cc1cc(=O)nc(SCc2cccc(Cl)c2)[nH]1)OCCOCCOCCOCCOC(=O)c1ccc(-c2c3nc(c(-c4c(F)c(F)c(F)c(F)c4F)c4ccc([nH]4)c(-c4c(F)c(F)c(F)c(F)c4F)c4nc(c(-c5c(F)c(F)c(F)c(F)c5F)c5ccc2[nH]5)C=C4)C=C3)cc1
REMARK SMILES IDX 25 1 24 2 23 3 22 4 21 5 20 6 2 7 1 8 3 9 4 10 5 11 19 12
REMARK SMILES IDX 6 13 9 14 7 16 8 17 10 18 11 19 12 20 13 21 18 22 14 23
REMARK SMILES IDX 16 24 15 25 17 26 26 27 27 28 28 29 29 30 30 31 31 32 32 33
REMARK SMILES IDX 33 34 34 35 35 36 36 37 97 38 37 39 96 40 38 41 39 42 40 43
REMARK SMILES IDX 90 44 41 45 95 46 89 47 91 48 42 49 94 50 88 51 87 52 43 54
REMARK SMILES IDX 75 55 55 56 74 57 56 58 59 59 73 60 92 61 57 62 58 63 72 65
REMARK SMILES IDX 93 66 60 67 44 68 45 69 53 70 46 71 47 72 51 73 54 74 48 75
REMARK SMILES IDX 49 76 52 77 50 78 76 79 77 80 85 81 78 82 79 83 83 84 86 85
REMARK SMILES IDX 80 86 81 87 84 88 82 89 61 90 62 91 70 92 63 93 64 94 68 95
REMARK SMILES IDX 71 96 65 97 66 98 69 99 67 100
REMARK H PARENT 19 15 91 53 59 64
REMARK Flexibility Score: inf
ROOT
ATOM      1  C   UNL A   1      31.535  23.431  26.559  1.00  0.00     0.188 C 
ENDROOT
BRANCH   1   2
ATOM      2  C   UNL A   1      32.406  22.626  27.517  1.00  0.00     0.188 C 
BRANCH   2   3
ATOM      3  O   UNL A   1      33.248  21.620  26.978  1.00  0.00    -0.376 OA
BRANCH   3   4
ATOM      4  C   UNL A   1      32.856  20.555  26.133  1.00  0.00     0.202 C 
BRANCH   4   5
ATOM      5  C   UNL A   1      33.599  20.165  24.856  1.00  0.00     0.261 C 
BRANCH   5   6
ATOM      6  O   UNL A   1      33.485  21.033  23.728  1.00  0.00    -0.463 OA
BRANCH   6   7
ATOM      7  C   UNL A   1      32.353  21.121  22.997  1.00  0.00     0.311 C 
ATOM      8  O   UNL A   1      31.985  20.187  22.290  1.00  0.00    -0.252 OA
BRANCH   7   9
ATOM      9  C   UNL A   1      31.645  22.451  22.958  1.00  0.00     0.176 C 
BRANCH   9  10
ATOM     10  C   UNL A   1      32.563  23.617  22.857  1.00  0.00     0.034 A 
ATOM     11  C   UNL A   1      32.283  24.726  22.156  1.00  0.00     0.095 A 
ATOM     12  N   UNL A   1      33.652  23.637  23.686  1.00  0.00    -0.337 N 
ATOM     13  C   UNL A   1      33.247  25.855  22.245  1.00  0.00     0.273 A 
ATOM     14  C   UNL A   1      34.204  24.830  24.040  1.00  0.00     0.169 A 
ATOM     15  H   UNL A   1      34.032  22.795  24.024  1.00  0.00     0.168 HD
ATOM     16  O   UNL A   1      33.249  26.683  21.339  1.00  0.00    -0.267 OA
ATOM     17  N   UNL A   1      34.025  25.929  23.379  1.00  0.00    -0.185 NA
BRANCH  14  18
ATOM     18  S   UNL A   1      35.157  24.887  25.498  1.00  0.00    -0.083 SA
BRANCH  18  19
ATOM     19  C   UNL A   1      35.784  23.194  25.660  1.00  0.00     0.113 C 
BRANCH  19  20
ATOM     20  C   UNL A   1      37.261  23.038  25.948  1.00  0.00    -0.036 A 
ATOM     21  C   UNL A   1      37.984  24.077  26.559  1.00  0.00     0.005 A 
ATOM     22  C   UNL A   1      37.920  21.822  25.712  1.00  0.00     0.025 A 
ATOM     23  C   UNL A   1      39.335  23.923  26.889  1.00  0.00     0.002 A 
ATOM     24  C   UNL A   1      39.261  21.662  26.070  1.00  0.00     0.041 A 
ATOM     25  C   UNL A   1      39.973  22.710  26.649  1.00  0.00     0.020 A 
ATOM     26  Cl  UNL A   1      40.034  20.144  25.826  1.00  0.00    -0.084 Cl
ENDBRANCH  19  20
ENDBRANCH  18  19
ENDBRANCH  14  18
ENDBRANCH   9  10
ENDBRANCH   7   9
ENDBRANCH   6   7
ENDBRANCH   5   6
ENDBRANCH   4   5
ENDBRANCH   3   4
ENDBRANCH   2   3
ENDBRANCH   1   2
BRANCH   1  27
ATOM     27  O   UNL A   1      31.608  24.834  26.763  1.00  0.00    -0.377 OA
BRANCH  27  28
ATOM     28  C   UNL A   1      30.919  25.591  25.784  1.00  0.00     0.188 C 
BRANCH  28  29
ATOM     29  C   UNL A   1      31.224  27.107  25.745  1.00  0.00     0.188 C 
BRANCH  29  30
ATOM     30  O   UNL A   1      31.054  27.874  24.564  1.00  0.00    -0.376 OA
BRANCH  30  31
ATOM     31  C   UNL A   1      31.609  29.175  24.470  1.00  0.00     0.202 C 
BRANCH  31  32
ATOM     32  C   UNL A   1      31.771  30.028  25.736  1.00  0.00     0.261 C 
BRANCH  32  33
ATOM     33  O   UNL A   1      33.113  30.119  26.238  1.00  0.00    -0.460 OA
BRANCH  33  34
ATOM     34  C   UNL A   1      33.408  31.209  26.988  1.00  0.00     0.338 C 
ATOM     35  O   UNL A   1      32.676  32.149  27.251  1.00  0.00    -0.246 OA
BRANCH  34  36
ATOM     36  C   UNL A   1      34.704  30.967  27.663  1.00  0.00     0.060 A 
ATOM     37  C   UNL A   1      35.622  32.002  27.857  1.00  0.00     0.016 A 
ATOM     38  C   UNL A   1      35.049  29.645  27.997  1.00  0.00     0.016 A 
ATOM     39  C   UNL A   1      36.877  31.717  28.402  1.00  0.00     0.010 A 
ATOM     40  C   UNL A   1      36.314  29.358  28.512  1.00  0.00     0.010 A 
ATOM     41  C   UNL A   1      37.225  30.398  28.744  1.00  0.00    -0.014 A 
BRANCH  41  42
ATOM     42  C   UNL A   1      38.430  30.151  29.571  1.00  0.00     0.031 A 
ATOM     43  C   UNL A   1      38.596  30.692  30.955  1.00  0.00     0.074 A 
ATOM     44  C   UNL A   1      39.392  29.391  29.020  1.00  0.00     0.049 A 
ATOM     45  N   UNL A   1      39.555  30.458  31.816  1.00  0.00    -0.248 NA
ATOM     46  C   UNL A   1      37.562  31.616  31.438  1.00  0.00     0.031 C 
ATOM     47  C   UNL A   1      39.334  28.828  27.670  1.00  0.00     0.029 A 
ATOM     48  N   UNL A   1      40.587  28.948  29.520  1.00  0.00    -0.354 N 
ATOM     49  C   UNL A   1      39.226  31.172  32.958  1.00  0.00     0.074 A 
ATOM     50  C   UNL A   1      38.007  31.897  32.658  1.00  0.00     0.031 C 
ATOM     51  C   UNL A   1      40.427  28.082  27.462  1.00  0.00     0.029 A 
ATOM     52  C   UNL A   1      41.268  28.133  28.652  1.00  0.00     0.049 A 
ATOM     53  H   UNL A   1      40.923  29.190  30.413  1.00  0.00     0.167 HD
ATOM     54  C   UNL A   1      39.876  31.197  34.150  1.00  0.00     0.037 A 
ATOM     55  C   UNL A   1      42.434  27.481  28.803  1.00  0.00     0.037 A 
ATOM     56  C   UNL A   1      41.114  30.502  34.420  1.00  0.00     0.049 A 
ATOM     57  C   UNL A   1      43.168  27.585  30.107  1.00  0.00     0.074 A 
ATOM     58  C   UNL A   1      41.842  30.458  35.597  1.00  0.00     0.029 A 
ATOM     59  N   UNL A   1      41.816  29.739  33.496  1.00  0.00    -0.354 N 
ATOM     60  N   UNL A   1      42.820  28.214  31.202  1.00  0.00    -0.248 NA
ATOM     61  C   UNL A   1      44.452  26.881  30.196  1.00  0.00     0.031 C 
ATOM     62  C   UNL A   1      43.008  29.718  35.371  1.00  0.00     0.029 A 
ATOM     63  C   UNL A   1      42.982  29.248  34.068  1.00  0.00     0.049 A 
ATOM     64  H   UNL A   1      41.529  29.572  32.569  1.00  0.00     0.167 HD
ATOM     65  C   UNL A   1      43.831  27.967  32.120  1.00  0.00     0.074 A 
ATOM     66  C   UNL A   1      44.795  27.112  31.455  1.00  0.00     0.031 C 
ATOM     67  C   UNL A   1      43.948  28.412  33.395  1.00  0.00     0.037 A 
BRANCH  54  68
ATOM     68  C   UNL A   1      39.259  31.994  35.264  1.00  0.00     0.064 A 
ATOM     69  C   UNL A   1      38.452  31.383  36.236  1.00  0.00     0.173 A 
ATOM     70  C   UNL A   1      39.525  33.365  35.407  1.00  0.00     0.173 A 
ATOM     71  F   UNL A   1      38.162  30.075  36.146  1.00  0.00    -0.203 F 
ATOM     72  C   UNL A   1      37.916  32.115  37.293  1.00  0.00     0.198 A 
ATOM     73  C   UNL A   1      39.011  34.089  36.482  1.00  0.00     0.198 A 
ATOM     74  F   UNL A   1      40.299  34.001  34.515  1.00  0.00    -0.203 F 
ATOM     75  F   UNL A   1      37.116  31.514  38.185  1.00  0.00    -0.200 F 
ATOM     76  C   UNL A   1      38.202  33.465  37.420  1.00  0.00     0.200 A 
ATOM     77  F   UNL A   1      39.302  35.391  36.612  1.00  0.00    -0.200 F 
ATOM     78  F   UNL A   1      37.694  34.167  38.442  1.00  0.00    -0.200 F 
ENDBRANCH  54  68
BRANCH  55  79
ATOM     79  C   UNL A   1      42.925  26.622  27.700  1.00  0.00     0.064 A 
ATOM     80  C   UNL A   1      43.658  27.172  26.641  1.00  0.00     0.173 A 
ATOM     81  C   UNL A   1      42.738  25.232  27.718  1.00  0.00     0.173 A 
ATOM     82  F   UNL A   1      43.852  28.498  26.580  1.00  0.00    -0.203 F 
ATOM     83  C   UNL A   1      44.186  26.364  25.638  1.00  0.00     0.198 A 
ATOM     84  C   UNL A   1      43.289  24.422  26.729  1.00  0.00     0.198 A 
ATOM     85  F   UNL A   1      42.055  24.659  28.720  1.00  0.00    -0.203 F 
ATOM     86  F   UNL A   1      44.867  26.916  24.626  1.00  0.00    -0.200 F 
ATOM     87  C   UNL A   1      44.009  24.989  25.688  1.00  0.00     0.200 A 
ATOM     88  F   UNL A   1      43.135  23.092  26.791  1.00  0.00    -0.200 F 
ATOM     89  F   UNL A   1      44.537  24.210  24.735  1.00  0.00    -0.200 F 
ENDBRANCH  55  79
BRANCH  67  90
ATOM     90  C   UNL A   1      45.165  27.978  34.162  1.00  0.00     0.064 A 
ATOM     91  C   UNL A   1      45.183  26.779  34.892  1.00  0.00     0.173 A 
ATOM     92  C   UNL A   1      46.335  28.753  34.148  1.00  0.00     0.173 A 
ATOM     93  F   UNL A   1      44.086  26.009  34.953  1.00  0.00    -0.203 F 
ATOM     94  C   UNL A   1      46.318  26.386  35.600  1.00  0.00     0.198 A 
ATOM     95  C   UNL A   1      47.477  28.341  34.830  1.00  0.00     0.198 A 
ATOM     96  F   UNL A   1      46.374  29.906  33.464  1.00  0.00    -0.203 F 
ATOM     97  F   UNL A   1      46.293  25.264  36.331  1.00  0.00    -0.200 F 
ATOM     98  C   UNL A   1      47.466  27.164  35.562  1.00  0.00     0.200 A 
ATOM     99  F   UNL A   1      48.590  29.087  34.782  1.00  0.00    -0.200 F 
ATOM    100  F   UNL A   1      48.557  26.782  36.238  1.00  0.00    -0.200 F 
ENDBRANCH  67  90
ENDBRANCH  41  42
ENDBRANCH  34  36
ENDBRANCH  33  34
ENDBRANCH  32  33
ENDBRANCH  31  32
ENDBRANCH  30  31
ENDBRANCH  29  30
ENDBRANCH  28  29
ENDBRANCH  27  28
ENDBRANCH   1  27
TORSDOF 24
ENDMDL
MODEL 3
REMARK VINA RESULT:     -10.2      2.486      7.818
REMARK SMILES O=C(Cc1cc(=O)nc(SCc2cccc(Cl)c2)[nH]1)OCCOCCOCCOCCOC(=O)c1ccc(-c2c3nc(c(-c4c(F)c(F)c(F)c(F)c4F)c4ccc([nH]4)c(-c4c(F)c(F)c(F)c(F)c4F)c4nc(c(-c5c(F)c(F)c(F)c(F)c5F)c5ccc2[nH]5)C=C4)C=C3)cc1
REMARK SMILES IDX 25 1 24 2 23 3 22 4 21 5 20 6 2 7 1 8 3 9 4 10 5 11 19 12
REMARK SMILES IDX 6 13 9 14 7 16 8 17 10 18 11 19 12 20 13 21 18 22 14 23
REMARK SMILES IDX 16 24 15 25 17 26 26 27 27 28 28 29 29 30 30 31 31 32 32 33
REMARK SMILES IDX 33 34 34 35 35 36 36 37 97 38 37 39 96 40 38 41 39 42 40 43
REMARK SMILES IDX 90 44 41 45 95 46 89 47 91 48 42 49 94 50 88 51 87 52 43 54
REMARK SMILES IDX 75 55 55 56 74 57 56 58 59 59 73 60 92 61 57 62 58 63 72 65
REMARK SMILES IDX 93 66 60 67 44 68 45 69 53 70 46 71 47 72 51 73 54 74 48 75
REMARK SMILES IDX 49 76 52 77 50 78 76 79 77 80 85 81 78 82 79 83 83 84 86 85
REMARK SMILES IDX 80 86 81 87 84 88 82 89 61 90 62 91 70 92 63 93 64 94 68 95
REMARK SMILES IDX 71 96 65 97 66 98 69 99 67 100
REMARK H PARENT 19 15 91 53 59 64
REMARK Flexibility Score: inf
ROOT
ATOM      1  C   UNL A   1      41.458  19.522  26.549  1.00  0.00     0.188 C 
ENDROOT
BRANCH   1   2
ATOM      2  C   UNL A   1      41.539  21.037  26.694  1.00  0.00     0.188 C 
BRANCH   2   3
ATOM      3  O   UNL A   1      40.376  21.739  27.104  1.00  0.00    -0.376 OA
BRANCH   3   4
ATOM      4  C   UNL A   1      39.358  22.247  26.263  1.00  0.00     0.202 C 
BRANCH   4   5
ATOM      5  C   UNL A   1      38.419  21.370  25.438  1.00  0.00     0.261 C 
BRANCH   5   6
ATOM      6  O   UNL A   1      37.362  22.014  24.725  1.00  0.00    -0.463 OA
BRANCH   6   7
ATOM      7  C   UNL A   1      36.391  22.712  25.350  1.00  0.00     0.311 C 
ATOM      8  O   UNL A   1      36.404  23.940  25.359  1.00  0.00    -0.252 OA
BRANCH   7   9
ATOM      9  C   UNL A   1      35.383  21.941  26.163  1.00  0.00     0.176 C 
BRANCH   9  10
ATOM     10  C   UNL A   1      33.993  22.455  26.041  1.00  0.00     0.034 A 
ATOM     11  C   UNL A   1      33.165  22.619  27.083  1.00  0.00     0.095 A 
ATOM     12  N   UNL A   1      33.616  22.977  24.832  1.00  0.00    -0.337 N 
ATOM     13  C   UNL A   1      31.846  23.252  26.820  1.00  0.00     0.273 A 
ATOM     14  C   UNL A   1      32.626  23.910  24.784  1.00  0.00     0.169 A 
ATOM     15  H   UNL A   1      34.059  22.679  24.006  1.00  0.00     0.168 HD
ATOM     16  O   UNL A   1      30.939  23.048  27.621  1.00  0.00    -0.267 OA
ATOM     17  N   UNL A   1      31.757  24.085  25.727  1.00  0.00    -0.185 NA
BRANCH  14  18
ATOM     18  S   UNL A   1      32.566  24.963  23.397  1.00  0.00    -0.083 SA
BRANCH  18  19
ATOM     19  C   UNL A   1      32.088  26.564  24.101  1.00  0.00     0.113 C 
BRANCH  19  20
ATOM     20  C   UNL A   1      30.732  27.105  23.706  1.00  0.00    -0.036 A 
ATOM     21  C   UNL A   1      29.554  26.483  24.157  1.00  0.00     0.005 A 
ATOM     22  C   UNL A   1      30.613  28.296  22.974  1.00  0.00     0.025 A 
ATOM     23  C   UNL A   1      28.295  27.009  23.853  1.00  0.00     0.002 A 
ATOM     24  C   UNL A   1      29.353  28.835  22.697  1.00  0.00     0.041 A 
ATOM     25  C   UNL A   1      28.194  28.192  23.127  1.00  0.00     0.020 A 
ATOM     26  Cl  UNL A   1      29.230  30.327  21.849  1.00  0.00    -0.084 Cl
ENDBRANCH  19  20
ENDBRANCH  18  19
ENDBRANCH  14  18
ENDBRANCH   9  10
ENDBRANCH   7   9
ENDBRANCH   6   7
ENDBRANCH   5   6
ENDBRANCH   4   5
ENDBRANCH   3   4
ENDBRANCH   2   3
ENDBRANCH   1   2
BRANCH   1  27
ATOM     27  O   UNL A   1      42.726  18.885  26.499  1.00  0.00    -0.377 OA
BRANCH  27  28
ATOM     28  C   UNL A   1      43.448  19.140  25.309  1.00  0.00     0.188 C 
BRANCH  28  29
ATOM     29  C   UNL A   1      44.981  18.943  25.376  1.00  0.00     0.188 C 
BRANCH  29  30
ATOM     30  O   UNL A   1      45.885  19.985  25.045  1.00  0.00    -0.376 OA
BRANCH  30  31
ATOM     31  C   UNL A   1      45.409  21.303  24.830  1.00  0.00     0.202 C 
BRANCH  31  32
ATOM     32  C   UNL A   1      45.253  22.262  26.019  1.00  0.00     0.261 C 
BRANCH  32  33
ATOM     33  O   UNL A   1      45.078  23.642  25.665  1.00  0.00    -0.460 OA
BRANCH  33  34
ATOM     34  C   UNL A   1      43.805  24.056  25.451  1.00  0.00     0.338 C 
ATOM     35  O   UNL A   1      43.015  23.630  24.624  1.00  0.00    -0.246 OA
BRANCH  34  36
ATOM     36  C   UNL A   1      43.421  24.957  26.562  1.00  0.00     0.060 A 
ATOM     37  C   UNL A   1      43.968  26.238  26.674  1.00  0.00     0.016 A 
ATOM     38  C   UNL A   1      42.589  24.454  27.576  1.00  0.00     0.016 A 
ATOM     39  C   UNL A   1      43.664  27.021  27.790  1.00  0.00     0.010 A 
ATOM     40  C   UNL A   1      42.312  25.225  28.706  1.00  0.00     0.010 A 
ATOM     41  C   UNL A   1      42.826  26.526  28.805  1.00  0.00    -0.014 A 
BRANCH  41  42
ATOM     42  C   UNL A   1      42.290  27.453  29.829  1.00  0.00     0.031 A 
ATOM     43  C   UNL A   1      41.071  28.291  29.615  1.00  0.00     0.074 A 
ATOM     44  C   UNL A   1      42.955  27.509  30.996  1.00  0.00     0.049 A 
ATOM     45  N   UNL A   1      40.444  29.059  30.472  1.00  0.00    -0.248 NA
ATOM     46  C   UNL A   1      40.476  28.271  28.273  1.00  0.00     0.031 C 
ATOM     47  C   UNL A   1      44.166  26.744  31.300  1.00  0.00     0.029 A 
ATOM     48  N   UNL A   1      42.706  28.217  32.142  1.00  0.00    -0.354 N 
ATOM     49  C   UNL A   1      39.359  29.588  29.789  1.00  0.00     0.074 A 
ATOM     50  C   UNL A   1      39.447  29.098  28.427  1.00  0.00     0.031 C 
ATOM     51  C   UNL A   1      44.534  26.994  32.563  1.00  0.00     0.029 A 
ATOM     52  C   UNL A   1      43.600  27.950  33.147  1.00  0.00     0.049 A 
ATOM     53  H   UNL A   1      41.960  28.852  32.235  1.00  0.00     0.167 HD
ATOM     54  C   UNL A   1      38.374  30.389  30.269  1.00  0.00     0.037 A 
ATOM     55  C   UNL A   1      43.653  28.409  34.410  1.00  0.00     0.037 A 
ATOM     56  C   UNL A   1      38.324  30.904  31.618  1.00  0.00     0.049 A 
ATOM     57  C   UNL A   1      42.590  29.351  34.892  1.00  0.00     0.074 A 
ATOM     58  C   UNL A   1      37.363  31.714  32.200  1.00  0.00     0.029 A 
ATOM     59  N   UNL A   1      39.284  30.671  32.594  1.00  0.00    -0.354 N 
ATOM     60  N   UNL A   1      41.534  29.798  34.258  1.00  0.00    -0.248 NA
ATOM     61  C   UNL A   1      42.724  29.845  36.267  1.00  0.00     0.031 C 
ATOM     62  C   UNL A   1      37.767  32.015  33.506  1.00  0.00     0.029 A 
ATOM     63  C   UNL A   1      38.953  31.346  33.762  1.00  0.00     0.049 A 
ATOM     64  H   UNL A   1      40.084  30.109  32.476  1.00  0.00     0.167 HD
ATOM     65  C   UNL A   1      40.865  30.612  35.162  1.00  0.00     0.074 A 
ATOM     66  C   UNL A   1      41.627  30.577  36.395  1.00  0.00     0.031 C 
ATOM     67  C   UNL A   1      39.725  31.323  34.982  1.00  0.00     0.037 A 
BRANCH  54  68
ATOM     68  C   UNL A   1      37.256  30.756  29.333  1.00  0.00     0.064 A 
ATOM     69  C   UNL A   1      36.250  29.835  29.005  1.00  0.00     0.173 A 
ATOM     70  C   UNL A   1      37.146  32.055  28.812  1.00  0.00     0.173 A 
ATOM     71  F   UNL A   1      36.307  28.578  29.474  1.00  0.00    -0.203 F 
ATOM     72  C   UNL A   1      35.191  30.190  28.173  1.00  0.00     0.198 A 
ATOM     73  C   UNL A   1      36.070  32.416  28.002  1.00  0.00     0.198 A 
ATOM     74  F   UNL A   1      38.072  32.981  29.100  1.00  0.00    -0.203 F 
ATOM     75  F   UNL A   1      34.265  29.279  27.843  1.00  0.00    -0.200 F 
ATOM     76  C   UNL A   1      35.097  31.481  27.678  1.00  0.00     0.200 A 
ATOM     77  F   UNL A   1      35.973  33.669  27.538  1.00  0.00    -0.200 F 
ATOM     78  F   UNL A   1      34.073  31.825  26.885  1.00  0.00    -0.200 F 
ENDBRANCH  54  68
BRANCH  55  79
ATOM     79  C   UNL A   1      44.720  27.914  35.311  1.00  0.00     0.064 A 
ATOM     80  C   UNL A   1      44.568  26.702  35.996  1.00  0.00     0.173 A 
ATOM     81  C   UNL A   1      45.936  28.600  35.449  1.00  0.00     0.173 A 
ATOM     82  F   UNL A   1      43.418  26.020  35.900  1.00  0.00    -0.203 F 
ATOM     83  C   UNL A   1      45.594  26.193  36.789  1.00  0.00     0.198 A 
ATOM     84  C   UNL A   1      46.970  28.077  36.220  1.00  0.00     0.198 A 
ATOM     85  F   UNL A   1      46.131  29.758  34.801  1.00  0.00    -0.203 F 
ATOM     86  F   UNL A   1      45.417  25.041  37.448  1.00  0.00    -0.200 F 
ATOM     87  C   UNL A   1      46.797  26.876  36.892  1.00  0.00     0.200 A 
ATOM     88  F   UNL A   1      48.139  28.727  36.301  1.00  0.00    -0.200 F 
ATOM     89  F   UNL A   1      47.791  26.373  37.636  1.00  0.00    -0.200 F 
ENDBRANCH  55  79
BRANCH  67  90
ATOM     90  C   UNL A   1      39.225  32.123  36.151  1.00  0.00     0.064 A 
ATOM     91  C   UNL A   1      39.694  33.420  36.407  1.00  0.00     0.173 A 
ATOM     92  C   UNL A   1      38.249  31.599  37.013  1.00  0.00     0.173 A 
ATOM     93  F   UNL A   1      40.641  33.962  35.625  1.00  0.00    -0.203 F 
ATOM     94  C   UNL A   1      39.224  34.153  37.494  1.00  0.00     0.198 A 
ATOM     95  C   UNL A   1      37.757  32.346  38.080  1.00  0.00     0.198 A 
ATOM     96  F   UNL A   1      37.762  30.365  36.813  1.00  0.00    -0.203 F 
ATOM     97  F   UNL A   1      39.725  35.370  37.747  1.00  0.00    -0.200 F 
ATOM     98  C   UNL A   1      38.250  33.618  38.325  1.00  0.00     0.200 A 
ATOM     99  F   UNL A   1      36.807  31.833  38.874  1.00  0.00    -0.200 F 
ATOM    100  F   UNL A   1      37.795  34.327  39.367  1.00  0.00    -0.200 F 
ENDBRANCH  67  90
ENDBRANCH  41  42
ENDBRANCH  34  36
ENDBRANCH  33  34
ENDBRANCH  32  33
ENDBRANCH  31  32
ENDBRANCH  30  31
ENDBRANCH  29  30
ENDBRANCH  28  29
ENDBRANCH  27  28
ENDBRANCH   1  27
TORSDOF 24
ENDMDL
