MODEL 1
REMARK VINA RESULT:     -10.9      0.000      0.000
REMARK SMILES O=C(CC1(C(=O)OCCOCCOCCOCCOC(=O)c2ccc(-c3c4nc(c(-c5c(F)c(F)c(F)c(F)c5F)c5ccc([nH]5)c(-c5c(F)c(F)c(F)c(F)c5F)c5nc(c(-c6c(F)c(F)c(F)c(F)c6F)c6ccc3[nH]6)C=C5)C=C4)cc2)CCCCC1)Nc1ccc(N2CCOC2=O)cc1
REMARK SMILES IDX 12 1 11 2 10 3 9 4 8 5 7 6 5 7 6 8 4 9 85 10 89 11 86 12
REMARK SMILES IDX 88 13 87 14 3 15 2 16 1 17 90 18 91 20 92 21 102 22 93 23
REMARK SMILES IDX 101 24 94 25 95 26 96 27 99 28 97 29 98 30 100 31 13 32
REMARK SMILES IDX 14 33 15 34 16 35 17 36 18 37 19 38 20 39 21 40 22 41 23 42
REMARK SMILES IDX 84 43 24 44 83 45 25 46 26 47 27 48 77 49 28 50 82 51 76 52
REMARK SMILES IDX 78 53 29 54 81 55 75 56 74 57 30 59 62 60 42 61 61 62 43 63
REMARK SMILES IDX 46 64 60 65 79 66 44 67 45 68 59 70 80 71 47 72 31 73 32 74
REMARK SMILES IDX 40 75 33 76 34 77 38 78 41 79 35 80 36 81 39 82 37 83 63 84
REMARK SMILES IDX 64 85 72 86 65 87 66 88 70 89 73 90 67 91 68 92 71 93 69 94
REMARK SMILES IDX 48 95 49 96 57 97 50 98 51 99 55 100 58 101 52 102 53 103
REMARK SMILES IDX 56 104 54 105
REMARK H PARENT 90 19 78 58 46 69
REMARK Flexibility Score: inf
ROOT
ATOM      1  C   UNL A   1      34.383  30.333  27.470  1.00  0.00     0.188 C 
ENDROOT
BRANCH   1   2
ATOM      2  C   UNL A   1      32.959  30.504  26.925  1.00  0.00     0.188 C 
BRANCH   2   3
ATOM      3  O   UNL A   1      32.423  29.311  26.395  1.00  0.00    -0.376 OA
BRANCH   3   4
ATOM      4  C   UNL A   1      32.808  28.078  26.969  1.00  0.00     0.202 C 
BRANCH   4   5
ATOM      5  C   UNL A   1      33.419  26.935  26.133  1.00  0.00     0.261 C 
BRANCH   5   6
ATOM      6  O   UNL A   1      32.793  25.643  26.188  1.00  0.00    -0.463 OA
BRANCH   6   7
ATOM      7  C   UNL A   1      33.265  24.714  25.334  1.00  0.00     0.312 C 
ATOM      8  O   UNL A   1      34.058  24.988  24.440  1.00  0.00    -0.252 OA
BRANCH   7   9
ATOM      9  C   UNL A   1      32.643  23.305  25.486  1.00  0.00     0.077 C 
ATOM     10  C   UNL A   1      32.900  22.943  26.977  1.00  0.00     0.019 C 
ATOM     11  C   UNL A   1      33.187  22.099  24.663  1.00  0.00     0.019 C 
ATOM     12  C   UNL A   1      34.364  22.579  27.258  1.00  0.00     0.001 C 
ATOM     13  C   UNL A   1      34.631  21.701  24.923  1.00  0.00     0.001 C 
ATOM     14  C   UNL A   1      34.855  21.426  26.398  1.00  0.00     0.000 C 
BRANCH   9  15
ATOM     15  C   UNL A   1      31.126  23.389  25.094  1.00  0.00     0.119 C 
BRANCH  15  16
ATOM     16  C   UNL A   1      30.654  24.441  24.097  1.00  0.00     0.225 C 
ATOM     17  O   UNL A   1      30.873  24.317  22.895  1.00  0.00    -0.275 OA
ATOM     18  N   UNL A   1      29.982  25.473  24.703  1.00  0.00    -0.326 N 
ATOM     19  H   UNL A   1      29.781  25.370  25.661  1.00  0.00     0.169 HD
BRANCH  18  20
ATOM     20  C   UNL A   1      29.557  26.655  24.096  1.00  0.00     0.041 A 
ATOM     21  C   UNL A   1      30.534  27.636  23.903  1.00  0.00     0.028 A 
ATOM     22  C   UNL A   1      28.240  26.891  23.723  1.00  0.00     0.028 A 
ATOM     23  C   UNL A   1      30.204  28.844  23.298  1.00  0.00     0.028 A 
ATOM     24  C   UNL A   1      27.890  28.145  23.219  1.00  0.00     0.028 A 
ATOM     25  C   UNL A   1      28.872  29.115  22.987  1.00  0.00     0.047 A 
BRANCH  25  26
ATOM     26  N   UNL A   1      28.521  30.347  22.423  1.00  0.00    -0.274 N 
ATOM     27  C   UNL A   1      29.044  30.825  21.186  1.00  0.00     0.171 C 
ATOM     28  C   UNL A   1      27.698  31.289  22.995  1.00  0.00     0.414 C 
ATOM     29  C   UNL A   1      28.091  31.951  20.874  1.00  0.00     0.257 C 
ATOM     30  O   UNL A   1      27.562  32.351  22.142  1.00  0.00    -0.447 OA
ATOM     31  O   UNL A   1      27.185  31.263  24.111  1.00  0.00    -0.224 OA
ENDBRANCH  25  26
ENDBRANCH  18  20
ENDBRANCH  15  16
ENDBRANCH   9  15
ENDBRANCH   7   9
ENDBRANCH   6   7
ENDBRANCH   5   6
ENDBRANCH   4   5
ENDBRANCH   3   4
ENDBRANCH   2   3
ENDBRANCH   1   2
BRANCH   1  32
ATOM     32  O   UNL A   1      35.226  31.472  27.605  1.00  0.00    -0.377 OA
BRANCH  32  33
ATOM     33  C   UNL A   1      34.663  32.723  27.998  1.00  0.00     0.188 C 
BRANCH  33  34
ATOM     34  C   UNL A   1      35.569  33.857  28.526  1.00  0.00     0.188 C 
BRANCH  34  35
ATOM     35  O   UNL A   1      35.209  34.366  29.795  1.00  0.00    -0.376 OA
BRANCH  35  36
ATOM     36  C   UNL A   1      34.230  33.664  30.542  1.00  0.00     0.202 C 
BRANCH  36  37
ATOM     37  C   UNL A   1      34.563  33.252  31.986  1.00  0.00     0.261 C 
BRANCH  37  38
ATOM     38  O   UNL A   1      35.426  32.114  32.150  1.00  0.00    -0.460 OA
BRANCH  38  39
ATOM     39  C   UNL A   1      36.425  32.202  33.052  1.00  0.00     0.338 C 
ATOM     40  O   UNL A   1      36.328  32.314  34.260  1.00  0.00    -0.246 OA
BRANCH  39  41
ATOM     41  C   UNL A   1      37.693  31.949  32.336  1.00  0.00     0.060 A 
ATOM     42  C   UNL A   1      37.737  32.109  30.944  1.00  0.00     0.016 A 
ATOM     43  C   UNL A   1      38.830  31.551  33.038  1.00  0.00     0.016 A 
ATOM     44  C   UNL A   1      38.911  31.832  30.245  1.00  0.00     0.010 A 
ATOM     45  C   UNL A   1      40.000  31.249  32.336  1.00  0.00     0.010 A 
ATOM     46  C   UNL A   1      40.033  31.353  30.933  1.00  0.00    -0.014 A 
BRANCH  46  47
ATOM     47  C   UNL A   1      41.161  30.762  30.174  1.00  0.00     0.031 A 
ATOM     48  C   UNL A   1      42.366  31.623  29.907  1.00  0.00     0.074 A 
ATOM     49  C   UNL A   1      41.134  29.486  29.750  1.00  0.00     0.049 A 
ATOM     50  N   UNL A   1      43.446  31.357  29.219  1.00  0.00    -0.248 NA
ATOM     51  C   UNL A   1      42.344  32.972  30.498  1.00  0.00     0.031 C 
ATOM     52  C   UNL A   1      40.048  28.539  29.991  1.00  0.00     0.029 A 
ATOM     53  N   UNL A   1      42.049  28.773  29.016  1.00  0.00    -0.354 N 
ATOM     54  C   UNL A   1      44.222  32.508  29.282  1.00  0.00     0.074 A 
ATOM     55  C   UNL A   1      43.481  33.482  30.050  1.00  0.00     0.031 C 
ATOM     56  C   UNL A   1      40.353  27.370  29.400  1.00  0.00     0.029 A 
ATOM     57  C   UNL A   1      41.636  27.501  28.709  1.00  0.00     0.049 A 
ATOM     58  H   UNL A   1      42.919  29.139  28.736  1.00  0.00     0.167 HD
ATOM     59  C   UNL A   1      45.449  32.727  28.752  1.00  0.00     0.037 A 
ATOM     60  C   UNL A   1      42.216  26.563  27.933  1.00  0.00     0.037 A 
ATOM     61  C   UNL A   1      46.183  31.753  27.989  1.00  0.00     0.049 A 
ATOM     62  C   UNL A   1      43.546  26.862  27.286  1.00  0.00     0.074 A 
ATOM     63  C   UNL A   1      47.442  31.869  27.427  1.00  0.00     0.029 A 
ATOM     64  N   UNL A   1      45.718  30.486  27.670  1.00  0.00    -0.354 N 
ATOM     65  N   UNL A   1      44.289  27.938  27.371  1.00  0.00    -0.248 NA
ATOM     66  C   UNL A   1      44.119  25.810  26.433  1.00  0.00     0.031 C 
ATOM     67  C   UNL A   1      47.709  30.698  26.710  1.00  0.00     0.029 A 
ATOM     68  C   UNL A   1      46.650  29.823  26.888  1.00  0.00     0.049 A 
ATOM     69  H   UNL A   1      44.853  30.113  27.956  1.00  0.00     0.167 HD
ATOM     70  C   UNL A   1      45.428  27.682  26.617  1.00  0.00     0.074 A 
ATOM     71  C   UNL A   1      45.285  26.340  26.093  1.00  0.00     0.031 C 
ATOM     72  C   UNL A   1      46.498  28.482  26.383  1.00  0.00     0.037 A 
BRANCH  59  73
ATOM     73  C   UNL A   1      46.057  34.086  28.945  1.00  0.00     0.064 A 
ATOM     74  C   UNL A   1      46.763  34.427  30.108  1.00  0.00     0.173 A 
ATOM     75  C   UNL A   1      45.959  35.054  27.933  1.00  0.00     0.173 A 
ATOM     76  F   UNL A   1      46.875  33.546  31.114  1.00  0.00    -0.203 F 
ATOM     77  C   UNL A   1      47.323  35.694  30.263  1.00  0.00     0.198 A 
ATOM     78  C   UNL A   1      46.550  36.306  28.075  1.00  0.00     0.198 A 
ATOM     79  F   UNL A   1      45.298  34.780  26.797  1.00  0.00    -0.203 F 
ATOM     80  F   UNL A   1      47.947  36.014  31.405  1.00  0.00    -0.200 F 
ATOM     81  C   UNL A   1      47.223  36.629  29.244  1.00  0.00     0.200 A 
ATOM     82  F   UNL A   1      46.465  37.202  27.082  1.00  0.00    -0.200 F 
ATOM     83  F   UNL A   1      47.771  37.843  29.388  1.00  0.00    -0.200 F 
ENDBRANCH  59  73
BRANCH  60  84
ATOM     84  C   UNL A   1      41.539  25.258  27.704  1.00  0.00     0.064 A 
ATOM     85  C   UNL A   1      40.435  25.152  26.847  1.00  0.00     0.173 A 
ATOM     86  C   UNL A   1      41.958  24.094  28.368  1.00  0.00     0.173 A 
ATOM     87  F   UNL A   1      39.977  26.240  26.209  1.00  0.00    -0.203 F 
ATOM     88  C   UNL A   1      39.763  23.943  26.680  1.00  0.00     0.198 A 
ATOM     89  C   UNL A   1      41.307  22.877  28.174  1.00  0.00     0.198 A 
ATOM     90  F   UNL A   1      43.006  24.138  29.204  1.00  0.00    -0.203 F 
ATOM     91  F   UNL A   1      38.676  23.885  25.899  1.00  0.00    -0.200 F 
ATOM     92  C   UNL A   1      40.203  22.806  27.339  1.00  0.00     0.200 A 
ATOM     93  F   UNL A   1      41.746  21.778  28.802  1.00  0.00    -0.200 F 
ATOM     94  F   UNL A   1      39.558  21.641  27.177  1.00  0.00    -0.200 F 
ENDBRANCH  60  84
BRANCH  72  95
ATOM     95  C   UNL A   1      47.625  27.914  25.564  1.00  0.00     0.064 A 
ATOM     96  C   UNL A   1      48.730  27.284  26.156  1.00  0.00     0.173 A 
ATOM     97  C   UNL A   1      47.575  27.962  24.162  1.00  0.00     0.173 A 
ATOM     98  F   UNL A   1      48.834  27.220  27.493  1.00  0.00    -0.203 F 
ATOM     99  C   UNL A   1      49.755  26.753  25.377  1.00  0.00     0.198 A 
ATOM    100  C   UNL A   1      48.583  27.397  23.385  1.00  0.00     0.198 A 
ATOM    101  F   UNL A   1      46.537  28.544  23.542  1.00  0.00    -0.203 F 
ATOM    102  F   UNL A   1      50.828  26.206  25.967  1.00  0.00    -0.200 F 
ATOM    103  C   UNL A   1      49.676  26.802  23.993  1.00  0.00     0.200 A 
ATOM    104  F   UNL A   1      48.494  27.429  22.048  1.00  0.00    -0.200 F 
ATOM    105  F   UNL A   1      50.659  26.282  23.245  1.00  0.00    -0.200 F 
ENDBRANCH  72  95
ENDBRANCH  46  47
ENDBRANCH  39  41
ENDBRANCH  38  39
ENDBRANCH  37  38
ENDBRANCH  36  37
ENDBRANCH  35  36
ENDBRANCH  34  35
ENDBRANCH  33  34
ENDBRANCH  32  33
ENDBRANCH   1  32
TORSDOF 24
ENDMDL
MODEL 2
REMARK VINA RESULT:     -10.5      0.893      6.893
REMARK SMILES O=C(CC1(C(=O)OCCOCCOCCOCCOC(=O)c2ccc(-c3c4nc(c(-c5c(F)c(F)c(F)c(F)c5F)c5ccc([nH]5)c(-c5c(F)c(F)c(F)c(F)c5F)c5nc(c(-c6c(F)c(F)c(F)c(F)c6F)c6ccc3[nH]6)C=C5)C=C4)cc2)CCCCC1)Nc1ccc(N2CCOC2=O)cc1
REMARK SMILES IDX 12 1 11 2 10 3 9 4 8 5 7 6 5 7 6 8 4 9 85 10 89 11 86 12
REMARK SMILES IDX 88 13 87 14 3 15 2 16 1 17 90 18 91 20 92 21 102 22 93 23
REMARK SMILES IDX 101 24 94 25 95 26 96 27 99 28 97 29 98 30 100 31 13 32
REMARK SMILES IDX 14 33 15 34 16 35 17 36 18 37 19 38 20 39 21 40 22 41 23 42
REMARK SMILES IDX 84 43 24 44 83 45 25 46 26 47 27 48 77 49 28 50 82 51 76 52
REMARK SMILES IDX 78 53 29 54 81 55 75 56 74 57 30 59 62 60 42 61 61 62 43 63
REMARK SMILES IDX 46 64 60 65 79 66 44 67 45 68 59 70 80 71 47 72 31 73 32 74
REMARK SMILES IDX 40 75 33 76 34 77 38 78 41 79 35 80 36 81 39 82 37 83 63 84
REMARK SMILES IDX 64 85 72 86 65 87 66 88 70 89 73 90 67 91 68 92 71 93 69 94
REMARK SMILES IDX 48 95 49 96 57 97 50 98 51 99 55 100 58 101 52 102 53 103
REMARK SMILES IDX 56 104 54 105
REMARK H PARENT 90 19 78 58 46 69
REMARK Flexibility Score: inf
ROOT
ATOM      1  C   UNL A   1      34.296  30.823  27.657  1.00  0.00     0.188 C 
ENDROOT
BRANCH   1   2
ATOM      2  C   UNL A   1      32.834  30.680  27.214  1.00  0.00     0.188 C 
BRANCH   2   3
ATOM      3  O   UNL A   1      32.600  29.520  26.445  1.00  0.00    -0.376 OA
BRANCH   3   4
ATOM      4  C   UNL A   1      33.018  28.270  26.954  1.00  0.00     0.202 C 
BRANCH   4   5
ATOM      5  C   UNL A   1      33.548  27.144  26.043  1.00  0.00     0.261 C 
BRANCH   5   6
ATOM      6  O   UNL A   1      32.889  25.868  26.086  1.00  0.00    -0.463 OA
BRANCH   6   7
ATOM      7  C   UNL A   1      33.338  24.935  25.225  1.00  0.00     0.312 C 
ATOM      8  O   UNL A   1      34.188  25.182  24.374  1.00  0.00    -0.252 OA
BRANCH   7   9
ATOM      9  C   UNL A   1      32.621  23.566  25.305  1.00  0.00     0.077 C 
ATOM     10  C   UNL A   1      32.866  23.103  26.770  1.00  0.00     0.019 C 
ATOM     11  C   UNL A   1      33.072  22.374  24.408  1.00  0.00     0.019 C 
ATOM     12  C   UNL A   1      34.303  22.622  27.011  1.00  0.00     0.001 C 
ATOM     13  C   UNL A   1      34.487  21.863  24.627  1.00  0.00     0.001 C 
ATOM     14  C   UNL A   1      34.705  21.489  26.081  1.00  0.00     0.000 C 
BRANCH   9  15
ATOM     15  C   UNL A   1      31.110  23.778  24.938  1.00  0.00     0.119 C 
BRANCH  15  16
ATOM     16  C   UNL A   1      30.712  24.859  23.941  1.00  0.00     0.225 C 
ATOM     17  O   UNL A   1      31.026  24.773  22.756  1.00  0.00    -0.275 OA
ATOM     18  N   UNL A   1      29.990  25.869  24.523  1.00  0.00    -0.326 N 
ATOM     19  H   UNL A   1      29.713  25.735  25.458  1.00  0.00     0.169 HD
BRANCH  18  20
ATOM     20  C   UNL A   1      29.607  27.068  23.921  1.00  0.00     0.041 A 
ATOM     21  C   UNL A   1      30.633  27.980  23.655  1.00  0.00     0.028 A 
ATOM     22  C   UNL A   1      28.288  27.385  23.620  1.00  0.00     0.028 A 
ATOM     23  C   UNL A   1      30.346  29.199  23.049  1.00  0.00     0.028 A 
ATOM     24  C   UNL A   1      27.992  28.653  23.116  1.00  0.00     0.028 A 
ATOM     25  C   UNL A   1      29.019  29.553  22.811  1.00  0.00     0.047 A 
BRANCH  25  26
ATOM     26  N   UNL A   1      28.716  30.797  22.246  1.00  0.00    -0.274 N 
ATOM     27  C   UNL A   1      28.383  30.979  20.872  1.00  0.00     0.171 C 
ATOM     28  C   UNL A   1      28.765  32.009  22.895  1.00  0.00     0.414 C 
ATOM     29  C   UNL A   1      27.800  32.370  20.888  1.00  0.00     0.257 C 
ATOM     30  O   UNL A   1      28.377  33.001  22.035  1.00  0.00    -0.447 OA
ATOM     31  O   UNL A   1      29.143  32.234  24.042  1.00  0.00    -0.224 OA
ENDBRANCH  25  26
ENDBRANCH  18  20
ENDBRANCH  15  16
ENDBRANCH   9  15
ENDBRANCH   7   9
ENDBRANCH   6   7
ENDBRANCH   5   6
ENDBRANCH   4   5
ENDBRANCH   3   4
ENDBRANCH   2   3
ENDBRANCH   1   2
BRANCH   1  32
ATOM     32  O   UNL A   1      34.920  32.102  27.616  1.00  0.00    -0.377 OA
BRANCH  32  33
ATOM     33  C   UNL A   1      34.225  33.242  28.120  1.00  0.00     0.188 C 
BRANCH  33  34
ATOM     34  C   UNL A   1      34.669  33.908  29.441  1.00  0.00     0.188 C 
BRANCH  34  35
ATOM     35  O   UNL A   1      34.063  33.384  30.605  1.00  0.00    -0.376 OA
BRANCH  35  36
ATOM     36  C   UNL A   1      34.776  32.411  31.350  1.00  0.00     0.202 C 
BRANCH  36  37
ATOM     37  C   UNL A   1      35.086  32.701  32.829  1.00  0.00     0.261 C 
BRANCH  37  38
ATOM     38  O   UNL A   1      36.468  32.641  33.223  1.00  0.00    -0.460 OA
BRANCH  38  39
ATOM     39  C   UNL A   1      37.327  33.510  32.652  1.00  0.00     0.338 C 
ATOM     40  O   UNL A   1      37.390  34.713  32.821  1.00  0.00    -0.246 OA
BRANCH  39  41
ATOM     41  C   UNL A   1      38.326  32.718  31.904  1.00  0.00     0.060 A 
ATOM     42  C   UNL A   1      39.213  31.892  32.609  1.00  0.00     0.016 A 
ATOM     43  C   UNL A   1      38.390  32.799  30.513  1.00  0.00     0.016 A 
ATOM     44  C   UNL A   1      40.192  31.172  31.925  1.00  0.00     0.010 A 
ATOM     45  C   UNL A   1      39.387  32.097  29.830  1.00  0.00     0.010 A 
ATOM     46  C   UNL A   1      40.315  31.311  30.537  1.00  0.00    -0.014 A 
BRANCH  46  47
ATOM     47  C   UNL A   1      41.532  30.810  29.856  1.00  0.00     0.031 A 
ATOM     48  C   UNL A   1      41.502  29.420  29.279  1.00  0.00     0.074 A 
ATOM     49  C   UNL A   1      42.632  31.573  29.726  1.00  0.00     0.049 A 
ATOM     50  N   UNL A   1      42.452  28.739  28.694  1.00  0.00    -0.248 NA
ATOM     51  C   UNL A   1      40.220  28.702  29.382  1.00  0.00     0.031 C 
ATOM     52  C   UNL A   1      42.765  32.949  30.197  1.00  0.00     0.029 A 
ATOM     53  N   UNL A   1      43.852  31.286  29.167  1.00  0.00    -0.354 N 
ATOM     54  C   UNL A   1      41.888  27.510  28.373  1.00  0.00     0.074 A 
ATOM     55  C   UNL A   1      40.525  27.528  28.852  1.00  0.00     0.031 C 
ATOM     56  C   UNL A   1      44.007  33.384  29.919  1.00  0.00     0.029 A 
ATOM     57  C   UNL A   1      44.765  32.303  29.288  1.00  0.00     0.049 A 
ATOM     58  H   UNL A   1      44.053  30.431  28.722  1.00  0.00     0.167 HD
ATOM     59  C   UNL A   1      42.457  26.464  27.729  1.00  0.00     0.037 A 
ATOM     60  C   UNL A   1      46.070  32.343  28.953  1.00  0.00     0.037 A 
ATOM     61  C   UNL A   1      43.815  26.452  27.253  1.00  0.00     0.049 A 
ATOM     62  C   UNL A   1      46.704  31.133  28.311  1.00  0.00     0.074 A 
ATOM     63  C   UNL A   1      44.481  25.450  26.570  1.00  0.00     0.029 A 
ATOM     64  N   UNL A   1      44.720  27.489  27.424  1.00  0.00    -0.354 N 
ATOM     65  N   UNL A   1      46.161  29.985  27.983  1.00  0.00    -0.248 NA
ATOM     66  C   UNL A   1      48.135  31.226  27.988  1.00  0.00     0.031 C 
ATOM     67  C   UNL A   1      45.807  25.853  26.389  1.00  0.00     0.029 A 
ATOM     68  C   UNL A   1      45.950  27.136  26.890  1.00  0.00     0.049 A 
ATOM     69  H   UNL A   1      44.520  28.349  27.860  1.00  0.00     0.167 HD
ATOM     70  C   UNL A   1      47.169  29.238  27.387  1.00  0.00     0.074 A 
ATOM     71  C   UNL A   1      48.355  30.068  27.385  1.00  0.00     0.031 C 
ATOM     72  C   UNL A   1      47.119  27.979  26.884  1.00  0.00     0.037 A 
BRANCH  59  73
ATOM     73  C   UNL A   1      41.625  25.229  27.536  1.00  0.00     0.064 A 
ATOM     74  C   UNL A   1      41.856  24.055  28.269  1.00  0.00     0.173 A 
ATOM     75  C   UNL A   1      40.558  25.232  26.625  1.00  0.00     0.173 A 
ATOM     76  F   UNL A   1      42.872  23.992  29.143  1.00  0.00    -0.203 F 
ATOM     77  C   UNL A   1      41.068  22.922  28.077  1.00  0.00     0.198 A 
ATOM     78  C   UNL A   1      39.750  24.110  26.461  1.00  0.00     0.198 A 
ATOM     79  F   UNL A   1      40.290  26.328  25.900  1.00  0.00    -0.203 F 
ATOM     80  F   UNL A   1      41.340  21.796  28.749  1.00  0.00    -0.200 F 
ATOM     81  C   UNL A   1      40.011  22.953  27.179  1.00  0.00     0.200 A 
ATOM     82  F   UNL A   1      38.720  24.148  25.604  1.00  0.00    -0.200 F 
ATOM     83  F   UNL A   1      39.247  21.867  27.002  1.00  0.00    -0.200 F 
ENDBRANCH  59  73
BRANCH  60  84
ATOM     84  C   UNL A   1      46.879  33.560  29.235  1.00  0.00     0.064 A 
ATOM     85  C   UNL A   1      47.504  33.745  30.476  1.00  0.00     0.173 A 
ATOM     86  C   UNL A   1      47.013  34.582  28.283  1.00  0.00     0.173 A 
ATOM     87  F   UNL A   1      47.385  32.811  31.431  1.00  0.00    -0.203 F 
ATOM     88  C   UNL A   1      48.209  34.914  30.762  1.00  0.00     0.198 A 
ATOM     89  C   UNL A   1      47.747  35.734  28.556  1.00  0.00     0.198 A 
ATOM     90  F   UNL A   1      46.431  34.460  27.080  1.00  0.00    -0.203 F 
ATOM     91  F   UNL A   1      48.747  35.088  31.977  1.00  0.00    -0.200 F 
ATOM     92  C   UNL A   1      48.335  35.903  29.800  1.00  0.00     0.200 A 
ATOM     93  F   UNL A   1      47.878  36.681  27.618  1.00  0.00    -0.200 F 
ATOM     94  F   UNL A   1      49.015  37.026  30.075  1.00  0.00    -0.200 F 
ENDBRANCH  60  84
BRANCH  72  95
ATOM     95  C   UNL A   1      48.365  27.435  26.241  1.00  0.00     0.064 A 
ATOM     96  C   UNL A   1      49.387  26.835  26.991  1.00  0.00     0.173 A 
ATOM     97  C   UNL A   1      48.516  27.477  24.846  1.00  0.00     0.173 A 
ATOM     98  F   UNL A   1      49.299  26.778  28.329  1.00  0.00    -0.203 F 
ATOM     99  C   UNL A   1      50.526  26.325  26.372  1.00  0.00     0.198 A 
ATOM    100  C   UNL A   1      49.639  26.933  24.227  1.00  0.00     0.198 A 
ATOM    101  F   UNL A   1      47.565  28.031  24.079  1.00  0.00    -0.203 F 
ATOM    102  F   UNL A   1      51.515  25.807  27.114  1.00  0.00    -0.200 F 
ATOM    103  C   UNL A   1      50.646  26.367  24.991  1.00  0.00     0.200 A 
ATOM    104  F   UNL A   1      49.743  26.957  22.891  1.00  0.00    -0.200 F 
ATOM    105  F   UNL A   1      51.739  25.868  24.396  1.00  0.00    -0.200 F 
ENDBRANCH  72  95
ENDBRANCH  46  47
ENDBRANCH  39  41
ENDBRANCH  38  39
ENDBRANCH  37  38
ENDBRANCH  36  37
ENDBRANCH  35  36
ENDBRANCH  34  35
ENDBRANCH  33  34
ENDBRANCH  32  33
ENDBRANCH   1  32
TORSDOF 24
ENDMDL
MODEL 3
REMARK VINA RESULT:     -10.4      5.031      8.784
REMARK SMILES O=C(CC1(C(=O)OCCOCCOCCOCCOC(=O)c2ccc(-c3c4nc(c(-c5c(F)c(F)c(F)c(F)c5F)c5ccc([nH]5)c(-c5c(F)c(F)c(F)c(F)c5F)c5nc(c(-c6c(F)c(F)c(F)c(F)c6F)c6ccc3[nH]6)C=C5)C=C4)cc2)CCCCC1)Nc1ccc(N2CCOC2=O)cc1
REMARK SMILES IDX 12 1 11 2 10 3 9 4 8 5 7 6 5 7 6 8 4 9 85 10 89 11 86 12
REMARK SMILES IDX 88 13 87 14 3 15 2 16 1 17 90 18 91 20 92 21 102 22 93 23
REMARK SMILES IDX 101 24 94 25 95 26 96 27 99 28 97 29 98 30 100 31 13 32
REMARK SMILES IDX 14 33 15 34 16 35 17 36 18 37 19 38 20 39 21 40 22 41 23 42
REMARK SMILES IDX 84 43 24 44 83 45 25 46 26 47 27 48 77 49 28 50 82 51 76 52
REMARK SMILES IDX 78 53 29 54 81 55 75 56 74 57 30 59 62 60 42 61 61 62 43 63
REMARK SMILES IDX 46 64 60 65 79 66 44 67 45 68 59 70 80 71 47 72 31 73 32 74
REMARK SMILES IDX 40 75 33 76 34 77 38 78 41 79 35 80 36 81 39 82 37 83 63 84
REMARK SMILES IDX 64 85 72 86 65 87 66 88 70 89 73 90 67 91 68 92 71 93 69 94
REMARK SMILES IDX 48 95 49 96 57 97 50 98 51 99 55 100 58 101 52 102 53 103
REMARK SMILES IDX 56 104 54 105
REMARK H PARENT 90 19 78 58 46 69
REMARK Flexibility Score: inf
ROOT
ATOM      1  C   UNL A   1      33.773  27.914  23.908  1.00  0.00     0.188 C 
ENDROOT
BRANCH   1   2
ATOM      2  C   UNL A   1      33.086  28.072  22.545  1.00  0.00     0.188 C 
BRANCH   2   3
ATOM      3  O   UNL A   1      33.467  27.081  21.615  1.00  0.00    -0.376 OA
BRANCH   3   4
ATOM      4  C   UNL A   1      32.611  25.976  21.409  1.00  0.00     0.202 C 
BRANCH   4   5
ATOM      5  C   UNL A   1      33.142  24.534  21.288  1.00  0.00     0.261 C 
BRANCH   5   6
ATOM      6  O   UNL A   1      32.764  23.583  22.298  1.00  0.00    -0.463 OA
BRANCH   6   7
ATOM      7  C   UNL A   1      33.172  23.852  23.553  1.00  0.00     0.312 C 
ATOM      8  O   UNL A   1      34.224  24.437  23.790  1.00  0.00    -0.252 OA
BRANCH   7   9
ATOM      9  C   UNL A   1      32.281  23.266  24.674  1.00  0.00     0.077 C 
ATOM     10  C   UNL A   1      30.831  23.551  24.186  1.00  0.00     0.019 C 
ATOM     11  C   UNL A   1      32.352  23.826  26.127  1.00  0.00     0.019 C 
ATOM     12  C   UNL A   1      30.435  25.027  24.328  1.00  0.00     0.001 C 
ATOM     13  C   UNL A   1      31.955  25.282  26.308  1.00  0.00     0.001 C 
ATOM     14  C   UNL A   1      30.564  25.533  25.756  1.00  0.00     0.000 C 
BRANCH   9  15
ATOM     15  C   UNL A   1      32.622  21.742  24.829  1.00  0.00     0.119 C 
BRANCH  15  16
ATOM     16  C   UNL A   1      33.915  21.315  25.514  1.00  0.00     0.225 C 
ATOM     17  O   UNL A   1      33.908  20.884  26.664  1.00  0.00    -0.275 OA
ATOM     18  N   UNL A   1      35.012  21.465  24.704  1.00  0.00    -0.326 N 
ATOM     19  H   UNL A   1      34.840  21.708  23.766  1.00  0.00     0.169 HD
BRANCH  18  20
ATOM     20  C   UNL A   1      36.346  21.307  25.078  1.00  0.00     0.041 A 
ATOM     21  C   UNL A   1      36.997  22.454  25.542  1.00  0.00     0.028 A 
ATOM     22  C   UNL A   1      37.031  20.103  24.977  1.00  0.00     0.028 A 
ATOM     23  C   UNL A   1      38.327  22.390  25.945  1.00  0.00     0.028 A 
ATOM     24  C   UNL A   1      38.394  20.068  25.275  1.00  0.00     0.028 A 
ATOM     25  C   UNL A   1      39.039  21.203  25.778  1.00  0.00     0.047 A 
BRANCH  25  26
ATOM     26  N   UNL A   1      40.391  21.141  26.135  1.00  0.00    -0.274 N 
ATOM     27  C   UNL A   1      41.151  22.275  26.547  1.00  0.00     0.171 C 
ATOM     28  C   UNL A   1      41.189  20.023  26.073  1.00  0.00     0.414 C 
ATOM     29  C   UNL A   1      42.364  21.617  27.154  1.00  0.00     0.257 C 
ATOM     30  O   UNL A   1      42.443  20.334  26.526  1.00  0.00    -0.447 OA
ATOM     31  O   UNL A   1      40.897  18.912  25.637  1.00  0.00    -0.224 OA
ENDBRANCH  25  26
ENDBRANCH  18  20
ENDBRANCH  15  16
ENDBRANCH   9  15
ENDBRANCH   7   9
ENDBRANCH   6   7
ENDBRANCH   5   6
ENDBRANCH   4   5
ENDBRANCH   3   4
ENDBRANCH   2   3
ENDBRANCH   1   2
BRANCH   1  32
ATOM     32  O   UNL A   1      33.000  28.005  25.099  1.00  0.00    -0.377 OA
BRANCH  32  33
ATOM     33  C   UNL A   1      33.458  28.823  26.176  1.00  0.00     0.188 C 
BRANCH  33  34
ATOM     34  C   UNL A   1      32.448  29.568  27.077  1.00  0.00     0.188 C 
BRANCH  34  35
ATOM     35  O   UNL A   1      32.875  30.839  27.526  1.00  0.00    -0.376 OA
BRANCH  35  36
ATOM     36  C   UNL A   1      32.150  31.978  27.095  1.00  0.00     0.202 C 
BRANCH  36  37
ATOM     37  C   UNL A   1      32.757  33.370  27.339  1.00  0.00     0.261 C 
BRANCH  37  38
ATOM     38  O   UNL A   1      32.254  34.106  28.467  1.00  0.00    -0.460 OA
BRANCH  38  39
ATOM     39  C   UNL A   1      32.969  35.164  28.903  1.00  0.00     0.338 C 
ATOM     40  O   UNL A   1      32.663  36.340  28.851  1.00  0.00    -0.246 OA
BRANCH  39  41
ATOM     41  C   UNL A   1      34.137  34.637  29.639  1.00  0.00     0.060 A 
ATOM     42  C   UNL A   1      35.400  34.664  29.030  1.00  0.00     0.016 A 
ATOM     43  C   UNL A   1      33.982  34.112  30.922  1.00  0.00     0.016 A 
ATOM     44  C   UNL A   1      36.506  34.131  29.691  1.00  0.00     0.010 A 
ATOM     45  C   UNL A   1      35.085  33.554  31.574  1.00  0.00     0.010 A 
ATOM     46  C   UNL A   1      36.344  33.528  30.945  1.00  0.00    -0.014 A 
BRANCH  46  47
ATOM     47  C   UNL A   1      37.432  32.689  31.501  1.00  0.00     0.031 A 
ATOM     48  C   UNL A   1      37.972  33.038  32.862  1.00  0.00     0.074 A 
ATOM     49  C   UNL A   1      37.916  31.629  30.831  1.00  0.00     0.049 A 
ATOM     50  N   UNL A   1      38.956  32.497  33.532  1.00  0.00    -0.248 NA
ATOM     51  C   UNL A   1      37.308  34.152  33.558  1.00  0.00     0.031 C 
ATOM     52  C   UNL A   1      37.442  31.162  29.532  1.00  0.00     0.029 A 
ATOM     53  N   UNL A   1      38.928  30.760  31.155  1.00  0.00    -0.354 N 
ATOM     54  C   UNL A   1      39.038  33.214  34.720  1.00  0.00     0.074 A 
ATOM     55  C   UNL A   1      38.025  34.244  34.667  1.00  0.00     0.031 C 
ATOM     56  C   UNL A   1      38.174  30.097  29.160  1.00  0.00     0.029 A 
ATOM     57  C   UNL A   1      39.192  29.833  30.177  1.00  0.00     0.049 A 
ATOM     58  H   UNL A   1      39.419  30.797  32.008  1.00  0.00     0.167 HD
ATOM     59  C   UNL A   1      39.880  33.024  35.763  1.00  0.00     0.037 A 
ATOM     60  C   UNL A   1      40.163  28.902  30.103  1.00  0.00     0.037 A 
ATOM     61  C   UNL A   1      40.885  31.996  35.810  1.00  0.00     0.049 A 
ATOM     62  C   UNL A   1      41.141  28.764  31.243  1.00  0.00     0.074 A 
ATOM     63  C   UNL A   1      41.774  31.706  36.830  1.00  0.00     0.029 A 
ATOM     64  N   UNL A   1      41.145  31.098  34.786  1.00  0.00    -0.354 N 
ATOM     65  N   UNL A   1      41.198  29.423  32.375  1.00  0.00    -0.248 NA
ATOM     66  C   UNL A   1      42.192  27.745  31.096  1.00  0.00     0.031 C 
ATOM     67  C   UNL A   1      42.616  30.678  36.395  1.00  0.00     0.029 A 
ATOM     68  C   UNL A   1      42.204  30.275  35.135  1.00  0.00     0.049 A 
ATOM     69  H   UNL A   1      40.650  31.051  33.936  1.00  0.00     0.167 HD
ATOM     70  C   UNL A   1      42.261  28.880  33.086  1.00  0.00     0.074 A 
ATOM     71  C   UNL A   1      42.813  27.824  32.264  1.00  0.00     0.031 C 
ATOM     72  C   UNL A   1      42.736  29.220  34.310  1.00  0.00     0.037 A 
BRANCH  59  73
ATOM     73  C   UNL A   1      39.776  33.972  36.923  1.00  0.00     0.064 A 
ATOM     74  C   UNL A   1      40.431  35.213  36.930  1.00  0.00     0.173 A 
ATOM     75  C   UNL A   1      38.981  33.646  38.033  1.00  0.00     0.173 A 
ATOM     76  F   UNL A   1      41.216  35.569  35.902  1.00  0.00    -0.203 F 
ATOM     77  C   UNL A   1      40.317  36.078  38.016  1.00  0.00     0.198 A 
ATOM     78  C   UNL A   1      38.841  34.528  39.100  1.00  0.00     0.198 A 
ATOM     79  F   UNL A   1      38.330  32.474  38.077  1.00  0.00    -0.203 F 
ATOM     80  F   UNL A   1      40.994  37.234  38.024  1.00  0.00    -0.200 F 
ATOM     81  C   UNL A   1      39.516  35.739  39.096  1.00  0.00     0.200 A 
ATOM     82  F   UNL A   1      38.053  34.204  40.136  1.00  0.00    -0.200 F 
ATOM     83  F   UNL A   1      39.398  36.577  40.135  1.00  0.00    -0.200 F 
ENDBRANCH  59  73
BRANCH  60  84
ATOM     84  C   UNL A   1      40.278  28.036  28.898  1.00  0.00     0.064 A 
ATOM     85  C   UNL A   1      39.655  26.781  28.842  1.00  0.00     0.173 A 
ATOM     86  C   UNL A   1      41.045  28.429  27.790  1.00  0.00     0.173 A 
ATOM     87  F   UNL A   1      38.933  26.346  29.885  1.00  0.00    -0.203 F 
ATOM     88  C   UNL A   1      39.814  25.945  27.738  1.00  0.00     0.198 A 
ATOM     89  C   UNL A   1      41.175  27.607  26.672  1.00  0.00     0.198 A 
ATOM     90  F   UNL A   1      41.667  29.617  27.791  1.00  0.00    -0.203 F 
ATOM     91  F   UNL A   1      39.254  24.727  27.738  1.00  0.00    -0.200 F 
ATOM     92  C   UNL A   1      40.568  26.360  26.653  1.00  0.00     0.200 A 
ATOM     93  F   UNL A   1      41.893  28.020  25.619  1.00  0.00    -0.200 F 
ATOM     94  F   UNL A   1      40.719  25.556  25.590  1.00  0.00    -0.200 F 
ENDBRANCH  60  84
BRANCH  72  95
ATOM     95  C   UNL A   1      43.879  28.413  34.862  1.00  0.00     0.064 A 
ATOM     96  C   UNL A   1      45.216  28.790  34.668  1.00  0.00     0.173 A 
ATOM     97  C   UNL A   1      43.628  27.270  35.637  1.00  0.00     0.173 A 
ATOM     98  F   UNL A   1      45.514  29.868  33.927  1.00  0.00    -0.203 F 
ATOM     99  C   UNL A   1      46.259  28.036  35.202  1.00  0.00     0.198 A 
ATOM    100  C   UNL A   1      44.670  26.539  36.201  1.00  0.00     0.198 A 
ATOM    101  F   UNL A   1      42.368  26.870  35.863  1.00  0.00    -0.203 F 
ATOM    102  F   UNL A   1      47.529  28.383  34.956  1.00  0.00    -0.200 F 
ATOM    103  C   UNL A   1      45.984  26.917  35.974  1.00  0.00     0.200 A 
ATOM    104  F   UNL A   1      44.401  25.470  36.963  1.00  0.00    -0.200 F 
ATOM    105  F   UNL A   1      46.988  26.197  36.495  1.00  0.00    -0.200 F 
ENDBRANCH  72  95
ENDBRANCH  46  47
ENDBRANCH  39  41
ENDBRANCH  38  39
ENDBRANCH  37  38
ENDBRANCH  36  37
ENDBRANCH  35  36
ENDBRANCH  34  35
ENDBRANCH  33  34
ENDBRANCH  32  33
ENDBRANCH   1  32
TORSDOF 24
ENDMDL
