MODEL 1
REMARK VINA RESULT:     -10.7      0.000      0.000
REMARK SMILES NS(=O)(=O)c1ccc(-n2ccnc2-c2ccc(O)c(C(=O)OCCOCCOCCOCCOC(=O)c3ccc(-c4c5nc(c(-c6c(F)c(F)c(F)c(F)c6F)c6ccc([nH]6)c(-c6c(F)c(F)c(F)c(F)c6F)c6nc(c(-c7c(F)c(F)c(F)c(F)c7F)c7ccc4[nH]7)C=C6)C=C5)cc3)c2)cc1
REMARK SMILES IDX 27 1 26 2 25 3 24 4 23 5 22 6 20 7 21 8 19 9 14 10 15 11
REMARK SMILES IDX 100 12 16 13 17 14 13 15 9 16 10 17 11 18 12 19 8 20 5 21
REMARK SMILES IDX 6 22 102 23 7 24 101 25 2 26 3 27 4 28 1 29 18 32 28 34
REMARK SMILES IDX 29 35 30 36 31 37 32 38 33 39 34 40 35 41 36 42 37 43 38 44
REMARK SMILES IDX 99 45 39 46 98 47 40 48 41 49 42 50 92 51 43 52 97 53 91 54
REMARK SMILES IDX 93 55 44 56 96 57 90 58 89 59 45 61 77 62 57 63 76 64 58 65
REMARK SMILES IDX 61 66 75 67 94 68 59 69 60 70 74 72 95 73 62 74 46 75 47 76
REMARK SMILES IDX 55 77 48 78 49 79 53 80 56 81 50 82 51 83 54 84 52 85 78 86
REMARK SMILES IDX 79 87 87 88 80 89 81 90 85 91 88 92 82 93 83 94 86 95 84 96
REMARK SMILES IDX 63 97 64 98 72 99 65 100 66 101 70 102 73 103 67 104 68 105
REMARK SMILES IDX 71 106 69 107
REMARK H PARENT 1 30 1 31 18 33 93 60 61 71
REMARK Flexibility Score: inf
ROOT
ATOM      1  C   UNL A   1      40.811  19.934  26.898  1.00  0.00     0.188 C 
ENDROOT
BRANCH   1   2
ATOM      2  C   UNL A   1      40.603  21.440  26.643  1.00  0.00     0.188 C 
BRANCH   2   3
ATOM      3  O   UNL A   1      39.277  21.764  26.242  1.00  0.00    -0.376 OA
BRANCH   3   4
ATOM      4  C   UNL A   1      38.879  23.115  26.394  1.00  0.00     0.202 C 
BRANCH   4   5
ATOM      5  C   UNL A   1      37.554  23.457  25.705  1.00  0.00     0.261 C 
BRANCH   5   6
ATOM      6  O   UNL A   1      36.504  22.492  25.891  1.00  0.00    -0.460 OA
BRANCH   6   7
ATOM      7  C   UNL A   1      36.279  21.594  24.908  1.00  0.00     0.342 C 
ATOM      8  O   UNL A   1      36.975  20.639  24.600  1.00  0.00    -0.246 OA
BRANCH   7   9
ATOM      9  C   UNL A   1      34.910  21.792  24.382  1.00  0.00     0.102 A 
ATOM     10  C   UNL A   1      33.367  23.066  22.986  1.00  0.00     0.019 A 
ATOM     11  C   UNL A   1      32.333  22.210  23.379  1.00  0.00     0.016 A 
ATOM     12  C   UNL A   1      34.632  22.892  23.566  1.00  0.00     0.031 A 
ATOM     13  C   UNL A   1      32.584  21.150  24.259  1.00  0.00     0.048 A 
ATOM     14  C   UNL A   1      33.877  20.921  24.730  1.00  0.00     0.130 A 
BRANCH  10  15
ATOM     15  C   UNL A   1      33.145  24.108  21.970  1.00  0.00     0.144 A 
ATOM     16  N   UNL A   1      32.722  25.414  22.242  1.00  0.00    -0.300 N 
ATOM     17  C   UNL A   1      32.362  25.972  21.039  1.00  0.00     0.113 A 
ATOM     18  C   UNL A   1      32.749  25.063  20.085  1.00  0.00     0.132 A 
ATOM     19  N   UNL A   1      33.243  23.926  20.664  1.00  0.00    -0.236 NA
BRANCH  16  20
ATOM     20  C   UNL A   1      32.607  26.033  23.514  1.00  0.00     0.047 A 
ATOM     21  C   UNL A   1      32.237  27.657  25.736  1.00  0.00     0.082 A 
ATOM     22  C   UNL A   1      31.172  26.882  25.271  1.00  0.00     0.024 A 
ATOM     23  C   UNL A   1      33.499  27.584  25.131  1.00  0.00     0.024 A 
ATOM     24  C   UNL A   1      31.358  26.066  24.156  1.00  0.00     0.028 A 
ATOM     25  C   UNL A   1      33.695  26.750  24.028  1.00  0.00     0.028 A 
BRANCH  21  26
ATOM     26  S   UNL A   1      31.972  28.801  27.058  1.00  0.00     0.238 S 
ATOM     27  O   UNL A   1      31.067  28.220  28.019  1.00  0.00    -0.207 OA
ATOM     28  O   UNL A   1      31.773  30.115  26.488  1.00  0.00    -0.207 OA
BRANCH  26  29
ATOM     29  N   UNL A   1      33.470  28.830  27.813  1.00  0.00    -0.225 NA
ATOM     30  H   UNL A   1      33.503  28.106  28.531  1.00  0.00     0.137 HD
ATOM     31  H   UNL A   1      33.615  29.744  28.246  1.00  0.00     0.137 HD
ENDBRANCH  26  29
ENDBRANCH  21  26
ENDBRANCH  16  20
ENDBRANCH  10  15
BRANCH  14  32
ATOM     32  O   UNL A   1      34.050  19.849  25.561  1.00  0.00    -0.507 OA
ATOM     33  H   UNL A   1      33.307  19.444  25.966  1.00  0.00     0.293 HD
ENDBRANCH  14  32
ENDBRANCH   7   9
ENDBRANCH   6   7
ENDBRANCH   5   6
ENDBRANCH   4   5
ENDBRANCH   3   4
ENDBRANCH   2   3
ENDBRANCH   1   2
BRANCH   1  34
ATOM     34  O   UNL A   1      42.119  19.398  26.780  1.00  0.00    -0.377 OA
BRANCH  34  35
ATOM     35  C   UNL A   1      42.821  19.508  25.546  1.00  0.00     0.188 C 
BRANCH  35  36
ATOM     36  C   UNL A   1      44.120  20.343  25.379  1.00  0.00     0.188 C 
BRANCH  36  37
ATOM     37  O   UNL A   1      44.271  21.025  24.141  1.00  0.00    -0.376 OA
BRANCH  37  38
ATOM     38  C   UNL A   1      44.507  22.420  24.149  1.00  0.00     0.202 C 
BRANCH  38  39
ATOM     39  C   UNL A   1      43.953  23.101  25.395  1.00  0.00     0.261 C 
BRANCH  39  40
ATOM     40  O   UNL A   1      43.503  24.423  25.141  1.00  0.00    -0.460 OA
BRANCH  40  41
ATOM     41  C   UNL A   1      42.866  25.013  26.169  1.00  0.00     0.338 C 
ATOM     42  O   UNL A   1      42.035  24.519  26.910  1.00  0.00    -0.246 OA
BRANCH  41  43
ATOM     43  C   UNL A   1      43.227  26.431  26.190  1.00  0.00     0.060 A 
ATOM     44  C   UNL A   1      44.078  26.806  27.228  1.00  0.00     0.016 A 
ATOM     45  C   UNL A   1      42.433  27.350  25.488  1.00  0.00     0.016 A 
ATOM     46  C   UNL A   1      43.888  28.045  27.780  1.00  0.00     0.010 A 
ATOM     47  C   UNL A   1      42.233  28.585  26.050  1.00  0.00     0.010 A 
ATOM     48  C   UNL A   1      42.878  28.858  27.251  1.00  0.00    -0.014 A 
BRANCH  48  49
ATOM     49  C   UNL A   1      42.487  29.990  28.054  1.00  0.00     0.031 A 
ATOM     50  C   UNL A   1      43.427  31.119  28.007  1.00  0.00     0.074 A 
ATOM     51  C   UNL A   1      41.344  29.996  28.762  1.00  0.00     0.049 A 
ATOM     52  N   UNL A   1      44.089  31.641  28.984  1.00  0.00    -0.248 NA
ATOM     53  C   UNL A   1      43.746  31.665  26.682  1.00  0.00     0.031 C 
ATOM     54  C   UNL A   1      40.212  29.070  28.674  1.00  0.00     0.029 A 
ATOM     55  N   UNL A   1      40.922  30.926  29.658  1.00  0.00    -0.354 N 
ATOM     56  C   UNL A   1      44.795  32.695  28.424  1.00  0.00     0.074 A 
ATOM     57  C   UNL A   1      44.651  32.589  26.994  1.00  0.00     0.031 C 
ATOM     58  C   UNL A   1      39.155  29.610  29.322  1.00  0.00     0.029 A 
ATOM     59  C   UNL A   1      39.575  30.848  29.959  1.00  0.00     0.049 A 
ATOM     60  H   UNL A   1      41.524  31.596  30.058  1.00  0.00     0.167 HD
ATOM     61  C   UNL A   1      45.262  33.714  29.189  1.00  0.00     0.037 A 
ATOM     62  C   UNL A   1      38.852  31.794  30.601  1.00  0.00     0.037 A 
ATOM     63  C   UNL A   1      45.415  33.329  30.566  1.00  0.00     0.049 A 
ATOM     64  C   UNL A   1      39.800  32.678  31.329  1.00  0.00     0.074 A 
ATOM     65  C   UNL A   1      46.154  32.358  31.216  1.00  0.00     0.029 A 
ATOM     66  N   UNL A   1      44.493  33.765  31.484  1.00  0.00    -0.354 N 
ATOM     67  N   UNL A   1      40.481  32.323  32.382  1.00  0.00    -0.248 NA
ATOM     68  C   UNL A   1      40.300  33.859  30.635  1.00  0.00     0.031 C 
ATOM     69  C   UNL A   1      45.345  31.938  32.311  1.00  0.00     0.029 A 
ATOM     70  C   UNL A   1      44.170  32.690  32.272  1.00  0.00     0.049 A 
ATOM     71  H   UNL A   1      44.131  34.678  31.562  1.00  0.00     0.167 HD
ATOM     72  C   UNL A   1      41.704  32.966  32.249  1.00  0.00     0.074 A 
ATOM     73  C   UNL A   1      41.493  33.979  31.222  1.00  0.00     0.031 C 
ATOM     74  C   UNL A   1      42.843  32.434  32.779  1.00  0.00     0.037 A 
BRANCH  61  75
ATOM     75  C   UNL A   1      45.248  35.141  28.722  1.00  0.00     0.064 A 
ATOM     76  C   UNL A   1      44.039  35.719  28.298  1.00  0.00     0.173 A 
ATOM     77  C   UNL A   1      46.420  35.868  28.412  1.00  0.00     0.173 A 
ATOM     78  F   UNL A   1      42.873  35.092  28.509  1.00  0.00    -0.203 F 
ATOM     79  C   UNL A   1      44.012  36.911  27.570  1.00  0.00     0.198 A 
ATOM     80  C   UNL A   1      46.385  37.085  27.739  1.00  0.00     0.198 A 
ATOM     81  F   UNL A   1      47.644  35.380  28.648  1.00  0.00    -0.203 F 
ATOM     82  F   UNL A   1      42.851  37.363  27.082  1.00  0.00    -0.200 F 
ATOM     83  C   UNL A   1      45.185  37.592  27.291  1.00  0.00     0.200 A 
ATOM     84  F   UNL A   1      47.534  37.718  27.461  1.00  0.00    -0.200 F 
ATOM     85  F   UNL A   1      45.165  38.705  26.547  1.00  0.00    -0.200 F 
ENDBRANCH  61  75
BRANCH  62  86
ATOM     86  C   UNL A   1      37.433  32.153  30.382  1.00  0.00     0.064 A 
ATOM     87  C   UNL A   1      36.472  31.941  31.382  1.00  0.00     0.173 A 
ATOM     88  C   UNL A   1      37.032  32.940  29.284  1.00  0.00     0.173 A 
ATOM     89  F   UNL A   1      36.788  31.247  32.485  1.00  0.00    -0.203 F 
ATOM     90  C   UNL A   1      35.192  32.498  31.296  1.00  0.00     0.198 A 
ATOM     91  C   UNL A   1      35.750  33.482  29.192  1.00  0.00     0.198 A 
ATOM     92  F   UNL A   1      37.902  33.282  28.323  1.00  0.00    -0.203 F 
ATOM     93  F   UNL A   1      34.322  32.327  32.302  1.00  0.00    -0.200 F 
ATOM     94  C   UNL A   1      34.835  33.271  30.205  1.00  0.00     0.200 A 
ATOM     95  F   UNL A   1      35.431  34.257  28.146  1.00  0.00    -0.200 F 
ATOM     96  F   UNL A   1      33.627  33.848  30.147  1.00  0.00    -0.200 F 
ENDBRANCH  62  86
BRANCH  74  97
ATOM     97  C   UNL A   1      42.693  31.302  33.755  1.00  0.00     0.064 A 
ATOM     98  C   UNL A   1      42.625  31.481  35.148  1.00  0.00     0.173 A 
ATOM     99  C   UNL A   1      42.477  30.010  33.258  1.00  0.00     0.173 A 
ATOM    100  F   UNL A   1      42.711  32.704  35.690  1.00  0.00    -0.203 F 
ATOM    101  C   UNL A   1      42.410  30.403  36.004  1.00  0.00     0.198 A 
ATOM    102  C   UNL A   1      42.224  28.941  34.114  1.00  0.00     0.198 A 
ATOM    103  F   UNL A   1      42.467  29.790  31.934  1.00  0.00    -0.203 F 
ATOM    104  F   UNL A   1      42.369  30.596  37.331  1.00  0.00    -0.200 F 
ATOM    105  C   UNL A   1      42.205  29.136  35.486  1.00  0.00     0.200 A 
ATOM    106  F   UNL A   1      41.974  27.725  33.607  1.00  0.00    -0.200 F 
ATOM    107  F   UNL A   1      41.960  28.105  36.308  1.00  0.00    -0.200 F 
ENDBRANCH  74  97
ENDBRANCH  48  49
ENDBRANCH  41  43
ENDBRANCH  40  41
ENDBRANCH  39  40
ENDBRANCH  38  39
ENDBRANCH  37  38
ENDBRANCH  36  37
ENDBRANCH  35  36
ENDBRANCH  34  35
ENDBRANCH   1  34
TORSDOF 25
ENDMDL
MODEL 2
REMARK VINA RESULT:     -10.3      3.101      7.279
REMARK SMILES NS(=O)(=O)c1ccc(-n2ccnc2-c2ccc(O)c(C(=O)OCCOCCOCCOCCOC(=O)c3ccc(-c4c5nc(c(-c6c(F)c(F)c(F)c(F)c6F)c6ccc([nH]6)c(-c6c(F)c(F)c(F)c(F)c6F)c6nc(c(-c7c(F)c(F)c(F)c(F)c7F)c7ccc4[nH]7)C=C6)C=C5)cc3)c2)cc1
REMARK SMILES IDX 27 1 26 2 25 3 24 4 23 5 22 6 20 7 21 8 19 9 14 10 15 11
REMARK SMILES IDX 100 12 16 13 17 14 13 15 9 16 10 17 11 18 12 19 8 20 5 21
REMARK SMILES IDX 6 22 102 23 7 24 101 25 2 26 3 27 4 28 1 29 18 32 28 34
REMARK SMILES IDX 29 35 30 36 31 37 32 38 33 39 34 40 35 41 36 42 37 43 38 44
REMARK SMILES IDX 99 45 39 46 98 47 40 48 41 49 42 50 92 51 43 52 97 53 91 54
REMARK SMILES IDX 93 55 44 56 96 57 90 58 89 59 45 61 77 62 57 63 76 64 58 65
REMARK SMILES IDX 61 66 75 67 94 68 59 69 60 70 74 72 95 73 62 74 46 75 47 76
REMARK SMILES IDX 55 77 48 78 49 79 53 80 56 81 50 82 51 83 54 84 52 85 78 86
REMARK SMILES IDX 79 87 87 88 80 89 81 90 85 91 88 92 82 93 83 94 86 95 84 96
REMARK SMILES IDX 63 97 64 98 72 99 65 100 66 101 70 102 73 103 67 104 68 105
REMARK SMILES IDX 71 106 69 107
REMARK H PARENT 1 30 1 31 18 33 93 60 61 71
REMARK Flexibility Score: inf
ROOT
ATOM      1  C   UNL A   1      40.885  19.894  26.815  1.00  0.00     0.188 C 
ENDROOT
BRANCH   1   2
ATOM      2  C   UNL A   1      40.683  21.416  26.957  1.00  0.00     0.188 C 
BRANCH   2   3
ATOM      3  O   UNL A   1      39.472  21.878  26.372  1.00  0.00    -0.376 OA
BRANCH   3   4
ATOM      4  C   UNL A   1      39.112  23.222  26.634  1.00  0.00     0.202 C 
BRANCH   4   5
ATOM      5  C   UNL A   1      37.820  23.669  25.941  1.00  0.00     0.261 C 
BRANCH   5   6
ATOM      6  O   UNL A   1      36.706  22.773  26.092  1.00  0.00    -0.460 OA
BRANCH   6   7
ATOM      7  C   UNL A   1      36.424  21.927  25.078  1.00  0.00     0.342 C 
ATOM      8  O   UNL A   1      36.961  20.859  24.829  1.00  0.00    -0.246 OA
BRANCH   7   9
ATOM      9  C   UNL A   1      35.177  22.372  24.416  1.00  0.00     0.102 A 
ATOM     10  C   UNL A   1      32.771  22.758  24.525  1.00  0.00     0.019 A 
ATOM     11  C   UNL A   1      32.797  23.189  23.195  1.00  0.00     0.016 A 
ATOM     12  C   UNL A   1      33.958  22.272  25.091  1.00  0.00     0.031 A 
ATOM     13  C   UNL A   1      34.002  23.219  22.482  1.00  0.00     0.048 A 
ATOM     14  C   UNL A   1      35.194  22.846  23.103  1.00  0.00     0.130 A 
BRANCH  10  15
ATOM     15  C   UNL A   1      31.536  22.834  25.324  1.00  0.00     0.144 A 
ATOM     16  N   UNL A   1      31.020  24.005  25.890  1.00  0.00    -0.300 N 
ATOM     17  C   UNL A   1      30.044  23.619  26.777  1.00  0.00     0.113 A 
ATOM     18  C   UNL A   1      29.884  22.269  26.578  1.00  0.00     0.132 A 
ATOM     19  N   UNL A   1      30.794  21.796  25.672  1.00  0.00    -0.236 NA
BRANCH  16  20
ATOM     20  C   UNL A   1      31.459  25.335  25.664  1.00  0.00     0.047 A 
ATOM     21  C   UNL A   1      31.998  28.058  25.603  1.00  0.00     0.082 A 
ATOM     22  C   UNL A   1      32.776  27.226  26.411  1.00  0.00     0.024 A 
ATOM     23  C   UNL A   1      30.989  27.531  24.785  1.00  0.00     0.024 A 
ATOM     24  C   UNL A   1      32.506  25.859  26.440  1.00  0.00     0.028 A 
ATOM     25  C   UNL A   1      30.731  26.158  24.795  1.00  0.00     0.028 A 
BRANCH  21  26
ATOM     26  S   UNL A   1      32.238  29.809  25.667  1.00  0.00     0.238 S 
ATOM     27  O   UNL A   1      32.933  30.153  26.883  1.00  0.00    -0.207 OA
ATOM     28  O   UNL A   1      31.009  30.451  25.257  1.00  0.00    -0.207 OA
BRANCH  26  29
ATOM     29  N   UNL A   1      33.344  30.066  24.431  1.00  0.00    -0.225 NA
ATOM     30  H   UNL A   1      32.869  30.483  23.631  1.00  0.00     0.137 HD
ATOM     31  H   UNL A   1      33.757  29.174  24.154  1.00  0.00     0.137 HD
ENDBRANCH  26  29
ENDBRANCH  21  26
ENDBRANCH  16  20
ENDBRANCH  10  15
BRANCH  14  32
ATOM     32  O   UNL A   1      36.334  22.931  22.353  1.00  0.00    -0.507 OA
ATOM     33  H   UNL A   1      36.459  22.355  21.623  1.00  0.00     0.293 HD
ENDBRANCH  14  32
ENDBRANCH   7   9
ENDBRANCH   6   7
ENDBRANCH   5   6
ENDBRANCH   4   5
ENDBRANCH   3   4
ENDBRANCH   2   3
ENDBRANCH   1   2
BRANCH   1  34
ATOM     34  O   UNL A   1      41.674  19.409  25.740  1.00  0.00    -0.377 OA
BRANCH  34  35
ATOM     35  C   UNL A   1      43.083  19.619  25.743  1.00  0.00     0.188 C 
BRANCH  35  36
ATOM     36  C   UNL A   1      44.111  18.500  25.423  1.00  0.00     0.188 C 
BRANCH  36  37
ATOM     37  O   UNL A   1      45.215  18.877  24.612  1.00  0.00    -0.376 OA
BRANCH  37  38
ATOM     38  C   UNL A   1      46.259  19.642  25.183  1.00  0.00     0.202 C 
BRANCH  38  39
ATOM     39  C   UNL A   1      46.419  21.004  24.517  1.00  0.00     0.261 C 
BRANCH  39  40
ATOM     40  O   UNL A   1      45.970  22.070  25.340  1.00  0.00    -0.460 OA
BRANCH  40  41
ATOM     41  C   UNL A   1      45.913  23.269  24.732  1.00  0.00     0.338 C 
ATOM     42  O   UNL A   1      46.705  23.736  23.933  1.00  0.00    -0.246 OA
BRANCH  41  43
ATOM     43  C   UNL A   1      44.789  24.022  25.290  1.00  0.00     0.060 A 
ATOM     44  C   UNL A   1      44.990  25.399  25.380  1.00  0.00     0.016 A 
ATOM     45  C   UNL A   1      43.817  23.345  26.043  1.00  0.00     0.016 A 
ATOM     46  C   UNL A   1      44.445  26.044  26.458  1.00  0.00     0.010 A 
ATOM     47  C   UNL A   1      43.285  23.988  27.130  1.00  0.00     0.010 A 
ATOM     48  C   UNL A   1      43.706  25.290  27.378  1.00  0.00    -0.014 A 
BRANCH  48  49
ATOM     49  C   UNL A   1      43.441  25.918  28.648  1.00  0.00     0.031 A 
ATOM     50  C   UNL A   1      42.273  26.811  28.651  1.00  0.00     0.074 A 
ATOM     51  C   UNL A   1      44.202  25.679  29.730  1.00  0.00     0.049 A 
ATOM     52  N   UNL A   1      42.242  28.077  28.896  1.00  0.00    -0.248 NA
ATOM     53  C   UNL A   1      40.993  26.232  28.220  1.00  0.00     0.031 C 
ATOM     54  C   UNL A   1      45.198  24.623  29.928  1.00  0.00     0.029 A 
ATOM     55  N   UNL A   1      44.152  26.297  30.939  1.00  0.00    -0.354 N 
ATOM     56  C   UNL A   1      40.904  28.434  28.809  1.00  0.00     0.074 A 
ATOM     57  C   UNL A   1      40.199  27.299  28.269  1.00  0.00     0.031 C 
ATOM     58  C   UNL A   1      45.495  24.545  31.245  1.00  0.00     0.029 A 
ATOM     59  C   UNL A   1      44.802  25.612  31.949  1.00  0.00     0.049 A 
ATOM     60  H   UNL A   1      43.693  27.157  31.083  1.00  0.00     0.167 HD
ATOM     61  C   UNL A   1      40.437  29.561  29.401  1.00  0.00     0.037 A 
ATOM     62  C   UNL A   1      44.687  25.860  33.274  1.00  0.00     0.037 A 
ATOM     63  C   UNL A   1      41.478  30.528  29.620  1.00  0.00     0.049 A 
ATOM     64  C   UNL A   1      44.150  27.237  33.437  1.00  0.00     0.074 A 
ATOM     65  C   UNL A   1      42.359  31.197  28.790  1.00  0.00     0.029 A 
ATOM     66  N   UNL A   1      41.969  30.699  30.890  1.00  0.00    -0.354 N 
ATOM     67  N   UNL A   1      44.819  28.325  33.177  1.00  0.00    -0.248 NA
ATOM     68  C   UNL A   1      42.704  27.399  33.514  1.00  0.00     0.031 C 
ATOM     69  C   UNL A   1      43.561  31.329  29.544  1.00  0.00     0.029 A 
ATOM     70  C   UNL A   1      43.336  30.747  30.791  1.00  0.00     0.049 A 
ATOM     71  H   UNL A   1      41.439  30.772  31.718  1.00  0.00     0.167 HD
ATOM     72  C   UNL A   1      43.878  29.205  32.658  1.00  0.00     0.074 A 
ATOM     73  C   UNL A   1      42.585  28.623  32.994  1.00  0.00     0.031 C 
ATOM     74  C   UNL A   1      44.234  30.172  31.764  1.00  0.00     0.037 A 
BRANCH  61  75
ATOM     75  C   UNL A   1      39.095  29.619  30.074  1.00  0.00     0.064 A 
ATOM     76  C   UNL A   1      38.173  30.608  29.694  1.00  0.00     0.173 A 
ATOM     77  C   UNL A   1      38.793  28.919  31.265  1.00  0.00     0.173 A 
ATOM     78  F   UNL A   1      38.386  31.356  28.601  1.00  0.00    -0.203 F 
ATOM     79  C   UNL A   1      37.058  30.911  30.480  1.00  0.00     0.198 A 
ATOM     80  C   UNL A   1      37.650  29.182  32.013  1.00  0.00     0.198 A 
ATOM     81  F   UNL A   1      39.641  28.036  31.807  1.00  0.00    -0.203 F 
ATOM     82  F   UNL A   1      36.272  31.942  30.145  1.00  0.00    -0.200 F 
ATOM     83  C   UNL A   1      36.798  30.198  31.638  1.00  0.00     0.200 A 
ATOM     84  F   UNL A   1      37.428  28.494  33.141  1.00  0.00    -0.200 F 
ATOM     85  F   UNL A   1      35.761  30.524  32.419  1.00  0.00    -0.200 F 
ENDBRANCH  61  75
BRANCH  62  86
ATOM     86  C   UNL A   1      44.729  24.882  34.385  1.00  0.00     0.064 A 
ATOM     87  C   UNL A   1      44.246  23.576  34.216  1.00  0.00     0.173 A 
ATOM     88  C   UNL A   1      45.472  25.129  35.557  1.00  0.00     0.173 A 
ATOM     89  F   UNL A   1      43.574  23.245  33.104  1.00  0.00    -0.203 F 
ATOM     90  C   UNL A   1      44.503  22.574  35.155  1.00  0.00     0.198 A 
ATOM     91  C   UNL A   1      45.715  24.131  36.501  1.00  0.00     0.198 A 
ATOM     92  F   UNL A   1      46.060  26.315  35.767  1.00  0.00    -0.203 F 
ATOM     93  F   UNL A   1      44.079  21.322  34.928  1.00  0.00    -0.200 F 
ATOM     94  C   UNL A   1      45.242  22.851  36.293  1.00  0.00     0.200 A 
ATOM     95  F   UNL A   1      46.461  24.407  37.580  1.00  0.00    -0.200 F 
ATOM     96  F   UNL A   1      45.533  21.878  37.167  1.00  0.00    -0.200 F 
ENDBRANCH  62  86
BRANCH  74  97
ATOM     97  C   UNL A   1      45.699  30.450  31.587  1.00  0.00     0.064 A 
ATOM     98  C   UNL A   1      46.528  29.728  30.711  1.00  0.00     0.173 A 
ATOM     99  C   UNL A   1      46.253  31.567  32.227  1.00  0.00     0.173 A 
ATOM    100  F   UNL A   1      46.040  28.716  29.980  1.00  0.00    -0.203 F 
ATOM    101  C   UNL A   1      47.865  30.076  30.530  1.00  0.00     0.198 A 
ATOM    102  C   UNL A   1      47.579  31.936  32.016  1.00  0.00     0.198 A 
ATOM    103  F   UNL A   1      45.492  32.332  33.027  1.00  0.00    -0.203 F 
ATOM    104  F   UNL A   1      48.640  29.360  29.703  1.00  0.00    -0.200 F 
ATOM    105  C   UNL A   1      48.387  31.183  31.179  1.00  0.00     0.200 A 
ATOM    106  F   UNL A   1      48.067  33.037  32.604  1.00  0.00    -0.200 F 
ATOM    107  F   UNL A   1      49.664  31.540  30.976  1.00  0.00    -0.200 F 
ENDBRANCH  74  97
ENDBRANCH  48  49
ENDBRANCH  41  43
ENDBRANCH  40  41
ENDBRANCH  39  40
ENDBRANCH  38  39
ENDBRANCH  37  38
ENDBRANCH  36  37
ENDBRANCH  35  36
ENDBRANCH  34  35
ENDBRANCH   1  34
TORSDOF 25
ENDMDL
MODEL 3
REMARK VINA RESULT:     -10.1      2.262      6.797
REMARK SMILES NS(=O)(=O)c1ccc(-n2ccnc2-c2ccc(O)c(C(=O)OCCOCCOCCOCCOC(=O)c3ccc(-c4c5nc(c(-c6c(F)c(F)c(F)c(F)c6F)c6ccc([nH]6)c(-c6c(F)c(F)c(F)c(F)c6F)c6nc(c(-c7c(F)c(F)c(F)c(F)c7F)c7ccc4[nH]7)C=C6)C=C5)cc3)c2)cc1
REMARK SMILES IDX 27 1 26 2 25 3 24 4 23 5 22 6 20 7 21 8 19 9 14 10 15 11
REMARK SMILES IDX 100 12 16 13 17 14 13 15 9 16 10 17 11 18 12 19 8 20 5 21
REMARK SMILES IDX 6 22 102 23 7 24 101 25 2 26 3 27 4 28 1 29 18 32 28 34
REMARK SMILES IDX 29 35 30 36 31 37 32 38 33 39 34 40 35 41 36 42 37 43 38 44
REMARK SMILES IDX 99 45 39 46 98 47 40 48 41 49 42 50 92 51 43 52 97 53 91 54
REMARK SMILES IDX 93 55 44 56 96 57 90 58 89 59 45 61 77 62 57 63 76 64 58 65
REMARK SMILES IDX 61 66 75 67 94 68 59 69 60 70 74 72 95 73 62 74 46 75 47 76
REMARK SMILES IDX 55 77 48 78 49 79 53 80 56 81 50 82 51 83 54 84 52 85 78 86
REMARK SMILES IDX 79 87 87 88 80 89 81 90 85 91 88 92 82 93 83 94 86 95 84 96
REMARK SMILES IDX 63 97 64 98 72 99 65 100 66 101 70 102 73 103 67 104 68 105
REMARK SMILES IDX 71 106 69 107
REMARK H PARENT 1 30 1 31 18 33 93 60 61 71
REMARK Flexibility Score: inf
ROOT
ATOM      1  C   UNL A   1      40.427  19.682  26.174  1.00  0.00     0.188 C 
ENDROOT
BRANCH   1   2
ATOM      2  C   UNL A   1      40.289  21.194  26.442  1.00  0.00     0.188 C 
BRANCH   2   3
ATOM      3  O   UNL A   1      38.999  21.704  26.131  1.00  0.00    -0.376 OA
BRANCH   3   4
ATOM      4  C   UNL A   1      38.835  23.110  26.206  1.00  0.00     0.202 C 
BRANCH   4   5
ATOM      5  C   UNL A   1      37.417  23.592  25.881  1.00  0.00     0.261 C 
BRANCH   5   6
ATOM      6  O   UNL A   1      36.376  22.631  26.127  1.00  0.00    -0.460 OA
BRANCH   6   7
ATOM      7  C   UNL A   1      35.954  21.868  25.097  1.00  0.00     0.342 C 
ATOM      8  O   UNL A   1      36.376  20.773  24.761  1.00  0.00    -0.246 OA
BRANCH   7   9
ATOM      9  C   UNL A   1      34.711  22.452  24.545  1.00  0.00     0.102 A 
ATOM     10  C   UNL A   1      32.325  22.903  24.781  1.00  0.00     0.019 A 
ATOM     11  C   UNL A   1      32.337  23.530  23.531  1.00  0.00     0.016 A 
ATOM     12  C   UNL A   1      33.504  22.295  25.233  1.00  0.00     0.031 A 
ATOM     13  C   UNL A   1      33.526  23.625  22.796  1.00  0.00     0.048 A 
ATOM     14  C   UNL A   1      34.716  23.120  23.320  1.00  0.00     0.130 A 
BRANCH  10  15
ATOM     15  C   UNL A   1      31.113  22.901  25.616  1.00  0.00     0.144 A 
ATOM     16  N   UNL A   1      30.592  24.021  26.275  1.00  0.00    -0.300 N 
ATOM     17  C   UNL A   1      29.649  23.557  27.160  1.00  0.00     0.113 A 
ATOM     18  C   UNL A   1      29.507  22.221  26.874  1.00  0.00     0.132 A 
ATOM     19  N   UNL A   1      30.399  21.828  25.913  1.00  0.00    -0.236 NA
BRANCH  16  20
ATOM     20  C   UNL A   1      31.001  25.372  26.128  1.00  0.00     0.047 A 
ATOM     21  C   UNL A   1      32.109  27.832  25.473  1.00  0.00     0.082 A 
ATOM     22  C   UNL A   1      30.946  27.412  24.824  1.00  0.00     0.024 A 
ATOM     23  C   UNL A   1      32.690  27.056  26.485  1.00  0.00     0.024 A 
ATOM     24  C   UNL A   1      30.389  26.177  25.154  1.00  0.00     0.028 A 
ATOM     25  C   UNL A   1      32.121  25.828  26.834  1.00  0.00     0.028 A 
BRANCH  21  26
ATOM     26  S   UNL A   1      32.902  29.327  24.961  1.00  0.00     0.238 S 
ATOM     27  O   UNL A   1      32.220  30.455  25.547  1.00  0.00    -0.207 OA
ATOM     28  O   UNL A   1      33.185  29.230  23.547  1.00  0.00    -0.207 OA
BRANCH  26  29
ATOM     29  N   UNL A   1      34.381  29.238  25.750  1.00  0.00    -0.225 NA
ATOM     30  H   UNL A   1      35.068  28.802  25.136  1.00  0.00     0.137 HD
ATOM     31  H   UNL A   1      34.280  28.679  26.598  1.00  0.00     0.137 HD
ENDBRANCH  26  29
ENDBRANCH  21  26
ENDBRANCH  16  20
ENDBRANCH  10  15
BRANCH  14  32
ATOM     32  O   UNL A   1      35.841  23.277  22.559  1.00  0.00    -0.507 OA
ATOM     33  H   UNL A   1      35.767  23.512  21.654  1.00  0.00     0.293 HD
ENDBRANCH  14  32
ENDBRANCH   7   9
ENDBRANCH   6   7
ENDBRANCH   5   6
ENDBRANCH   4   5
ENDBRANCH   3   4
ENDBRANCH   2   3
ENDBRANCH   1   2
BRANCH   1  34
ATOM     34  O   UNL A   1      41.570  19.216  25.475  1.00  0.00    -0.377 OA
BRANCH  34  35
ATOM     35  C   UNL A   1      42.862  19.700  25.828  1.00  0.00     0.188 C 
BRANCH  35  36
ATOM     36  C   UNL A   1      44.148  19.351  25.029  1.00  0.00     0.188 C 
BRANCH  36  37
ATOM     37  O   UNL A   1      44.574  20.314  24.074  1.00  0.00    -0.376 OA
BRANCH  37  38
ATOM     38  C   UNL A   1      45.504  21.306  24.465  1.00  0.00     0.202 C 
BRANCH  38  39
ATOM     39  C   UNL A   1      45.184  22.675  23.876  1.00  0.00     0.261 C 
BRANCH  39  40
ATOM     40  O   UNL A   1      44.840  23.630  24.869  1.00  0.00    -0.460 OA
BRANCH  40  41
ATOM     41  C   UNL A   1      43.630  23.453  25.431  1.00  0.00     0.338 C 
ATOM     42  O   UNL A   1      42.601  23.101  24.883  1.00  0.00    -0.246 OA
BRANCH  41  43
ATOM     43  C   UNL A   1      43.695  23.892  26.825  1.00  0.00     0.060 A 
ATOM     44  C   UNL A   1      42.469  24.239  27.390  1.00  0.00     0.016 A 
ATOM     45  C   UNL A   1      44.923  24.320  27.353  1.00  0.00     0.016 A 
ATOM     46  C   UNL A   1      42.459  25.277  28.282  1.00  0.00     0.010 A 
ATOM     47  C   UNL A   1      44.911  25.369  28.235  1.00  0.00     0.010 A 
ATOM     48  C   UNL A   1      43.675  25.900  28.587  1.00  0.00    -0.014 A 
BRANCH  48  49
ATOM     49  C   UNL A   1      43.588  27.177  29.251  1.00  0.00     0.031 A 
ATOM     50  C   UNL A   1      43.572  27.097  30.718  1.00  0.00     0.074 A 
ATOM     51  C   UNL A   1      43.544  28.332  28.564  1.00  0.00     0.049 A 
ATOM     52  N   UNL A   1      42.643  27.488  31.524  1.00  0.00    -0.248 NA
ATOM     53  C   UNL A   1      44.691  26.395  31.359  1.00  0.00     0.031 C 
ATOM     54  C   UNL A   1      43.828  28.559  27.145  1.00  0.00     0.029 A 
ATOM     55  N   UNL A   1      43.325  29.583  29.047  1.00  0.00    -0.354 N 
ATOM     56  C   UNL A   1      43.129  27.227  32.797  1.00  0.00     0.074 A 
ATOM     57  C   UNL A   1      44.328  26.443  32.638  1.00  0.00     0.031 C 
ATOM     58  C   UNL A   1      43.976  29.888  26.937  1.00  0.00     0.029 A 
ATOM     59  C   UNL A   1      43.681  30.594  28.174  1.00  0.00     0.049 A 
ATOM     60  H   UNL A   1      42.947  29.754  29.940  1.00  0.00     0.167 HD
ATOM     61  C   UNL A   1      42.634  27.868  33.885  1.00  0.00     0.037 A 
ATOM     62  C   UNL A   1      43.816  31.903  28.491  1.00  0.00     0.037 A 
ATOM     63  C   UNL A   1      41.307  28.373  33.657  1.00  0.00     0.049 A 
ATOM     64  C   UNL A   1      43.080  32.143  29.761  1.00  0.00     0.074 A 
ATOM     65  C   UNL A   1      40.102  27.788  33.317  1.00  0.00     0.029 A 
ATOM     66  N   UNL A   1      41.136  29.717  33.444  1.00  0.00    -0.354 N 
ATOM     67  N   UNL A   1      41.782  32.133  29.875  1.00  0.00    -0.248 NA
ATOM     68  C   UNL A   1      43.815  32.001  31.011  1.00  0.00     0.031 C 
ATOM     69  C   UNL A   1      39.441  28.739  32.486  1.00  0.00     0.029 A 
ATOM     70  C   UNL A   1      40.277  29.851  32.382  1.00  0.00     0.049 A 
ATOM     71  H   UNL A   1      41.551  30.449  33.956  1.00  0.00     0.167 HD
ATOM     72  C   UNL A   1      41.539  31.578  31.125  1.00  0.00     0.074 A 
ATOM     73  C   UNL A   1      42.821  31.623  31.817  1.00  0.00     0.031 C 
ATOM     74  C   UNL A   1      40.394  30.880  31.377  1.00  0.00     0.037 A 
BRANCH  61  75
ATOM     75  C   UNL A   1      43.508  28.313  35.023  1.00  0.00     0.064 A 
ATOM     76  C   UNL A   1      44.539  29.236  34.783  1.00  0.00     0.173 A 
ATOM     77  C   UNL A   1      43.548  27.656  36.274  1.00  0.00     0.173 A 
ATOM     78  F   UNL A   1      44.615  29.885  33.612  1.00  0.00    -0.203 F 
ATOM     79  C   UNL A   1      45.565  29.445  35.708  1.00  0.00     0.198 A 
ATOM     80  C   UNL A   1      44.537  27.911  37.217  1.00  0.00     0.198 A 
ATOM     81  F   UNL A   1      42.700  26.667  36.586  1.00  0.00    -0.203 F 
ATOM     82  F   UNL A   1      46.592  30.243  35.389  1.00  0.00    -0.200 F 
ATOM     83  C   UNL A   1      45.563  28.783  36.923  1.00  0.00     0.200 A 
ATOM     84  F   UNL A   1      44.528  27.243  38.380  1.00  0.00    -0.200 F 
ATOM     85  F   UNL A   1      46.574  28.941  37.787  1.00  0.00    -0.200 F 
ENDBRANCH  61  75
BRANCH  62  86
ATOM     86  C   UNL A   1      44.778  32.876  27.928  1.00  0.00     0.064 A 
ATOM     87  C   UNL A   1      44.336  34.062  27.324  1.00  0.00     0.173 A 
ATOM     88  C   UNL A   1      46.159  32.785  28.193  1.00  0.00     0.173 A 
ATOM     89  F   UNL A   1      43.030  34.251  27.086  1.00  0.00    -0.203 F 
ATOM     90  C   UNL A   1      45.220  35.101  27.019  1.00  0.00     0.198 A 
ATOM     91  C   UNL A   1      47.043  33.816  27.873  1.00  0.00     0.198 A 
ATOM     92  F   UNL A   1      46.670  31.736  28.854  1.00  0.00    -0.203 F 
ATOM     93  F   UNL A   1      44.751  36.245  26.501  1.00  0.00    -0.200 F 
ATOM     94  C   UNL A   1      46.570  34.979  27.298  1.00  0.00     0.200 A 
ATOM     95  F   UNL A   1      48.341  33.696  28.182  1.00  0.00    -0.200 F 
ATOM     96  F   UNL A   1      47.409  35.995  27.054  1.00  0.00    -0.200 F 
ENDBRANCH  62  86
BRANCH  74  97
ATOM     97  C   UNL A   1      39.282  30.982  30.373  1.00  0.00     0.064 A 
ATOM     98  C   UNL A   1      39.192  30.173  29.228  1.00  0.00     0.173 A 
ATOM     99  C   UNL A   1      38.205  31.836  30.648  1.00  0.00     0.173 A 
ATOM    100  F   UNL A   1      40.130  29.254  28.958  1.00  0.00    -0.203 F 
ATOM    101  C   UNL A   1      38.099  30.259  28.367  1.00  0.00     0.198 A 
ATOM    102  C   UNL A   1      37.097  31.892  29.807  1.00  0.00     0.198 A 
ATOM    103  F   UNL A   1      38.207  32.586  31.761  1.00  0.00    -0.203 F 
ATOM    104  F   UNL A   1      38.045  29.490  27.270  1.00  0.00    -0.200 F 
ATOM    105  C   UNL A   1      37.051  31.115  28.661  1.00  0.00     0.200 A 
ATOM    106  F   UNL A   1      36.061  32.683  30.122  1.00  0.00    -0.200 F 
ATOM    107  F   UNL A   1      35.982  31.170  27.854  1.00  0.00    -0.200 F 
ENDBRANCH  74  97
ENDBRANCH  48  49
ENDBRANCH  41  43
ENDBRANCH  40  41
ENDBRANCH  39  40
ENDBRANCH  38  39
ENDBRANCH  37  38
ENDBRANCH  36  37
ENDBRANCH  35  36
ENDBRANCH  34  35
ENDBRANCH   1  34
TORSDOF 25
ENDMDL
