MODEL 1
REMARK VINA RESULT:      -8.3      0.000      0.000
REMARK SMILES Cc1ccc(-c2cc([C@@H](C)C(=O)OCCOCCOCCOCCOC(=O)c3ccc(-c4c5nc(c(-c6c(F)c(F)c(F)c(F)c6F)c6ccc([nH]6)c(-c6c(F)c(F)c(F)c(F)c6F)c6nc(c(-c7c(F)c(F)c(F)c(F)c7F)c7ccc4[nH]7)C=C6)C=C5)cc3)ccc2C[C@H]2CCCC2=O)cc1
REMARK SMILES IDX 18 1 17 2 16 3 15 4 14 5 13 6 11 7 12 8 9 9 10 10 8 11 6 12
REMARK SMILES IDX 7 13 93 14 92 15 91 16 5 17 1 18 2 19 3 20 102 21 4 22
REMARK SMILES IDX 101 23 94 24 95 25 96 26 99 27 97 28 98 29 100 30 19 31
REMARK SMILES IDX 20 32 21 33 22 34 23 35 24 36 25 37 26 38 27 39 28 40 29 41
REMARK SMILES IDX 90 42 30 43 89 44 31 45 32 46 33 47 83 48 34 49 88 50 82 51
REMARK SMILES IDX 84 52 35 53 87 54 81 55 80 56 36 58 68 59 48 60 67 61 49 62
REMARK SMILES IDX 52 63 66 64 85 65 50 66 51 67 65 69 86 70 53 71 37 72 38 73
REMARK SMILES IDX 46 74 39 75 40 76 44 77 47 78 41 79 42 80 45 81 43 82 69 83
REMARK SMILES IDX 70 84 78 85 71 86 72 87 76 88 79 89 73 90 74 91 77 92 75 93
REMARK SMILES IDX 54 94 55 95 63 96 56 97 57 98 61 99 64 100 58 101 59 102
REMARK SMILES IDX 62 103 60 104
REMARK H PARENT 84 57 52 68
REMARK Flexibility Score: inf
ROOT
ATOM      1  C   UNL A   1      42.278  19.182  25.901  1.00  0.00     0.188 C 
ENDROOT
BRANCH   1   2
ATOM      2  C   UNL A   1      43.637  18.859  25.288  1.00  0.00     0.188 C 
BRANCH   2   3
ATOM      3  O   UNL A   1      44.146  19.746  24.308  1.00  0.00    -0.376 OA
BRANCH   3   4
ATOM      4  C   UNL A   1      45.371  20.383  24.653  1.00  0.00     0.202 C 
BRANCH   4   5
ATOM      5  C   UNL A   1      45.284  21.490  25.700  1.00  0.00     0.261 C 
BRANCH   5   6
ATOM      6  O   UNL A   1      46.402  22.398  25.630  1.00  0.00    -0.463 OA
BRANCH   6   7
ATOM      7  C   UNL A   1      46.164  23.599  25.057  1.00  0.00     0.313 C 
ATOM      8  O   UNL A   1      45.560  23.754  23.993  1.00  0.00    -0.252 OA
BRANCH   7   9
ATOM      9  C   UNL A   1      46.726  24.767  25.848  1.00  0.00     0.126 C 
ATOM     10  C   UNL A   1      45.575  25.630  26.364  1.00  0.00     0.025 C 
BRANCH   9  11
ATOM     11  C   UNL A   1      47.902  25.502  25.202  1.00  0.00    -0.033 A 
ATOM     12  C   UNL A   1      50.271  26.231  25.380  1.00  0.00    -0.015 A 
ATOM     13  C   UNL A   1      49.123  25.563  25.894  1.00  0.00     0.013 A 
ATOM     14  C   UNL A   1      50.190  26.930  24.146  1.00  0.00    -0.039 A 
ATOM     15  C   UNL A   1      48.973  26.845  23.443  1.00  0.00     0.004 A 
ATOM     16  C   UNL A   1      47.859  26.136  23.955  1.00  0.00     0.005 A 
BRANCH  12  17
ATOM     17  C   UNL A   1      51.511  26.123  26.163  1.00  0.00    -0.018 A 
ATOM     18  C   UNL A   1      55.214  25.863  28.363  1.00  0.00     0.044 C 
ATOM     19  C   UNL A   1      53.921  25.959  27.616  1.00  0.00    -0.051 A 
ATOM     20  C   UNL A   1      53.724  25.184  26.467  1.00  0.00     0.004 A 
ATOM     21  C   UNL A   1      52.907  26.818  28.040  1.00  0.00     0.004 A 
ATOM     22  C   UNL A   1      52.538  25.277  25.741  1.00  0.00     0.009 A 
ATOM     23  C   UNL A   1      51.715  26.896  27.320  1.00  0.00     0.009 A 
ENDBRANCH  12  17
BRANCH  14  24
ATOM     24  C   UNL A   1      51.258  27.933  23.710  1.00  0.00     0.047 C 
BRANCH  24  25
ATOM     25  C   UNL A   1      51.885  28.051  22.314  1.00  0.00     0.060 C 
ATOM     26  C   UNL A   1      52.253  26.764  21.579  1.00  0.00     0.012 C 
ATOM     27  C   UNL A   1      51.057  28.810  21.301  1.00  0.00     0.136 C 
ATOM     28  C   UNL A   1      51.186  26.635  20.521  1.00  0.00     0.009 C 
ATOM     29  C   UNL A   1      50.844  28.026  20.038  1.00  0.00     0.076 C 
ATOM     30  O   UNL A   1      50.655  29.955  21.462  1.00  0.00    -0.299 OA
ENDBRANCH  24  25
ENDBRANCH  14  24
ENDBRANCH   9  11
ENDBRANCH   7   9
ENDBRANCH   6   7
ENDBRANCH   5   6
ENDBRANCH   4   5
ENDBRANCH   3   4
ENDBRANCH   2   3
ENDBRANCH   1   2
BRANCH   1  31
ATOM     31  O   UNL A   1      42.272  19.684  27.214  1.00  0.00    -0.377 OA
BRANCH  31  32
ATOM     32  C   UNL A   1      41.991  21.062  27.373  1.00  0.00     0.188 C 
BRANCH  32  33
ATOM     33  C   UNL A   1      41.509  21.872  26.183  1.00  0.00     0.188 C 
BRANCH  33  34
ATOM     34  O   UNL A   1      40.105  22.070  26.259  1.00  0.00    -0.376 OA
BRANCH  34  35
ATOM     35  C   UNL A   1      39.718  23.108  27.156  1.00  0.00     0.202 C 
BRANCH  35  36
ATOM     36  C   UNL A   1      39.466  24.443  26.443  1.00  0.00     0.261 C 
BRANCH  36  37
ATOM     37  O   UNL A   1      40.054  25.509  27.222  1.00  0.00    -0.460 OA
BRANCH  37  38
ATOM     38  C   UNL A   1      41.414  25.607  27.156  1.00  0.00     0.338 C 
ATOM     39  O   UNL A   1      42.073  25.470  26.138  1.00  0.00    -0.246 OA
BRANCH  38  40
ATOM     40  C   UNL A   1      42.013  25.558  28.534  1.00  0.00     0.060 A 
ATOM     41  C   UNL A   1      42.142  26.743  29.285  1.00  0.00     0.016 A 
ATOM     42  C   UNL A   1      42.807  24.471  28.861  1.00  0.00     0.016 A 
ATOM     43  C   UNL A   1      43.191  26.896  30.219  1.00  0.00     0.010 A 
ATOM     44  C   UNL A   1      43.921  24.691  29.653  1.00  0.00     0.010 A 
ATOM     45  C   UNL A   1      44.155  25.899  30.341  1.00  0.00    -0.014 A 
BRANCH  45  46
ATOM     46  C   UNL A   1      45.496  26.006  30.988  1.00  0.00     0.031 A 
ATOM     47  C   UNL A   1      45.669  25.354  32.340  1.00  0.00     0.074 A 
ATOM     48  C   UNL A   1      46.609  26.312  30.261  1.00  0.00     0.049 A 
ATOM     49  N   UNL A   1      46.790  25.093  32.926  1.00  0.00    -0.248 NA
ATOM     50  C   UNL A   1      44.535  24.905  33.145  1.00  0.00     0.031 C 
ATOM     51  C   UNL A   1      47.937  25.721  30.453  1.00  0.00     0.029 A 
ATOM     52  N   UNL A   1      46.800  27.102  29.117  1.00  0.00    -0.354 N 
ATOM     53  C   UNL A   1      46.568  24.237  33.992  1.00  0.00     0.074 A 
ATOM     54  C   UNL A   1      45.133  24.192  34.104  1.00  0.00     0.031 C 
ATOM     55  C   UNL A   1      48.811  26.190  29.556  1.00  0.00     0.029 A 
ATOM     56  C   UNL A   1      48.193  27.344  28.974  1.00  0.00     0.049 A 
ATOM     57  H   UNL A   1      46.091  27.431  28.518  1.00  0.00     0.167 HD
ATOM     58  C   UNL A   1      47.641  23.611  34.578  1.00  0.00     0.037 A 
ATOM     59  C   UNL A   1      48.686  28.605  29.179  1.00  0.00     0.037 A 
ATOM     60  C   UNL A   1      48.923  24.216  34.125  1.00  0.00     0.049 A 
ATOM     61  C   UNL A   1      49.422  28.764  30.512  1.00  0.00     0.074 A 
ATOM     62  C   UNL A   1      50.127  23.767  33.599  1.00  0.00     0.029 A 
ATOM     63  N   UNL A   1      49.007  25.607  34.041  1.00  0.00    -0.354 N 
ATOM     64  N   UNL A   1      49.681  27.784  31.346  1.00  0.00    -0.248 NA
ATOM     65  C   UNL A   1      49.877  30.044  31.038  1.00  0.00     0.031 C 
ATOM     66  C   UNL A   1      50.907  24.898  33.197  1.00  0.00     0.029 A 
ATOM     67  C   UNL A   1      50.209  26.044  33.526  1.00  0.00     0.049 A 
ATOM     68  H   UNL A   1      48.282  26.212  34.321  1.00  0.00     0.167 HD
ATOM     69  C   UNL A   1      50.219  28.262  32.508  1.00  0.00     0.074 A 
ATOM     70  C   UNL A   1      50.314  29.694  32.262  1.00  0.00     0.031 C 
ATOM     71  C   UNL A   1      50.510  27.468  33.592  1.00  0.00     0.037 A 
BRANCH  58  72
ATOM     72  C   UNL A   1      47.582  22.356  35.483  1.00  0.00     0.064 A 
ATOM     73  C   UNL A   1      46.944  21.169  35.039  1.00  0.00     0.173 A 
ATOM     74  C   UNL A   1      48.045  22.259  36.817  1.00  0.00     0.173 A 
ATOM     75  F   UNL A   1      46.506  21.039  33.781  1.00  0.00    -0.203 F 
ATOM     76  C   UNL A   1      46.730  20.048  35.860  1.00  0.00     0.198 A 
ATOM     77  C   UNL A   1      47.871  21.121  37.624  1.00  0.00     0.198 A 
ATOM     78  F   UNL A   1      48.678  23.256  37.433  1.00  0.00    -0.203 F 
ATOM     79  F   UNL A   1      46.065  18.988  35.377  1.00  0.00    -0.200 F 
ATOM     80  C   UNL A   1      47.194  20.022  37.154  1.00  0.00     0.200 A 
ATOM     81  F   UNL A   1      48.363  21.114  38.873  1.00  0.00    -0.200 F 
ATOM     82  F   UNL A   1      47.000  18.952  37.936  1.00  0.00    -0.200 F 
ENDBRANCH  58  72
BRANCH  59  83
ATOM     83  C   UNL A   1      47.866  29.582  28.390  1.00  0.00     0.064 A 
ATOM     84  C   UNL A   1      47.886  29.340  26.994  1.00  0.00     0.173 A 
ATOM     85  C   UNL A   1      46.661  30.049  28.941  1.00  0.00     0.173 A 
ATOM     86  F   UNL A   1      49.026  28.937  26.408  1.00  0.00    -0.203 F 
ATOM     87  C   UNL A   1      46.701  29.252  26.266  1.00  0.00     0.198 A 
ATOM     88  C   UNL A   1      45.477  29.979  28.196  1.00  0.00     0.198 A 
ATOM     89  F   UNL A   1      46.583  30.317  30.252  1.00  0.00    -0.203 F 
ATOM     90  F   UNL A   1      46.715  28.776  25.014  1.00  0.00    -0.200 F 
ATOM     91  C   UNL A   1      45.492  29.509  26.889  1.00  0.00     0.200 A 
ATOM     92  F   UNL A   1      44.299  30.215  28.793  1.00  0.00    -0.200 F 
ATOM     93  F   UNL A   1      44.340  29.224  26.262  1.00  0.00    -0.200 F 
ENDBRANCH  59  83
BRANCH  71  94
ATOM     94  C   UNL A   1      51.019  28.001  34.914  1.00  0.00     0.064 A 
ATOM     95  C   UNL A   1      52.378  28.160  35.198  1.00  0.00     0.173 A 
ATOM     96  C   UNL A   1      50.137  28.362  35.965  1.00  0.00     0.173 A 
ATOM     97  F   UNL A   1      53.314  27.631  34.399  1.00  0.00    -0.203 F 
ATOM     98  C   UNL A   1      52.813  28.848  36.333  1.00  0.00     0.198 A 
ATOM     99  C   UNL A   1      50.575  28.991  37.125  1.00  0.00     0.198 A 
ATOM    100  F   UNL A   1      48.819  28.134  35.910  1.00  0.00    -0.203 F 
ATOM    101  F   UNL A   1      54.120  29.094  36.492  1.00  0.00    -0.200 F 
ATOM    102  C   UNL A   1      51.909  29.286  37.282  1.00  0.00     0.200 A 
ATOM    103  F   UNL A   1      49.688  29.330  38.072  1.00  0.00    -0.200 F 
ATOM    104  F   UNL A   1      52.324  29.975  38.353  1.00  0.00    -0.200 F 
ENDBRANCH  71  94
ENDBRANCH  45  46
ENDBRANCH  38  40
ENDBRANCH  37  38
ENDBRANCH  36  37
ENDBRANCH  35  36
ENDBRANCH  34  35
ENDBRANCH  33  34
ENDBRANCH  32  33
ENDBRANCH  31  32
ENDBRANCH   1  31
TORSDOF 24
ENDMDL
MODEL 2
REMARK VINA RESULT:      -7.8      5.553     11.541
REMARK SMILES Cc1ccc(-c2cc([C@@H](C)C(=O)OCCOCCOCCOCCOC(=O)c3ccc(-c4c5nc(c(-c6c(F)c(F)c(F)c(F)c6F)c6ccc([nH]6)c(-c6c(F)c(F)c(F)c(F)c6F)c6nc(c(-c7c(F)c(F)c(F)c(F)c7F)c7ccc4[nH]7)C=C6)C=C5)cc3)ccc2C[C@H]2CCCC2=O)cc1
REMARK SMILES IDX 18 1 17 2 16 3 15 4 14 5 13 6 11 7 12 8 9 9 10 10 8 11 6 12
REMARK SMILES IDX 7 13 93 14 92 15 91 16 5 17 1 18 2 19 3 20 102 21 4 22
REMARK SMILES IDX 101 23 94 24 95 25 96 26 99 27 97 28 98 29 100 30 19 31
REMARK SMILES IDX 20 32 21 33 22 34 23 35 24 36 25 37 26 38 27 39 28 40 29 41
REMARK SMILES IDX 90 42 30 43 89 44 31 45 32 46 33 47 83 48 34 49 88 50 82 51
REMARK SMILES IDX 84 52 35 53 87 54 81 55 80 56 36 58 68 59 48 60 67 61 49 62
REMARK SMILES IDX 52 63 66 64 85 65 50 66 51 67 65 69 86 70 53 71 37 72 38 73
REMARK SMILES IDX 46 74 39 75 40 76 44 77 47 78 41 79 42 80 45 81 43 82 69 83
REMARK SMILES IDX 70 84 78 85 71 86 72 87 76 88 79 89 73 90 74 91 77 92 75 93
REMARK SMILES IDX 54 94 55 95 63 96 56 97 57 98 61 99 64 100 58 101 59 102
REMARK SMILES IDX 62 103 60 104
REMARK H PARENT 84 57 52 68
REMARK Flexibility Score: inf
ROOT
ATOM      1  C   UNL A   1      32.352  30.745  26.647  1.00  0.00     0.188 C 
ENDROOT
BRANCH   1   2
ATOM      2  C   UNL A   1      32.378  29.361  26.006  1.00  0.00     0.188 C 
BRANCH   2   3
ATOM      3  O   UNL A   1      31.568  28.352  26.581  1.00  0.00    -0.376 OA
BRANCH   3   4
ATOM      4  C   UNL A   1      31.231  27.281  25.707  1.00  0.00     0.202 C 
BRANCH   4   5
ATOM      5  C   UNL A   1      31.107  27.631  24.227  1.00  0.00     0.261 C 
BRANCH   5   6
ATOM      6  O   UNL A   1      31.622  26.590  23.373  1.00  0.00    -0.463 OA
BRANCH   6   7
ATOM      7  C   UNL A   1      32.903  26.729  22.963  1.00  0.00     0.313 C 
ATOM      8  O   UNL A   1      33.615  27.702  23.226  1.00  0.00    -0.252 OA
BRANCH   7   9
ATOM      9  C   UNL A   1      33.397  25.566  22.122  1.00  0.00     0.126 C 
ATOM     10  C   UNL A   1      32.596  25.504  20.822  1.00  0.00     0.025 C 
BRANCH   9  11
ATOM     11  C   UNL A   1      33.601  24.246  22.868  1.00  0.00    -0.033 A 
ATOM     12  C   UNL A   1      35.128  22.801  24.193  1.00  0.00    -0.015 A 
ATOM     13  C   UNL A   1      34.840  24.002  23.483  1.00  0.00     0.013 A 
ATOM     14  C   UNL A   1      34.163  21.760  24.242  1.00  0.00    -0.039 A 
ATOM     15  C   UNL A   1      32.913  22.017  23.647  1.00  0.00     0.004 A 
ATOM     16  C   UNL A   1      32.637  23.238  22.986  1.00  0.00     0.005 A 
BRANCH  12  17
ATOM     17  C   UNL A   1      36.427  22.727  24.877  1.00  0.00    -0.018 A 
ATOM     18  C   UNL A   1      40.179  22.500  26.997  1.00  0.00     0.044 C 
ATOM     19  C   UNL A   1      38.884  22.566  26.249  1.00  0.00    -0.051 A 
ATOM     20  C   UNL A   1      38.064  23.693  26.380  1.00  0.00     0.004 A 
ATOM     21  C   UNL A   1      38.474  21.516  25.427  1.00  0.00     0.004 A 
ATOM     22  C   UNL A   1      36.843  23.764  25.712  1.00  0.00     0.009 A 
ATOM     23  C   UNL A   1      37.259  21.599  24.748  1.00  0.00     0.009 A 
ENDBRANCH  12  17
BRANCH  14  24
ATOM     24  C   UNL A   1      34.523  20.340  24.683  1.00  0.00     0.047 C 
BRANCH  24  25
ATOM     25  C   UNL A   1      33.602  19.113  24.655  1.00  0.00     0.060 C 
ATOM     26  C   UNL A   1      32.364  19.163  23.762  1.00  0.00     0.012 C 
ATOM     27  C   UNL A   1      34.273  17.817  24.254  1.00  0.00     0.136 C 
ATOM     28  C   UNL A   1      32.723  18.275  22.596  1.00  0.00     0.009 C 
ATOM     29  C   UNL A   1      33.555  17.129  23.128  1.00  0.00     0.076 C 
ATOM     30  O   UNL A   1      35.251  17.348  24.819  1.00  0.00    -0.299 OA
ENDBRANCH  24  25
ENDBRANCH  14  24
ENDBRANCH   9  11
ENDBRANCH   7   9
ENDBRANCH   6   7
ENDBRANCH   5   6
ENDBRANCH   4   5
ENDBRANCH   3   4
ENDBRANCH   2   3
ENDBRANCH   1   2
BRANCH   1  31
ATOM     31  O   UNL A   1      33.536  31.186  27.263  1.00  0.00    -0.377 OA
BRANCH  31  32
ATOM     32  C   UNL A   1      34.464  30.192  27.657  1.00  0.00     0.188 C 
BRANCH  32  33
ATOM     33  C   UNL A   1      35.555  30.537  28.654  1.00  0.00     0.188 C 
BRANCH  33  34
ATOM     34  O   UNL A   1      36.813  30.614  27.999  1.00  0.00    -0.376 OA
BRANCH  34  35
ATOM     35  C   UNL A   1      37.746  31.476  28.646  1.00  0.00     0.202 C 
BRANCH  35  36
ATOM     36  C   UNL A   1      37.065  32.537  29.520  1.00  0.00     0.261 C 
BRANCH  36  37
ATOM     37  O   UNL A   1      37.927  32.848  30.638  1.00  0.00    -0.460 OA
BRANCH  37  38
ATOM     38  C   UNL A   1      38.064  31.860  31.570  1.00  0.00     0.338 C 
ATOM     39  O   UNL A   1      37.139  31.315  32.148  1.00  0.00    -0.246 OA
BRANCH  38  40
ATOM     40  C   UNL A   1      39.490  31.777  32.041  1.00  0.00     0.060 A 
ATOM     41  C   UNL A   1      40.543  31.976  31.128  1.00  0.00     0.016 A 
ATOM     42  C   UNL A   1      39.747  31.093  33.218  1.00  0.00     0.016 A 
ATOM     43  C   UNL A   1      41.786  31.327  31.304  1.00  0.00     0.010 A 
ATOM     44  C   UNL A   1      40.905  30.336  33.294  1.00  0.00     0.010 A 
ATOM     45  C   UNL A   1      41.946  30.417  32.345  1.00  0.00    -0.014 A 
BRANCH  45  46
ATOM     46  C   UNL A   1      43.020  29.392  32.500  1.00  0.00     0.031 A 
ATOM     47  C   UNL A   1      42.984  28.202  31.569  1.00  0.00     0.074 A 
ATOM     48  C   UNL A   1      44.184  29.682  33.148  1.00  0.00     0.049 A 
ATOM     49  N   UNL A   1      43.948  27.371  31.353  1.00  0.00    -0.248 NA
ATOM     50  C   UNL A   1      41.811  27.874  30.762  1.00  0.00     0.031 C 
ATOM     51  C   UNL A   1      45.517  29.220  32.748  1.00  0.00     0.029 A 
ATOM     52  N   UNL A   1      44.479  30.542  34.217  1.00  0.00    -0.354 N 
ATOM     53  C   UNL A   1      43.658  26.605  30.235  1.00  0.00     0.074 A 
ATOM     54  C   UNL A   1      42.289  26.936  29.937  1.00  0.00     0.031 C 
ATOM     55  C   UNL A   1      46.463  29.708  33.556  1.00  0.00     0.029 A 
ATOM     56  C   UNL A   1      45.773  30.215  34.705  1.00  0.00     0.049 A 
ATOM     57  H   UNL A   1      43.892  31.251  34.567  1.00  0.00     0.167 HD
ATOM     58  C   UNL A   1      44.658  25.858  29.663  1.00  0.00     0.037 A 
ATOM     59  C   UNL A   1      45.905  29.633  35.937  1.00  0.00     0.037 A 
ATOM     60  C   UNL A   1      45.845  25.783  30.557  1.00  0.00     0.049 A 
ATOM     61  C   UNL A   1      46.224  28.138  35.877  1.00  0.00     0.074 A 
ATOM     62  C   UNL A   1      47.212  26.002  30.448  1.00  0.00     0.029 A 
ATOM     63  N   UNL A   1      45.637  25.569  31.920  1.00  0.00    -0.354 N 
ATOM     64  N   UNL A   1      46.473  27.469  34.775  1.00  0.00    -0.248 NA
ATOM     65  C   UNL A   1      46.234  27.263  37.042  1.00  0.00     0.031 C 
ATOM     66  C   UNL A   1      47.797  25.929  31.753  1.00  0.00     0.029 A 
ATOM     67  C   UNL A   1      46.802  25.608  32.656  1.00  0.00     0.049 A 
ATOM     68  H   UNL A   1      44.749  25.406  32.315  1.00  0.00     0.167 HD
ATOM     69  C   UNL A   1      46.578  26.130  35.029  1.00  0.00     0.074 A 
ATOM     70  C   UNL A   1      46.411  26.056  36.474  1.00  0.00     0.031 C 
ATOM     71  C   UNL A   1      46.752  25.183  34.049  1.00  0.00     0.037 A 
BRANCH  58  72
ATOM     72  C   UNL A   1      44.651  25.271  28.230  1.00  0.00     0.064 A 
ATOM     73  C   UNL A   1      45.129  26.031  27.132  1.00  0.00     0.173 A 
ATOM     74  C   UNL A   1      44.120  24.019  27.837  1.00  0.00     0.173 A 
ATOM     75  F   UNL A   1      45.737  27.210  27.308  1.00  0.00    -0.203 F 
ATOM     76  C   UNL A   1      45.019  25.615  25.792  1.00  0.00     0.198 A 
ATOM     77  C   UNL A   1      44.051  23.584  26.502  1.00  0.00     0.198 A 
ATOM     78  F   UNL A   1      43.620  23.145  28.708  1.00  0.00    -0.203 F 
ATOM     79  F   UNL A   1      45.445  26.421  24.809  1.00  0.00    -0.200 F 
ATOM     80  C   UNL A   1      44.480  24.390  25.476  1.00  0.00     0.200 A 
ATOM     81  F   UNL A   1      43.547  22.371  26.227  1.00  0.00    -0.200 F 
ATOM     82  F   UNL A   1      44.381  23.987  24.202  1.00  0.00    -0.200 F 
ENDBRANCH  58  72
BRANCH  59  83
ATOM     83  C   UNL A   1      45.117  30.427  36.937  1.00  0.00     0.064 A 
ATOM     84  C   UNL A   1      45.625  31.732  37.149  1.00  0.00     0.173 A 
ATOM     85  C   UNL A   1      43.721  30.271  36.970  1.00  0.00     0.173 A 
ATOM     86  F   UNL A   1      46.954  31.930  37.174  1.00  0.00    -0.203 F 
ATOM     87  C   UNL A   1      44.792  32.847  37.068  1.00  0.00     0.198 A 
ATOM     88  C   UNL A   1      42.889  31.396  36.911  1.00  0.00     0.198 A 
ATOM     89  F   UNL A   1      43.178  29.057  36.797  1.00  0.00    -0.203 F 
ATOM     90  F   UNL A   1      45.319  34.078  37.018  1.00  0.00    -0.200 F 
ATOM     91  C   UNL A   1      43.431  32.675  36.884  1.00  0.00     0.200 A 
ATOM     92  F   UNL A   1      41.571  31.240  36.721  1.00  0.00    -0.200 F 
ATOM     93  F   UNL A   1      42.655  33.730  36.593  1.00  0.00    -0.200 F 
ENDBRANCH  59  83
BRANCH  71  94
ATOM     94  C   UNL A   1      46.777  23.692  34.313  1.00  0.00     0.064 A 
ATOM     95  C   UNL A   1      47.954  22.984  34.571  1.00  0.00     0.173 A 
ATOM     96  C   UNL A   1      45.594  22.910  34.298  1.00  0.00     0.173 A 
ATOM     97  F   UNL A   1      49.153  23.547  34.369  1.00  0.00    -0.203 F 
ATOM     98  C   UNL A   1      47.930  21.662  35.017  1.00  0.00     0.198 A 
ATOM     99  C   UNL A   1      45.576  21.574  34.684  1.00  0.00     0.198 A 
ATOM    100  F   UNL A   1      44.407  23.405  33.924  1.00  0.00    -0.203 F 
ATOM    101  F   UNL A   1      49.074  21.069  35.383  1.00  0.00    -0.200 F 
ATOM    102  C   UNL A   1      46.737  20.966  35.099  1.00  0.00     0.200 A 
ATOM    103  F   UNL A   1      44.420  20.895  34.672  1.00  0.00    -0.200 F 
ATOM    104  F   UNL A   1      46.712  19.709  35.561  1.00  0.00    -0.200 F 
ENDBRANCH  71  94
ENDBRANCH  45  46
ENDBRANCH  38  40
ENDBRANCH  37  38
ENDBRANCH  36  37
ENDBRANCH  35  36
ENDBRANCH  34  35
ENDBRANCH  33  34
ENDBRANCH  32  33
ENDBRANCH  31  32
ENDBRANCH   1  31
TORSDOF 24
ENDMDL
MODEL 3
REMARK VINA RESULT:      -7.7      1.153      2.024
REMARK SMILES Cc1ccc(-c2cc([C@@H](C)C(=O)OCCOCCOCCOCCOC(=O)c3ccc(-c4c5nc(c(-c6c(F)c(F)c(F)c(F)c6F)c6ccc([nH]6)c(-c6c(F)c(F)c(F)c(F)c6F)c6nc(c(-c7c(F)c(F)c(F)c(F)c7F)c7ccc4[nH]7)C=C6)C=C5)cc3)ccc2C[C@H]2CCCC2=O)cc1
REMARK SMILES IDX 18 1 17 2 16 3 15 4 14 5 13 6 11 7 12 8 9 9 10 10 8 11 6 12
REMARK SMILES IDX 7 13 93 14 92 15 91 16 5 17 1 18 2 19 3 20 102 21 4 22
REMARK SMILES IDX 101 23 94 24 95 25 96 26 99 27 97 28 98 29 100 30 19 31
REMARK SMILES IDX 20 32 21 33 22 34 23 35 24 36 25 37 26 38 27 39 28 40 29 41
REMARK SMILES IDX 90 42 30 43 89 44 31 45 32 46 33 47 83 48 34 49 88 50 82 51
REMARK SMILES IDX 84 52 35 53 87 54 81 55 80 56 36 58 68 59 48 60 67 61 49 62
REMARK SMILES IDX 52 63 66 64 85 65 50 66 51 67 65 69 86 70 53 71 37 72 38 73
REMARK SMILES IDX 46 74 39 75 40 76 44 77 47 78 41 79 42 80 45 81 43 82 69 83
REMARK SMILES IDX 70 84 78 85 71 86 72 87 76 88 79 89 73 90 74 91 77 92 75 93
REMARK SMILES IDX 54 94 55 95 63 96 56 97 57 98 61 99 64 100 58 101 59 102
REMARK SMILES IDX 62 103 60 104
REMARK H PARENT 84 57 52 68
REMARK Flexibility Score: inf
ROOT
ATOM      1  C   UNL A   1      42.216  19.780  25.846  1.00  0.00     0.188 C 
ENDROOT
BRANCH   1   2
ATOM      2  C   UNL A   1      43.546  19.193  25.387  1.00  0.00     0.188 C 
BRANCH   2   3
ATOM      3  O   UNL A   1      44.211  19.827  24.310  1.00  0.00    -0.376 OA
BRANCH   3   4
ATOM      4  C   UNL A   1      45.476  20.393  24.635  1.00  0.00     0.202 C 
BRANCH   4   5
ATOM      5  C   UNL A   1      45.466  21.525  25.658  1.00  0.00     0.261 C 
BRANCH   5   6
ATOM      6  O   UNL A   1      46.504  22.494  25.411  1.00  0.00    -0.463 OA
BRANCH   6   7
ATOM      7  C   UNL A   1      46.098  23.763  25.180  1.00  0.00     0.313 C 
ATOM      8  O   UNL A   1      45.238  24.077  24.352  1.00  0.00    -0.252 OA
BRANCH   7   9
ATOM      9  C   UNL A   1      46.814  24.792  26.036  1.00  0.00     0.126 C 
ATOM     10  C   UNL A   1      45.782  25.652  26.764  1.00  0.00     0.025 C 
BRANCH   9  11
ATOM     11  C   UNL A   1      47.971  25.530  25.359  1.00  0.00    -0.033 A 
ATOM     12  C   UNL A   1      50.360  26.208  25.444  1.00  0.00    -0.015 A 
ATOM     13  C   UNL A   1      49.226  25.542  25.990  1.00  0.00     0.013 A 
ATOM     14  C   UNL A   1      50.231  26.956  24.243  1.00  0.00    -0.039 A 
ATOM     15  C   UNL A   1      48.979  26.921  23.600  1.00  0.00     0.004 A 
ATOM     16  C   UNL A   1      47.878  26.213  24.142  1.00  0.00     0.005 A 
BRANCH  12  17
ATOM     17  C   UNL A   1      51.635  26.047  26.158  1.00  0.00    -0.018 A 
ATOM     18  C   UNL A   1      55.438  25.634  28.155  1.00  0.00     0.044 C 
ATOM     19  C   UNL A   1      54.111  25.783  27.478  1.00  0.00    -0.051 A 
ATOM     20  C   UNL A   1      53.846  25.065  26.307  1.00  0.00     0.004 A 
ATOM     21  C   UNL A   1      53.134  26.635  27.992  1.00  0.00     0.004 A 
ATOM     22  C   UNL A   1      52.627  25.208  25.646  1.00  0.00     0.009 A 
ATOM     23  C   UNL A   1      51.909  26.762  27.338  1.00  0.00     0.009 A 
ENDBRANCH  12  17
BRANCH  14  24
ATOM     24  C   UNL A   1      51.296  27.956  23.792  1.00  0.00     0.047 C 
BRANCH  24  25
ATOM     25  C   UNL A   1      51.908  28.069  22.389  1.00  0.00     0.060 C 
ATOM     26  C   UNL A   1      51.961  26.811  21.524  1.00  0.00     0.012 C 
ATOM     27  C   UNL A   1      51.253  29.090  21.484  1.00  0.00     0.136 C 
ATOM     28  C   UNL A   1      50.872  27.029  20.503  1.00  0.00     0.009 C 
ATOM     29  C   UNL A   1      50.845  28.503  20.164  1.00  0.00     0.076 C 
ATOM     30  O   UNL A   1      51.124  30.274  21.766  1.00  0.00    -0.299 OA
ENDBRANCH  24  25
ENDBRANCH  14  24
ENDBRANCH   9  11
ENDBRANCH   7   9
ENDBRANCH   6   7
ENDBRANCH   5   6
ENDBRANCH   4   5
ENDBRANCH   3   4
ENDBRANCH   2   3
ENDBRANCH   1   2
BRANCH   1  31
ATOM     31  O   UNL A   1      42.041  19.962  27.229  1.00  0.00    -0.377 OA
BRANCH  31  32
ATOM     32  C   UNL A   1      41.922  21.295  27.692  1.00  0.00     0.188 C 
BRANCH  32  33
ATOM     33  C   UNL A   1      41.861  22.434  26.692  1.00  0.00     0.188 C 
BRANCH  33  34
ATOM     34  O   UNL A   1      40.512  22.724  26.358  1.00  0.00    -0.376 OA
BRANCH  34  35
ATOM     35  C   UNL A   1      39.927  23.746  27.162  1.00  0.00     0.202 C 
BRANCH  35  36
ATOM     36  C   UNL A   1      40.064  25.141  26.539  1.00  0.00     0.261 C 
BRANCH  36  37
ATOM     37  O   UNL A   1      40.369  26.093  27.584  1.00  0.00    -0.460 OA
BRANCH  37  38
ATOM     38  C   UNL A   1      41.646  26.576  27.587  1.00  0.00     0.338 C 
ATOM     39  O   UNL A   1      42.276  26.883  26.589  1.00  0.00    -0.246 OA
BRANCH  38  40
ATOM     40  C   UNL A   1      42.289  26.354  28.928  1.00  0.00     0.060 A 
ATOM     41  C   UNL A   1      42.583  27.455  29.756  1.00  0.00     0.016 A 
ATOM     42  C   UNL A   1      42.964  25.162  29.137  1.00  0.00     0.016 A 
ATOM     43  C   UNL A   1      43.679  27.417  30.647  1.00  0.00     0.010 A 
ATOM     44  C   UNL A   1      44.127  25.195  29.889  1.00  0.00     0.010 A 
ATOM     45  C   UNL A   1      44.526  26.313  30.650  1.00  0.00    -0.014 A 
BRANCH  45  46
ATOM     46  C   UNL A   1      45.895  26.218  31.238  1.00  0.00     0.031 A 
ATOM     47  C   UNL A   1      46.035  25.502  32.561  1.00  0.00     0.074 A 
ATOM     48  C   UNL A   1      47.007  26.399  30.470  1.00  0.00     0.049 A 
ATOM     49  N   UNL A   1      47.135  25.075  33.087  1.00  0.00    -0.248 NA
ATOM     50  C   UNL A   1      44.886  25.180  33.404  1.00  0.00     0.031 C 
ATOM     51  C   UNL A   1      48.252  25.632  30.584  1.00  0.00     0.029 A 
ATOM     52  N   UNL A   1      47.254  27.196  29.342  1.00  0.00    -0.354 N 
ATOM     53  C   UNL A   1      46.844  24.218  34.137  1.00  0.00     0.074 A 
ATOM     54  C   UNL A   1      45.422  24.360  34.313  1.00  0.00     0.031 C 
ATOM     55  C   UNL A   1      49.142  26.012  29.662  1.00  0.00     0.029 A 
ATOM     56  C   UNL A   1      48.661  27.257  29.142  1.00  0.00     0.049 A 
ATOM     57  H   UNL A   1      46.573  27.637  28.785  1.00  0.00     0.167 HD
ATOM     58  C   UNL A   1      47.847  23.436  34.655  1.00  0.00     0.037 A 
ATOM     59  C   UNL A   1      49.326  28.433  29.361  1.00  0.00     0.037 A 
ATOM     60  C   UNL A   1      49.178  23.882  34.162  1.00  0.00     0.049 A 
ATOM     61  C   UNL A   1      50.131  28.447  30.663  1.00  0.00     0.074 A 
ATOM     62  C   UNL A   1      50.288  23.296  33.569  1.00  0.00     0.029 A 
ATOM     63  N   UNL A   1      49.444  25.252  34.114  1.00  0.00    -0.354 N 
ATOM     64  N   UNL A   1      50.291  27.413  31.456  1.00  0.00    -0.248 NA
ATOM     65  C   UNL A   1      50.775  29.636  31.205  1.00  0.00     0.031 C 
ATOM     66  C   UNL A   1      51.196  24.327  33.164  1.00  0.00     0.029 A 
ATOM     67  C   UNL A   1      50.672  25.543  33.558  1.00  0.00     0.049 A 
ATOM     68  H   UNL A   1      48.819  25.937  34.444  1.00  0.00     0.167 HD
ATOM     69  C   UNL A   1      50.936  27.774  32.606  1.00  0.00     0.074 A 
ATOM     70  C   UNL A   1      51.211  29.189  32.397  1.00  0.00     0.031 C 
ATOM     71  C   UNL A   1      51.163  26.912  33.651  1.00  0.00     0.037 A 
BRANCH  58  72
ATOM     72  C   UNL A   1      47.659  22.169  35.524  1.00  0.00     0.064 A 
ATOM     73  C   UNL A   1      46.836  21.101  35.083  1.00  0.00     0.173 A 
ATOM     74  C   UNL A   1      48.172  21.960  36.827  1.00  0.00     0.173 A 
ATOM     75  F   UNL A   1      46.320  21.079  33.849  1.00  0.00    -0.203 F 
ATOM     76  C   UNL A   1      46.509  19.990  35.881  1.00  0.00     0.198 A 
ATOM     77  C   UNL A   1      47.881  20.828  37.609  1.00  0.00     0.198 A 
ATOM     78  F   UNL A   1      48.970  22.835  37.434  1.00  0.00    -0.203 F 
ATOM     79  F   UNL A   1      45.676  19.052  35.407  1.00  0.00    -0.200 F 
ATOM     80  C   UNL A   1      47.032  19.853  37.146  1.00  0.00     0.200 A 
ATOM     81  F   UNL A   1      48.431  20.706  38.827  1.00  0.00    -0.200 F 
ATOM     82  F   UNL A   1      46.729  18.792  37.907  1.00  0.00    -0.200 F 
ENDBRANCH  58  72
BRANCH  59  83
ATOM     83  C   UNL A   1      48.612  29.538  28.639  1.00  0.00     0.064 A 
ATOM     84  C   UNL A   1      47.958  30.448  29.506  1.00  0.00     0.173 A 
ATOM     85  C   UNL A   1      49.192  30.067  27.475  1.00  0.00     0.173 A 
ATOM     86  F   UNL A   1      47.346  29.990  30.610  1.00  0.00    -0.203 F 
ATOM     87  C   UNL A   1      48.161  31.822  29.384  1.00  0.00     0.198 A 
ATOM     88  C   UNL A   1      49.373  31.450  27.349  1.00  0.00     0.198 A 
ATOM     89  F   UNL A   1      49.808  29.254  26.604  1.00  0.00    -0.203 F 
ATOM     90  F   UNL A   1      47.748  32.651  30.353  1.00  0.00    -0.200 F 
ATOM     91  C   UNL A   1      48.924  32.314  28.340  1.00  0.00     0.200 A 
ATOM     92  F   UNL A   1      50.120  31.936  26.347  1.00  0.00    -0.200 F 
ATOM     93  F   UNL A   1      49.299  33.603  28.333  1.00  0.00    -0.200 F 
ENDBRANCH  59  83
BRANCH  71  94
ATOM     94  C   UNL A   1      51.793  27.326  34.964  1.00  0.00     0.064 A 
ATOM     95  C   UNL A   1      51.051  27.805  36.047  1.00  0.00     0.173 A 
ATOM     96  C   UNL A   1      53.195  27.269  35.171  1.00  0.00     0.173 A 
ATOM     97  F   UNL A   1      49.762  28.141  35.903  1.00  0.00    -0.203 F 
ATOM     98  C   UNL A   1      51.625  27.978  37.308  1.00  0.00     0.198 A 
ATOM     99  C   UNL A   1      53.777  27.502  36.412  1.00  0.00     0.198 A 
ATOM    100  F   UNL A   1      54.058  26.975  34.190  1.00  0.00    -0.203 F 
ATOM    101  F   UNL A   1      50.846  28.306  38.347  1.00  0.00    -0.200 F 
ATOM    102  C   UNL A   1      52.984  27.800  37.495  1.00  0.00     0.200 A 
ATOM    103  F   UNL A   1      55.108  27.408  36.550  1.00  0.00    -0.200 F 
ATOM    104  F   UNL A   1      53.527  27.932  38.712  1.00  0.00    -0.200 F 
ENDBRANCH  71  94
ENDBRANCH  45  46
ENDBRANCH  38  40
ENDBRANCH  37  38
ENDBRANCH  36  37
ENDBRANCH  35  36
ENDBRANCH  34  35
ENDBRANCH  33  34
ENDBRANCH  32  33
ENDBRANCH  31  32
ENDBRANCH   1  31
TORSDOF 24
ENDMDL
