MODEL 1
REMARK VINA RESULT:      -7.5      0.000      0.000
REMARK SMILES O=C(OCCOCCOCCOCCOC(=O)c1ccc(-c2c3nc(c(-c4c(F)c(F)c(F)c(F)c4F)c4ccc([nH]4)c(-c4c(F)c(F)c(F)c(F)c4F)c4nc(c(-c5c(F)c(F)c(F)c(F)c5F)c5ccc2[nH]5)C=C4)C=C3)cc1)C1=Cc2cc(Cl)cc(C#Cc3ccccc3)c2O[C@@H]1C(F)(F)F
REMARK SMILES IDX 9 1 8 2 7 3 6 4 5 5 4 6 3 7 2 8 1 9 81 10 82 11 99 12 83 13
REMARK SMILES IDX 98 14 84 15 97 16 85 17 88 18 86 19 87 20 100 21 101 22
REMARK SMILES IDX 102 23 103 24 89 25 90 26 91 27 92 28 96 29 93 30 95 31
REMARK SMILES IDX 94 32 10 33 11 34 12 35 13 36 14 37 15 38 16 39 17 40 18 41
REMARK SMILES IDX 19 42 80 43 20 44 79 45 21 46 22 47 23 48 73 49 24 50 78 51
REMARK SMILES IDX 72 52 74 53 25 54 77 55 71 56 70 57 26 59 58 60 38 61 57 62
REMARK SMILES IDX 39 63 42 64 56 65 75 66 40 67 41 68 55 70 76 71 43 72 27 73
REMARK SMILES IDX 28 74 36 75 29 76 30 77 34 78 37 79 31 80 32 81 35 82 33 83
REMARK SMILES IDX 59 84 60 85 68 86 61 87 62 88 66 89 69 90 63 91 64 92 67 93
REMARK SMILES IDX 65 94 44 95 45 96 53 97 46 98 47 99 51 100 54 101 48 102
REMARK SMILES IDX 49 103 52 104 50 105
REMARK H PARENT 74 58 42 69
REMARK Flexibility Score: inf
ROOT
ATOM      1  O   UNL A   1      39.136  33.431  31.572  1.00  0.00    -0.377 OA
ENDROOT
BRANCH   1   2
ATOM      2  C   UNL A   1      38.888  33.713  32.931  1.00  0.00     0.188 C 
BRANCH   2   3
ATOM      3  C   UNL A   1      37.545  33.192  33.447  1.00  0.00     0.188 C 
BRANCH   3   4
ATOM      4  O   UNL A   1      37.065  31.841  33.195  1.00  0.00    -0.376 OA
BRANCH   4   5
ATOM      5  C   UNL A   1      36.278  31.119  31.975  1.00  0.00     0.202 C 
BRANCH   5   6
ATOM      6  C   UNL A   1      37.076  30.180  30.182  1.00  0.00     0.261 C 
BRANCH   6   7
ATOM      7  O   UNL A   1      37.499  28.705  30.041  1.00  0.00    -0.460 OA
BRANCH   7   8
ATOM      8  C   UNL A   1      38.444  28.516  29.112  1.00  0.00     0.338 C 
ATOM      9  O   UNL A   1      38.490  28.886  27.968  1.00  0.00    -0.246 OA
BRANCH   8  10
ATOM     10  C   UNL A   1      39.117  27.450  29.815  1.00  0.00     0.087 C 
ATOM     11  C   UNL A   1      38.905  26.140  29.161  1.00  0.00     0.027 C 
ATOM     12  C   UNL A   1      40.819  28.354  29.964  1.00  0.00     0.316 C 
ATOM     13  C   UNL A   1      40.191  25.269  28.229  1.00  0.00     0.020 A 
ATOM     14  O   UNL A   1      42.176  27.488  28.879  1.00  0.00    -0.474 OA
ATOM     15  C   UNL A   1      39.876  24.078  27.630  1.00  0.00     0.032 A 
ATOM     16  C   UNL A   1      41.779  25.943  27.985  1.00  0.00     0.143 A 
ATOM     17  C   UNL A   1      40.913  23.503  26.877  1.00  0.00     0.043 A 
ATOM     18  C   UNL A   1      42.709  25.319  27.183  1.00  0.00     0.069 A 
ATOM     19  Cl  UNL A   1      40.577  21.974  26.125  1.00  0.00    -0.084 Cl
ATOM     20  C   UNL A   1      42.233  24.079  26.666  1.00  0.00     0.041 A 
BRANCH  12  21
ATOM     21  C   UNL A   1      40.734  28.643  31.565  1.00  0.00     0.430 C 
ATOM     22  F   UNL A   1      39.903  27.873  32.291  1.00  0.00    -0.167 F 
ATOM     23  F   UNL A   1      41.975  28.373  32.076  1.00  0.00    -0.167 F 
ATOM     24  F   UNL A   1      40.508  29.937  31.897  1.00  0.00    -0.167 F 
ENDBRANCH  12  21
BRANCH  18  25
ATOM     25  C   UNL A   1      44.040  25.731  26.860  1.00  0.00    -0.058 C 
ATOM     26  C   UNL A   1      45.135  25.972  26.430  1.00  0.00    -0.062 C 
BRANCH  26  27
ATOM     27  C   UNL A   1      46.424  26.128  25.812  1.00  0.00     0.025 A 
ATOM     28  C   UNL A   1      47.131  27.329  25.927  1.00  0.00     0.017 A 
ATOM     29  C   UNL A   1      46.937  25.115  25.001  1.00  0.00     0.017 A 
ATOM     30  C   UNL A   1      48.289  27.547  25.173  1.00  0.00     0.001 A 
ATOM     31  C   UNL A   1      48.124  25.313  24.287  1.00  0.00     0.001 A 
ATOM     32  C   UNL A   1      48.782  26.541  24.347  1.00  0.00     0.000 A 
ENDBRANCH  26  27
ENDBRANCH  18  25
ENDBRANCH   8  10
ENDBRANCH   7   8
ENDBRANCH   6   7
ENDBRANCH   5   6
ENDBRANCH   4   5
ENDBRANCH   3   4
ENDBRANCH   2   3
ENDBRANCH   1   2
BRANCH   1  33
ATOM     33  C   UNL A   1      39.500  34.587  30.851  1.00  0.00     0.188 C 
BRANCH  33  34
ATOM     34  C   UNL A   1      40.514  34.417  29.712  1.00  0.00     0.188 C 
BRANCH  34  35
ATOM     35  O   UNL A   1      41.390  35.444  29.287  1.00  0.00    -0.376 OA
BRANCH  35  36
ATOM     36  C   UNL A   1      41.218  36.076  28.035  1.00  0.00     0.202 C 
BRANCH  36  37
ATOM     37  C   UNL A   1      42.350  36.944  27.461  1.00  0.00     0.261 C 
BRANCH  37  38
ATOM     38  O   UNL A   1      43.182  36.347  26.455  1.00  0.00    -0.460 OA
BRANCH  38  39
ATOM     39  C   UNL A   1      44.460  36.070  26.809  1.00  0.00     0.338 C 
ATOM     40  O   UNL A   1      45.466  36.681  26.501  1.00  0.00    -0.246 OA
BRANCH  39  41
ATOM     41  C   UNL A   1      44.440  34.933  27.759  1.00  0.00     0.060 A 
ATOM     42  C   UNL A   1      45.057  35.036  29.016  1.00  0.00     0.016 A 
ATOM     43  C   UNL A   1      43.793  33.759  27.400  1.00  0.00     0.016 A 
ATOM     44  C   UNL A   1      45.035  33.959  29.918  1.00  0.00     0.010 A 
ATOM     45  C   UNL A   1      43.780  32.690  28.298  1.00  0.00     0.010 A 
ATOM     46  C   UNL A   1      44.421  32.757  29.556  1.00  0.00    -0.014 A 
BRANCH  46  47
ATOM     47  C   UNL A   1      44.582  31.488  30.336  1.00  0.00     0.031 A 
ATOM     48  C   UNL A   1      43.825  31.378  31.638  1.00  0.00     0.074 A 
ATOM     49  C   UNL A   1      45.410  30.481  29.988  1.00  0.00     0.049 A 
ATOM     50  N   UNL A   1      43.971  30.540  32.632  1.00  0.00    -0.248 NA
ATOM     51  C   UNL A   1      42.785  32.398  31.866  1.00  0.00     0.031 C 
ATOM     52  C   UNL A   1      46.177  30.382  28.751  1.00  0.00     0.029 A 
ATOM     53  N   UNL A   1      45.790  29.361  30.698  1.00  0.00    -0.354 N 
ATOM     54  C   UNL A   1      43.069  30.958  33.602  1.00  0.00     0.074 A 
ATOM     55  C   UNL A   1      42.484  32.194  33.135  1.00  0.00     0.031 C 
ATOM     56  C   UNL A   1      47.003  29.321  28.825  1.00  0.00     0.029 A 
ATOM     57  C   UNL A   1      46.821  28.660  30.114  1.00  0.00     0.049 A 
ATOM     58  H   UNL A   1      45.365  29.089  31.543  1.00  0.00     0.167 HD
ATOM     59  C   UNL A   1      42.692  30.335  34.742  1.00  0.00     0.037 A 
ATOM     60  C   UNL A   1      47.550  27.623  30.574  1.00  0.00     0.037 A 
ATOM     61  C   UNL A   1      43.201  29.064  35.171  1.00  0.00     0.049 A 
ATOM     62  C   UNL A   1      47.184  26.977  31.889  1.00  0.00     0.074 A 
ATOM     63  C   UNL A   1      42.802  28.296  36.250  1.00  0.00     0.029 A 
ATOM     64  N   UNL A   1      44.215  28.367  34.533  1.00  0.00    -0.354 N 
ATOM     65  N   UNL A   1      46.270  27.329  32.759  1.00  0.00    -0.248 NA
ATOM     66  C   UNL A   1      47.915  25.754  32.257  1.00  0.00     0.031 C 
ATOM     67  C   UNL A   1      43.614  27.160  36.298  1.00  0.00     0.029 A 
ATOM     68  C   UNL A   1      44.474  27.188  35.212  1.00  0.00     0.049 A 
ATOM     69  H   UNL A   1      44.683  28.667  33.720  1.00  0.00     0.167 HD
ATOM     70  C   UNL A   1      46.260  26.334  33.730  1.00  0.00     0.074 A 
ATOM     71  C   UNL A   1      47.275  25.374  33.354  1.00  0.00     0.031 C 
ATOM     72  C   UNL A   1      45.462  26.217  34.820  1.00  0.00     0.037 A 
BRANCH  59  73
ATOM     73  C   UNL A   1      41.643  31.011  35.578  1.00  0.00     0.064 A 
ATOM     74  C   UNL A   1      40.284  30.664  35.478  1.00  0.00     0.173 A 
ATOM     75  C   UNL A   1      41.996  32.014  36.492  1.00  0.00     0.173 A 
ATOM     76  F   UNL A   1      39.890  29.715  34.614  1.00  0.00    -0.203 F 
ATOM     77  C   UNL A   1      39.315  31.338  36.214  1.00  0.00     0.198 A 
ATOM     78  C   UNL A   1      41.027  32.654  37.261  1.00  0.00     0.198 A 
ATOM     79  F   UNL A   1      43.279  32.377  36.636  1.00  0.00    -0.203 F 
ATOM     80  F   UNL A   1      38.020  31.047  36.036  1.00  0.00    -0.200 F 
ATOM     81  C   UNL A   1      39.688  32.327  37.111  1.00  0.00     0.200 A 
ATOM     82  F   UNL A   1      41.391  33.596  38.142  1.00  0.00    -0.200 F 
ATOM     83  F   UNL A   1      38.755  32.973  37.822  1.00  0.00    -0.200 F 
ENDBRANCH  59  73
BRANCH  60  84
ATOM     84  C   UNL A   1      48.685  27.084  29.776  1.00  0.00     0.064 A 
ATOM     85  C   UNL A   1      49.944  27.701  29.808  1.00  0.00     0.173 A 
ATOM     86  C   UNL A   1      48.521  25.984  28.921  1.00  0.00     0.173 A 
ATOM     87  F   UNL A   1      50.142  28.773  30.588  1.00  0.00    -0.203 F 
ATOM     88  C   UNL A   1      50.986  27.260  28.992  1.00  0.00     0.198 A 
ATOM     89  C   UNL A   1      49.571  25.530  28.121  1.00  0.00     0.198 A 
ATOM     90  F   UNL A   1      47.337  25.358  28.851  1.00  0.00    -0.203 F 
ATOM     91  F   UNL A   1      52.160  27.907  29.002  1.00  0.00    -0.200 F 
ATOM     92  C   UNL A   1      50.799  26.175  28.151  1.00  0.00     0.200 A 
ATOM     93  F   UNL A   1      49.389  24.477  27.313  1.00  0.00    -0.200 F 
ATOM     94  F   UNL A   1      51.798  25.758  27.360  1.00  0.00    -0.200 F 
ENDBRANCH  60  84
BRANCH  72  95
ATOM     95  C   UNL A   1      45.578  24.971  35.650  1.00  0.00     0.064 A 
ATOM     96  C   UNL A   1      46.144  24.977  36.932  1.00  0.00     0.173 A 
ATOM     97  C   UNL A   1      45.051  23.759  35.174  1.00  0.00     0.173 A 
ATOM     98  F   UNL A   1      46.674  26.104  37.432  1.00  0.00    -0.203 F 
ATOM     99  C   UNL A   1      46.198  23.813  37.696  1.00  0.00     0.198 A 
ATOM    100  C   UNL A   1      45.072  22.608  35.955  1.00  0.00     0.198 A 
ATOM    101  F   UNL A   1      44.490  23.697  33.955  1.00  0.00    -0.203 F 
ATOM    102  F   UNL A   1      46.787  23.832  38.900  1.00  0.00    -0.200 F 
ATOM    103  C   UNL A   1      45.652  22.633  37.213  1.00  0.00     0.200 A 
ATOM    104  F   UNL A   1      44.524  21.475  35.492  1.00  0.00    -0.200 F 
ATOM    105  F   UNL A   1      45.690  21.521  37.958  1.00  0.00    -0.200 F 
ENDBRANCH  72  95
ENDBRANCH  46  47
ENDBRANCH  39  41
ENDBRANCH  38  39
ENDBRANCH  37  38
ENDBRANCH  36  37
ENDBRANCH  35  36
ENDBRANCH  34  35
ENDBRANCH  33  34
ENDBRANCH   1  33
TORSDOF 23
ENDMDL
MODEL 2
REMARK VINA RESULT:      -7.3      7.640     13.490
REMARK SMILES O=C(OCCOCCOCCOCCOC(=O)c1ccc(-c2c3nc(c(-c4c(F)c(F)c(F)c(F)c4F)c4ccc([nH]4)c(-c4c(F)c(F)c(F)c(F)c4F)c4nc(c(-c5c(F)c(F)c(F)c(F)c5F)c5ccc2[nH]5)C=C4)C=C3)cc1)C1=Cc2cc(Cl)cc(C#Cc3ccccc3)c2O[C@@H]1C(F)(F)F
REMARK SMILES IDX 9 1 8 2 7 3 6 4 5 5 4 6 3 7 2 8 1 9 81 10 82 11 99 12 83 13
REMARK SMILES IDX 98 14 84 15 97 16 85 17 88 18 86 19 87 20 100 21 101 22
REMARK SMILES IDX 102 23 103 24 89 25 90 26 91 27 92 28 96 29 93 30 95 31
REMARK SMILES IDX 94 32 10 33 11 34 12 35 13 36 14 37 15 38 16 39 17 40 18 41
REMARK SMILES IDX 19 42 80 43 20 44 79 45 21 46 22 47 23 48 73 49 24 50 78 51
REMARK SMILES IDX 72 52 74 53 25 54 77 55 71 56 70 57 26 59 58 60 38 61 57 62
REMARK SMILES IDX 39 63 42 64 56 65 75 66 40 67 41 68 55 70 76 71 43 72 27 73
REMARK SMILES IDX 28 74 36 75 29 76 30 77 34 78 37 79 31 80 32 81 35 82 33 83
REMARK SMILES IDX 59 84 60 85 68 86 61 87 62 88 66 89 69 90 63 91 64 92 67 93
REMARK SMILES IDX 65 94 44 95 45 96 53 97 46 98 47 99 51 100 54 101 48 102
REMARK SMILES IDX 49 103 52 104 50 105
REMARK H PARENT 74 58 42 69
REMARK Flexibility Score: inf
ROOT
ATOM      1  O   UNL A   1      34.531  34.409  28.105  1.00  0.00    -0.377 OA
ENDROOT
BRANCH   1   2
ATOM      2  C   UNL A   1      33.335  34.391  28.851  1.00  0.00     0.188 C 
BRANCH   2   3
ATOM      3  C   UNL A   1      33.221  35.514  29.884  1.00  0.00     0.188 C 
BRANCH   3   4
ATOM      4  O   UNL A   1      32.894  35.279  31.283  1.00  0.00    -0.376 OA
BRANCH   4   5
ATOM      5  C   UNL A   1      33.686  34.651  32.550  1.00  0.00     0.202 C 
BRANCH   5   6
ATOM      6  C   UNL A   1      35.811  34.713  33.015  1.00  0.00     0.261 C 
BRANCH   6   7
ATOM      7  O   UNL A   1      36.653  33.549  33.574  1.00  0.00    -0.460 OA
BRANCH   7   8
ATOM      8  C   UNL A   1      36.682  33.517  34.912  1.00  0.00     0.338 C 
ATOM      9  O   UNL A   1      35.815  33.758  35.712  1.00  0.00    -0.246 OA
BRANCH   8  10
ATOM     10  C   UNL A   1      38.121  33.498  35.018  1.00  0.00     0.087 C 
ATOM     11  C   UNL A   1      38.647  34.750  35.604  1.00  0.00     0.027 C 
ATOM     12  C   UNL A   1      38.236  31.753  35.842  1.00  0.00     0.316 C 
ATOM     13  C   UNL A   1      39.316  34.864  37.284  1.00  0.00     0.020 A 
ATOM     14  O   UNL A   1      38.849  31.879  37.680  1.00  0.00    -0.474 OA
ATOM     15  C   UNL A   1      39.742  36.083  37.740  1.00  0.00     0.032 A 
ATOM     16  C   UNL A   1      39.342  33.501  38.367  1.00  0.00     0.143 A 
ATOM     17  C   UNL A   1      40.187  36.093  39.072  1.00  0.00     0.043 A 
ATOM     18  C   UNL A   1      39.753  33.631  39.676  1.00  0.00     0.069 A 
ATOM     19  Cl  UNL A   1      40.770  37.607  39.690  1.00  0.00    -0.084 Cl
ATOM     20  C   UNL A   1      40.192  34.953  39.977  1.00  0.00     0.041 A 
BRANCH  12  21
ATOM     21  C   UNL A   1      38.848  30.977  34.547  1.00  0.00     0.430 C 
ATOM     22  F   UNL A   1      39.890  31.550  33.917  1.00  0.00    -0.167 F 
ATOM     23  F   UNL A   1      39.346  29.788  35.006  1.00  0.00    -0.167 F 
ATOM     24  F   UNL A   1      37.933  30.622  33.614  1.00  0.00    -0.167 F 
ENDBRANCH  12  21
BRANCH  18  25
ATOM     25  C   UNL A   1      39.823  32.635  40.700  1.00  0.00    -0.058 C 
ATOM     26  C   UNL A   1      39.706  31.857  41.607  1.00  0.00    -0.062 C 
BRANCH  26  27
ATOM     27  C   UNL A   1      39.438  31.023  42.747  1.00  0.00     0.025 A 
ATOM     28  C   UNL A   1      38.335  30.163  42.759  1.00  0.00     0.017 A 
ATOM     29  C   UNL A   1      40.217  31.140  43.899  1.00  0.00     0.017 A 
ATOM     30  C   UNL A   1      37.966  29.496  43.933  1.00  0.00     0.001 A 
ATOM     31  C   UNL A   1      39.878  30.434  45.057  1.00  0.00     0.001 A 
ATOM     32  C   UNL A   1      38.734  29.638  45.085  1.00  0.00     0.000 A 
ENDBRANCH  26  27
ENDBRANCH  18  25
ENDBRANCH   8  10
ENDBRANCH   7   8
ENDBRANCH   6   7
ENDBRANCH   5   6
ENDBRANCH   4   5
ENDBRANCH   3   4
ENDBRANCH   2   3
ENDBRANCH   1   2
BRANCH   1  33
ATOM     33  C   UNL A   1      35.258  33.208  28.241  1.00  0.00     0.188 C 
BRANCH  33  34
ATOM     34  C   UNL A   1      35.666  32.788  29.660  1.00  0.00     0.188 C 
BRANCH  34  35
ATOM     35  O   UNL A   1      37.010  32.592  30.060  1.00  0.00    -0.376 OA
BRANCH  35  36
ATOM     36  C   UNL A   1      38.082  33.051  29.263  1.00  0.00     0.202 C 
BRANCH  36  37
ATOM     37  C   UNL A   1      39.318  33.667  29.937  1.00  0.00     0.261 C 
BRANCH  37  38
ATOM     38  O   UNL A   1      39.881  32.948  31.046  1.00  0.00    -0.460 OA
BRANCH  38  39
ATOM     39  C   UNL A   1      41.231  32.841  31.078  1.00  0.00     0.338 C 
ATOM     40  O   UNL A   1      41.949  32.244  30.299  1.00  0.00    -0.246 OA
BRANCH  39  41
ATOM     41  C   UNL A   1      41.734  33.688  32.185  1.00  0.00     0.060 A 
ATOM     42  C   UNL A   1      40.867  34.534  32.895  1.00  0.00     0.016 A 
ATOM     43  C   UNL A   1      43.079  33.634  32.525  1.00  0.00     0.016 A 
ATOM     44  C   UNL A   1      41.344  35.334  33.947  1.00  0.00     0.010 A 
ATOM     45  C   UNL A   1      43.547  34.437  33.566  1.00  0.00     0.010 A 
ATOM     46  C   UNL A   1      42.701  35.319  34.276  1.00  0.00    -0.014 A 
BRANCH  46  47
ATOM     47  C   UNL A   1      43.334  36.324  35.188  1.00  0.00     0.031 A 
ATOM     48  C   UNL A   1      43.547  35.913  36.626  1.00  0.00     0.074 A 
ATOM     49  C   UNL A   1      43.653  37.585  34.827  1.00  0.00     0.049 A 
ATOM     50  N   UNL A   1      43.815  36.639  37.681  1.00  0.00    -0.248 NA
ATOM     51  C   UNL A   1      43.382  34.477  36.915  1.00  0.00     0.031 C 
ATOM     52  C   UNL A   1      43.572  38.146  33.483  1.00  0.00     0.029 A 
ATOM     53  N   UNL A   1      44.057  38.653  35.602  1.00  0.00    -0.354 N 
ATOM     54  C   UNL A   1      43.815  35.750  38.748  1.00  0.00     0.074 A 
ATOM     55  C   UNL A   1      43.389  34.468  38.236  1.00  0.00     0.031 C 
ATOM     56  C   UNL A   1      43.821  39.468  33.538  1.00  0.00     0.029 A 
ATOM     57  C   UNL A   1      44.085  39.849  34.922  1.00  0.00     0.049 A 
ATOM     58  H   UNL A   1      44.302  38.567  36.552  1.00  0.00     0.167 HD
ATOM     59  C   UNL A   1      44.212  35.950  40.026  1.00  0.00     0.037 A 
ATOM     60  C   UNL A   1      44.277  41.108  35.366  1.00  0.00     0.037 A 
ATOM     61  C   UNL A   1      44.721  37.196  40.525  1.00  0.00     0.049 A 
ATOM     62  C   UNL A   1      44.638  41.344  36.813  1.00  0.00     0.074 A 
ATOM     63  C   UNL A   1      45.254  37.471  41.771  1.00  0.00     0.029 A 
ATOM     64  N   UNL A   1      44.770  38.373  39.796  1.00  0.00    -0.354 N 
ATOM     65  N   UNL A   1      44.720  40.482  37.797  1.00  0.00    -0.248 NA
ATOM     66  C   UNL A   1      44.989  42.720  37.197  1.00  0.00     0.031 C 
ATOM     67  C   UNL A   1      45.575  38.831  41.815  1.00  0.00     0.029 A 
ATOM     68  C   UNL A   1      45.302  39.386  40.576  1.00  0.00     0.049 A 
ATOM     69  H   UNL A   1      44.471  38.474  38.863  1.00  0.00     0.167 HD
ATOM     70  C   UNL A   1      45.207  41.192  38.888  1.00  0.00     0.074 A 
ATOM     71  C   UNL A   1      45.382  42.560  38.453  1.00  0.00     0.031 C 
ATOM     72  C   UNL A   1      45.506  40.741  40.132  1.00  0.00     0.037 A 
BRANCH  59  73
ATOM     73  C   UNL A   1      44.148  34.773  40.957  1.00  0.00     0.064 A 
ATOM     74  C   UNL A   1      45.099  33.740  40.905  1.00  0.00     0.173 A 
ATOM     75  C   UNL A   1      43.128  34.674  41.914  1.00  0.00     0.173 A 
ATOM     76  F   UNL A   1      46.093  33.780  40.004  1.00  0.00    -0.203 F 
ATOM     77  C   UNL A   1      44.996  32.626  41.732  1.00  0.00     0.198 A 
ATOM     78  C   UNL A   1      43.054  33.580  42.772  1.00  0.00     0.198 A 
ATOM     79  F   UNL A   1      42.199  35.637  42.015  1.00  0.00    -0.203 F 
ATOM     80  F   UNL A   1      45.866  31.615  41.602  1.00  0.00    -0.200 F 
ATOM     81  C   UNL A   1      43.978  32.551  42.669  1.00  0.00     0.200 A 
ATOM     82  F   UNL A   1      42.082  33.517  43.691  1.00  0.00    -0.200 F 
ATOM     83  F   UNL A   1      43.881  31.480  43.468  1.00  0.00    -0.200 F 
ENDBRANCH  59  73
BRANCH  60  84
ATOM     84  C   UNL A   1      44.177  42.263  34.431  1.00  0.00     0.064 A 
ATOM     85  C   UNL A   1      43.037  43.081  34.418  1.00  0.00     0.173 A 
ATOM     86  C   UNL A   1      45.184  42.535  33.495  1.00  0.00     0.173 A 
ATOM     87  F   UNL A   1      42.034  42.841  35.274  1.00  0.00    -0.203 F 
ATOM     88  C   UNL A   1      42.894  44.105  33.483  1.00  0.00     0.198 A 
ATOM     89  C   UNL A   1      45.050  43.576  32.574  1.00  0.00     0.198 A 
ATOM     90  F   UNL A   1      46.295  41.784  33.464  1.00  0.00    -0.203 F 
ATOM     91  F   UNL A   1      41.768  44.831  33.456  1.00  0.00    -0.200 F 
ATOM     92  C   UNL A   1      43.901  44.352  32.562  1.00  0.00     0.200 A 
ATOM     93  F   UNL A   1      46.027  43.816  31.689  1.00  0.00    -0.200 F 
ATOM     94  F   UNL A   1      43.758  45.331  31.658  1.00  0.00    -0.200 F 
ENDBRANCH  60  84
BRANCH  72  95
ATOM     95  C   UNL A   1      46.137  41.700  41.100  1.00  0.00     0.064 A 
ATOM     96  C   UNL A   1      47.524  41.893  41.164  1.00  0.00     0.173 A 
ATOM     97  C   UNL A   1      45.328  42.489  41.934  1.00  0.00     0.173 A 
ATOM     98  F   UNL A   1      48.345  41.159  40.398  1.00  0.00    -0.203 F 
ATOM     99  C   UNL A   1      48.077  42.823  42.042  1.00  0.00     0.198 A 
ATOM    100  C   UNL A   1      45.881  43.443  42.782  1.00  0.00     0.198 A 
ATOM    101  F   UNL A   1      43.993  42.350  41.909  1.00  0.00    -0.203 F 
ATOM    102  F   UNL A   1      49.409  42.957  42.120  1.00  0.00    -0.200 F 
ATOM    103  C   UNL A   1      47.256  43.605  42.841  1.00  0.00     0.200 A 
ATOM    104  F   UNL A   1      45.083  44.211  43.537  1.00  0.00    -0.200 F 
ATOM    105  F   UNL A   1      47.791  44.510  43.671  1.00  0.00    -0.200 F 
ENDBRANCH  72  95
ENDBRANCH  46  47
ENDBRANCH  39  41
ENDBRANCH  38  39
ENDBRANCH  37  38
ENDBRANCH  36  37
ENDBRANCH  35  36
ENDBRANCH  34  35
ENDBRANCH  33  34
ENDBRANCH   1  33
TORSDOF 23
ENDMDL
MODEL 3
REMARK VINA RESULT:      -6.9      4.725     11.982
REMARK SMILES O=C(OCCOCCOCCOCCOC(=O)c1ccc(-c2c3nc(c(-c4c(F)c(F)c(F)c(F)c4F)c4ccc([nH]4)c(-c4c(F)c(F)c(F)c(F)c4F)c4nc(c(-c5c(F)c(F)c(F)c(F)c5F)c5ccc2[nH]5)C=C4)C=C3)cc1)C1=Cc2cc(Cl)cc(C#Cc3ccccc3)c2O[C@@H]1C(F)(F)F
REMARK SMILES IDX 9 1 8 2 7 3 6 4 5 5 4 6 3 7 2 8 1 9 81 10 82 11 99 12 83 13
REMARK SMILES IDX 98 14 84 15 97 16 85 17 88 18 86 19 87 20 100 21 101 22
REMARK SMILES IDX 102 23 103 24 89 25 90 26 91 27 92 28 96 29 93 30 95 31
REMARK SMILES IDX 94 32 10 33 11 34 12 35 13 36 14 37 15 38 16 39 17 40 18 41
REMARK SMILES IDX 19 42 80 43 20 44 79 45 21 46 22 47 23 48 73 49 24 50 78 51
REMARK SMILES IDX 72 52 74 53 25 54 77 55 71 56 70 57 26 59 58 60 38 61 57 62
REMARK SMILES IDX 39 63 42 64 56 65 75 66 40 67 41 68 55 70 76 71 43 72 27 73
REMARK SMILES IDX 28 74 36 75 29 76 30 77 34 78 37 79 31 80 32 81 35 82 33 83
REMARK SMILES IDX 59 84 60 85 68 86 61 87 62 88 66 89 69 90 63 91 64 92 67 93
REMARK SMILES IDX 65 94 44 95 45 96 53 97 46 98 47 99 51 100 54 101 48 102
REMARK SMILES IDX 49 103 52 104 50 105
REMARK H PARENT 74 58 42 69
REMARK Flexibility Score: inf
ROOT
ATOM      1  O   UNL A   1      38.568  28.169  28.710  1.00  0.00    -0.377 OA
ENDROOT
BRANCH   1   2
ATOM      2  C   UNL A   1      38.214  29.504  28.990  1.00  0.00     0.188 C 
BRANCH   2   3
ATOM      3  C   UNL A   1      36.716  29.723  29.221  1.00  0.00     0.188 C 
BRANCH   3   4
ATOM      4  O   UNL A   1      35.834  30.306  28.221  1.00  0.00    -0.376 OA
BRANCH   4   5
ATOM      5  C   UNL A   1      35.302  31.805  27.905  1.00  0.00     0.202 C 
BRANCH   5   6
ATOM      6  C   UNL A   1      34.311  33.223  29.224  1.00  0.00     0.261 C 
BRANCH   6   7
ATOM      7  O   UNL A   1      34.840  33.722  30.583  1.00  0.00    -0.460 OA
BRANCH   7   8
ATOM      8  C   UNL A   1      35.447  32.763  31.294  1.00  0.00     0.338 C 
ATOM      9  O   UNL A   1      35.045  31.682  31.638  1.00  0.00    -0.246 OA
BRANCH   8  10
ATOM     10  C   UNL A   1      36.502  33.611  31.796  1.00  0.00     0.087 C 
ATOM     11  C   UNL A   1      36.299  33.958  33.219  1.00  0.00     0.027 C 
ATOM     12  C   UNL A   1      37.959  32.541  31.112  1.00  0.00     0.316 C 
ATOM     13  C   UNL A   1      37.291  33.268  34.568  1.00  0.00     0.020 A 
ATOM     14  O   UNL A   1      38.961  31.709  32.552  1.00  0.00    -0.474 OA
ATOM     15  C   UNL A   1      36.992  33.630  35.856  1.00  0.00     0.032 A 
ATOM     16  C   UNL A   1      38.541  32.087  34.292  1.00  0.00     0.143 A 
ATOM     17  C   UNL A   1      37.770  33.000  36.841  1.00  0.00     0.043 A 
ATOM     18  C   UNL A   1      39.212  31.492  35.338  1.00  0.00     0.069 A 
ATOM     19  Cl  UNL A   1      37.455  33.449  38.489  1.00  0.00    -0.084 Cl
ATOM     20  C   UNL A   1      38.803  32.003  36.603  1.00  0.00     0.041 A 
BRANCH  12  21
ATOM     21  C   UNL A   1      38.410  33.573  29.935  1.00  0.00     0.430 C 
ATOM     22  F   UNL A   1      39.694  33.976  29.922  1.00  0.00    -0.167 F 
ATOM     23  F   UNL A   1      38.255  32.904  28.751  1.00  0.00    -0.167 F 
ATOM     24  F   UNL A   1      37.623  34.668  29.808  1.00  0.00    -0.167 F 
ENDBRANCH  12  21
BRANCH  18  25
ATOM     25  C   UNL A   1      40.243  30.503  35.298  1.00  0.00    -0.058 C 
ATOM     26  C   UNL A   1      41.024  29.610  35.105  1.00  0.00    -0.062 C 
BRANCH  26  27
ATOM     27  C   UNL A   1      41.843  28.477  34.769  1.00  0.00     0.025 A 
ATOM     28  C   UNL A   1      42.513  28.419  33.543  1.00  0.00     0.017 A 
ATOM     29  C   UNL A   1      41.892  27.373  35.621  1.00  0.00     0.017 A 
ATOM     30  C   UNL A   1      43.151  27.242  33.137  1.00  0.00     0.001 A 
ATOM     31  C   UNL A   1      42.574  26.214  35.236  1.00  0.00     0.001 A 
ATOM     32  C   UNL A   1      43.175  26.136  33.981  1.00  0.00     0.000 A 
ENDBRANCH  26  27
ENDBRANCH  18  25
ENDBRANCH   8  10
ENDBRANCH   7   8
ENDBRANCH   6   7
ENDBRANCH   5   6
ENDBRANCH   4   5
ENDBRANCH   3   4
ENDBRANCH   2   3
ENDBRANCH   1   2
BRANCH   1  33
ATOM     33  C   UNL A   1      39.647  28.087  27.805  1.00  0.00     0.188 C 
BRANCH  33  34
ATOM     34  C   UNL A   1      40.365  26.737  27.685  1.00  0.00     0.188 C 
BRANCH  34  35
ATOM     35  O   UNL A   1      39.935  25.561  28.348  1.00  0.00    -0.376 OA
BRANCH  35  36
ATOM     36  C   UNL A   1      39.433  24.458  27.623  1.00  0.00     0.202 C 
BRANCH  36  37
ATOM     37  C   UNL A   1      40.405  23.388  27.100  1.00  0.00     0.261 C 
BRANCH  37  38
ATOM     38  O   UNL A   1      41.492  23.843  26.278  1.00  0.00    -0.460 OA
BRANCH  38  39
ATOM     39  C   UNL A   1      42.723  23.366  26.580  1.00  0.00     0.338 C 
ATOM     40  O   UNL A   1      43.051  22.206  26.747  1.00  0.00    -0.246 OA
BRANCH  39  41
ATOM     41  C   UNL A   1      43.675  24.501  26.562  1.00  0.00     0.060 A 
ATOM     42  C   UNL A   1      44.134  25.073  27.760  1.00  0.00     0.016 A 
ATOM     43  C   UNL A   1      44.123  24.994  25.345  1.00  0.00     0.016 A 
ATOM     44  C   UNL A   1      45.040  26.147  27.743  1.00  0.00     0.010 A 
ATOM     45  C   UNL A   1      45.017  26.066  25.335  1.00  0.00     0.010 A 
ATOM     46  C   UNL A   1      45.470  26.679  26.525  1.00  0.00    -0.014 A 
BRANCH  46  47
ATOM     47  C   UNL A   1      46.211  27.976  26.414  1.00  0.00     0.031 A 
ATOM     48  C   UNL A   1      47.712  27.901  26.261  1.00  0.00     0.074 A 
ATOM     49  C   UNL A   1      45.636  29.192  26.518  1.00  0.00     0.049 A 
ATOM     50  N   UNL A   1      48.623  28.828  26.407  1.00  0.00    -0.248 NA
ATOM     51  C   UNL A   1      48.260  26.570  25.943  1.00  0.00     0.031 C 
ATOM     52  C   UNL A   1      44.207  29.467  26.616  1.00  0.00     0.029 A 
ATOM     53  N   UNL A   1      46.216  30.440  26.623  1.00  0.00    -0.354 N 
ATOM     54  C   UNL A   1      49.839  28.181  26.232  1.00  0.00     0.074 A 
ATOM     55  C   UNL A   1      49.556  26.769  26.106  1.00  0.00     0.031 C 
ATOM     56  C   UNL A   1      44.023  30.778  26.859  1.00  0.00     0.029 A 
ATOM     57  C   UNL A   1      45.322  31.440  26.931  1.00  0.00     0.049 A 
ATOM     58  H   UNL A   1      47.178  30.600  26.490  1.00  0.00     0.167 HD
ATOM     59  C   UNL A   1      51.077  28.709  26.103  1.00  0.00     0.037 A 
ATOM     60  C   UNL A   1      45.527  32.733  27.257  1.00  0.00     0.037 A 
ATOM     61  C   UNL A   1      51.360  30.116  26.138  1.00  0.00     0.049 A 
ATOM     62  C   UNL A   1      46.922  33.307  27.196  1.00  0.00     0.074 A 
ATOM     63  C   UNL A   1      52.562  30.759  25.904  1.00  0.00     0.029 A 
ATOM     64  N   UNL A   1      50.423  31.099  26.413  1.00  0.00    -0.354 N 
ATOM     65  N   UNL A   1      48.056  32.701  26.944  1.00  0.00    -0.248 NA
ATOM     66  C   UNL A   1      47.057  34.757  27.407  1.00  0.00     0.031 C 
ATOM     67  C   UNL A   1      52.364  32.130  26.094  1.00  0.00     0.029 A 
ATOM     68  C   UNL A   1      51.026  32.345  26.381  1.00  0.00     0.049 A 
ATOM     69  H   UNL A   1      49.470  30.936  26.604  1.00  0.00     0.167 HD
ATOM     70  C   UNL A   1      49.021  33.701  26.887  1.00  0.00     0.074 A 
ATOM     71  C   UNL A   1      48.343  34.951  27.152  1.00  0.00     0.031 C 
ATOM     72  C   UNL A   1      50.344  33.592  26.613  1.00  0.00     0.037 A 
BRANCH  59  73
ATOM     73  C   UNL A   1      52.211  27.752  25.868  1.00  0.00     0.064 A 
ATOM     74  C   UNL A   1      52.565  27.333  24.574  1.00  0.00     0.173 A 
ATOM     75  C   UNL A   1      52.955  27.249  26.944  1.00  0.00     0.173 A 
ATOM     76  F   UNL A   1      51.882  27.778  23.508  1.00  0.00    -0.203 F 
ATOM     77  C   UNL A   1      53.578  26.401  24.373  1.00  0.00     0.198 A 
ATOM     78  C   UNL A   1      53.999  26.351  26.735  1.00  0.00     0.198 A 
ATOM     79  F   UNL A   1      52.668  27.624  28.200  1.00  0.00    -0.203 F 
ATOM     80  F   UNL A   1      53.837  25.952  23.137  1.00  0.00    -0.200 F 
ATOM     81  C   UNL A   1      54.299  25.917  25.453  1.00  0.00     0.200 A 
ATOM     82  F   UNL A   1      54.709  25.900  27.778  1.00  0.00    -0.200 F 
ATOM     83  F   UNL A   1      55.277  25.022  25.259  1.00  0.00    -0.200 F 
ENDBRANCH  59  73
BRANCH  60  84
ATOM     84  C   UNL A   1      44.383  33.607  27.636  1.00  0.00     0.064 A 
ATOM     85  C   UNL A   1      43.782  34.454  26.693  1.00  0.00     0.173 A 
ATOM     86  C   UNL A   1      43.909  33.661  28.955  1.00  0.00     0.173 A 
ATOM     87  F   UNL A   1      44.221  34.460  25.427  1.00  0.00    -0.203 F 
ATOM     88  C   UNL A   1      42.774  35.344  27.061  1.00  0.00     0.198 A 
ATOM     89  C   UNL A   1      42.883  34.536  29.316  1.00  0.00     0.198 A 
ATOM     90  F   UNL A   1      44.448  32.873  29.896  1.00  0.00    -0.203 F 
ATOM     91  F   UNL A   1      42.260  36.183  26.149  1.00  0.00    -0.200 F 
ATOM     92  C   UNL A   1      42.325  35.384  28.371  1.00  0.00     0.200 A 
ATOM     93  F   UNL A   1      42.447  34.568  30.583  1.00  0.00    -0.200 F 
ATOM     94  F   UNL A   1      41.362  36.247  28.725  1.00  0.00    -0.200 F 
ENDBRANCH  60  84
BRANCH  72  95
ATOM     95  C   UNL A   1      51.149  34.855  26.495  1.00  0.00     0.064 A 
ATOM     96  C   UNL A   1      51.761  35.457  27.603  1.00  0.00     0.173 A 
ATOM     97  C   UNL A   1      51.362  35.436  25.234  1.00  0.00     0.173 A 
ATOM     98  F   UNL A   1      51.581  34.951  28.833  1.00  0.00    -0.203 F 
ATOM     99  C   UNL A   1      52.537  36.604  27.456  1.00  0.00     0.198 A 
ATOM    100  C   UNL A   1      52.169  36.559  25.086  1.00  0.00     0.198 A 
ATOM    101  F   UNL A   1      50.805  34.896  24.138  1.00  0.00    -0.203 F 
ATOM    102  F   UNL A   1      53.074  37.191  28.535  1.00  0.00    -0.200 F 
ATOM    103  C   UNL A   1      52.750  37.147  26.197  1.00  0.00     0.200 A 
ATOM    104  F   UNL A   1      52.389  37.068  23.865  1.00  0.00    -0.200 F 
ATOM    105  F   UNL A   1      53.512  38.241  26.057  1.00  0.00    -0.200 F 
ENDBRANCH  72  95
ENDBRANCH  46  47
ENDBRANCH  39  41
ENDBRANCH  38  39
ENDBRANCH  37  38
ENDBRANCH  36  37
ENDBRANCH  35  36
ENDBRANCH  34  35
ENDBRANCH  33  34
ENDBRANCH   1  33
TORSDOF 23
ENDMDL
