MODEL 1
REMARK VINA RESULT:      -9.5      0.000      0.000
REMARK SMILES O=C(Nc1cccc(C(=O)OCCOCCOCCOCCOC(=O)c2ccc(-c3c4nc(c(-c5c(F)c(F)c(F)c(F)c5F)c5ccc([nH]5)c(-c5c(F)c(F)c(F)c(F)c5F)c5nc(c(-c6c(F)c(F)c(F)c(F)c6F)c6ccc3[nH]6)C=C5)C=C4)cc2)c1)Nc1cc(Cl)c(Cl)cc1Cl
REMARK SMILES IDX 17 1 16 2 15 3 14 4 13 5 12 6 11 7 9 8 10 9 8 10 4 11 5 12
REMARK SMILES IDX 89 13 6 14 7 15 3 16 1 17 2 18 90 19 91 22 92 23 98 24 93 25
REMARK SMILES IDX 97 26 99 27 94 28 95 29 96 30 18 31 19 32 20 33 21 34 22 35
REMARK SMILES IDX 23 36 24 37 25 38 26 39 27 40 88 41 28 42 87 43 29 44 30 45
REMARK SMILES IDX 31 46 81 47 32 48 86 49 80 50 82 51 33 52 85 53 79 54 78 55
REMARK SMILES IDX 34 57 66 58 46 59 65 60 47 61 50 62 64 63 83 64 48 65 49 66
REMARK SMILES IDX 63 68 84 69 51 70 35 71 36 72 44 73 37 74 38 75 42 76 45 77
REMARK SMILES IDX 39 78 40 79 43 80 41 81 67 82 68 83 76 84 69 85 70 86 74 87
REMARK SMILES IDX 77 88 71 89 72 90 75 91 73 92 52 93 53 94 61 95 54 96 55 97
REMARK SMILES IDX 59 98 62 99 56 100 57 101 60 102 58 103
REMARK H PARENT 3 20 90 21 82 56 50 67
REMARK Flexibility Score: inf
ROOT
ATOM      1  O   UNL A   1      34.049  33.222  31.399  1.00  0.00    -0.377 OA
ENDROOT
BRANCH   1   2
ATOM      2  C   UNL A   1      35.078  32.284  31.664  1.00  0.00     0.188 C 
BRANCH   2   3
ATOM      3  C   UNL A   1      35.737  32.453  33.044  1.00  0.00     0.188 C 
BRANCH   3   4
ATOM      4  O   UNL A   1      34.895  33.105  33.992  1.00  0.00    -0.376 OA
BRANCH   4   5
ATOM      5  C   UNL A   1      35.463  34.201  34.699  1.00  0.00     0.202 C 
BRANCH   5   6
ATOM      6  C   UNL A   1      36.887  33.985  35.224  1.00  0.00     0.261 C 
BRANCH   6   7
ATOM      7  O   UNL A   1      37.882  33.777  34.211  1.00  0.00    -0.460 OA
BRANCH   7   8
ATOM      8  C   UNL A   1      38.764  34.769  33.967  1.00  0.00     0.338 C 
ATOM      9  O   UNL A   1      39.186  35.593  34.758  1.00  0.00    -0.246 OA
BRANCH   8  10
ATOM     10  C   UNL A   1      39.282  34.573  32.592  1.00  0.00     0.062 A 
ATOM     11  C   UNL A   1      41.153  34.335  31.063  1.00  0.00     0.043 A 
ATOM     12  C   UNL A   1      40.263  34.418  29.988  1.00  0.00     0.026 A 
ATOM     13  C   UNL A   1      40.659  34.478  32.361  1.00  0.00     0.041 A 
ATOM     14  C   UNL A   1      38.886  34.531  30.214  1.00  0.00     0.003 A 
ATOM     15  C   UNL A   1      38.391  34.578  31.517  1.00  0.00     0.016 A 
BRANCH  11  16
ATOM     16  N   UNL A   1      42.516  34.120  30.780  1.00  0.00    -0.308 N 
ATOM     17  O   UNL A   1      44.530  34.440  29.845  1.00  0.00    -0.248 OA
ATOM     18  C   UNL A   1      43.420  34.898  30.092  1.00  0.00     0.323 C 
ATOM     19  N   UNL A   1      43.034  36.193  29.884  1.00  0.00    -0.306 N 
ATOM     20  H   UNL A   1      42.882  33.275  31.131  1.00  0.00     0.171 HD
ATOM     21  H   UNL A   1      42.275  36.494  30.436  1.00  0.00     0.171 HD
BRANCH  19  22
ATOM     22  C   UNL A   1      43.550  37.165  29.003  1.00  0.00     0.063 A 
ATOM     23  C   UNL A   1      44.275  38.194  29.634  1.00  0.00     0.049 A 
ATOM     24  C   UNL A   1      43.361  37.239  27.613  1.00  0.00     0.066 A 
ATOM     25  C   UNL A   1      44.857  39.232  28.900  1.00  0.00     0.061 A 
ATOM     26  C   UNL A   1      43.968  38.268  26.876  1.00  0.00     0.044 A 
ATOM     27  Cl  UNL A   1      42.266  36.242  26.724  1.00  0.00    -0.082 Cl
ATOM     28  Cl  UNL A   1      45.714  40.448  29.776  1.00  0.00    -0.083 Cl
ATOM     29  C   UNL A   1      44.720  39.257  27.514  1.00  0.00     0.061 A 
ATOM     30  Cl  UNL A   1      45.415  40.500  26.538  1.00  0.00    -0.083 Cl
ENDBRANCH  19  22
ENDBRANCH  11  16
ENDBRANCH   8  10
ENDBRANCH   7   8
ENDBRANCH   6   7
ENDBRANCH   5   6
ENDBRANCH   4   5
ENDBRANCH   3   4
ENDBRANCH   2   3
ENDBRANCH   1   2
BRANCH   1  31
ATOM     31  C   UNL A   1      34.400  34.599  31.287  1.00  0.00     0.188 C 
BRANCH  31  32
ATOM     32  C   UNL A   1      33.400  35.676  30.806  1.00  0.00     0.188 C 
BRANCH  32  33
ATOM     33  O   UNL A   1      32.559  35.269  29.730  1.00  0.00    -0.376 OA
BRANCH  33  34
ATOM     34  C   UNL A   1      33.157  35.187  28.444  1.00  0.00     0.202 C 
BRANCH  34  35
ATOM     35  C   UNL A   1      33.117  33.778  27.845  1.00  0.00     0.261 C 
BRANCH  35  36
ATOM     36  O   UNL A   1      34.321  33.018  28.038  1.00  0.00    -0.460 OA
BRANCH  36  37
ATOM     37  C   UNL A   1      34.245  31.691  27.798  1.00  0.00     0.338 C 
ATOM     38  O   UNL A   1      33.341  31.087  27.250  1.00  0.00    -0.246 OA
BRANCH  37  39
ATOM     39  C   UNL A   1      35.544  31.092  28.152  1.00  0.00     0.060 A 
ATOM     40  C   UNL A   1      35.621  29.704  28.311  1.00  0.00     0.016 A 
ATOM     41  C   UNL A   1      36.672  31.896  28.338  1.00  0.00     0.016 A 
ATOM     42  C   UNL A   1      36.822  29.118  28.705  1.00  0.00     0.010 A 
ATOM     43  C   UNL A   1      37.871  31.310  28.746  1.00  0.00     0.010 A 
ATOM     44  C   UNL A   1      37.940  29.924  28.967  1.00  0.00    -0.014 A 
BRANCH  44  45
ATOM     45  C   UNL A   1      39.115  29.338  29.650  1.00  0.00     0.031 A 
ATOM     46  C   UNL A   1      39.497  29.875  31.001  1.00  0.00     0.074 A 
ATOM     47  C   UNL A   1      39.813  28.333  29.096  1.00  0.00     0.049 A 
ATOM     48  N   UNL A   1      40.474  29.514  31.795  1.00  0.00    -0.248 NA
ATOM     49  C   UNL A   1      38.665  30.968  31.527  1.00  0.00     0.031 C 
ATOM     50  C   UNL A   1      39.527  27.719  27.802  1.00  0.00     0.029 A 
ATOM     51  N   UNL A   1      40.913  27.656  29.558  1.00  0.00    -0.354 N 
ATOM     52  C   UNL A   1      40.368  30.330  32.913  1.00  0.00     0.074 A 
ATOM     53  C   UNL A   1      39.258  31.229  32.682  1.00  0.00     0.031 C 
ATOM     54  C   UNL A   1      40.437  26.757  27.568  1.00  0.00     0.029 A 
ATOM     55  C   UNL A   1      41.377  26.703  28.686  1.00  0.00     0.049 A 
ATOM     56  H   UNL A   1      41.329  27.836  30.432  1.00  0.00     0.167 HD
ATOM     57  C   UNL A   1      41.119  30.319  34.039  1.00  0.00     0.037 A 
ATOM     58  C   UNL A   1      42.449  25.892  28.782  1.00  0.00     0.037 A 
ATOM     59  C   UNL A   1      42.230  29.434  34.263  1.00  0.00     0.049 A 
ATOM     60  C   UNL A   1      43.307  25.942  30.020  1.00  0.00     0.074 A 
ATOM     61  C   UNL A   1      43.046  29.335  35.377  1.00  0.00     0.029 A 
ATOM     62  N   UNL A   1      42.689  28.499  33.347  1.00  0.00    -0.354 N 
ATOM     63  N   UNL A   1      43.174  26.683  31.094  1.00  0.00    -0.248 NA
ATOM     64  C   UNL A   1      44.461  25.032  30.063  1.00  0.00     0.031 C 
ATOM     65  C   UNL A   1      44.029  28.374  35.115  1.00  0.00     0.029 A 
ATOM     66  C   UNL A   1      43.793  27.836  33.859  1.00  0.00     0.049 A 
ATOM     67  H   UNL A   1      42.290  28.331  32.463  1.00  0.00     0.167 HD
ATOM     68  C   UNL A   1      44.208  26.314  31.946  1.00  0.00     0.074 A 
ATOM     69  C   UNL A   1      44.948  25.268  31.272  1.00  0.00     0.031 C 
ATOM     70  C   UNL A   1      44.518  26.797  33.175  1.00  0.00     0.037 A 
BRANCH  57  71
ATOM     71  C   UNL A   1      40.773  31.315  35.105  1.00  0.00     0.064 A 
ATOM     72  C   UNL A   1      39.665  31.135  35.947  1.00  0.00     0.173 A 
ATOM     73  C   UNL A   1      41.569  32.453  35.302  1.00  0.00     0.173 A 
ATOM     74  F   UNL A   1      38.861  30.072  35.788  1.00  0.00    -0.203 F 
ATOM     75  C   UNL A   1      39.352  32.070  36.930  1.00  0.00     0.198 A 
ATOM     76  C   UNL A   1      41.270  33.372  36.304  1.00  0.00     0.198 A 
ATOM     77  F   UNL A   1      42.638  32.672  34.524  1.00  0.00    -0.203 F 
ATOM     78  F   UNL A   1      38.262  31.902  37.692  1.00  0.00    -0.200 F 
ATOM     79  C   UNL A   1      40.158  33.184  37.112  1.00  0.00     0.200 A 
ATOM     80  F   UNL A   1      42.054  34.443  36.484  1.00  0.00    -0.200 F 
ATOM     81  F   UNL A   1      39.859  34.081  38.062  1.00  0.00    -0.200 F 
ENDBRANCH  57  71
BRANCH  58  82
ATOM     82  C   UNL A   1      42.775  24.958  27.673  1.00  0.00     0.064 A 
ATOM     83  C   UNL A   1      42.310  23.636  27.678  1.00  0.00     0.173 A 
ATOM     84  C   UNL A   1      43.580  25.362  26.597  1.00  0.00     0.173 A 
ATOM     85  F   UNL A   1      41.559  23.194  28.699  1.00  0.00    -0.203 F 
ATOM     86  C   UNL A   1      42.655  22.748  26.662  1.00  0.00     0.198 A 
ATOM     87  C   UNL A   1      43.900  24.481  25.566  1.00  0.00     0.198 A 
ATOM     88  F   UNL A   1      44.053  26.615  26.546  1.00  0.00    -0.203 F 
ATOM     89  F   UNL A   1      42.238  21.475  26.718  1.00  0.00    -0.200 F 
ATOM     90  C   UNL A   1      43.444  23.171  25.604  1.00  0.00     0.200 A 
ATOM     91  F   UNL A   1      44.654  24.900  24.541  1.00  0.00    -0.200 F 
ATOM     92  F   UNL A   1      43.776  22.317  24.627  1.00  0.00    -0.200 F 
ENDBRANCH  58  82
BRANCH  70  93
ATOM     93  C   UNL A   1      45.691  26.179  33.880  1.00  0.00     0.064 A 
ATOM     94  C   UNL A   1      47.000  26.650  33.687  1.00  0.00     0.173 A 
ATOM     95  C   UNL A   1      45.503  25.119  34.780  1.00  0.00     0.173 A 
ATOM     96  F   UNL A   1      47.236  27.653  32.828  1.00  0.00    -0.203 F 
ATOM     97  C   UNL A   1      48.077  26.060  34.343  1.00  0.00     0.198 A 
ATOM     98  C   UNL A   1      46.579  24.553  35.458  1.00  0.00     0.198 A 
ATOM     99  F   UNL A   1      44.272  24.637  35.009  1.00  0.00    -0.203 F 
ATOM    100  F   UNL A   1      49.323  26.490  34.102  1.00  0.00    -0.200 F 
ATOM    101  C   UNL A   1      47.866  25.016  35.232  1.00  0.00     0.200 A 
ATOM    102  F   UNL A   1      46.370  23.554  36.328  1.00  0.00    -0.200 F 
ATOM    103  F   UNL A   1      48.903  24.452  35.864  1.00  0.00    -0.200 F 
ENDBRANCH  70  93
ENDBRANCH  44  45
ENDBRANCH  37  39
ENDBRANCH  36  37
ENDBRANCH  35  36
ENDBRANCH  34  35
ENDBRANCH  33  34
ENDBRANCH  32  33
ENDBRANCH  31  32
ENDBRANCH   1  31
TORSDOF 22
ENDMDL
MODEL 2
REMARK VINA RESULT:      -9.2      4.971      9.035
REMARK SMILES O=C(Nc1cccc(C(=O)OCCOCCOCCOCCOC(=O)c2ccc(-c3c4nc(c(-c5c(F)c(F)c(F)c(F)c5F)c5ccc([nH]5)c(-c5c(F)c(F)c(F)c(F)c5F)c5nc(c(-c6c(F)c(F)c(F)c(F)c6F)c6ccc3[nH]6)C=C5)C=C4)cc2)c1)Nc1cc(Cl)c(Cl)cc1Cl
REMARK SMILES IDX 17 1 16 2 15 3 14 4 13 5 12 6 11 7 9 8 10 9 8 10 4 11 5 12
REMARK SMILES IDX 89 13 6 14 7 15 3 16 1 17 2 18 90 19 91 22 92 23 98 24 93 25
REMARK SMILES IDX 97 26 99 27 94 28 95 29 96 30 18 31 19 32 20 33 21 34 22 35
REMARK SMILES IDX 23 36 24 37 25 38 26 39 27 40 88 41 28 42 87 43 29 44 30 45
REMARK SMILES IDX 31 46 81 47 32 48 86 49 80 50 82 51 33 52 85 53 79 54 78 55
REMARK SMILES IDX 34 57 66 58 46 59 65 60 47 61 50 62 64 63 83 64 48 65 49 66
REMARK SMILES IDX 63 68 84 69 51 70 35 71 36 72 44 73 37 74 38 75 42 76 45 77
REMARK SMILES IDX 39 78 40 79 43 80 41 81 67 82 68 83 76 84 69 85 70 86 74 87
REMARK SMILES IDX 77 88 71 89 72 90 75 91 73 92 52 93 53 94 61 95 54 96 55 97
REMARK SMILES IDX 59 98 62 99 56 100 57 101 60 102 58 103
REMARK H PARENT 3 20 90 21 82 56 50 67
REMARK Flexibility Score: inf
ROOT
ATOM      1  O   UNL A   1      35.637  33.206  27.663  1.00  0.00    -0.377 OA
ENDROOT
BRANCH   1   2
ATOM      2  C   UNL A   1      35.546  31.975  28.359  1.00  0.00     0.188 C 
BRANCH   2   3
ATOM      3  C   UNL A   1      36.290  30.814  27.676  1.00  0.00     0.188 C 
BRANCH   3   4
ATOM      4  O   UNL A   1      35.852  29.530  28.118  1.00  0.00    -0.376 OA
BRANCH   4   5
ATOM      5  C   UNL A   1      34.606  29.074  27.608  1.00  0.00     0.202 C 
BRANCH   5   6
ATOM      6  C   UNL A   1      33.940  29.986  26.569  1.00  0.00     0.261 C 
BRANCH   6   7
ATOM      7  O   UNL A   1      32.972  29.342  25.728  1.00  0.00    -0.460 OA
BRANCH   7   8
ATOM      8  C   UNL A   1      31.809  29.980  25.486  1.00  0.00     0.338 C 
ATOM      9  O   UNL A   1      31.402  31.000  26.016  1.00  0.00    -0.246 OA
BRANCH   8  10
ATOM     10  C   UNL A   1      31.177  29.325  24.317  1.00  0.00     0.062 A 
ATOM     11  C   UNL A   1      31.359  27.955  22.320  1.00  0.00     0.043 A 
ATOM     12  C   UNL A   1      30.033  28.269  22.005  1.00  0.00     0.026 A 
ATOM     13  C   UNL A   1      31.941  28.540  23.445  1.00  0.00     0.041 A 
ATOM     14  C   UNL A   1      29.270  29.068  22.864  1.00  0.00     0.003 A 
ATOM     15  C   UNL A   1      29.832  29.573  24.037  1.00  0.00     0.016 A 
BRANCH  11  16
ATOM     16  N   UNL A   1      32.048  27.066  21.474  1.00  0.00    -0.308 N 
ATOM     17  O   UNL A   1      33.276  25.289  20.867  1.00  0.00    -0.248 OA
ATOM     18  C   UNL A   1      32.590  25.826  21.729  1.00  0.00     0.323 C 
ATOM     19  N   UNL A   1      32.171  25.236  22.889  1.00  0.00    -0.306 N 
ATOM     20  H   UNL A   1      32.162  27.382  20.547  1.00  0.00     0.171 HD
ATOM     21  H   UNL A   1      31.368  25.639  23.293  1.00  0.00     0.171 HD
BRANCH  19  22
ATOM     22  C   UNL A   1      32.707  24.141  23.597  1.00  0.00     0.063 A 
ATOM     23  C   UNL A   1      32.291  22.883  23.124  1.00  0.00     0.049 A 
ATOM     24  C   UNL A   1      33.535  24.185  24.731  1.00  0.00     0.066 A 
ATOM     25  C   UNL A   1      32.737  21.697  23.714  1.00  0.00     0.061 A 
ATOM     26  C   UNL A   1      34.002  22.992  25.305  1.00  0.00     0.044 A 
ATOM     27  Cl  UNL A   1      33.898  25.623  25.617  1.00  0.00    -0.082 Cl
ATOM     28  Cl  UNL A   1      32.154  20.208  23.060  1.00  0.00    -0.083 Cl
ATOM     29  C   UNL A   1      33.613  21.752  24.796  1.00  0.00     0.061 A 
ATOM     30  Cl  UNL A   1      34.215  20.333  25.573  1.00  0.00    -0.083 Cl
ENDBRANCH  19  22
ENDBRANCH  11  16
ENDBRANCH   8  10
ENDBRANCH   7   8
ENDBRANCH   6   7
ENDBRANCH   5   6
ENDBRANCH   4   5
ENDBRANCH   3   4
ENDBRANCH   2   3
ENDBRANCH   1   2
BRANCH   1  31
ATOM     31  C   UNL A   1      35.548  34.416  28.413  1.00  0.00     0.188 C 
BRANCH  31  32
ATOM     32  C   UNL A   1      34.481  35.497  28.122  1.00  0.00     0.188 C 
BRANCH  32  33
ATOM     33  O   UNL A   1      33.134  35.055  28.255  1.00  0.00    -0.376 OA
BRANCH  33  34
ATOM     34  C   UNL A   1      32.678  34.774  29.571  1.00  0.00     0.202 C 
BRANCH  34  35
ATOM     35  C   UNL A   1      32.712  35.994  30.497  1.00  0.00     0.261 C 
BRANCH  35  36
ATOM     36  O   UNL A   1      32.154  35.764  31.801  1.00  0.00    -0.460 OA
BRANCH  36  37
ATOM     37  C   UNL A   1      32.927  36.094  32.858  1.00  0.00     0.338 C 
ATOM     38  O   UNL A   1      32.655  36.861  33.763  1.00  0.00    -0.246 OA
BRANCH  37  39
ATOM     39  C   UNL A   1      34.114  35.222  32.842  1.00  0.00     0.060 A 
ATOM     40  C   UNL A   1      33.987  33.909  33.307  1.00  0.00     0.016 A 
ATOM     41  C   UNL A   1      35.344  35.703  32.383  1.00  0.00     0.016 A 
ATOM     42  C   UNL A   1      35.108  33.082  33.358  1.00  0.00     0.010 A 
ATOM     43  C   UNL A   1      36.468  34.878  32.448  1.00  0.00     0.010 A 
ATOM     44  C   UNL A   1      36.361  33.579  32.970  1.00  0.00    -0.014 A 
BRANCH  44  45
ATOM     45  C   UNL A   1      37.581  32.804  33.290  1.00  0.00     0.031 A 
ATOM     46  C   UNL A   1      38.300  33.101  34.576  1.00  0.00     0.074 A 
ATOM     47  C   UNL A   1      38.028  31.837  32.469  1.00  0.00     0.049 A 
ATOM     48  N   UNL A   1      39.376  32.548  35.076  1.00  0.00    -0.248 NA
ATOM     49  C   UNL A   1      37.727  34.169  35.411  1.00  0.00     0.031 C 
ATOM     50  C   UNL A   1      37.405  31.448  31.207  1.00  0.00     0.029 A 
ATOM     51  N   UNL A   1      39.117  31.012  32.582  1.00  0.00    -0.354 N 
ATOM     52  C   UNL A   1      39.603  33.194  36.283  1.00  0.00     0.074 A 
ATOM     53  C   UNL A   1      38.579  34.206  36.425  1.00  0.00     0.031 C 
ATOM     54  C   UNL A   1      38.130  30.460  30.654  1.00  0.00     0.029 A 
ATOM     55  C   UNL A   1      39.275  30.164  31.514  1.00  0.00     0.049 A 
ATOM     56  H   UNL A   1      39.727  31.026  33.354  1.00  0.00     0.167 HD
ATOM     57  C   UNL A   1      40.570  32.955  37.200  1.00  0.00     0.037 A 
ATOM     58  C   UNL A   1      40.243  29.263  31.261  1.00  0.00     0.037 A 
ATOM     59  C   UNL A   1      41.597  31.958  37.052  1.00  0.00     0.049 A 
ATOM     60  C   UNL A   1      41.345  29.058  32.269  1.00  0.00     0.074 A 
ATOM     61  C   UNL A   1      42.615  31.629  37.931  1.00  0.00     0.029 A 
ATOM     62  N   UNL A   1      41.742  31.135  35.945  1.00  0.00    -0.354 N 
ATOM     63  N   UNL A   1      41.528  29.640  33.430  1.00  0.00    -0.248 NA
ATOM     64  C   UNL A   1      42.372  28.060  31.934  1.00  0.00     0.031 C 
ATOM     65  C   UNL A   1      43.404  30.640  37.334  1.00  0.00     0.029 A 
ATOM     66  C   UNL A   1      42.848  30.315  36.106  1.00  0.00     0.049 A 
ATOM     67  H   UNL A   1      41.148  31.134  35.160  1.00  0.00     0.167 HD
ATOM     68  C   UNL A   1      42.672  29.065  33.972  1.00  0.00     0.074 A 
ATOM     69  C   UNL A   1      43.129  28.073  33.021  1.00  0.00     0.031 C 
ATOM     70  C   UNL A   1      43.289  29.333  35.150  1.00  0.00     0.037 A 
BRANCH  57  71
ATOM     71  C   UNL A   1      40.573  33.807  38.433  1.00  0.00     0.064 A 
ATOM     72  C   UNL A   1      41.326  34.988  38.508  1.00  0.00     0.173 A 
ATOM     73  C   UNL A   1      39.799  33.449  39.547  1.00  0.00     0.173 A 
ATOM     74  F   UNL A   1      42.098  35.365  37.477  1.00  0.00    -0.203 F 
ATOM     75  C   UNL A   1      41.323  35.768  39.663  1.00  0.00     0.198 A 
ATOM     76  C   UNL A   1      39.776  34.245  40.689  1.00  0.00     0.198 A 
ATOM     77  F   UNL A   1      39.062  32.329  39.526  1.00  0.00    -0.203 F 
ATOM     78  F   UNL A   1      42.086  36.868  39.730  1.00  0.00    -0.200 F 
ATOM     79  C   UNL A   1      40.543  35.399  40.749  1.00  0.00     0.200 A 
ATOM     80  F   UNL A   1      39.016  33.893  41.734  1.00  0.00    -0.200 F 
ATOM     81  F   UNL A   1      40.537  36.152  41.858  1.00  0.00    -0.200 F 
ENDBRANCH  57  71
BRANCH  58  82
ATOM     82  C   UNL A   1      40.219  28.479  29.998  1.00  0.00     0.064 A 
ATOM     83  C   UNL A   1      39.521  27.267  29.910  1.00  0.00     0.173 A 
ATOM     84  C   UNL A   1      40.914  28.916  28.860  1.00  0.00     0.173 A 
ATOM     85  F   UNL A   1      38.863  26.795  30.979  1.00  0.00    -0.203 F 
ATOM     86  C   UNL A   1      39.537  26.511  28.740  1.00  0.00     0.198 A 
ATOM     87  C   UNL A   1      40.905  28.173  27.681  1.00  0.00     0.198 A 
ATOM     88  F   UNL A   1      41.600  30.067  28.893  1.00  0.00    -0.203 F 
ATOM     89  F   UNL A   1      38.902  25.331  28.700  1.00  0.00    -0.200 F 
ATOM     90  C   UNL A   1      40.223  26.966  27.625  1.00  0.00     0.200 A 
ATOM     91  F   UNL A   1      41.561  28.625  26.604  1.00  0.00    -0.200 F 
ATOM     92  F   UNL A   1      40.238  26.239  26.500  1.00  0.00    -0.200 F 
ENDBRANCH  58  82
BRANCH  70  93
ATOM     93  C   UNL A   1      44.508  28.524  35.487  1.00  0.00     0.064 A 
ATOM     94  C   UNL A   1      45.797  28.949  35.132  1.00  0.00     0.173 A 
ATOM     95  C   UNL A   1      44.387  27.319  36.197  1.00  0.00     0.173 A 
ATOM     96  F   UNL A   1      45.966  30.087  34.442  1.00  0.00    -0.203 F 
ATOM     97  C   UNL A   1      46.916  28.182  35.446  1.00  0.00     0.198 A 
ATOM     98  C   UNL A   1      45.511  26.571  36.536  1.00  0.00     0.198 A 
ATOM     99  F   UNL A   1      43.179  26.871  36.569  1.00  0.00    -0.203 F 
ATOM    100  F   UNL A   1      48.133  28.581  35.049  1.00  0.00    -0.200 F 
ATOM    101  C   UNL A   1      46.773  26.997  36.153  1.00  0.00     0.200 A 
ATOM    102  F   UNL A   1      45.372  25.433  37.232  1.00  0.00    -0.200 F 
ATOM    103  F   UNL A   1      47.851  26.261  36.455  1.00  0.00    -0.200 F 
ENDBRANCH  70  93
ENDBRANCH  44  45
ENDBRANCH  37  39
ENDBRANCH  36  37
ENDBRANCH  35  36
ENDBRANCH  34  35
ENDBRANCH  33  34
ENDBRANCH  32  33
ENDBRANCH  31  32
ENDBRANCH   1  31
TORSDOF 22
ENDMDL
MODEL 3
REMARK VINA RESULT:      -8.9      1.923      2.730
REMARK SMILES O=C(Nc1cccc(C(=O)OCCOCCOCCOCCOC(=O)c2ccc(-c3c4nc(c(-c5c(F)c(F)c(F)c(F)c5F)c5ccc([nH]5)c(-c5c(F)c(F)c(F)c(F)c5F)c5nc(c(-c6c(F)c(F)c(F)c(F)c6F)c6ccc3[nH]6)C=C5)C=C4)cc2)c1)Nc1cc(Cl)c(Cl)cc1Cl
REMARK SMILES IDX 17 1 16 2 15 3 14 4 13 5 12 6 11 7 9 8 10 9 8 10 4 11 5 12
REMARK SMILES IDX 89 13 6 14 7 15 3 16 1 17 2 18 90 19 91 22 92 23 98 24 93 25
REMARK SMILES IDX 97 26 99 27 94 28 95 29 96 30 18 31 19 32 20 33 21 34 22 35
REMARK SMILES IDX 23 36 24 37 25 38 26 39 27 40 88 41 28 42 87 43 29 44 30 45
REMARK SMILES IDX 31 46 81 47 32 48 86 49 80 50 82 51 33 52 85 53 79 54 78 55
REMARK SMILES IDX 34 57 66 58 46 59 65 60 47 61 50 62 64 63 83 64 48 65 49 66
REMARK SMILES IDX 63 68 84 69 51 70 35 71 36 72 44 73 37 74 38 75 42 76 45 77
REMARK SMILES IDX 39 78 40 79 43 80 41 81 67 82 68 83 76 84 69 85 70 86 74 87
REMARK SMILES IDX 77 88 71 89 72 90 75 91 73 92 52 93 53 94 61 95 54 96 55 97
REMARK SMILES IDX 59 98 62 99 56 100 57 101 60 102 58 103
REMARK H PARENT 3 20 90 21 82 56 50 67
REMARK Flexibility Score: inf
ROOT
ATOM      1  O   UNL A   1      34.044  32.994  31.720  1.00  0.00    -0.377 OA
ENDROOT
BRANCH   1   2
ATOM      2  C   UNL A   1      34.989  32.038  32.170  1.00  0.00     0.188 C 
BRANCH   2   3
ATOM      3  C   UNL A   1      35.939  32.564  33.261  1.00  0.00     0.188 C 
BRANCH   3   4
ATOM      4  O   UNL A   1      35.253  33.102  34.390  1.00  0.00    -0.376 OA
BRANCH   4   5
ATOM      5  C   UNL A   1      36.028  33.880  35.292  1.00  0.00     0.202 C 
BRANCH   5   6
ATOM      6  C   UNL A   1      37.513  34.026  34.936  1.00  0.00     0.261 C 
BRANCH   6   7
ATOM      7  O   UNL A   1      37.790  34.170  33.536  1.00  0.00    -0.460 OA
BRANCH   7   8
ATOM      8  C   UNL A   1      38.985  34.677  33.168  1.00  0.00     0.338 C 
ATOM      9  O   UNL A   1      39.881  35.060  33.899  1.00  0.00    -0.246 OA
BRANCH   8  10
ATOM     10  C   UNL A   1      39.102  34.517  31.699  1.00  0.00     0.062 A 
ATOM     11  C   UNL A   1      40.426  34.646  29.667  1.00  0.00     0.043 A 
ATOM     12  C   UNL A   1      39.267  34.422  28.919  1.00  0.00     0.026 A 
ATOM     13  C   UNL A   1      40.321  34.755  31.055  1.00  0.00     0.041 A 
ATOM     14  C   UNL A   1      38.040  34.201  29.557  1.00  0.00     0.003 A 
ATOM     15  C   UNL A   1      37.962  34.218  30.950  1.00  0.00     0.016 A 
BRANCH  11  16
ATOM     16  N   UNL A   1      41.648  34.761  28.978  1.00  0.00    -0.308 N 
ATOM     17  O   UNL A   1      43.843  34.545  28.570  1.00  0.00    -0.248 OA
ATOM     18  C   UNL A   1      42.873  34.186  29.228  1.00  0.00     0.323 C 
ATOM     19  N   UNL A   1      42.855  33.133  30.100  1.00  0.00    -0.306 N 
ATOM     20  H   UNL A   1      41.622  35.351  28.189  1.00  0.00     0.171 HD
ATOM     21  H   UNL A   1      41.963  32.754  30.274  1.00  0.00     0.171 HD
BRANCH  19  22
ATOM     22  C   UNL A   1      43.912  32.506  30.791  1.00  0.00     0.063 A 
ATOM     23  C   UNL A   1      44.720  33.385  31.538  1.00  0.00     0.049 A 
ATOM     24  C   UNL A   1      44.264  31.146  30.755  1.00  0.00     0.066 A 
ATOM     25  C   UNL A   1      45.806  32.920  32.285  1.00  0.00     0.061 A 
ATOM     26  C   UNL A   1      45.340  30.679  31.527  1.00  0.00     0.044 A 
ATOM     27  Cl  UNL A   1      43.576  29.991  29.671  1.00  0.00    -0.082 Cl
ATOM     28  Cl  UNL A   1      46.737  34.087  33.154  1.00  0.00    -0.083 Cl
ATOM     29  C   UNL A   1      46.104  31.559  32.295  1.00  0.00     0.061 A 
ATOM     30  Cl  UNL A   1      47.423  30.908  33.199  1.00  0.00    -0.083 Cl
ENDBRANCH  19  22
ENDBRANCH  11  16
ENDBRANCH   8  10
ENDBRANCH   7   8
ENDBRANCH   6   7
ENDBRANCH   5   6
ENDBRANCH   4   5
ENDBRANCH   3   4
ENDBRANCH   2   3
ENDBRANCH   1   2
BRANCH   1  31
ATOM     31  C   UNL A   1      34.276  34.369  32.020  1.00  0.00     0.188 C 
BRANCH  31  32
ATOM     32  C   UNL A   1      33.614  35.517  31.223  1.00  0.00     0.188 C 
BRANCH  32  33
ATOM     33  O   UNL A   1      32.932  35.105  30.041  1.00  0.00    -0.376 OA
BRANCH  33  34
ATOM     34  C   UNL A   1      33.694  35.067  28.842  1.00  0.00     0.202 C 
BRANCH  34  35
ATOM     35  C   UNL A   1      33.630  33.714  28.127  1.00  0.00     0.261 C 
BRANCH  35  36
ATOM     36  O   UNL A   1      34.640  32.778  28.537  1.00  0.00    -0.460 OA
BRANCH  36  37
ATOM     37  C   UNL A   1      34.542  31.525  28.044  1.00  0.00     0.338 C 
ATOM     38  O   UNL A   1      33.676  31.082  27.312  1.00  0.00    -0.246 OA
BRANCH  37  39
ATOM     39  C   UNL A   1      35.778  30.803  28.394  1.00  0.00     0.060 A 
ATOM     40  C   UNL A   1      35.715  29.802  29.370  1.00  0.00     0.016 A 
ATOM     41  C   UNL A   1      36.989  31.121  27.773  1.00  0.00     0.016 A 
ATOM     42  C   UNL A   1      36.879  29.145  29.762  1.00  0.00     0.010 A 
ATOM     43  C   UNL A   1      38.156  30.472  28.178  1.00  0.00     0.010 A 
ATOM     44  C   UNL A   1      38.111  29.509  29.199  1.00  0.00    -0.014 A 
BRANCH  44  45
ATOM     45  C   UNL A   1      39.365  29.018  29.813  1.00  0.00     0.031 A 
ATOM     46  C   UNL A   1      39.840  29.665  31.085  1.00  0.00     0.074 A 
ATOM     47  C   UNL A   1      40.055  28.000  29.270  1.00  0.00     0.049 A 
ATOM     48  N   UNL A   1      40.896  29.399  31.811  1.00  0.00    -0.248 NA
ATOM     49  C   UNL A   1      39.010  30.762  31.606  1.00  0.00     0.031 C 
ATOM     50  C   UNL A   1      39.684  27.284  28.053  1.00  0.00     0.029 A 
ATOM     51  N   UNL A   1      41.219  27.400  29.678  1.00  0.00    -0.354 N 
ATOM     52  C   UNL A   1      40.852  30.289  32.875  1.00  0.00     0.074 A 
ATOM     53  C   UNL A   1      39.690  31.128  32.683  1.00  0.00     0.031 C 
ATOM     54  C   UNL A   1      40.611  26.341  27.806  1.00  0.00     0.029 A 
ATOM     55  C   UNL A   1      41.646  26.403  28.837  1.00  0.00     0.049 A 
ATOM     56  H   UNL A   1      41.701  27.658  30.496  1.00  0.00     0.167 HD
ATOM     57  C   UNL A   1      41.698  30.388  33.927  1.00  0.00     0.037 A 
ATOM     58  C   UNL A   1      42.755  25.641  28.892  1.00  0.00     0.037 A 
ATOM     59  C   UNL A   1      42.861  29.562  34.112  1.00  0.00     0.049 A 
ATOM     60  C   UNL A   1      43.714  25.812  30.042  1.00  0.00     0.074 A 
ATOM     61  C   UNL A   1      43.775  29.575  35.152  1.00  0.00     0.029 A 
ATOM     62  N   UNL A   1      43.279  28.580  33.225  1.00  0.00    -0.354 N 
ATOM     63  N   UNL A   1      43.644  26.624  31.069  1.00  0.00    -0.248 NA
ATOM     64  C   UNL A   1      44.906  24.951  30.044  1.00  0.00     0.031 C 
ATOM     65  C   UNL A   1      44.771  28.634  34.870  1.00  0.00     0.029 A 
ATOM     66  C   UNL A   1      44.450  27.998  33.681  1.00  0.00     0.049 A 
ATOM     67  H   UNL A   1      42.812  28.335  32.394  1.00  0.00     0.167 HD
ATOM     68  C   UNL A   1      44.763  26.356  31.849  1.00  0.00     0.074 A 
ATOM     69  C   UNL A   1      45.485  25.291  31.186  1.00  0.00     0.031 C 
ATOM     70  C   UNL A   1      45.157  26.938  33.008  1.00  0.00     0.037 A 
BRANCH  57  71
ATOM     71  C   UNL A   1      41.403  31.445  34.948  1.00  0.00     0.064 A 
ATOM     72  C   UNL A   1      42.158  32.626  35.022  1.00  0.00     0.173 A 
ATOM     73  C   UNL A   1      40.342  31.287  35.851  1.00  0.00     0.173 A 
ATOM     74  F   UNL A   1      43.195  32.819  34.192  1.00  0.00    -0.203 F 
ATOM     75  C   UNL A   1      41.875  33.598  35.979  1.00  0.00     0.198 A 
ATOM     76  C   UNL A   1      40.045  32.273  36.788  1.00  0.00     0.198 A 
ATOM     77  F   UNL A   1      39.591  30.176  35.823  1.00  0.00    -0.203 F 
ATOM     78  F   UNL A   1      42.638  34.698  36.061  1.00  0.00    -0.200 F 
ATOM     79  C   UNL A   1      40.816  33.424  36.856  1.00  0.00     0.200 A 
ATOM     80  F   UNL A   1      39.015  32.107  37.629  1.00  0.00    -0.200 F 
ATOM     81  F   UNL A   1      40.541  34.362  37.773  1.00  0.00    -0.200 F 
ENDBRANCH  57  71
BRANCH  58  82
ATOM     82  C   UNL A   1      43.024  24.641  27.825  1.00  0.00     0.064 A 
ATOM     83  C   UNL A   1      42.626  23.305  27.968  1.00  0.00     0.173 A 
ATOM     84  C   UNL A   1      43.706  24.997  26.652  1.00  0.00     0.173 A 
ATOM     85  F   UNL A   1      41.995  22.910  29.084  1.00  0.00    -0.203 F 
ATOM     86  C   UNL A   1      42.920  22.358  26.989  1.00  0.00     0.198 A 
ATOM     87  C   UNL A   1      43.972  24.056  25.660  1.00  0.00     0.198 A 
ATOM     88  F   UNL A   1      44.110  26.262  26.468  1.00  0.00    -0.203 F 
ATOM     89  F   UNL A   1      42.573  21.077  27.174  1.00  0.00    -0.200 F 
ATOM     90  C   UNL A   1      43.587  22.735  25.834  1.00  0.00     0.200 A 
ATOM     91  F   UNL A   1      44.608  24.428  24.541  1.00  0.00    -0.200 F 
ATOM     92  F   UNL A   1      43.869  21.824  24.892  1.00  0.00    -0.200 F 
ENDBRANCH  58  82
BRANCH  70  93
ATOM     93  C   UNL A   1      46.412  26.417  33.647  1.00  0.00     0.064 A 
ATOM     94  C   UNL A   1      47.678  26.916  33.303  1.00  0.00     0.173 A 
ATOM     95  C   UNL A   1      46.348  25.422  34.634  1.00  0.00     0.173 A 
ATOM     96  F   UNL A   1      47.796  27.859  32.355  1.00  0.00    -0.203 F 
ATOM     97  C   UNL A   1      48.832  26.416  33.898  1.00  0.00     0.198 A 
ATOM     98  C   UNL A   1      47.502  24.946  35.251  1.00  0.00     0.198 A 
ATOM     99  F   UNL A   1      45.162  24.917  35.009  1.00  0.00    -0.203 F 
ATOM    100  F   UNL A   1      50.034  26.870  33.514  1.00  0.00    -0.200 F 
ATOM    101  C   UNL A   1      48.743  25.436  34.876  1.00  0.00     0.200 A 
ATOM    102  F   UNL A   1      47.412  24.010  36.207  1.00  0.00    -0.200 F 
ATOM    103  F   UNL A   1      49.855  24.957  35.450  1.00  0.00    -0.200 F 
ENDBRANCH  70  93
ENDBRANCH  44  45
ENDBRANCH  37  39
ENDBRANCH  36  37
ENDBRANCH  35  36
ENDBRANCH  34  35
ENDBRANCH  33  34
ENDBRANCH  32  33
ENDBRANCH  31  32
ENDBRANCH   1  31
TORSDOF 22
ENDMDL
