MODEL 1
REMARK VINA RESULT:     -10.0      0.000      0.000
REMARK SMILES O=C(N[C@@H](Cc1ccccc1)C(=O)N[C@@H](CS)C(=O)N[C@@H](CO)C(=O)OCCOCCOCCOCCOC(=O)c1ccc(-c2c3nc(c(-c4c(F)c(F)c(F)c(F)c4F)c4ccc([nH]4)c(-c4c(F)c(F)c(F)c(F)c4F)c4nc(c(-c5c(F)c(F)c(F)c(F)c5F)c5ccc2[nH]5)C=C4)C=C3)cc1)c1ccc(F)cc1
REMARK SMILES IDX 30 1 29 2 28 3 27 4 26 5 24 6 25 7 21 8 20 9 18 10 19 11
REMARK SMILES IDX 15 13 14 14 12 15 13 16 4 18 3 19 1 20 2 21 104 23 105 24
REMARK SMILES IDX 110 25 106 26 109 27 107 28 108 29 5 30 6 31 7 32 11 33 8 34
REMARK SMILES IDX 10 35 9 36 16 37 17 38 22 40 23 41 31 43 32 44 33 45 34 46
REMARK SMILES IDX 35 47 36 48 37 49 38 50 39 51 40 52 41 53 42 54 103 55 43 56
REMARK SMILES IDX 102 57 44 58 45 59 46 60 96 61 47 62 101 63 95 64 97 65
REMARK SMILES IDX 48 66 100 67 94 68 93 69 49 71 81 72 61 73 80 74 62 75 65 76
REMARK SMILES IDX 79 77 98 78 63 79 64 80 78 82 99 83 66 84 50 85 51 86 59 87
REMARK SMILES IDX 52 88 53 89 57 90 60 91 54 92 55 93 58 94 56 95 82 96 83 97
REMARK SMILES IDX 91 98 84 99 85 100 89 101 92 102 86 103 87 104 90 105 88 106
REMARK SMILES IDX 67 107 68 108 76 109 69 110 70 111 74 112 77 113 71 114
REMARK SMILES IDX 72 115 75 116 73 117
REMARK H PARENT 20 12 14 17 3 22 17 39 23 42 97 70 65 81
REMARK Flexibility Score: inf
ROOT
ATOM      1  C   UNL A   1      32.907  31.544  27.725  1.00  0.00     0.188 C 
ENDROOT
BRANCH   1   2
ATOM      2  O   UNL A   1      32.320  31.042  26.528  1.00  0.00    -0.376 OA
BRANCH   2   3
ATOM      3  C   UNL A   1      31.015  31.464  26.174  1.00  0.00     0.202 C 
BRANCH   3   4
ATOM      4  C   UNL A   1      30.594  31.318  24.704  1.00  0.00     0.261 C 
BRANCH   4   5
ATOM      5  O   UNL A   1      29.303  31.871  24.385  1.00  0.00    -0.462 OA
BRANCH   5   6
ATOM      6  C   UNL A   1      28.421  31.081  23.716  1.00  0.00     0.331 C 
ATOM      7  O   UNL A   1      27.224  31.006  23.964  1.00  0.00    -0.250 OA
BRANCH   6   8
ATOM      8  C   UNL A   1      29.128  30.144  22.703  1.00  0.00     0.218 C 
BRANCH   8   9
ATOM      9  N   UNL A   1      29.113  28.708  23.045  1.00  0.00    -0.339 N 
ATOM     10  C   UNL A   1      29.992  27.921  23.719  1.00  0.00     0.244 C 
ATOM     11  O   UNL A   1      29.502  27.041  24.435  1.00  0.00    -0.273 OA
ATOM     12  H   UNL A   1      28.314  28.230  22.725  1.00  0.00     0.164 HD
BRANCH  10  13
ATOM     13  C   UNL A   1      31.519  28.088  23.738  1.00  0.00     0.181 C 
BRANCH  13  14
ATOM     14  N   UNL A   1      32.093  28.294  25.059  1.00  0.00    -0.342 N 
ATOM     15  C   UNL A   1      32.680  27.380  25.886  1.00  0.00     0.243 C 
ATOM     16  O   UNL A   1      33.475  27.832  26.718  1.00  0.00    -0.273 OA
ATOM     17  H   UNL A   1      32.054  29.216  25.403  1.00  0.00     0.164 HD
BRANCH  15  18
ATOM     18  C   UNL A   1      32.451  25.848  25.785  1.00  0.00     0.176 C 
BRANCH  18  19
ATOM     19  N   UNL A   1      31.168  25.386  26.328  1.00  0.00    -0.340 N 
ATOM     20  O   UNL A   1      29.638  23.957  27.142  1.00  0.00    -0.269 OA
ATOM     21  C   UNL A   1      30.773  24.124  26.702  1.00  0.00     0.251 C 
ATOM     22  H   UNL A   1      30.487  26.088  26.442  1.00  0.00     0.164 HD
BRANCH  21  23
ATOM     23  C   UNL A   1      31.651  22.954  26.476  1.00  0.00     0.040 A 
ATOM     24  C   UNL A   1      32.719  22.641  27.325  1.00  0.00     0.017 A 
ATOM     25  C   UNL A   1      31.397  22.166  25.345  1.00  0.00     0.017 A 
ATOM     26  C   UNL A   1      33.597  21.612  26.980  1.00  0.00     0.040 A 
ATOM     27  C   UNL A   1      32.263  21.122  25.017  1.00  0.00     0.040 A 
ATOM     28  C   UNL A   1      33.367  20.870  25.824  1.00  0.00     0.123 A 
ATOM     29  F   UNL A   1      34.225  19.901  25.482  1.00  0.00    -0.207 F 
ENDBRANCH  21  23
ENDBRANCH  18  19
BRANCH  18  30
ATOM     30  C   UNL A   1      32.857  25.198  24.450  1.00  0.00     0.070 C 
BRANCH  30  31
ATOM     31  C   UNL A   1      34.153  24.439  24.357  1.00  0.00    -0.045 A 
ATOM     32  C   UNL A   1      35.091  24.523  25.399  1.00  0.00     0.004 A 
ATOM     33  C   UNL A   1      34.413  23.577  23.281  1.00  0.00     0.004 A 
ATOM     34  C   UNL A   1      36.261  23.762  25.365  1.00  0.00     0.000 A 
ATOM     35  C   UNL A   1      35.590  22.827  23.244  1.00  0.00     0.000 A 
ATOM     36  C   UNL A   1      36.512  22.916  24.287  1.00  0.00     0.000 A 
ENDBRANCH  30  31
ENDBRANCH  18  30
ENDBRANCH  15  18
ENDBRANCH  13  14
BRANCH  13  37
ATOM     37  C   UNL A   1      32.260  27.091  22.838  1.00  0.00     0.101 C 
BRANCH  37  38
ATOM     38  S   UNL A   1      33.773  27.711  22.047  1.00  0.00    -0.177 SA
ATOM     39  H   UNL A   1      34.709  27.968  22.998  1.00  0.00     0.102 HD
ENDBRANCH  37  38
ENDBRANCH  13  37
ENDBRANCH  10  13
ENDBRANCH   8   9
BRANCH   8  40
ATOM     40  C   UNL A   1      28.414  30.364  21.363  1.00  0.00     0.193 C 
BRANCH  40  41
ATOM     41  O   UNL A   1      27.851  31.677  21.277  1.00  0.00    -0.394 OA
ATOM     42  H   UNL A   1      27.197  31.702  20.561  1.00  0.00     0.210 HD
ENDBRANCH  40  41
ENDBRANCH   8  40
ENDBRANCH   6   8
ENDBRANCH   5   6
ENDBRANCH   4   5
ENDBRANCH   3   4
ENDBRANCH   2   3
ENDBRANCH   1   2
BRANCH   1  43
ATOM     43  C   UNL A   1      33.469  32.983  27.804  1.00  0.00     0.188 C 
BRANCH  43  44
ATOM     44  O   UNL A   1      33.552  33.523  29.111  1.00  0.00    -0.377 OA
BRANCH  44  45
ATOM     45  C   UNL A   1      33.997  34.867  29.130  1.00  0.00     0.188 C 
BRANCH  45  46
ATOM     46  C   UNL A   1      33.640  35.610  30.427  1.00  0.00     0.188 C 
BRANCH  46  47
ATOM     47  O   UNL A   1      32.876  34.780  31.287  1.00  0.00    -0.376 OA
BRANCH  47  48
ATOM     48  C   UNL A   1      33.310  34.480  32.596  1.00  0.00     0.202 C 
BRANCH  48  49
ATOM     49  C   UNL A   1      34.605  33.686  32.841  1.00  0.00     0.261 C 
BRANCH  49  50
ATOM     50  O   UNL A   1      35.620  33.745  31.838  1.00  0.00    -0.460 OA
BRANCH  50  51
ATOM     51  C   UNL A   1      36.844  34.160  32.217  1.00  0.00     0.338 C 
ATOM     52  O   UNL A   1      37.110  35.044  33.021  1.00  0.00    -0.246 OA
BRANCH  51  53
ATOM     53  C   UNL A   1      37.829  33.225  31.640  1.00  0.00     0.060 A 
ATOM     54  C   UNL A   1      38.765  32.619  32.489  1.00  0.00     0.016 A 
ATOM     55  C   UNL A   1      37.802  32.911  30.277  1.00  0.00     0.016 A 
ATOM     56  C   UNL A   1      39.689  31.709  31.978  1.00  0.00     0.010 A 
ATOM     57  C   UNL A   1      38.756  32.036  29.757  1.00  0.00     0.010 A 
ATOM     58  C   UNL A   1      39.722  31.460  30.601  1.00  0.00    -0.014 A 
BRANCH  58  59
ATOM     59  C   UNL A   1      40.929  30.847  30.000  1.00  0.00     0.031 A 
ATOM     60  C   UNL A   1      42.098  31.756  29.738  1.00  0.00     0.074 A 
ATOM     61  C   UNL A   1      40.992  29.541  29.692  1.00  0.00     0.049 A 
ATOM     62  N   UNL A   1      43.221  31.515  29.115  1.00  0.00    -0.248 NA
ATOM     63  C   UNL A   1      41.972  33.135  30.243  1.00  0.00     0.031 C 
ATOM     64  C   UNL A   1      39.948  28.557  29.959  1.00  0.00     0.029 A 
ATOM     65  N   UNL A   1      41.983  28.827  29.067  1.00  0.00    -0.354 N 
ATOM     66  C   UNL A   1      43.925  32.712  29.142  1.00  0.00     0.074 A 
ATOM     67  C   UNL A   1      43.098  33.685  29.819  1.00  0.00     0.031 C 
ATOM     68  C   UNL A   1      40.343  27.365  29.474  1.00  0.00     0.029 A 
ATOM     69  C   UNL A   1      41.649  27.517  28.831  1.00  0.00     0.049 A 
ATOM     70  H   UNL A   1      42.851  29.217  28.812  1.00  0.00     0.167 HD
ATOM     71  C   UNL A   1      45.155  32.975  28.646  1.00  0.00     0.037 A 
ATOM     72  C   UNL A   1      42.313  26.567  28.142  1.00  0.00     0.037 A 
ATOM     73  C   UNL A   1      45.967  32.003  27.969  1.00  0.00     0.049 A 
ATOM     74  C   UNL A   1      43.646  26.905  27.521  1.00  0.00     0.074 A 
ATOM     75  C   UNL A   1      47.230  32.160  27.427  1.00  0.00     0.029 A 
ATOM     76  N   UNL A   1      45.586  30.690  27.733  1.00  0.00    -0.354 N 
ATOM     77  N   UNL A   1      44.315  28.034  27.555  1.00  0.00    -0.248 NA
ATOM     78  C   UNL A   1      44.320  25.839  26.764  1.00  0.00     0.031 C 
ATOM     79  C   UNL A   1      47.590  30.957  26.814  1.00  0.00     0.029 A 
ATOM     80  C   UNL A   1      46.582  30.031  27.033  1.00  0.00     0.049 A 
ATOM     81  H   UNL A   1      44.736  30.287  28.021  1.00  0.00     0.167 HD
ATOM     82  C   UNL A   1      45.500  27.801  26.868  1.00  0.00     0.074 A 
ATOM     83  C   UNL A   1      45.459  26.425  26.423  1.00  0.00     0.031 C 
ATOM     84  C   UNL A   1      46.531  28.649  26.630  1.00  0.00     0.037 A 
BRANCH  71  85
ATOM     85  C   UNL A   1      45.673  34.376  28.785  1.00  0.00     0.064 A 
ATOM     86  C   UNL A   1      46.447  34.774  29.885  1.00  0.00     0.173 A 
ATOM     87  C   UNL A   1      45.401  35.330  27.793  1.00  0.00     0.173 A 
ATOM     88  F   UNL A   1      46.715  33.906  30.872  1.00  0.00    -0.203 F 
ATOM     89  C   UNL A   1      46.909  36.083  30.000  1.00  0.00     0.198 A 
ATOM     90  C   UNL A   1      45.891  36.628  27.895  1.00  0.00     0.198 A 
ATOM     91  F   UNL A   1      44.662  35.002  26.723  1.00  0.00    -0.203 F 
ATOM     92  F   UNL A   1      47.600  36.455  31.085  1.00  0.00    -0.200 F 
ATOM     93  C   UNL A   1      46.637  37.006  29.001  1.00  0.00     0.200 A 
ATOM     94  F   UNL A   1      45.637  37.517  26.924  1.00  0.00    -0.200 F 
ATOM     95  F   UNL A   1      47.089  38.264  29.109  1.00  0.00    -0.200 F 
ENDBRANCH  71  85
BRANCH  72  96
ATOM     96  C   UNL A   1      41.723  25.210  27.979  1.00  0.00     0.064 A 
ATOM     97  C   UNL A   1      42.277  24.097  28.627  1.00  0.00     0.173 A 
ATOM     98  C   UNL A   1      40.611  24.994  27.150  1.00  0.00     0.173 A 
ATOM     99  F   UNL A   1      43.356  24.247  29.408  1.00  0.00    -0.203 F 
ATOM    100  C   UNL A   1      41.757  22.819  28.435  1.00  0.00     0.198 A 
ATOM    101  C   UNL A   1      40.074  23.719  26.983  1.00  0.00     0.198 A 
ATOM    102  F   UNL A   1      40.045  26.022  26.502  1.00  0.00    -0.203 F 
ATOM    103  F   UNL A   1      42.339  21.765  29.025  1.00  0.00    -0.200 F 
ATOM    104  C   UNL A   1      40.652  22.631  27.619  1.00  0.00     0.200 A 
ATOM    105  F   UNL A   1      39.001  23.544  26.200  1.00  0.00    -0.200 F 
ATOM    106  F   UNL A   1      40.153  21.401  27.433  1.00  0.00    -0.200 F 
ENDBRANCH  72  96
BRANCH  84 107
ATOM    107  C   UNL A   1      47.737  28.104  25.919  1.00  0.00     0.064 A 
ATOM    108  C   UNL A   1      48.876  27.672  26.613  1.00  0.00     0.173 A 
ATOM    109  C   UNL A   1      47.711  27.934  24.526  1.00  0.00     0.173 A 
ATOM    110  F   UNL A   1      48.953  27.823  27.944  1.00  0.00    -0.203 F 
ATOM    111  C   UNL A   1      49.949  27.101  25.937  1.00  0.00     0.198 A 
ATOM    112  C   UNL A   1      48.773  27.334  23.857  1.00  0.00     0.198 A 
ATOM    113  F   UNL A   1      46.641  28.322  23.817  1.00  0.00    -0.203 F 
ATOM    114  F   UNL A   1      51.042  26.724  26.615  1.00  0.00    -0.200 F 
ATOM    115  C   UNL A   1      49.893  26.921  24.562  1.00  0.00     0.200 A 
ATOM    116  F   UNL A   1      48.707  27.144  22.532  1.00  0.00    -0.200 F 
ATOM    117  F   UNL A   1      50.919  26.351  23.916  1.00  0.00    -0.200 F 
ENDBRANCH  84 107
ENDBRANCH  58  59
ENDBRANCH  51  53
ENDBRANCH  50  51
ENDBRANCH  49  50
ENDBRANCH  48  49
ENDBRANCH  47  48
ENDBRANCH  46  47
ENDBRANCH  45  46
ENDBRANCH  44  45
ENDBRANCH  43  44
ENDBRANCH   1  43
TORSDOF 32
ENDMDL
MODEL 2
REMARK VINA RESULT:      -9.4      1.227      6.702
REMARK SMILES O=C(N[C@@H](Cc1ccccc1)C(=O)N[C@@H](CS)C(=O)N[C@@H](CO)C(=O)OCCOCCOCCOCCOC(=O)c1ccc(-c2c3nc(c(-c4c(F)c(F)c(F)c(F)c4F)c4ccc([nH]4)c(-c4c(F)c(F)c(F)c(F)c4F)c4nc(c(-c5c(F)c(F)c(F)c(F)c5F)c5ccc2[nH]5)C=C4)C=C3)cc1)c1ccc(F)cc1
REMARK SMILES IDX 30 1 29 2 28 3 27 4 26 5 24 6 25 7 21 8 20 9 18 10 19 11
REMARK SMILES IDX 15 13 14 14 12 15 13 16 4 18 3 19 1 20 2 21 104 23 105 24
REMARK SMILES IDX 110 25 106 26 109 27 107 28 108 29 5 30 6 31 7 32 11 33 8 34
REMARK SMILES IDX 10 35 9 36 16 37 17 38 22 40 23 41 31 43 32 44 33 45 34 46
REMARK SMILES IDX 35 47 36 48 37 49 38 50 39 51 40 52 41 53 42 54 103 55 43 56
REMARK SMILES IDX 102 57 44 58 45 59 46 60 96 61 47 62 101 63 95 64 97 65
REMARK SMILES IDX 48 66 100 67 94 68 93 69 49 71 81 72 61 73 80 74 62 75 65 76
REMARK SMILES IDX 79 77 98 78 63 79 64 80 78 82 99 83 66 84 50 85 51 86 59 87
REMARK SMILES IDX 52 88 53 89 57 90 60 91 54 92 55 93 58 94 56 95 82 96 83 97
REMARK SMILES IDX 91 98 84 99 85 100 89 101 92 102 86 103 87 104 90 105 88 106
REMARK SMILES IDX 67 107 68 108 76 109 69 110 70 111 74 112 77 113 71 114
REMARK SMILES IDX 72 115 75 116 73 117
REMARK H PARENT 20 12 14 17 3 22 17 39 23 42 97 70 65 81
REMARK Flexibility Score: inf
ROOT
ATOM      1  C   UNL A   1      33.143  31.266  27.603  1.00  0.00     0.188 C 
ENDROOT
BRANCH   1   2
ATOM      2  O   UNL A   1      32.452  30.805  26.445  1.00  0.00    -0.376 OA
BRANCH   2   3
ATOM      3  C   UNL A   1      31.124  31.242  26.218  1.00  0.00     0.202 C 
BRANCH   3   4
ATOM      4  C   UNL A   1      30.633  31.303  24.764  1.00  0.00     0.261 C 
BRANCH   4   5
ATOM      5  O   UNL A   1      29.225  31.560  24.610  1.00  0.00    -0.462 OA
BRANCH   5   6
ATOM      6  C   UNL A   1      28.544  30.837  23.681  1.00  0.00     0.331 C 
ATOM      7  O   UNL A   1      27.323  30.763  23.612  1.00  0.00    -0.250 OA
BRANCH   6   8
ATOM      8  C   UNL A   1      29.488  29.967  22.812  1.00  0.00     0.218 C 
BRANCH   8   9
ATOM      9  N   UNL A   1      29.490  28.524  23.124  1.00  0.00    -0.339 N 
ATOM     10  C   UNL A   1      30.388  27.730  23.766  1.00  0.00     0.244 C 
ATOM     11  O   UNL A   1      29.916  26.831  24.470  1.00  0.00    -0.273 OA
ATOM     12  H   UNL A   1      28.690  28.046  22.806  1.00  0.00     0.164 HD
BRANCH  10  13
ATOM     13  C   UNL A   1      31.913  27.910  23.763  1.00  0.00     0.181 C 
BRANCH  13  14
ATOM     14  N   UNL A   1      32.501  28.144  25.073  1.00  0.00    -0.342 N 
ATOM     15  C   UNL A   1      33.087  27.245  25.917  1.00  0.00     0.243 C 
ATOM     16  O   UNL A   1      33.894  27.711  26.730  1.00  0.00    -0.273 OA
ATOM     17  H   UNL A   1      32.473  29.074  25.395  1.00  0.00     0.164 HD
BRANCH  15  18
ATOM     18  C   UNL A   1      32.845  25.713  25.856  1.00  0.00     0.176 C 
BRANCH  18  19
ATOM     19  N   UNL A   1      31.540  25.282  26.374  1.00  0.00    -0.340 N 
ATOM     20  O   UNL A   1      29.950  23.885  27.124  1.00  0.00    -0.269 OA
ATOM     21  C   UNL A   1      31.094  24.024  26.699  1.00  0.00     0.251 C 
ATOM     22  H   UNL A   1      30.886  26.005  26.509  1.00  0.00     0.164 HD
BRANCH  21  23
ATOM     23  C   UNL A   1      31.928  22.830  26.435  1.00  0.00     0.040 A 
ATOM     24  C   UNL A   1      32.957  22.427  27.296  1.00  0.00     0.017 A 
ATOM     25  C   UNL A   1      31.675  22.112  25.258  1.00  0.00     0.017 A 
ATOM     26  C   UNL A   1      33.799  21.379  26.922  1.00  0.00     0.040 A 
ATOM     27  C   UNL A   1      32.506  21.049  24.900  1.00  0.00     0.040 A 
ATOM     28  C   UNL A   1      33.573  20.708  25.723  1.00  0.00     0.123 A 
ATOM     29  F   UNL A   1      34.399  19.721  25.354  1.00  0.00    -0.207 F 
ENDBRANCH  21  23
ENDBRANCH  18  19
BRANCH  18  30
ATOM     30  C   UNL A   1      33.284  25.018  24.556  1.00  0.00     0.070 C 
BRANCH  30  31
ATOM     31  C   UNL A   1      34.568  24.232  24.530  1.00  0.00    -0.045 A 
ATOM     32  C   UNL A   1      34.896  23.464  23.402  1.00  0.00     0.004 A 
ATOM     33  C   UNL A   1      35.489  24.315  25.584  1.00  0.00     0.004 A 
ATOM     34  C   UNL A   1      36.120  22.795  23.330  1.00  0.00     0.000 A 
ATOM     35  C   UNL A   1      36.707  23.634  25.514  1.00  0.00     0.000 A 
ATOM     36  C   UNL A   1      37.023  22.878  24.387  1.00  0.00     0.000 A 
ENDBRANCH  30  31
ENDBRANCH  18  30
ENDBRANCH  15  18
ENDBRANCH  13  14
BRANCH  13  37
ATOM     37  C   UNL A   1      32.651  26.904  22.872  1.00  0.00     0.101 C 
BRANCH  37  38
ATOM     38  S   UNL A   1      31.734  26.307  21.423  1.00  0.00    -0.177 SA
ATOM     39  H   UNL A   1      32.589  26.154  20.376  1.00  0.00     0.102 HD
ENDBRANCH  37  38
ENDBRANCH  13  37
ENDBRANCH  10  13
ENDBRANCH   8   9
BRANCH   8  40
ATOM     40  C   UNL A   1      29.036  30.182  21.362  1.00  0.00     0.193 C 
BRANCH  40  41
ATOM     41  O   UNL A   1      27.618  30.357  21.274  1.00  0.00    -0.394 OA
ATOM     42  H   UNL A   1      27.297  30.801  22.074  1.00  0.00     0.210 HD
ENDBRANCH  40  41
ENDBRANCH   8  40
ENDBRANCH   6   8
ENDBRANCH   5   6
ENDBRANCH   4   5
ENDBRANCH   3   4
ENDBRANCH   2   3
ENDBRANCH   1   2
BRANCH   1  43
ATOM     43  C   UNL A   1      33.353  32.775  27.866  1.00  0.00     0.188 C 
BRANCH  43  44
ATOM     44  O   UNL A   1      33.772  33.102  29.180  1.00  0.00    -0.377 OA
BRANCH  44  45
ATOM     45  C   UNL A   1      34.000  34.487  29.363  1.00  0.00     0.188 C 
BRANCH  45  46
ATOM     46  C   UNL A   1      33.987  34.918  30.838  1.00  0.00     0.188 C 
BRANCH  46  47
ATOM     47  O   UNL A   1      33.767  33.802  31.685  1.00  0.00    -0.376 OA
BRANCH  47  48
ATOM     48  C   UNL A   1      34.788  33.298  32.518  1.00  0.00     0.202 C 
BRANCH  48  49
ATOM     49  C   UNL A   1      36.098  32.751  31.926  1.00  0.00     0.261 C 
BRANCH  49  50
ATOM     50  O   UNL A   1      36.848  31.826  32.716  1.00  0.00    -0.460 OA
BRANCH  50  51
ATOM     51  C   UNL A   1      37.044  30.593  32.210  1.00  0.00     0.338 C 
ATOM     52  O   UNL A   1      36.244  29.667  32.187  1.00  0.00    -0.246 OA
BRANCH  51  53
ATOM     53  C   UNL A   1      38.338  30.605  31.500  1.00  0.00     0.060 A 
ATOM     54  C   UNL A   1      38.341  30.575  30.099  1.00  0.00     0.016 A 
ATOM     55  C   UNL A   1      39.540  30.690  32.209  1.00  0.00     0.016 A 
ATOM     56  C   UNL A   1      39.547  30.614  29.400  1.00  0.00     0.010 A 
ATOM     57  C   UNL A   1      40.748  30.683  31.513  1.00  0.00     0.010 A 
ATOM     58  C   UNL A   1      40.755  30.610  30.108  1.00  0.00    -0.014 A 
BRANCH  58  59
ATOM     59  C   UNL A   1      42.006  30.232  29.412  1.00  0.00     0.031 A 
ATOM     60  C   UNL A   1      42.119  28.811  28.935  1.00  0.00     0.074 A 
ATOM     61  C   UNL A   1      43.006  31.105  29.211  1.00  0.00     0.049 A 
ATOM     62  N   UNL A   1      43.139  28.183  28.412  1.00  0.00    -0.248 NA
ATOM     63  C   UNL A   1      40.910  27.980  29.081  1.00  0.00     0.031 C 
ATOM     64  C   UNL A   1      42.982  32.519  29.572  1.00  0.00     0.029 A 
ATOM     65  N   UNL A   1      44.251  30.914  28.666  1.00  0.00    -0.354 N 
ATOM     66  C   UNL A   1      42.698  26.886  28.182  1.00  0.00     0.074 A 
ATOM     67  C   UNL A   1      41.331  26.806  28.642  1.00  0.00     0.031 C 
ATOM     68  C   UNL A   1      44.172  33.066  29.261  1.00  0.00     0.029 A 
ATOM     69  C   UNL A   1      45.049  32.030  28.717  1.00  0.00     0.049 A 
ATOM     70  H   UNL A   1      44.543  30.059  28.274  1.00  0.00     0.167 HD
ATOM     71  C   UNL A   1      43.377  25.853  27.633  1.00  0.00     0.037 A 
ATOM     72  C   UNL A   1      46.350  32.177  28.393  1.00  0.00     0.037 A 
ATOM     73  C   UNL A   1      44.739  25.941  27.186  1.00  0.00     0.049 A 
ATOM     74  C   UNL A   1      47.114  30.988  27.863  1.00  0.00     0.074 A 
ATOM     75  C   UNL A   1      45.524  24.957  26.613  1.00  0.00     0.029 A 
ATOM     76  N   UNL A   1      45.521  27.083  27.271  1.00  0.00    -0.354 N 
ATOM     77  N   UNL A   1      46.695  29.765  27.637  1.00  0.00    -0.248 NA
ATOM     78  C   UNL A   1      48.534  31.196  27.543  1.00  0.00     0.031 C 
ATOM     79  C   UNL A   1      46.799  25.489  26.403  1.00  0.00     0.029 A 
ATOM     80  C   UNL A   1      46.789  26.822  26.782  1.00  0.00     0.049 A 
ATOM     81  H   UNL A   1      45.219  27.950  27.626  1.00  0.00     0.167 HD
ATOM     82  C   UNL A   1      47.780  29.076  27.110  1.00  0.00     0.074 A 
ATOM     83  C   UNL A   1      48.880  30.014  27.052  1.00  0.00     0.031 C 
ATOM     84  C   UNL A   1      47.858  27.784  26.705  1.00  0.00     0.037 A 
BRANCH  71  85
ATOM     85  C   UNL A   1      42.667  24.536  27.528  1.00  0.00     0.064 A 
ATOM     86  C   UNL A   1      43.006  23.444  28.340  1.00  0.00     0.173 A 
ATOM     87  C   UNL A   1      41.619  24.371  26.610  1.00  0.00     0.173 A 
ATOM     88  F   UNL A   1      44.016  23.544  29.218  1.00  0.00    -0.203 F 
ATOM     89  C   UNL A   1      42.341  22.227  28.218  1.00  0.00     0.198 A 
ATOM     90  C   UNL A   1      40.934  23.163  26.513  1.00  0.00     0.198 A 
ATOM     91  F   UNL A   1      41.257  25.383  25.806  1.00  0.00    -0.203 F 
ATOM     92  F   UNL A   1      42.719  21.181  28.966  1.00  0.00    -0.200 F 
ATOM     93  C   UNL A   1      41.300  22.090  27.311  1.00  0.00     0.200 A 
ATOM     94  F   UNL A   1      39.923  23.036  25.643  1.00  0.00    -0.200 F 
ATOM     95  F   UNL A   1      40.656  20.920  27.201  1.00  0.00    -0.200 F 
ENDBRANCH  71  85
BRANCH  72  96
ATOM     96  C   UNL A   1      47.024  33.490  28.579  1.00  0.00     0.064 A 
ATOM     97  C   UNL A   1      47.613  33.835  29.803  1.00  0.00     0.173 A 
ATOM     98  C   UNL A   1      47.069  34.438  27.545  1.00  0.00     0.173 A 
ATOM     99  F   UNL A   1      47.574  32.974  30.830  1.00  0.00    -0.203 F 
ATOM    100  C   UNL A   1      48.201  35.084  29.994  1.00  0.00     0.198 A 
ATOM    101  C   UNL A   1      47.683  35.676  27.729  1.00  0.00     0.198 A 
ATOM    102  F   UNL A   1      46.516  34.164  26.355  1.00  0.00    -0.203 F 
ATOM    103  F   UNL A   1      48.709  35.407  31.192  1.00  0.00    -0.200 F 
ATOM    104  C   UNL A   1      48.241  36.002  28.956  1.00  0.00     0.200 A 
ATOM    105  F   UNL A   1      47.727  36.556  26.719  1.00  0.00    -0.200 F 
ATOM    106  F   UNL A   1      48.804  37.203  29.140  1.00  0.00    -0.200 F 
ENDBRANCH  72  96
BRANCH  84 107
ATOM    107  C   UNL A   1      49.149  27.317  26.094  1.00  0.00     0.064 A 
ATOM    108  C   UNL A   1      50.171  26.745  26.865  1.00  0.00     0.173 A 
ATOM    109  C   UNL A   1      49.322  27.366  24.702  1.00  0.00     0.173 A 
ATOM    110  F   UNL A   1      50.057  26.685  28.200  1.00  0.00    -0.203 F 
ATOM    111  C   UNL A   1      51.325  26.250  26.264  1.00  0.00     0.198 A 
ATOM    112  C   UNL A   1      50.463  26.842  24.103  1.00  0.00     0.198 A 
ATOM    113  F   UNL A   1      48.369  27.895  23.920  1.00  0.00    -0.203 F 
ATOM    114  F   UNL A   1      52.304  25.737  27.021  1.00  0.00    -0.200 F 
ATOM    115  C   UNL A   1      51.465  26.288  24.884  1.00  0.00     0.200 A 
ATOM    116  F   UNL A   1      50.587  26.863  22.768  1.00  0.00    -0.200 F 
ATOM    117  F   UNL A   1      52.568  25.791  24.307  1.00  0.00    -0.200 F 
ENDBRANCH  84 107
ENDBRANCH  58  59
ENDBRANCH  51  53
ENDBRANCH  50  51
ENDBRANCH  49  50
ENDBRANCH  48  49
ENDBRANCH  47  48
ENDBRANCH  46  47
ENDBRANCH  45  46
ENDBRANCH  44  45
ENDBRANCH  43  44
ENDBRANCH   1  43
TORSDOF 32
ENDMDL
MODEL 3
REMARK VINA RESULT:      -9.2      5.566      7.520
REMARK SMILES O=C(N[C@@H](Cc1ccccc1)C(=O)N[C@@H](CS)C(=O)N[C@@H](CO)C(=O)OCCOCCOCCOCCOC(=O)c1ccc(-c2c3nc(c(-c4c(F)c(F)c(F)c(F)c4F)c4ccc([nH]4)c(-c4c(F)c(F)c(F)c(F)c4F)c4nc(c(-c5c(F)c(F)c(F)c(F)c5F)c5ccc2[nH]5)C=C4)C=C3)cc1)c1ccc(F)cc1
REMARK SMILES IDX 30 1 29 2 28 3 27 4 26 5 24 6 25 7 21 8 20 9 18 10 19 11
REMARK SMILES IDX 15 13 14 14 12 15 13 16 4 18 3 19 1 20 2 21 104 23 105 24
REMARK SMILES IDX 110 25 106 26 109 27 107 28 108 29 5 30 6 31 7 32 11 33 8 34
REMARK SMILES IDX 10 35 9 36 16 37 17 38 22 40 23 41 31 43 32 44 33 45 34 46
REMARK SMILES IDX 35 47 36 48 37 49 38 50 39 51 40 52 41 53 42 54 103 55 43 56
REMARK SMILES IDX 102 57 44 58 45 59 46 60 96 61 47 62 101 63 95 64 97 65
REMARK SMILES IDX 48 66 100 67 94 68 93 69 49 71 81 72 61 73 80 74 62 75 65 76
REMARK SMILES IDX 79 77 98 78 63 79 64 80 78 82 99 83 66 84 50 85 51 86 59 87
REMARK SMILES IDX 52 88 53 89 57 90 60 91 54 92 55 93 58 94 56 95 82 96 83 97
REMARK SMILES IDX 91 98 84 99 85 100 89 101 92 102 86 103 87 104 90 105 88 106
REMARK SMILES IDX 67 107 68 108 76 109 69 110 70 111 74 112 77 113 71 114
REMARK SMILES IDX 72 115 75 116 73 117
REMARK H PARENT 20 12 14 17 3 22 17 39 23 42 97 70 65 81
REMARK Flexibility Score: inf
ROOT
ATOM      1  C   UNL A   1      33.141  31.144  27.312  1.00  0.00     0.188 C 
ENDROOT
BRANCH   1   2
ATOM      2  O   UNL A   1      31.879  30.733  26.792  1.00  0.00    -0.376 OA
BRANCH   2   3
ATOM      3  C   UNL A   1      31.029  31.702  26.204  1.00  0.00     0.202 C 
BRANCH   3   4
ATOM      4  C   UNL A   1      30.547  31.449  24.768  1.00  0.00     0.261 C 
BRANCH   4   5
ATOM      5  O   UNL A   1      29.160  31.754  24.532  1.00  0.00    -0.462 OA
BRANCH   5   6
ATOM      6  C   UNL A   1      28.469  30.953  23.677  1.00  0.00     0.331 C 
ATOM      7  O   UNL A   1      27.252  30.818  23.677  1.00  0.00    -0.250 OA
BRANCH   6   8
ATOM      8  C   UNL A   1      29.409  30.084  22.802  1.00  0.00     0.218 C 
BRANCH   8   9
ATOM      9  N   UNL A   1      29.455  28.650  23.147  1.00  0.00    -0.339 N 
ATOM     10  C   UNL A   1      30.346  27.910  23.859  1.00  0.00     0.244 C 
ATOM     11  O   UNL A   1      29.873  27.006  24.556  1.00  0.00    -0.273 OA
ATOM     12  H   UNL A   1      28.697  28.130  22.794  1.00  0.00     0.164 HD
BRANCH  10  13
ATOM     13  C   UNL A   1      31.860  28.158  23.942  1.00  0.00     0.181 C 
BRANCH  13  14
ATOM     14  N   UNL A   1      32.383  28.285  25.294  1.00  0.00    -0.342 N 
ATOM     15  C   UNL A   1      32.934  27.321  26.089  1.00  0.00     0.243 C 
ATOM     16  O   UNL A   1      33.699  27.721  26.975  1.00  0.00    -0.273 OA
ATOM     17  H   UNL A   1      32.334  29.186  25.688  1.00  0.00     0.164 HD
BRANCH  15  18
ATOM     18  C   UNL A   1      32.705  25.799  25.891  1.00  0.00     0.176 C 
BRANCH  18  19
ATOM     19  N   UNL A   1      31.419  25.306  26.400  1.00  0.00    -0.340 N 
ATOM     20  O   UNL A   1      29.892  23.834  27.139  1.00  0.00    -0.269 OA
ATOM     21  C   UNL A   1      31.030  24.028  26.721  1.00  0.00     0.251 C 
ATOM     22  H   UNL A   1      30.730  25.997  26.531  1.00  0.00     0.164 HD
BRANCH  21  23
ATOM     23  C   UNL A   1      31.921  22.875  26.462  1.00  0.00     0.040 A 
ATOM     24  C   UNL A   1      32.987  22.543  27.308  1.00  0.00     0.017 A 
ATOM     25  C   UNL A   1      31.684  22.122  25.303  1.00  0.00     0.017 A 
ATOM     26  C   UNL A   1      33.877  21.535  26.935  1.00  0.00     0.040 A 
ATOM     27  C   UNL A   1      32.563  21.098  24.946  1.00  0.00     0.040 A 
ATOM     28  C   UNL A   1      33.663  20.830  25.753  1.00  0.00     0.123 A 
ATOM     29  F   UNL A   1      34.533  19.881  25.385  1.00  0.00    -0.207 F 
ENDBRANCH  21  23
ENDBRANCH  18  19
BRANCH  18  30
ATOM     30  C   UNL A   1      33.114  25.233  24.520  1.00  0.00     0.070 C 
BRANCH  30  31
ATOM     31  C   UNL A   1      34.398  24.458  24.389  1.00  0.00    -0.045 A 
ATOM     32  C   UNL A   1      35.353  24.507  25.417  1.00  0.00     0.004 A 
ATOM     33  C   UNL A   1      34.627  23.615  23.292  1.00  0.00     0.004 A 
ATOM     34  C   UNL A   1      36.511  23.730  25.347  1.00  0.00     0.000 A 
ATOM     35  C   UNL A   1      35.793  22.850  23.220  1.00  0.00     0.000 A 
ATOM     36  C   UNL A   1      36.732  22.903  24.248  1.00  0.00     0.000 A 
ENDBRANCH  30  31
ENDBRANCH  18  30
ENDBRANCH  15  18
ENDBRANCH  13  14
BRANCH  13  37
ATOM     37  C   UNL A   1      32.682  27.281  22.989  1.00  0.00     0.101 C 
BRANCH  37  38
ATOM     38  S   UNL A   1      34.075  28.100  22.162  1.00  0.00    -0.177 SA
ATOM     39  H   UNL A   1      34.448  29.194  22.877  1.00  0.00     0.102 HD
ENDBRANCH  37  38
ENDBRANCH  13  37
ENDBRANCH  10  13
ENDBRANCH   8   9
BRANCH   8  40
ATOM     40  C   UNL A   1      28.912  30.254  21.361  1.00  0.00     0.193 C 
BRANCH  40  41
ATOM     41  O   UNL A   1      28.803  31.635  21.001  1.00  0.00    -0.394 OA
ATOM     42  H   UNL A   1      28.590  32.158  21.789  1.00  0.00     0.210 HD
ENDBRANCH  40  41
ENDBRANCH   8  40
ENDBRANCH   6   8
ENDBRANCH   5   6
ENDBRANCH   4   5
ENDBRANCH   3   4
ENDBRANCH   2   3
ENDBRANCH   1   2
BRANCH   1  43
ATOM     43  C   UNL A   1      33.372  32.589  27.813  1.00  0.00     0.188 C 
BRANCH  43  44
ATOM     44  O   UNL A   1      34.482  32.752  28.679  1.00  0.00    -0.377 OA
BRANCH  44  45
ATOM     45  C   UNL A   1      35.716  32.837  27.989  1.00  0.00     0.188 C 
BRANCH  45  46
ATOM     46  C   UNL A   1      36.868  33.358  28.863  1.00  0.00     0.188 C 
BRANCH  46  47
ATOM     47  O   UNL A   1      36.923  32.657  30.094  1.00  0.00    -0.376 OA
BRANCH  47  48
ATOM     48  C   UNL A   1      37.238  31.283  30.144  1.00  0.00     0.202 C 
BRANCH  48  49
ATOM     49  C   UNL A   1      36.376  30.297  30.951  1.00  0.00     0.261 C 
BRANCH  49  50
ATOM     50  O   UNL A   1      36.987  29.633  32.059  1.00  0.00    -0.460 OA
BRANCH  50  51
ATOM     51  C   UNL A   1      37.716  30.383  32.907  1.00  0.00     0.338 C 
ATOM     52  O   UNL A   1      37.300  31.211  33.708  1.00  0.00    -0.246 OA
BRANCH  51  53
ATOM     53  C   UNL A   1      39.108  29.895  32.849  1.00  0.00     0.060 A 
ATOM     54  C   UNL A   1      39.341  28.514  32.875  1.00  0.00     0.016 A 
ATOM     55  C   UNL A   1      40.173  30.791  32.726  1.00  0.00     0.016 A 
ATOM     56  C   UNL A   1      40.643  28.021  32.792  1.00  0.00     0.010 A 
ATOM     57  C   UNL A   1      41.479  30.302  32.690  1.00  0.00     0.010 A 
ATOM     58  C   UNL A   1      41.718  28.917  32.758  1.00  0.00    -0.014 A 
BRANCH  58  59
ATOM     59  C   UNL A   1      43.078  28.436  33.091  1.00  0.00     0.031 A 
ATOM     60  C   UNL A   1      43.948  28.003  31.944  1.00  0.00     0.074 A 
ATOM     61  C   UNL A   1      43.528  28.377  34.355  1.00  0.00     0.049 A 
ATOM     62  N   UNL A   1      45.124  27.431  31.956  1.00  0.00    -0.248 NA
ATOM     63  C   UNL A   1      43.408  28.242  30.594  1.00  0.00     0.031 C 
ATOM     64  C   UNL A   1      42.798  28.827  35.536  1.00  0.00     0.029 A 
ATOM     65  N   UNL A   1      44.711  27.891  34.851  1.00  0.00    -0.354 N 
ATOM     66  C   UNL A   1      45.453  27.231  30.621  1.00  0.00     0.074 A 
ATOM     67  C   UNL A   1      44.349  27.718  29.826  1.00  0.00     0.031 C 
ATOM     68  C   UNL A   1      43.542  28.571  36.628  1.00  0.00     0.029 A 
ATOM     69  C   UNL A   1      44.779  27.905  36.222  1.00  0.00     0.049 A 
ATOM     70  H   UNL A   1      45.443  27.563  34.278  1.00  0.00     0.167 HD
ATOM     71  C   UNL A   1      46.579  26.689  30.106  1.00  0.00     0.037 A 
ATOM     72  C   UNL A   1      45.721  27.402  37.045  1.00  0.00     0.037 A 
ATOM     73  C   UNL A   1      47.668  26.201  30.905  1.00  0.00     0.049 A 
ATOM     74  C   UNL A   1      46.931  26.723  36.450  1.00  0.00     0.074 A 
ATOM     75  C   UNL A   1      48.858  25.634  30.487  1.00  0.00     0.029 A 
ATOM     76  N   UNL A   1      47.692  26.217  32.292  1.00  0.00    -0.354 N 
ATOM     77  N   UNL A   1      47.246  26.543  35.189  1.00  0.00    -0.248 NA
ATOM     78  C   UNL A   1      47.918  26.175  37.393  1.00  0.00     0.031 C 
ATOM     79  C   UNL A   1      49.578  25.254  31.624  1.00  0.00     0.029 A 
ATOM     80  C   UNL A   1      48.868  25.647  32.748  1.00  0.00     0.049 A 
ATOM     81  H   UNL A   1      46.979  26.578  32.866  1.00  0.00     0.167 HD
ATOM     82  C   UNL A   1      48.480  25.905  35.187  1.00  0.00     0.074 A 
ATOM     83  C   UNL A   1      48.858  25.725  36.572  1.00  0.00     0.031 C 
ATOM     84  C   UNL A   1      49.235  25.508  34.133  1.00  0.00     0.037 A 
BRANCH  71  85
ATOM     85  C   UNL A   1      46.666  26.562  28.614  1.00  0.00     0.064 A 
ATOM     86  C   UNL A   1      47.128  27.611  27.806  1.00  0.00     0.173 A 
ATOM     87  C   UNL A   1      46.294  25.364  27.985  1.00  0.00     0.173 A 
ATOM     88  F   UNL A   1      47.474  28.785  28.357  1.00  0.00    -0.203 F 
ATOM     89  C   UNL A   1      47.190  27.476  26.421  1.00  0.00     0.198 A 
ATOM     90  C   UNL A   1      46.388  25.220  26.604  1.00  0.00     0.198 A 
ATOM     91  F   UNL A   1      45.841  24.330  28.711  1.00  0.00    -0.203 F 
ATOM     92  F   UNL A   1      47.583  28.510  25.666  1.00  0.00    -0.200 F 
ATOM     93  C   UNL A   1      46.828  26.278  25.823  1.00  0.00     0.200 A 
ATOM     94  F   UNL A   1      46.048  24.059  26.028  1.00  0.00    -0.200 F 
ATOM     95  F   UNL A   1      46.896  26.147  24.491  1.00  0.00    -0.200 F 
ENDBRANCH  71  85
BRANCH  72  96
ATOM     96  C   UNL A   1      45.554  27.498  38.520  1.00  0.00     0.064 A 
ATOM     97  C   UNL A   1      46.080  28.580  39.241  1.00  0.00     0.173 A 
ATOM     98  C   UNL A   1      44.890  26.496  39.245  1.00  0.00     0.173 A 
ATOM     99  F   UNL A   1      46.747  29.550  38.598  1.00  0.00    -0.203 F 
ATOM    100  C   UNL A   1      45.968  28.646  40.628  1.00  0.00     0.198 A 
ATOM    101  C   UNL A   1      44.752  26.578  40.630  1.00  0.00     0.198 A 
ATOM    102  F   UNL A   1      44.372  25.436  38.608  1.00  0.00    -0.203 F 
ATOM    103  F   UNL A   1      46.527  29.664  41.296  1.00  0.00    -0.200 F 
ATOM    104  C   UNL A   1      45.300  27.648  41.321  1.00  0.00     0.200 A 
ATOM    105  F   UNL A   1      44.098  25.616  41.294  1.00  0.00    -0.200 F 
ATOM    106  F   UNL A   1      45.193  27.711  42.655  1.00  0.00    -0.200 F 
ENDBRANCH  72  96
BRANCH  84 107
ATOM    107  C   UNL A   1      50.581  24.906  34.422  1.00  0.00     0.064 A 
ATOM    108  C   UNL A   1      50.769  23.521  34.521  1.00  0.00     0.173 A 
ATOM    109  C   UNL A   1      51.712  25.732  34.512  1.00  0.00     0.173 A 
ATOM    110  F   UNL A   1      49.718  22.690  34.451  1.00  0.00    -0.203 F 
ATOM    111  C   UNL A   1      52.039  22.985  34.712  1.00  0.00     0.198 A 
ATOM    112  C   UNL A   1      52.984  25.192  34.673  1.00  0.00     0.198 A 
ATOM    113  F   UNL A   1      51.587  27.065  34.415  1.00  0.00    -0.203 F 
ATOM    114  F   UNL A   1      52.193  21.660  34.837  1.00  0.00    -0.200 F 
ATOM    115  C   UNL A   1      53.147  23.819  34.776  1.00  0.00     0.200 A 
ATOM    116  F   UNL A   1      54.053  25.999  34.715  1.00  0.00    -0.200 F 
ATOM    117  F   UNL A   1      54.371  23.299  34.939  1.00  0.00    -0.200 F 
ENDBRANCH  84 107
ENDBRANCH  58  59
ENDBRANCH  51  53
ENDBRANCH  50  51
ENDBRANCH  49  50
ENDBRANCH  48  49
ENDBRANCH  47  48
ENDBRANCH  46  47
ENDBRANCH  45  46
ENDBRANCH  44  45
ENDBRANCH  43  44
ENDBRANCH   1  43
TORSDOF 32
ENDMDL
