MODEL 1
REMARK VINA RESULT:     -10.6      0.000      0.000
REMARK SMILES C[C@H]1CC=C(C2=NN=C(C(=O)OCCOCCOCCOCCOC(=O)c3ccc(-c4c5nc(c(-c6c(F)c(F)c(F)c(F)c6F)c6ccc([nH]6)c(-c6c(F)c(F)c(F)c(F)c6F)c6nc(c(-c7c(F)c(F)c(F)c(F)c7F)c7ccc4[nH]7)C=C6)C=C5)cc3)C2)O1
REMARK SMILES IDX 19 1 18 2 17 3 16 4 15 5 14 6 13 7 12 8 10 9 11 10 9 11 6 12
REMARK SMILES IDX 7 13 90 14 8 15 5 16 1 17 2 18 3 19 91 20 4 21 20 22 21 23
REMARK SMILES IDX 22 24 23 25 24 26 25 27 26 28 27 29 28 30 89 31 29 32 88 33
REMARK SMILES IDX 30 34 31 35 32 36 82 37 33 38 87 39 81 40 83 41 34 42 86 43
REMARK SMILES IDX 80 44 79 45 35 47 67 48 47 49 66 50 48 51 51 52 65 53 84 54
REMARK SMILES IDX 49 55 50 56 64 58 85 59 52 60 36 61 37 62 45 63 38 64 39 65
REMARK SMILES IDX 43 66 46 67 40 68 41 69 44 70 42 71 68 72 69 73 77 74 70 75
REMARK SMILES IDX 71 76 75 77 78 78 72 79 73 80 76 81 74 82 53 83 54 84 62 85
REMARK SMILES IDX 55 86 56 87 60 88 63 89 57 90 58 91 61 92 59 93
REMARK H PARENT 83 46 51 57
REMARK Flexibility Score: inf
ROOT
ATOM      1  C   UNL A   1      38.513  21.789  25.543  1.00  0.00     0.188 C 
ENDROOT
BRANCH   1   2
ATOM      2  O   UNL A   1      37.170  22.170  25.801  1.00  0.00    -0.377 OA
BRANCH   2   3
ATOM      3  C   UNL A   1      36.784  23.536  25.723  1.00  0.00     0.188 C 
BRANCH   3   4
ATOM      4  C   UNL A   1      35.391  23.969  25.211  1.00  0.00     0.188 C 
BRANCH   4   5
ATOM      5  O   UNL A   1      34.939  25.220  25.706  1.00  0.00    -0.376 OA
BRANCH   5   6
ATOM      6  C   UNL A   1      33.655  25.641  25.276  1.00  0.00     0.202 C 
BRANCH   6   7
ATOM      7  C   UNL A   1      33.369  25.296  23.812  1.00  0.00     0.261 C 
BRANCH   7   8
ATOM      8  O   UNL A   1      32.330  24.319  23.638  1.00  0.00    -0.459 OA
BRANCH   8   9
ATOM      9  C   UNL A   1      32.652  23.212  22.956  1.00  0.00     0.355 C 
ATOM     10  O   UNL A   1      33.157  23.131  21.844  1.00  0.00    -0.245 OA
BRANCH   9  11
ATOM     11  C   UNL A   1      32.497  22.009  23.829  1.00  0.00     0.154 C 
ATOM     12  C   UNL A   1      32.570  19.919  24.580  1.00  0.00     0.111 C 
ATOM     13  N   UNL A   1      31.795  20.606  25.365  1.00  0.00    -0.151 NA
ATOM     14  C   UNL A   1      33.209  20.746  23.515  1.00  0.00     0.128 C 
ATOM     15  N   UNL A   1      31.754  21.956  24.892  1.00  0.00    -0.147 NA
BRANCH  12  16
ATOM     16  C   UNL A   1      32.765  18.464  24.605  1.00  0.00     0.139 C 
ATOM     17  C   UNL A   1      32.305  15.260  25.818  1.00  0.00     0.053 C 
ATOM     18  C   UNL A   1      33.183  16.442  25.439  1.00  0.00     0.174 C 
ATOM     19  C   UNL A   1      33.557  16.428  23.950  1.00  0.00     0.076 C 
ATOM     20  O   UNL A   1      32.514  17.695  25.733  1.00  0.00    -0.489 OA
ATOM     21  C   UNL A   1      33.349  17.843  23.586  1.00  0.00     0.025 C 
ENDBRANCH  12  16
ENDBRANCH   9  11
ENDBRANCH   8   9
ENDBRANCH   7   8
ENDBRANCH   6   7
ENDBRANCH   5   6
ENDBRANCH   4   5
ENDBRANCH   3   4
ENDBRANCH   2   3
ENDBRANCH   1   2
BRANCH   1  22
ATOM     22  C   UNL A   1      39.633  22.230  26.509  1.00  0.00     0.188 C 
BRANCH  22  23
ATOM     23  O   UNL A   1      40.236  21.181  27.261  1.00  0.00    -0.376 OA
BRANCH  23  24
ATOM     24  C   UNL A   1      40.659  20.024  26.557  1.00  0.00     0.202 C 
BRANCH  24  25
ATOM     25  C   UNL A   1      42.177  19.902  26.479  1.00  0.00     0.261 C 
BRANCH  25  26
ATOM     26  O   UNL A   1      42.717  20.505  25.312  1.00  0.00    -0.460 OA
BRANCH  26  27
ATOM     27  C   UNL A   1      44.056  20.550  25.249  1.00  0.00     0.338 C 
ATOM     28  O   UNL A   1      44.841  19.611  25.359  1.00  0.00    -0.246 OA
BRANCH  27  29
ATOM     29  C   UNL A   1      44.481  21.942  25.142  1.00  0.00     0.060 A 
ATOM     30  C   UNL A   1      45.545  22.321  25.962  1.00  0.00     0.016 A 
ATOM     31  C   UNL A   1      43.598  22.867  24.571  1.00  0.00     0.016 A 
ATOM     32  C   UNL A   1      45.546  23.602  26.455  1.00  0.00     0.010 A 
ATOM     33  C   UNL A   1      43.576  24.133  25.091  1.00  0.00     0.010 A 
ATOM     34  C   UNL A   1      44.487  24.441  26.100  1.00  0.00    -0.014 A 
BRANCH  34  35
ATOM     35  C   UNL A   1      44.305  25.648  26.872  1.00  0.00     0.031 A 
ATOM     36  C   UNL A   1      45.364  26.647  26.683  1.00  0.00     0.074 A 
ATOM     37  C   UNL A   1      43.191  25.840  27.605  1.00  0.00     0.049 A 
ATOM     38  N   UNL A   1      46.159  27.128  27.577  1.00  0.00    -0.248 NA
ATOM     39  C   UNL A   1      45.642  27.096  25.310  1.00  0.00     0.031 C 
ATOM     40  C   UNL A   1      41.972  25.021  27.569  1.00  0.00     0.029 A 
ATOM     41  N   UNL A   1      42.861  26.861  28.447  1.00  0.00    -0.354 N 
ATOM     42  C   UNL A   1      46.899  28.097  26.913  1.00  0.00     0.074 A 
ATOM     43  C   UNL A   1      46.677  27.910  25.505  1.00  0.00     0.031 C 
ATOM     44  C   UNL A   1      40.975  25.687  28.189  1.00  0.00     0.029 A 
ATOM     45  C   UNL A   1      41.513  26.908  28.766  1.00  0.00     0.049 A 
ATOM     46  H   UNL A   1      43.519  27.504  28.797  1.00  0.00     0.167 HD
ATOM     47  C   UNL A   1      47.372  29.173  27.590  1.00  0.00     0.037 A 
ATOM     48  C   UNL A   1      40.860  27.904  29.410  1.00  0.00     0.037 A 
ATOM     49  C   UNL A   1      47.377  28.957  29.011  1.00  0.00     0.049 A 
ATOM     50  C   UNL A   1      41.849  28.723  30.148  1.00  0.00     0.074 A 
ATOM     51  C   UNL A   1      48.209  28.366  29.934  1.00  0.00     0.029 A 
ATOM     52  N   UNL A   1      46.170  29.160  29.621  1.00  0.00    -0.354 N 
ATOM     53  N   UNL A   1      42.506  28.303  31.192  1.00  0.00    -0.248 NA
ATOM     54  C   UNL A   1      42.351  29.958  29.550  1.00  0.00     0.031 C 
ATOM     55  C   UNL A   1      47.429  28.149  31.109  1.00  0.00     0.029 A 
ATOM     56  C   UNL A   1      46.136  28.600  30.871  1.00  0.00     0.049 A 
ATOM     57  H   UNL A   1      45.418  29.647  29.212  1.00  0.00     0.167 HD
ATOM     58  C   UNL A   1      43.712  28.970  31.124  1.00  0.00     0.074 A 
ATOM     59  C   UNL A   1      43.496  30.091  30.224  1.00  0.00     0.031 C 
ATOM     60  C   UNL A   1      44.867  28.366  31.517  1.00  0.00     0.037 A 
BRANCH  47  61
ATOM     61  C   UNL A   1      47.379  30.573  27.026  1.00  0.00     0.064 A 
ATOM     62  C   UNL A   1      48.563  31.327  27.109  1.00  0.00     0.173 A 
ATOM     63  C   UNL A   1      46.209  31.300  26.712  1.00  0.00     0.173 A 
ATOM     64  F   UNL A   1      49.727  30.738  27.426  1.00  0.00    -0.203 F 
ATOM     65  C   UNL A   1      48.564  32.714  26.953  1.00  0.00     0.198 A 
ATOM     66  C   UNL A   1      46.224  32.676  26.496  1.00  0.00     0.198 A 
ATOM     67  F   UNL A   1      44.994  30.738  26.716  1.00  0.00    -0.203 F 
ATOM     68  F   UNL A   1      49.692  33.406  27.160  1.00  0.00    -0.200 F 
ATOM     69  C   UNL A   1      47.394  33.388  26.649  1.00  0.00     0.200 A 
ATOM     70  F   UNL A   1      45.076  33.313  26.223  1.00  0.00    -0.200 F 
ATOM     71  F   UNL A   1      47.382  34.723  26.551  1.00  0.00    -0.200 F 
ENDBRANCH  47  61
BRANCH  48  72
ATOM     72  C   UNL A   1      39.439  28.297  29.293  1.00  0.00     0.064 A 
ATOM     73  C   UNL A   1      38.608  28.354  30.422  1.00  0.00     0.173 A 
ATOM     74  C   UNL A   1      38.930  28.857  28.106  1.00  0.00     0.173 A 
ATOM     75  F   UNL A   1      39.036  27.881  31.601  1.00  0.00    -0.203 F 
ATOM     76  C   UNL A   1      37.348  28.954  30.370  1.00  0.00     0.198 A 
ATOM     77  C   UNL A   1      37.666  29.441  28.052  1.00  0.00     0.198 A 
ATOM     78  F   UNL A   1      39.683  28.926  26.998  1.00  0.00    -0.203 F 
ATOM     79  F   UNL A   1      36.606  29.046  31.483  1.00  0.00    -0.200 F 
ATOM     80  C   UNL A   1      36.880  29.503  29.187  1.00  0.00     0.200 A 
ATOM     81  F   UNL A   1      37.238  29.996  26.909  1.00  0.00    -0.200 F 
ATOM     82  F   UNL A   1      35.693  30.125  29.151  1.00  0.00    -0.200 F 
ENDBRANCH  48  72
BRANCH  60  83
ATOM     83  C   UNL A   1      44.750  27.269  32.521  1.00  0.00     0.064 A 
ATOM     84  C   UNL A   1      44.585  25.917  32.187  1.00  0.00     0.173 A 
ATOM     85  C   UNL A   1      44.834  27.602  33.880  1.00  0.00     0.173 A 
ATOM     86  F   UNL A   1      44.572  25.523  30.905  1.00  0.00    -0.203 F 
ATOM     87  C   UNL A   1      44.454  24.946  33.177  1.00  0.00     0.198 A 
ATOM     88  C   UNL A   1      44.737  26.626  34.865  1.00  0.00     0.198 A 
ATOM     89  F   UNL A   1      45.033  28.876  34.249  1.00  0.00    -0.203 F 
ATOM     90  F   UNL A   1      44.263  23.662  32.839  1.00  0.00    -0.200 F 
ATOM     91  C   UNL A   1      44.532  25.301  34.515  1.00  0.00     0.200 A 
ATOM     92  F   UNL A   1      44.852  26.969  36.156  1.00  0.00    -0.200 F 
ATOM     93  F   UNL A   1      44.426  24.364  35.468  1.00  0.00    -0.200 F 
ENDBRANCH  60  83
ENDBRANCH  34  35
ENDBRANCH  27  29
ENDBRANCH  26  27
ENDBRANCH  25  26
ENDBRANCH  24  25
ENDBRANCH  23  24
ENDBRANCH  22  23
ENDBRANCH   1  22
TORSDOF 21
ENDMDL
MODEL 2
REMARK VINA RESULT:     -10.4      1.631      3.671
REMARK SMILES C[C@H]1CC=C(C2=NN=C(C(=O)OCCOCCOCCOCCOC(=O)c3ccc(-c4c5nc(c(-c6c(F)c(F)c(F)c(F)c6F)c6ccc([nH]6)c(-c6c(F)c(F)c(F)c(F)c6F)c6nc(c(-c7c(F)c(F)c(F)c(F)c7F)c7ccc4[nH]7)C=C6)C=C5)cc3)C2)O1
REMARK SMILES IDX 19 1 18 2 17 3 16 4 15 5 14 6 13 7 12 8 10 9 11 10 9 11 6 12
REMARK SMILES IDX 7 13 90 14 8 15 5 16 1 17 2 18 3 19 91 20 4 21 20 22 21 23
REMARK SMILES IDX 22 24 23 25 24 26 25 27 26 28 27 29 28 30 89 31 29 32 88 33
REMARK SMILES IDX 30 34 31 35 32 36 82 37 33 38 87 39 81 40 83 41 34 42 86 43
REMARK SMILES IDX 80 44 79 45 35 47 67 48 47 49 66 50 48 51 51 52 65 53 84 54
REMARK SMILES IDX 49 55 50 56 64 58 85 59 52 60 36 61 37 62 45 63 38 64 39 65
REMARK SMILES IDX 43 66 46 67 40 68 41 69 44 70 42 71 68 72 69 73 77 74 70 75
REMARK SMILES IDX 71 76 75 77 78 78 72 79 73 80 76 81 74 82 53 83 54 84 62 85
REMARK SMILES IDX 55 86 56 87 60 88 63 89 57 90 58 91 61 92 59 93
REMARK H PARENT 83 46 51 57
REMARK Flexibility Score: inf
ROOT
ATOM      1  C   UNL A   1      40.186  21.797  26.814  1.00  0.00     0.188 C 
ENDROOT
BRANCH   1   2
ATOM      2  O   UNL A   1      38.965  22.286  26.281  1.00  0.00    -0.377 OA
BRANCH   2   3
ATOM      3  C   UNL A   1      38.173  21.465  25.432  1.00  0.00     0.188 C 
BRANCH   3   4
ATOM      4  C   UNL A   1      36.696  21.794  25.115  1.00  0.00     0.188 C 
BRANCH   4   5
ATOM      5  O   UNL A   1      35.750  20.942  25.743  1.00  0.00    -0.376 OA
BRANCH   5   6
ATOM      6  C   UNL A   1      34.659  20.515  24.944  1.00  0.00     0.202 C 
BRANCH   6   7
ATOM      7  C   UNL A   1      33.478  21.489  24.969  1.00  0.00     0.261 C 
BRANCH   7   8
ATOM      8  O   UNL A   1      32.630  21.344  26.120  1.00  0.00    -0.459 OA
BRANCH   8   9
ATOM      9  C   UNL A   1      32.751  22.273  27.078  1.00  0.00     0.355 C 
ATOM     10  O   UNL A   1      33.557  22.308  27.997  1.00  0.00    -0.245 OA
BRANCH   9  11
ATOM     11  C   UNL A   1      31.861  23.436  26.778  1.00  0.00     0.154 C 
ATOM     12  C   UNL A   1      31.155  25.461  26.193  1.00  0.00     0.111 C 
ATOM     13  N   UNL A   1      30.162  24.825  26.740  1.00  0.00    -0.151 NA
ATOM     14  C   UNL A   1      32.384  24.625  26.059  1.00  0.00     0.128 C 
ATOM     15  N   UNL A   1      30.609  23.517  27.108  1.00  0.00    -0.147 NA
BRANCH  12  16
ATOM     16  C   UNL A   1      31.180  26.880  25.820  1.00  0.00     0.139 C 
ATOM     17  C   UNL A   1      30.490  29.605  23.806  1.00  0.00     0.053 C 
ATOM     18  C   UNL A   1      31.451  28.683  24.542  1.00  0.00     0.174 C 
ATOM     19  C   UNL A   1      31.647  29.105  26.004  1.00  0.00     0.076 C 
ATOM     20  O   UNL A   1      30.971  27.315  24.518  1.00  0.00    -0.489 OA
ATOM     21  C   UNL A   1      31.566  27.803  26.694  1.00  0.00     0.025 C 
ENDBRANCH  12  16
ENDBRANCH   9  11
ENDBRANCH   8   9
ENDBRANCH   7   8
ENDBRANCH   6   7
ENDBRANCH   5   6
ENDBRANCH   4   5
ENDBRANCH   3   4
ENDBRANCH   2   3
ENDBRANCH   1   2
BRANCH   1  22
ATOM     22  C   UNL A   1      40.716  20.415  26.373  1.00  0.00     0.188 C 
BRANCH  22  23
ATOM     23  O   UNL A   1      42.115  20.216  26.549  1.00  0.00    -0.376 OA
BRANCH  23  24
ATOM     24  C   UNL A   1      42.646  18.941  26.228  1.00  0.00     0.202 C 
BRANCH  24  25
ATOM     25  C   UNL A   1      43.762  19.009  25.190  1.00  0.00     0.261 C 
BRANCH  25  26
ATOM     26  O   UNL A   1      43.859  20.283  24.571  1.00  0.00    -0.460 OA
BRANCH  26  27
ATOM     27  C   UNL A   1      45.055  20.883  24.661  1.00  0.00     0.338 C 
ATOM     28  O   UNL A   1      46.132  20.362  24.940  1.00  0.00    -0.246 OA
BRANCH  27  29
ATOM     29  C   UNL A   1      44.880  22.322  24.491  1.00  0.00     0.060 A 
ATOM     30  C   UNL A   1      46.012  23.107  24.716  1.00  0.00     0.016 A 
ATOM     31  C   UNL A   1      43.580  22.843  24.514  1.00  0.00     0.016 A 
ATOM     32  C   UNL A   1      45.827  24.352  25.263  1.00  0.00     0.010 A 
ATOM     33  C   UNL A   1      43.395  24.068  25.094  1.00  0.00     0.010 A 
ATOM     34  C   UNL A   1      44.520  24.753  25.552  1.00  0.00    -0.014 A 
BRANCH  34  35
ATOM     35  C   UNL A   1      44.349  25.891  26.423  1.00  0.00     0.031 A 
ATOM     36  C   UNL A   1      45.398  26.909  26.294  1.00  0.00     0.074 A 
ATOM     37  C   UNL A   1      43.250  26.016  27.193  1.00  0.00     0.049 A 
ATOM     38  N   UNL A   1      46.210  27.321  27.207  1.00  0.00    -0.248 NA
ATOM     39  C   UNL A   1      45.645  27.470  24.956  1.00  0.00     0.031 C 
ATOM     40  C   UNL A   1      42.035  25.195  27.116  1.00  0.00     0.029 A 
ATOM     41  N   UNL A   1      42.933  26.963  28.122  1.00  0.00    -0.354 N 
ATOM     42  C   UNL A   1      46.932  28.346  26.609  1.00  0.00     0.074 A 
ATOM     43  C   UNL A   1      46.680  28.272  25.195  1.00  0.00     0.031 C 
ATOM     44  C   UNL A   1      41.048  25.802  27.809  1.00  0.00     0.029 A 
ATOM     45  C   UNL A   1      41.592  26.975  28.472  1.00  0.00     0.049 A 
ATOM     46  H   UNL A   1      43.596  27.580  28.508  1.00  0.00     0.167 HD
ATOM     47  C   UNL A   1      47.414  29.366  27.360  1.00  0.00     0.037 A 
ATOM     48  C   UNL A   1      40.949  27.912  29.208  1.00  0.00     0.037 A 
ATOM     49  C   UNL A   1      47.451  29.036  28.759  1.00  0.00     0.049 A 
ATOM     50  C   UNL A   1      41.950  28.674  29.989  1.00  0.00     0.074 A 
ATOM     51  C   UNL A   1      48.306  28.377  29.613  1.00  0.00     0.029 A 
ATOM     52  N   UNL A   1      46.257  29.180  29.409  1.00  0.00    -0.354 N 
ATOM     53  N   UNL A   1      42.631  28.176  30.982  1.00  0.00    -0.248 NA
ATOM     54  C   UNL A   1      42.433  29.958  29.483  1.00  0.00     0.031 C 
ATOM     55  C   UNL A   1      47.552  28.060  30.783  1.00  0.00     0.029 A 
ATOM     56  C   UNL A   1      46.252  28.520  30.609  1.00  0.00     0.049 A 
ATOM     57  H   UNL A   1      45.494  29.695  29.056  1.00  0.00     0.167 HD
ATOM     58  C   UNL A   1      43.832  28.854  30.943  1.00  0.00     0.074 A 
ATOM     59  C   UNL A   1      43.591  30.043  30.141  1.00  0.00     0.031 C 
ATOM     60  C   UNL A   1      44.998  28.227  31.260  1.00  0.00     0.037 A 
BRANCH  47  61
ATOM     61  C   UNL A   1      47.403  30.807  26.912  1.00  0.00     0.064 A 
ATOM     62  C   UNL A   1      48.587  31.557  27.023  1.00  0.00     0.173 A 
ATOM     63  C   UNL A   1      46.223  31.553  26.690  1.00  0.00     0.173 A 
ATOM     64  F   UNL A   1      49.760  30.949  27.259  1.00  0.00    -0.203 F 
ATOM     65  C   UNL A   1      48.580  32.952  26.980  1.00  0.00     0.198 A 
ATOM     66  C   UNL A   1      46.229  32.941  26.587  1.00  0.00     0.198 A 
ATOM     67  F   UNL A   1      45.010  30.987  26.682  1.00  0.00    -0.203 F 
ATOM     68  F   UNL A   1      49.712  33.631  27.212  1.00  0.00    -0.200 F 
ATOM     69  C   UNL A   1      47.401  33.643  26.764  1.00  0.00     0.200 A 
ATOM     70  F   UNL A   1      45.072  33.593  26.398  1.00  0.00    -0.200 F 
ATOM     71  F   UNL A   1      47.383  34.982  26.776  1.00  0.00    -0.200 F 
ENDBRANCH  47  61
BRANCH  48  72
ATOM     72  C   UNL A   1      39.524  28.304  29.154  1.00  0.00     0.064 A 
ATOM     73  C   UNL A   1      38.729  28.308  30.309  1.00  0.00     0.173 A 
ATOM     74  C   UNL A   1      38.976  28.913  28.009  1.00  0.00     0.173 A 
ATOM     75  F   UNL A   1      39.195  27.786  31.453  1.00  0.00    -0.203 F 
ATOM     76  C   UNL A   1      37.466  28.905  30.324  1.00  0.00     0.198 A 
ATOM     77  C   UNL A   1      37.709  29.495  28.021  1.00  0.00     0.198 A 
ATOM     78  F   UNL A   1      39.693  29.034  26.882  1.00  0.00    -0.203 F 
ATOM     79  F   UNL A   1      36.760  28.945  31.463  1.00  0.00    -0.200 F 
ATOM     80  C   UNL A   1      36.959  29.504  29.182  1.00  0.00     0.200 A 
ATOM     81  F   UNL A   1      37.244  30.097  26.917  1.00  0.00    -0.200 F 
ATOM     82  F   UNL A   1      35.771  30.122  29.210  1.00  0.00    -0.200 F 
ENDBRANCH  48  72
BRANCH  60  83
ATOM     83  C   UNL A   1      44.908  27.051  32.175  1.00  0.00     0.064 A 
ATOM     84  C   UNL A   1      44.924  27.147  33.574  1.00  0.00     0.173 A 
ATOM     85  C   UNL A   1      44.776  25.778  31.606  1.00  0.00     0.173 A 
ATOM     86  F   UNL A   1      44.973  28.342  34.180  1.00  0.00    -0.203 F 
ATOM     87  C   UNL A   1      44.865  26.005  34.369  1.00  0.00     0.198 A 
ATOM     88  C   UNL A   1      44.683  24.642  32.403  1.00  0.00     0.198 A 
ATOM     89  F   UNL A   1      44.716  25.638  30.273  1.00  0.00    -0.203 F 
ATOM     90  F   UNL A   1      44.914  26.112  35.706  1.00  0.00    -0.200 F 
ATOM     91  C   UNL A   1      44.742  24.754  33.784  1.00  0.00     0.200 A 
ATOM     92  F   UNL A   1      44.526  23.439  31.834  1.00  0.00    -0.200 F 
ATOM     93  F   UNL A   1      44.665  23.656  34.549  1.00  0.00    -0.200 F 
ENDBRANCH  60  83
ENDBRANCH  34  35
ENDBRANCH  27  29
ENDBRANCH  26  27
ENDBRANCH  25  26
ENDBRANCH  24  25
ENDBRANCH  23  24
ENDBRANCH  22  23
ENDBRANCH   1  22
TORSDOF 21
ENDMDL
MODEL 3
REMARK VINA RESULT:     -10.1      5.203     10.809
REMARK SMILES C[C@H]1CC=C(C2=NN=C(C(=O)OCCOCCOCCOCCOC(=O)c3ccc(-c4c5nc(c(-c6c(F)c(F)c(F)c(F)c6F)c6ccc([nH]6)c(-c6c(F)c(F)c(F)c(F)c6F)c6nc(c(-c7c(F)c(F)c(F)c(F)c7F)c7ccc4[nH]7)C=C6)C=C5)cc3)C2)O1
REMARK SMILES IDX 19 1 18 2 17 3 16 4 15 5 14 6 13 7 12 8 10 9 11 10 9 11 6 12
REMARK SMILES IDX 7 13 90 14 8 15 5 16 1 17 2 18 3 19 91 20 4 21 20 22 21 23
REMARK SMILES IDX 22 24 23 25 24 26 25 27 26 28 27 29 28 30 89 31 29 32 88 33
REMARK SMILES IDX 30 34 31 35 32 36 82 37 33 38 87 39 81 40 83 41 34 42 86 43
REMARK SMILES IDX 80 44 79 45 35 47 67 48 47 49 66 50 48 51 51 52 65 53 84 54
REMARK SMILES IDX 49 55 50 56 64 58 85 59 52 60 36 61 37 62 45 63 38 64 39 65
REMARK SMILES IDX 43 66 46 67 40 68 41 69 44 70 42 71 68 72 69 73 77 74 70 75
REMARK SMILES IDX 71 76 75 77 78 78 72 79 73 80 76 81 74 82 53 83 54 84 62 85
REMARK SMILES IDX 55 86 56 87 60 88 63 89 57 90 58 91 61 92 59 93
REMARK H PARENT 83 46 51 57
REMARK Flexibility Score: inf
ROOT
ATOM      1  C   UNL A   1      33.069  35.153  29.578  1.00  0.00     0.188 C 
ENDROOT
BRANCH   1   2
ATOM      2  O   UNL A   1      32.605  34.593  28.360  1.00  0.00    -0.377 OA
BRANCH   2   3
ATOM      3  C   UNL A   1      33.220  33.428  27.825  1.00  0.00     0.188 C 
BRANCH   3   4
ATOM      4  C   UNL A   1      34.501  32.818  28.438  1.00  0.00     0.188 C 
BRANCH   4   5
ATOM      5  O   UNL A   1      34.524  31.400  28.477  1.00  0.00    -0.376 OA
BRANCH   5   6
ATOM      6  C   UNL A   1      34.018  30.729  27.335  1.00  0.00     0.202 C 
BRANCH   6   7
ATOM      7  C   UNL A   1      34.407  29.248  27.287  1.00  0.00     0.261 C 
BRANCH   7   8
ATOM      8  O   UNL A   1      33.291  28.360  27.112  1.00  0.00    -0.459 OA
BRANCH   8   9
ATOM      9  C   UNL A   1      33.415  27.417  26.169  1.00  0.00     0.355 C 
ATOM     10  O   UNL A   1      34.018  26.355  26.238  1.00  0.00    -0.245 OA
BRANCH   9  11
ATOM     11  C   UNL A   1      32.522  27.730  25.011  1.00  0.00     0.154 C 
ATOM     12  C   UNL A   1      30.915  28.622  23.763  1.00  0.00     0.111 C 
ATOM     13  N   UNL A   1      31.400  27.597  23.129  1.00  0.00    -0.151 NA
ATOM     14  C   UNL A   1      31.626  28.913  25.042  1.00  0.00     0.128 C 
ATOM     15  N   UNL A   1      32.444  27.026  23.924  1.00  0.00    -0.147 NA
BRANCH  12  16
ATOM     16  C   UNL A   1      29.727  29.397  23.384  1.00  0.00     0.139 C 
ATOM     17  C   UNL A   1      27.916  32.290  22.832  1.00  0.00     0.053 C 
ATOM     18  C   UNL A   1      28.135  30.948  23.515  1.00  0.00     0.174 C 
ATOM     19  C   UNL A   1      27.592  29.782  22.678  1.00  0.00     0.076 C 
ATOM     20  O   UNL A   1      29.546  30.721  23.761  1.00  0.00    -0.489 OA
ATOM     21  C   UNL A   1      28.694  28.807  22.793  1.00  0.00     0.025 C 
ENDBRANCH  12  16
ENDBRANCH   9  11
ENDBRANCH   8   9
ENDBRANCH   7   8
ENDBRANCH   6   7
ENDBRANCH   5   6
ENDBRANCH   4   5
ENDBRANCH   3   4
ENDBRANCH   2   3
ENDBRANCH   1   2
BRANCH   1  22
ATOM     22  C   UNL A   1      33.217  36.685  29.709  1.00  0.00     0.188 C 
BRANCH  22  23
ATOM     23  O   UNL A   1      32.737  37.240  30.930  1.00  0.00    -0.376 OA
BRANCH  23  24
ATOM     24  C   UNL A   1      33.680  37.859  31.789  1.00  0.00     0.202 C 
BRANCH  24  25
ATOM     25  C   UNL A   1      33.906  37.078  33.080  1.00  0.00     0.261 C 
BRANCH  25  26
ATOM     26  O   UNL A   1      34.557  35.835  32.863  1.00  0.00    -0.460 OA
BRANCH  26  27
ATOM     27  C   UNL A   1      33.779  34.748  32.957  1.00  0.00     0.338 C 
ATOM     28  O   UNL A   1      32.557  34.691  32.841  1.00  0.00    -0.246 OA
BRANCH  27  29
ATOM     29  C   UNL A   1      34.601  33.607  33.347  1.00  0.00     0.060 A 
ATOM     30  C   UNL A   1      35.620  33.872  34.262  1.00  0.00     0.016 A 
ATOM     31  C   UNL A   1      34.592  32.468  32.531  1.00  0.00     0.016 A 
ATOM     32  C   UNL A   1      36.784  33.154  34.147  1.00  0.00     0.010 A 
ATOM     33  C   UNL A   1      35.764  31.776  32.390  1.00  0.00     0.010 A 
ATOM     34  C   UNL A   1      36.868  32.202  33.127  1.00  0.00    -0.014 A 
BRANCH  34  35
ATOM     35  C   UNL A   1      38.179  31.699  32.791  1.00  0.00     0.031 A 
ATOM     36  C   UNL A   1      39.097  31.604  33.933  1.00  0.00     0.074 A 
ATOM     37  C   UNL A   1      38.457  31.265  31.546  1.00  0.00     0.049 A 
ATOM     38  N   UNL A   1      40.226  32.208  34.086  1.00  0.00    -0.248 NA
ATOM     39  C   UNL A   1      38.660  30.818  35.097  1.00  0.00     0.031 C 
ATOM     40  C   UNL A   1      37.488  31.040  30.466  1.00  0.00     0.029 A 
ATOM     41  N   UNL A   1      39.633  30.826  31.012  1.00  0.00    -0.354 N 
ATOM     42  C   UNL A   1      40.739  31.711  35.276  1.00  0.00     0.074 A 
ATOM     43  C   UNL A   1      39.672  31.014  35.940  1.00  0.00     0.031 C 
ATOM     44  C   UNL A   1      38.077  30.320  29.488  1.00  0.00     0.029 A 
ATOM     45  C   UNL A   1      39.482  30.144  29.815  1.00  0.00     0.049 A 
ATOM     46  H   UNL A   1      40.507  30.979  31.438  1.00  0.00     0.167 HD
ATOM     47  C   UNL A   1      42.081  31.637  35.460  1.00  0.00     0.037 A 
ATOM     48  C   UNL A   1      40.427  29.430  29.158  1.00  0.00     0.037 A 
ATOM     49  C   UNL A   1      42.800  32.467  34.532  1.00  0.00     0.049 A 
ATOM     50  C   UNL A   1      41.763  29.859  29.630  1.00  0.00     0.074 A 
ATOM     51  C   UNL A   1      43.169  33.790  34.446  1.00  0.00     0.029 A 
ATOM     52  N   UNL A   1      42.982  31.912  33.296  1.00  0.00    -0.354 N 
ATOM     53  N   UNL A   1      42.284  31.026  29.377  1.00  0.00    -0.248 NA
ATOM     54  C   UNL A   1      42.445  29.082  30.663  1.00  0.00     0.031 C 
ATOM     55  C   UNL A   1      43.513  34.031  33.082  1.00  0.00     0.029 A 
ATOM     56  C   UNL A   1      43.331  32.854  32.366  1.00  0.00     0.049 A 
ATOM     57  H   UNL A   1      42.876  30.952  33.099  1.00  0.00     0.167 HD
ATOM     58  C   UNL A   1      43.073  31.290  30.477  1.00  0.00     0.074 A 
ATOM     59  C   UNL A   1      43.281  30.009  31.133  1.00  0.00     0.031 C 
ATOM     60  C   UNL A   1      43.198  32.557  30.960  1.00  0.00     0.037 A 
BRANCH  47  61
ATOM     61  C   UNL A   1      42.764  30.475  36.139  1.00  0.00     0.064 A 
ATOM     62  C   UNL A   1      43.561  30.729  37.269  1.00  0.00     0.173 A 
ATOM     63  C   UNL A   1      42.929  29.203  35.546  1.00  0.00     0.173 A 
ATOM     64  F   UNL A   1      43.501  31.916  37.894  1.00  0.00    -0.203 F 
ATOM     65  C   UNL A   1      44.498  29.803  37.732  1.00  0.00     0.198 A 
ATOM     66  C   UNL A   1      43.821  28.258  36.048  1.00  0.00     0.198 A 
ATOM     67  F   UNL A   1      42.327  28.865  34.399  1.00  0.00    -0.203 F 
ATOM     68  F   UNL A   1      45.320  30.134  38.737  1.00  0.00    -0.200 F 
ATOM     69  C   UNL A   1      44.628  28.570  37.120  1.00  0.00     0.200 A 
ATOM     70  F   UNL A   1      43.946  27.076  35.427  1.00  0.00    -0.200 F 
ATOM     71  F   UNL A   1      45.562  27.701  37.528  1.00  0.00    -0.200 F 
ENDBRANCH  47  61
BRANCH  48  72
ATOM     72  C   UNL A   1      40.241  28.273  28.256  1.00  0.00     0.064 A 
ATOM     73  C   UNL A   1      40.896  28.207  27.017  1.00  0.00     0.173 A 
ATOM     74  C   UNL A   1      39.605  27.096  28.697  1.00  0.00     0.173 A 
ATOM     75  F   UNL A   1      41.562  29.271  26.547  1.00  0.00    -0.203 F 
ATOM     76  C   UNL A   1      40.930  27.025  26.272  1.00  0.00     0.198 A 
ATOM     77  C   UNL A   1      39.627  25.923  27.945  1.00  0.00     0.198 A 
ATOM     78  F   UNL A   1      39.027  27.037  29.905  1.00  0.00    -0.203 F 
ATOM     79  F   UNL A   1      41.618  26.982  25.122  1.00  0.00    -0.200 F 
ATOM     80  C   UNL A   1      40.301  25.883  26.739  1.00  0.00     0.200 A 
ATOM     81  F   UNL A   1      39.040  24.816  28.422  1.00  0.00    -0.200 F 
ATOM     82  F   UNL A   1      40.378  24.736  26.049  1.00  0.00    -0.200 F 
ENDBRANCH  48  72
BRANCH  60  83
ATOM     83  C   UNL A   1      42.978  33.674  29.995  1.00  0.00     0.064 A 
ATOM     84  C   UNL A   1      43.981  34.203  29.170  1.00  0.00     0.173 A 
ATOM     85  C   UNL A   1      41.689  34.212  29.887  1.00  0.00     0.173 A 
ATOM     86  F   UNL A   1      45.216  33.683  29.172  1.00  0.00    -0.203 F 
ATOM     87  C   UNL A   1      43.713  35.266  28.311  1.00  0.00     0.198 A 
ATOM     88  C   UNL A   1      41.416  35.251  29.004  1.00  0.00     0.198 A 
ATOM     89  F   UNL A   1      40.686  33.713  30.626  1.00  0.00    -0.203 F 
ATOM     90  F   UNL A   1      44.692  35.782  27.552  1.00  0.00    -0.200 F 
ATOM     91  C   UNL A   1      42.431  35.788  28.227  1.00  0.00     0.200 A 
ATOM     92  F   UNL A   1      40.168  35.726  28.899  1.00  0.00    -0.200 F 
ATOM     93  F   UNL A   1      42.168  36.798  27.386  1.00  0.00    -0.200 F 
ENDBRANCH  60  83
ENDBRANCH  34  35
ENDBRANCH  27  29
ENDBRANCH  26  27
ENDBRANCH  25  26
ENDBRANCH  24  25
ENDBRANCH  23  24
ENDBRANCH  22  23
ENDBRANCH   1  22
TORSDOF 21
ENDMDL
