MODEL 1
REMARK VINA RESULT:     -10.4      0.000      0.000
REMARK SMILES CC(=O)N[C@@H](CCc1nc2ccccc2[nH]1)C(=O)OCCOCCOCCOCCOC(=O)c1ccc(-c2c3nc(c(-c4c(F)c(F)c(F)c(F)c4F)c4ccc([nH]4)c(-c4c(F)c(F)c(F)c(F)c4F)c4nc(c(-c5c(F)c(F)c(F)c(F)c5F)c5ccc2[nH]5)C=C4)C=C3)cc1
REMARK SMILES IDX 24 1 23 2 22 3 21 4 20 5 19 6 17 7 18 8 5 9 4 10 1 11 2 12
REMARK SMILES IDX 3 13 6 15 7 16 8 17 9 18 16 19 10 20 15 21 11 23 14 24 12 25
REMARK SMILES IDX 13 26 25 27 26 28 27 29 28 30 29 31 30 32 31 33 32 34 33 35
REMARK SMILES IDX 34 36 35 37 96 38 36 39 95 40 37 41 38 42 39 43 89 44 40 45
REMARK SMILES IDX 94 46 88 47 90 48 41 49 93 50 87 51 86 52 42 54 74 55 54 56
REMARK SMILES IDX 73 57 55 58 58 59 72 60 91 61 56 62 57 63 71 65 92 66 59 67
REMARK SMILES IDX 43 68 44 69 52 70 45 71 46 72 50 73 53 74 47 75 48 76 51 77
REMARK SMILES IDX 49 78 75 79 76 80 84 81 77 82 78 83 82 84 85 85 79 86 80 87
REMARK SMILES IDX 83 88 81 89 60 90 61 91 69 92 62 93 63 94 67 95 70 96 64 97
REMARK SMILES IDX 65 98 68 99 66 100
REMARK H PARENT 4 14 16 22 90 53 58 64
REMARK Flexibility Score: inf
ROOT
ATOM      1  C   UNL A   1      34.714  31.390  27.762  1.00  0.00     0.188 C 
ENDROOT
BRANCH   1   2
ATOM      2  C   UNL A   1      33.655  30.473  27.112  1.00  0.00     0.188 C 
BRANCH   2   3
ATOM      3  O   UNL A   1      33.603  29.091  27.437  1.00  0.00    -0.376 OA
BRANCH   3   4
ATOM      4  C   UNL A   1      33.827  28.133  26.422  1.00  0.00     0.202 C 
BRANCH   4   5
ATOM      5  C   UNL A   1      32.852  26.980  26.200  1.00  0.00     0.261 C 
BRANCH   5   6
ATOM      6  O   UNL A   1      31.459  27.283  26.045  1.00  0.00    -0.462 OA
BRANCH   6   7
ATOM      7  C   UNL A   1      30.827  26.758  24.977  1.00  0.00     0.328 C 
ATOM      8  O   UNL A   1      30.153  27.404  24.177  1.00  0.00    -0.250 OA
BRANCH   7   9
ATOM      9  C   UNL A   1      30.853  25.223  24.961  1.00  0.00     0.192 C 
BRANCH   9  10
ATOM     10  N   UNL A   1      30.087  24.465  25.959  1.00  0.00    -0.343 N 
ATOM     11  C   UNL A   1      32.010  23.325  27.036  1.00  0.00     0.114 C 
ATOM     12  C   UNL A   1      30.529  23.553  26.878  1.00  0.00     0.217 C 
ATOM     13  O   UNL A   1      29.718  22.974  27.600  1.00  0.00    -0.275 OA
ATOM     14  H   UNL A   1      29.118  24.638  25.969  1.00  0.00     0.164 HD
ENDBRANCH   9  10
BRANCH   9  15
ATOM     15  C   UNL A   1      30.495  24.774  23.526  1.00  0.00     0.045 C 
BRANCH  15  16
ATOM     16  C   UNL A   1      30.821  23.328  23.123  1.00  0.00     0.078 C 
BRANCH  16  17
ATOM     17  C   UNL A   1      32.215  22.808  23.316  1.00  0.00     0.107 A 
ATOM     18  N   UNL A   1      33.295  23.428  22.879  1.00  0.00    -0.233 NA
ATOM     19  N   UNL A   1      32.567  21.634  23.952  1.00  0.00    -0.342 N 
ATOM     20  C   UNL A   1      34.363  22.761  23.421  1.00  0.00     0.089 A 
ATOM     21  C   UNL A   1      33.937  21.640  24.121  1.00  0.00     0.065 A 
ATOM     22  H   UNL A   1      31.952  20.921  24.236  1.00  0.00     0.168 HD
ATOM     23  C   UNL A   1      35.721  23.115  23.439  1.00  0.00     0.030 A 
ATOM     24  C   UNL A   1      34.802  20.858  24.900  1.00  0.00     0.028 A 
ATOM     25  C   UNL A   1      36.594  22.382  24.253  1.00  0.00     0.002 A 
ATOM     26  C   UNL A   1      36.135  21.284  24.984  1.00  0.00     0.002 A 
ENDBRANCH  16  17
ENDBRANCH  15  16
ENDBRANCH   9  15
ENDBRANCH   7   9
ENDBRANCH   6   7
ENDBRANCH   5   6
ENDBRANCH   4   5
ENDBRANCH   3   4
ENDBRANCH   2   3
ENDBRANCH   1   2
BRANCH   1  27
ATOM     27  O   UNL A   1      34.319  32.005  28.974  1.00  0.00    -0.377 OA
BRANCH  27  28
ATOM     28  C   UNL A   1      34.599  33.388  29.121  1.00  0.00     0.188 C 
BRANCH  28  29
ATOM     29  C   UNL A   1      33.748  34.379  28.302  1.00  0.00     0.188 C 
BRANCH  29  30
ATOM     30  O   UNL A   1      34.260  35.702  28.293  1.00  0.00    -0.376 OA
BRANCH  30  31
ATOM     31  C   UNL A   1      33.471  36.752  28.829  1.00  0.00     0.202 C 
BRANCH  31  32
ATOM     32  C   UNL A   1      32.527  36.445  30.004  1.00  0.00     0.261 C 
BRANCH  32  33
ATOM     33  O   UNL A   1      32.765  37.138  31.238  1.00  0.00    -0.460 OA
BRANCH  33  34
ATOM     34  C   UNL A   1      32.633  36.464  32.397  1.00  0.00     0.338 C 
ATOM     35  O   UNL A   1      31.727  36.556  33.209  1.00  0.00    -0.246 OA
BRANCH  34  36
ATOM     36  C   UNL A   1      33.699  35.440  32.435  1.00  0.00     0.060 A 
ATOM     37  C   UNL A   1      33.401  34.140  32.872  1.00  0.00     0.016 A 
ATOM     38  C   UNL A   1      34.996  35.771  32.040  1.00  0.00     0.016 A 
ATOM     39  C   UNL A   1      34.412  33.182  32.965  1.00  0.00     0.010 A 
ATOM     40  C   UNL A   1      36.011  34.822  32.158  1.00  0.00     0.010 A 
ATOM     41  C   UNL A   1      35.731  33.539  32.665  1.00  0.00    -0.014 A 
BRANCH  41  42
ATOM     42  C   UNL A   1      36.865  32.701  33.127  1.00  0.00     0.031 A 
ATOM     43  C   UNL A   1      37.469  33.034  34.463  1.00  0.00     0.074 A 
ATOM     44  C   UNL A   1      37.376  31.711  32.376  1.00  0.00     0.049 A 
ATOM     45  N   UNL A   1      38.571  32.599  35.015  1.00  0.00    -0.248 NA
ATOM     46  C   UNL A   1      36.731  34.012  35.281  1.00  0.00     0.031 C 
ATOM     47  C   UNL A   1      36.844  31.257  31.096  1.00  0.00     0.029 A 
ATOM     48  N   UNL A   1      38.487  30.930  32.581  1.00  0.00    -0.354 N 
ATOM     49  C   UNL A   1      38.669  33.267  36.229  1.00  0.00     0.074 A 
ATOM     50  C   UNL A   1      37.531  34.152  36.324  1.00  0.00     0.031 C 
ATOM     51  C   UNL A   1      37.649  30.293  30.610  1.00  0.00     0.029 A 
ATOM     52  C   UNL A   1      38.775  30.103  31.525  1.00  0.00     0.049 A 
ATOM     53  H   UNL A   1      39.024  30.961  33.406  1.00  0.00     0.167 HD
ATOM     54  C   UNL A   1      39.627  33.154  37.179  1.00  0.00     0.037 A 
ATOM     55  C   UNL A   1      39.850  29.318  31.309  1.00  0.00     0.037 A 
ATOM     56  C   UNL A   1      40.760  32.275  37.072  1.00  0.00     0.049 A 
ATOM     57  C   UNL A   1      40.950  29.268  32.342  1.00  0.00     0.074 A 
ATOM     58  C   UNL A   1      41.785  32.074  37.979  1.00  0.00     0.029 A 
ATOM     59  N   UNL A   1      41.021  31.456  35.983  1.00  0.00    -0.354 N 
ATOM     60  N   UNL A   1      41.040  29.893  33.492  1.00  0.00    -0.248 NA
ATOM     61  C   UNL A   1      42.101  28.402  32.047  1.00  0.00     0.031 C 
ATOM     62  C   UNL A   1      42.698  31.182  37.413  1.00  0.00     0.029 A 
ATOM     63  C   UNL A   1      42.204  30.766  36.186  1.00  0.00     0.049 A 
ATOM     64  H   UNL A   1      40.450  31.378  35.185  1.00  0.00     0.167 HD
ATOM     65  C   UNL A   1      42.228  29.464  34.073  1.00  0.00     0.074 A 
ATOM     66  C   UNL A   1      42.826  28.525  33.150  1.00  0.00     0.031 C 
ATOM     67  C   UNL A   1      42.770  29.811  35.267  1.00  0.00     0.037 A 
BRANCH  54  68
ATOM     68  C   UNL A   1      39.509  34.029  38.393  1.00  0.00     0.064 A 
ATOM     69  C   UNL A   1      38.873  33.593  39.565  1.00  0.00     0.173 A 
ATOM     70  C   UNL A   1      40.060  35.320  38.389  1.00  0.00     0.173 A 
ATOM     71  F   UNL A   1      38.314  32.375  39.615  1.00  0.00    -0.203 F 
ATOM     72  C   UNL A   1      38.766  34.426  40.675  1.00  0.00     0.198 A 
ATOM     73  C   UNL A   1      39.983  36.137  39.514  1.00  0.00     0.198 A 
ATOM     74  F   UNL A   1      40.680  35.789  37.294  1.00  0.00    -0.203 F 
ATOM     75  F   UNL A   1      38.105  34.008  41.764  1.00  0.00    -0.200 F 
ATOM     76  C   UNL A   1      39.329  35.693  40.652  1.00  0.00     0.200 A 
ATOM     77  F   UNL A   1      40.541  37.355  39.492  1.00  0.00    -0.200 F 
ATOM     78  F   UNL A   1      39.234  36.490  41.724  1.00  0.00    -0.200 F 
ENDBRANCH  54  68
BRANCH  55  79
ATOM     79  C   UNL A   1      39.956  28.527  30.053  1.00  0.00     0.064 A 
ATOM     80  C   UNL A   1      40.613  29.044  28.927  1.00  0.00     0.173 A 
ATOM     81  C   UNL A   1      39.377  27.253  29.939  1.00  0.00     0.173 A 
ATOM     82  F   UNL A   1      41.157  30.270  28.975  1.00  0.00    -0.203 F 
ATOM     83  C   UNL A   1      40.669  28.329  27.732  1.00  0.00     0.198 A 
ATOM     84  C   UNL A   1      39.461  26.526  28.753  1.00  0.00     0.198 A 
ATOM     85  F   UNL A   1      38.729  26.714  30.981  1.00  0.00    -0.203 F 
ATOM     86  F   UNL A   1      41.253  28.874  26.656  1.00  0.00    -0.200 F 
ATOM     87  C   UNL A   1      40.098  27.069  27.648  1.00  0.00     0.200 A 
ATOM     88  F   UNL A   1      38.916  25.304  28.678  1.00  0.00    -0.200 F 
ATOM     89  F   UNL A   1      40.150  26.384  26.497  1.00  0.00    -0.200 F 
ENDBRANCH  55  79
BRANCH  67  90
ATOM     90  C   UNL A   1      44.036  29.119  35.690  1.00  0.00     0.064 A 
ATOM     91  C   UNL A   1      45.305  29.646  35.412  1.00  0.00     0.173 A 
ATOM     92  C   UNL A   1      43.969  27.941  36.452  1.00  0.00     0.173 A 
ATOM     93  F   UNL A   1      45.427  30.763  34.679  1.00  0.00    -0.203 F 
ATOM     94  C   UNL A   1      46.459  29.007  35.861  1.00  0.00     0.198 A 
ATOM     95  C   UNL A   1      45.122  27.326  36.930  1.00  0.00     0.198 A 
ATOM     96  F   UNL A   1      42.780  27.400  36.757  1.00  0.00    -0.203 F 
ATOM     97  F   UNL A   1      47.663  29.505  35.546  1.00  0.00    -0.200 F 
ATOM     98  C   UNL A   1      46.366  27.855  36.627  1.00  0.00     0.200 A 
ATOM     99  F   UNL A   1      45.028  26.224  37.687  1.00  0.00    -0.200 F 
ATOM    100  F   UNL A   1      47.477  27.253  37.073  1.00  0.00    -0.200 F 
ENDBRANCH  67  90
ENDBRANCH  41  42
ENDBRANCH  34  36
ENDBRANCH  33  34
ENDBRANCH  32  33
ENDBRANCH  31  32
ENDBRANCH  30  31
ENDBRANCH  29  30
ENDBRANCH  28  29
ENDBRANCH  27  28
ENDBRANCH   1  27
TORSDOF 24
ENDMDL
MODEL 2
REMARK VINA RESULT:     -10.1      1.140      2.105
REMARK SMILES CC(=O)N[C@@H](CCc1nc2ccccc2[nH]1)C(=O)OCCOCCOCCOCCOC(=O)c1ccc(-c2c3nc(c(-c4c(F)c(F)c(F)c(F)c4F)c4ccc([nH]4)c(-c4c(F)c(F)c(F)c(F)c4F)c4nc(c(-c5c(F)c(F)c(F)c(F)c5F)c5ccc2[nH]5)C=C4)C=C3)cc1
REMARK SMILES IDX 24 1 23 2 22 3 21 4 20 5 19 6 17 7 18 8 5 9 4 10 1 11 2 12
REMARK SMILES IDX 3 13 6 15 7 16 8 17 9 18 16 19 10 20 15 21 11 23 14 24 12 25
REMARK SMILES IDX 13 26 25 27 26 28 27 29 28 30 29 31 30 32 31 33 32 34 33 35
REMARK SMILES IDX 34 36 35 37 96 38 36 39 95 40 37 41 38 42 39 43 89 44 40 45
REMARK SMILES IDX 94 46 88 47 90 48 41 49 93 50 87 51 86 52 42 54 74 55 54 56
REMARK SMILES IDX 73 57 55 58 58 59 72 60 91 61 56 62 57 63 71 65 92 66 59 67
REMARK SMILES IDX 43 68 44 69 52 70 45 71 46 72 50 73 53 74 47 75 48 76 51 77
REMARK SMILES IDX 49 78 75 79 76 80 84 81 77 82 78 83 82 84 85 85 79 86 80 87
REMARK SMILES IDX 83 88 81 89 60 90 61 91 69 92 62 93 63 94 67 95 70 96 64 97
REMARK SMILES IDX 65 98 68 99 66 100
REMARK H PARENT 4 14 16 22 90 53 58 64
REMARK Flexibility Score: inf
ROOT
ATOM      1  C   UNL A   1      34.479  31.062  27.776  1.00  0.00     0.188 C 
ENDROOT
BRANCH   1   2
ATOM      2  C   UNL A   1      33.290  30.150  27.404  1.00  0.00     0.188 C 
BRANCH   2   3
ATOM      3  O   UNL A   1      32.523  30.409  26.237  1.00  0.00    -0.376 OA
BRANCH   3   4
ATOM      4  C   UNL A   1      32.615  29.524  25.138  1.00  0.00     0.202 C 
BRANCH   4   5
ATOM      5  C   UNL A   1      33.801  28.575  24.989  1.00  0.00     0.261 C 
BRANCH   5   6
ATOM      6  O   UNL A   1      33.573  27.283  24.411  1.00  0.00    -0.462 OA
BRANCH   6   7
ATOM      7  C   UNL A   1      32.294  26.891  24.255  1.00  0.00     0.328 C 
ATOM      8  O   UNL A   1      31.597  26.411  25.146  1.00  0.00    -0.250 OA
BRANCH   7   9
ATOM      9  C   UNL A   1      31.838  26.905  22.790  1.00  0.00     0.192 C 
BRANCH   9  10
ATOM     10  N   UNL A   1      31.344  28.150  22.186  1.00  0.00    -0.343 N 
ATOM     11  C   UNL A   1      29.049  28.071  23.124  1.00  0.00     0.114 C 
ATOM     12  C   UNL A   1      30.093  28.702  22.242  1.00  0.00     0.217 C 
ATOM     13  O   UNL A   1      29.856  29.735  21.617  1.00  0.00    -0.275 OA
ATOM     14  H   UNL A   1      32.008  28.660  21.668  1.00  0.00     0.164 HD
ENDBRANCH   9  10
BRANCH   9  15
ATOM     15  C   UNL A   1      32.980  26.293  21.948  1.00  0.00     0.045 C 
BRANCH  15  16
ATOM     16  C   UNL A   1      32.884  24.805  21.579  1.00  0.00     0.078 C 
BRANCH  16  17
ATOM     17  C   UNL A   1      33.232  23.770  22.607  1.00  0.00     0.107 A 
ATOM     18  N   UNL A   1      32.417  22.798  22.974  1.00  0.00    -0.233 NA
ATOM     19  N   UNL A   1      34.418  23.683  23.309  1.00  0.00    -0.342 N 
ATOM     20  C   UNL A   1      33.159  21.955  23.760  1.00  0.00     0.089 A 
ATOM     21  C   UNL A   1      34.430  22.472  23.972  1.00  0.00     0.065 A 
ATOM     22  H   UNL A   1      35.129  24.363  23.333  1.00  0.00     0.168 HD
ATOM     23  C   UNL A   1      32.841  20.677  24.246  1.00  0.00     0.030 A 
ATOM     24  C   UNL A   1      35.446  21.750  24.614  1.00  0.00     0.028 A 
ATOM     25  C   UNL A   1      33.853  19.916  24.843  1.00  0.00     0.002 A 
ATOM     26  C   UNL A   1      35.138  20.440  25.006  1.00  0.00     0.002 A 
ENDBRANCH  16  17
ENDBRANCH  15  16
ENDBRANCH   9  15
ENDBRANCH   7   9
ENDBRANCH   6   7
ENDBRANCH   5   6
ENDBRANCH   4   5
ENDBRANCH   3   4
ENDBRANCH   2   3
ENDBRANCH   1   2
BRANCH   1  27
ATOM     27  O   UNL A   1      34.254  31.933  28.869  1.00  0.00    -0.377 OA
BRANCH  27  28
ATOM     28  C   UNL A   1      34.657  33.284  28.715  1.00  0.00     0.188 C 
BRANCH  28  29
ATOM     29  C   UNL A   1      33.616  34.282  28.170  1.00  0.00     0.188 C 
BRANCH  29  30
ATOM     30  O   UNL A   1      34.112  35.602  28.020  1.00  0.00    -0.376 OA
BRANCH  30  31
ATOM     31  C   UNL A   1      33.627  36.624  28.874  1.00  0.00     0.202 C 
BRANCH  31  32
ATOM     32  C   UNL A   1      32.548  36.274  29.912  1.00  0.00     0.261 C 
BRANCH  32  33
ATOM     33  O   UNL A   1      32.556  37.007  31.146  1.00  0.00    -0.460 OA
BRANCH  33  34
ATOM     34  C   UNL A   1      32.411  36.334  32.303  1.00  0.00     0.338 C 
ATOM     35  O   UNL A   1      31.495  36.423  33.103  1.00  0.00    -0.246 OA
BRANCH  34  36
ATOM     36  C   UNL A   1      33.480  35.312  32.356  1.00  0.00     0.060 A 
ATOM     37  C   UNL A   1      33.199  34.036  32.868  1.00  0.00     0.016 A 
ATOM     38  C   UNL A   1      34.762  35.622  31.900  1.00  0.00     0.016 A 
ATOM     39  C   UNL A   1      34.214  33.084  32.974  1.00  0.00     0.010 A 
ATOM     40  C   UNL A   1      35.782  34.681  32.031  1.00  0.00     0.010 A 
ATOM     41  C   UNL A   1      35.522  33.425  32.611  1.00  0.00    -0.014 A 
BRANCH  41  42
ATOM     42  C   UNL A   1      36.672  32.612  33.075  1.00  0.00     0.031 A 
ATOM     43  C   UNL A   1      37.277  32.967  34.405  1.00  0.00     0.074 A 
ATOM     44  C   UNL A   1      37.196  31.623  32.331  1.00  0.00     0.049 A 
ATOM     45  N   UNL A   1      38.389  32.557  34.956  1.00  0.00    -0.248 NA
ATOM     46  C   UNL A   1      36.525  33.940  35.217  1.00  0.00     0.031 C 
ATOM     47  C   UNL A   1      36.667  31.148  31.058  1.00  0.00     0.029 A 
ATOM     48  N   UNL A   1      38.322  30.864  32.538  1.00  0.00    -0.354 N 
ATOM     49  C   UNL A   1      38.481  33.237  36.163  1.00  0.00     0.074 A 
ATOM     50  C   UNL A   1      37.328  34.104  36.256  1.00  0.00     0.031 C 
ATOM     51  C   UNL A   1      37.486  30.194  30.577  1.00  0.00     0.029 A 
ATOM     52  C   UNL A   1      38.619  30.031  31.488  1.00  0.00     0.049 A 
ATOM     53  H   UNL A   1      38.862  30.911  33.360  1.00  0.00     0.167 HD
ATOM     54  C   UNL A   1      39.445  33.150  37.110  1.00  0.00     0.037 A 
ATOM     55  C   UNL A   1      39.706  29.263  31.274  1.00  0.00     0.037 A 
ATOM     56  C   UNL A   1      40.593  32.290  37.005  1.00  0.00     0.049 A 
ATOM     57  C   UNL A   1      40.812  29.242  32.303  1.00  0.00     0.074 A 
ATOM     58  C   UNL A   1      41.625  32.115  37.909  1.00  0.00     0.029 A 
ATOM     59  N   UNL A   1      40.863  31.465  35.922  1.00  0.00    -0.354 N 
ATOM     60  N   UNL A   1      40.897  29.879  33.446  1.00  0.00    -0.248 NA
ATOM     61  C   UNL A   1      41.977  28.394  32.009  1.00  0.00     0.031 C 
ATOM     62  C   UNL A   1      42.551  31.233  37.346  1.00  0.00     0.029 A 
ATOM     63  C   UNL A   1      42.058  30.798  36.126  1.00  0.00     0.049 A 
ATOM     64  H   UNL A   1      40.289  31.369  35.128  1.00  0.00     0.167 HD
ATOM     65  C   UNL A   1      42.095  29.477  34.025  1.00  0.00     0.074 A 
ATOM     66  C   UNL A   1      42.705  28.539  33.108  1.00  0.00     0.031 C 
ATOM     67  C   UNL A   1      42.637  29.844  35.213  1.00  0.00     0.037 A 
BRANCH  54  68
ATOM     68  C   UNL A   1      39.318  34.034  38.315  1.00  0.00     0.064 A 
ATOM     69  C   UNL A   1      39.814  35.346  38.331  1.00  0.00     0.173 A 
ATOM     70  C   UNL A   1      38.669  33.567  39.469  1.00  0.00     0.173 A 
ATOM     71  F   UNL A   1      40.459  35.836  37.260  1.00  0.00    -0.203 F 
ATOM     72  C   UNL A   1      39.694  36.145  39.464  1.00  0.00     0.198 A 
ATOM     73  C   UNL A   1      38.519  34.382  40.588  1.00  0.00     0.198 A 
ATOM     74  F   UNL A   1      38.174  32.320  39.510  1.00  0.00    -0.203 F 
ATOM     75  F   UNL A   1      40.226  37.376  39.474  1.00  0.00    -0.200 F 
ATOM     76  C   UNL A   1      39.039  35.666  40.588  1.00  0.00     0.200 A 
ATOM     77  F   UNL A   1      37.872  33.920  41.667  1.00  0.00    -0.200 F 
ATOM     78  F   UNL A   1      38.915  36.440  41.675  1.00  0.00    -0.200 F 
ENDBRANCH  54  68
BRANCH  55  79
ATOM     79  C   UNL A   1      39.821  28.462  30.025  1.00  0.00     0.064 A 
ATOM     80  C   UNL A   1      40.433  28.993  28.881  1.00  0.00     0.173 A 
ATOM     81  C   UNL A   1      39.293  27.165  29.937  1.00  0.00     0.173 A 
ATOM     82  F   UNL A   1      40.925  30.241  28.904  1.00  0.00    -0.203 F 
ATOM     83  C   UNL A   1      40.494  28.267  27.692  1.00  0.00     0.198 A 
ATOM     84  C   UNL A   1      39.384  26.427  28.758  1.00  0.00     0.198 A 
ATOM     85  F   UNL A   1      38.689  26.612  30.998  1.00  0.00    -0.203 F 
ATOM     86  F   UNL A   1      41.033  28.823  26.599  1.00  0.00    -0.200 F 
ATOM     87  C   UNL A   1      39.975  26.983  27.634  1.00  0.00     0.200 A 
ATOM     88  F   UNL A   1      38.888  25.183  28.707  1.00  0.00    -0.200 F 
ATOM     89  F   UNL A   1      40.033  26.287  26.490  1.00  0.00    -0.200 F 
ENDBRANCH  55  79
BRANCH  67  90
ATOM     90  C   UNL A   1      43.916  29.178  35.636  1.00  0.00     0.064 A 
ATOM     91  C   UNL A   1      45.175  29.731  35.359  1.00  0.00     0.173 A 
ATOM     92  C   UNL A   1      43.873  27.998  36.398  1.00  0.00     0.173 A 
ATOM     93  F   UNL A   1      45.274  30.850  34.626  1.00  0.00    -0.203 F 
ATOM     94  C   UNL A   1      46.341  29.116  35.807  1.00  0.00     0.198 A 
ATOM     95  C   UNL A   1      45.038  27.407  36.876  1.00  0.00     0.198 A 
ATOM     96  F   UNL A   1      42.695  27.433  36.703  1.00  0.00    -0.203 F 
ATOM     97  F   UNL A   1      47.534  29.638  35.494  1.00  0.00    -0.200 F 
ATOM     98  C   UNL A   1      46.271  27.962  36.574  1.00  0.00     0.200 A 
ATOM     99  F   UNL A   1      44.967  26.303  37.633  1.00  0.00    -0.200 F 
ATOM    100  F   UNL A   1      47.395  27.383  37.020  1.00  0.00    -0.200 F 
ENDBRANCH  67  90
ENDBRANCH  41  42
ENDBRANCH  34  36
ENDBRANCH  33  34
ENDBRANCH  32  33
ENDBRANCH  31  32
ENDBRANCH  30  31
ENDBRANCH  29  30
ENDBRANCH  28  29
ENDBRANCH  27  28
ENDBRANCH   1  27
TORSDOF 24
ENDMDL
MODEL 3
REMARK VINA RESULT:      -9.7      5.196     10.174
REMARK SMILES CC(=O)N[C@@H](CCc1nc2ccccc2[nH]1)C(=O)OCCOCCOCCOCCOC(=O)c1ccc(-c2c3nc(c(-c4c(F)c(F)c(F)c(F)c4F)c4ccc([nH]4)c(-c4c(F)c(F)c(F)c(F)c4F)c4nc(c(-c5c(F)c(F)c(F)c(F)c5F)c5ccc2[nH]5)C=C4)C=C3)cc1
REMARK SMILES IDX 24 1 23 2 22 3 21 4 20 5 19 6 17 7 18 8 5 9 4 10 1 11 2 12
REMARK SMILES IDX 3 13 6 15 7 16 8 17 9 18 16 19 10 20 15 21 11 23 14 24 12 25
REMARK SMILES IDX 13 26 25 27 26 28 27 29 28 30 29 31 30 32 31 33 32 34 33 35
REMARK SMILES IDX 34 36 35 37 96 38 36 39 95 40 37 41 38 42 39 43 89 44 40 45
REMARK SMILES IDX 94 46 88 47 90 48 41 49 93 50 87 51 86 52 42 54 74 55 54 56
REMARK SMILES IDX 73 57 55 58 58 59 72 60 91 61 56 62 57 63 71 65 92 66 59 67
REMARK SMILES IDX 43 68 44 69 52 70 45 71 46 72 50 73 53 74 47 75 48 76 51 77
REMARK SMILES IDX 49 78 75 79 76 80 84 81 77 82 78 83 82 84 85 85 79 86 80 87
REMARK SMILES IDX 83 88 81 89 60 90 61 91 69 92 62 93 63 94 67 95 70 96 64 97
REMARK SMILES IDX 65 98 68 99 66 100
REMARK H PARENT 4 14 16 22 90 53 58 64
REMARK Flexibility Score: inf
ROOT
ATOM      1  C   UNL A   1      33.975  31.664  28.368  1.00  0.00     0.188 C 
ENDROOT
BRANCH   1   2
ATOM      2  C   UNL A   1      33.954  30.755  27.120  1.00  0.00     0.188 C 
BRANCH   2   3
ATOM      3  O   UNL A   1      33.096  29.624  27.068  1.00  0.00    -0.376 OA
BRANCH   3   4
ATOM      4  C   UNL A   1      33.645  28.351  26.790  1.00  0.00     0.202 C 
BRANCH   4   5
ATOM      5  C   UNL A   1      32.757  27.113  26.704  1.00  0.00     0.261 C 
BRANCH   5   6
ATOM      6  O   UNL A   1      31.413  27.267  26.229  1.00  0.00    -0.462 OA
BRANCH   6   7
ATOM      7  C   UNL A   1      30.727  26.145  25.939  1.00  0.00     0.328 C 
ATOM      8  O   UNL A   1      29.812  25.689  26.622  1.00  0.00    -0.250 OA
BRANCH   7   9
ATOM      9  C   UNL A   1      31.332  25.359  24.768  1.00  0.00     0.192 C 
BRANCH   9  10
ATOM     10  N   UNL A   1      31.226  23.894  24.733  1.00  0.00    -0.343 N 
ATOM     11  C   UNL A   1      33.074  23.404  26.314  1.00  0.00     0.114 C 
ATOM     12  C   UNL A   1      32.008  22.956  25.350  1.00  0.00     0.217 C 
ATOM     13  O   UNL A   1      31.793  21.760  25.152  1.00  0.00    -0.275 OA
ATOM     14  H   UNL A   1      30.488  23.537  24.189  1.00  0.00     0.164 HD
ENDBRANCH   9  10
BRANCH   9  15
ATOM     15  C   UNL A   1      30.789  25.987  23.465  1.00  0.00     0.045 C 
BRANCH  15  16
ATOM     16  C   UNL A   1      31.521  27.213  22.898  1.00  0.00     0.078 C 
BRANCH  16  17
ATOM     17  C   UNL A   1      30.789  28.517  22.780  1.00  0.00     0.107 A 
ATOM     18  N   UNL A   1      30.198  28.928  21.673  1.00  0.00    -0.233 NA
ATOM     19  N   UNL A   1      30.634  29.459  23.777  1.00  0.00    -0.342 N 
ATOM     20  C   UNL A   1      29.476  30.041  22.017  1.00  0.00     0.089 A 
ATOM     21  C   UNL A   1      29.711  30.389  23.341  1.00  0.00     0.065 A 
ATOM     22  H   UNL A   1      31.098  29.467  24.645  1.00  0.00     0.168 HD
ATOM     23  C   UNL A   1      28.518  30.749  21.275  1.00  0.00     0.030 A 
ATOM     24  C   UNL A   1      28.993  31.396  24.001  1.00  0.00     0.028 A 
ATOM     25  C   UNL A   1      27.751  31.722  21.926  1.00  0.00     0.002 A 
ATOM     26  C   UNL A   1      27.975  32.026  23.271  1.00  0.00     0.002 A 
ENDBRANCH  16  17
ENDBRANCH  15  16
ENDBRANCH   9  15
ENDBRANCH   7   9
ENDBRANCH   6   7
ENDBRANCH   5   6
ENDBRANCH   4   5
ENDBRANCH   3   4
ENDBRANCH   2   3
ENDBRANCH   1   2
BRANCH   1  27
ATOM     27  O   UNL A   1      33.947  33.054  28.103  1.00  0.00    -0.377 OA
BRANCH  27  28
ATOM     28  C   UNL A   1      35.137  33.786  28.354  1.00  0.00     0.188 C 
BRANCH  28  29
ATOM     29  C   UNL A   1      35.742  33.699  29.769  1.00  0.00     0.188 C 
BRANCH  29  30
ATOM     30  O   UNL A   1      34.945  34.307  30.772  1.00  0.00    -0.376 OA
BRANCH  30  31
ATOM     31  C   UNL A   1      34.435  33.509  31.828  1.00  0.00     0.202 C 
BRANCH  31  32
ATOM     32  C   UNL A   1      35.374  33.117  32.982  1.00  0.00     0.261 C 
BRANCH  32  33
ATOM     33  O   UNL A   1      35.945  31.802  32.949  1.00  0.00    -0.460 OA
BRANCH  33  34
ATOM     34  C   UNL A   1      37.103  31.579  33.601  1.00  0.00     0.338 C 
ATOM     35  O   UNL A   1      37.326  31.736  34.790  1.00  0.00    -0.246 OA
BRANCH  34  36
ATOM     36  C   UNL A   1      38.027  30.927  32.648  1.00  0.00     0.060 A 
ATOM     37  C   UNL A   1      39.212  30.340  33.119  1.00  0.00     0.016 A 
ATOM     38  C   UNL A   1      37.719  30.900  31.287  1.00  0.00     0.016 A 
ATOM     39  C   UNL A   1      40.118  29.771  32.221  1.00  0.00     0.010 A 
ATOM     40  C   UNL A   1      38.635  30.355  30.388  1.00  0.00     0.010 A 
ATOM     41  C   UNL A   1      39.858  29.831  30.847  1.00  0.00    -0.014 A 
BRANCH  41  42
ATOM     42  C   UNL A   1      40.946  29.616  29.862  1.00  0.00     0.031 A 
ATOM     43  C   UNL A   1      41.023  28.267  29.203  1.00  0.00     0.074 A 
ATOM     44  C   UNL A   1      41.864  30.559  29.592  1.00  0.00     0.049 A 
ATOM     45  N   UNL A   1      41.967  27.750  28.461  1.00  0.00    -0.248 NA
ATOM     46  C   UNL A   1      39.876  27.370  29.430  1.00  0.00     0.031 C 
ATOM     47  C   UNL A   1      41.864  31.919  30.120  1.00  0.00     0.029 A 
ATOM     48  N   UNL A   1      42.998  30.493  28.819  1.00  0.00    -0.354 N 
ATOM     49  C   UNL A   1      41.540  26.463  28.157  1.00  0.00     0.074 A 
ATOM     50  C   UNL A   1      40.266  26.269  28.810  1.00  0.00     0.031 C 
ATOM     51  C   UNL A   1      42.966  32.555  29.681  1.00  0.00     0.029 A 
ATOM     52  C   UNL A   1      43.768  31.627  28.883  1.00  0.00     0.049 A 
ATOM     53  H   UNL A   1      43.234  29.709  28.273  1.00  0.00     0.167 HD
ATOM     54  C   UNL A   1      42.159  25.526  27.401  1.00  0.00     0.037 A 
ATOM     55  C   UNL A   1      44.999  31.865  28.387  1.00  0.00     0.037 A 
ATOM     56  C   UNL A   1      43.431  25.727  26.760  1.00  0.00     0.049 A 
ATOM     57  C   UNL A   1      45.711  30.778  27.617  1.00  0.00     0.074 A 
ATOM     58  C   UNL A   1      44.143  24.849  25.964  1.00  0.00     0.029 A 
ATOM     59  N   UNL A   1      44.184  26.888  26.853  1.00  0.00    -0.354 N 
ATOM     60  N   UNL A   1      45.306  29.566  27.323  1.00  0.00    -0.248 NA
ATOM     61  C   UNL A   1      47.055  31.093  27.110  1.00  0.00     0.031 C 
ATOM     62  C   UNL A   1      45.357  25.455  25.627  1.00  0.00     0.029 A 
ATOM     63  C   UNL A   1      45.366  26.740  26.147  1.00  0.00     0.049 A 
ATOM     64  H   UNL A   1      43.918  27.697  27.347  1.00  0.00     0.167 HD
ATOM     65  C   UNL A   1      46.319  28.993  26.564  1.00  0.00     0.074 A 
ATOM     66  C   UNL A   1      47.360  29.990  26.441  1.00  0.00     0.031 C 
ATOM     67  C   UNL A   1      46.379  27.755  26.011  1.00  0.00     0.037 A 
BRANCH  54  68
ATOM     68  C   UNL A   1      41.488  24.191  27.262  1.00  0.00     0.064 A 
ATOM     69  C   UNL A   1      41.978  23.043  27.902  1.00  0.00     0.173 A 
ATOM     70  C   UNL A   1      40.321  24.063  26.492  1.00  0.00     0.173 A 
ATOM     71  F   UNL A   1      43.099  23.106  28.636  1.00  0.00    -0.203 F 
ATOM     72  C   UNL A   1      41.344  21.812  27.751  1.00  0.00     0.198 A 
ATOM     73  C   UNL A   1      39.670  22.839  26.372  1.00  0.00     0.198 A 
ATOM     74  F   UNL A   1      39.808  25.129  25.857  1.00  0.00    -0.203 F 
ATOM     75  F   UNL A   1      41.863  20.718  28.326  1.00  0.00    -0.200 F 
ATOM     76  C   UNL A   1      40.187  21.713  26.994  1.00  0.00     0.200 A 
ATOM     77  F   UNL A   1      38.544  22.749  25.652  1.00  0.00    -0.200 F 
ATOM     78  F   UNL A   1      39.573  20.530  26.857  1.00  0.00    -0.200 F 
ENDBRANCH  54  68
BRANCH  55  79
ATOM     79  C   UNL A   1      45.655  33.181  28.617  1.00  0.00     0.064 A 
ATOM     80  C   UNL A   1      46.441  33.407  29.757  1.00  0.00     0.173 A 
ATOM     81  C   UNL A   1      45.486  34.250  27.724  1.00  0.00     0.173 A 
ATOM     82  F   UNL A   1      46.608  32.426  30.658  1.00  0.00    -0.203 F 
ATOM     83  C   UNL A   1      47.013  34.653  30.005  1.00  0.00     0.198 A 
ATOM     84  C   UNL A   1      46.085  35.487  27.956  1.00  0.00     0.198 A 
ATOM     85  F   UNL A   1      44.737  34.093  26.623  1.00  0.00    -0.203 F 
ATOM     86  F   UNL A   1      47.709  34.855  31.131  1.00  0.00    -0.200 F 
ATOM     87  C   UNL A   1      46.839  35.690  29.101  1.00  0.00     0.200 A 
ATOM     88  F   UNL A   1      45.921  36.484  27.076  1.00  0.00    -0.200 F 
ATOM     89  F   UNL A   1      47.387  36.889  29.341  1.00  0.00    -0.200 F 
ENDBRANCH  55  79
BRANCH  67  90
ATOM     90  C   UNL A   1      47.570  27.426  25.155  1.00  0.00     0.064 A 
ATOM     91  C   UNL A   1      47.605  27.709  23.782  1.00  0.00     0.173 A 
ATOM     92  C   UNL A   1      48.726  26.883  25.742  1.00  0.00     0.173 A 
ATOM     93  F   UNL A   1      46.526  28.218  23.170  1.00  0.00    -0.203 F 
ATOM     94  C   UNL A   1      48.742  27.439  23.025  1.00  0.00     0.198 A 
ATOM     95  C   UNL A   1      49.872  26.648  24.989  1.00  0.00     0.198 A 
ATOM     96  F   UNL A   1      48.750  26.604  27.054  1.00  0.00    -0.203 F 
ATOM     97  F   UNL A   1      48.739  27.677  21.706  1.00  0.00    -0.200 F 
ATOM     98  C   UNL A   1      49.877  26.920  23.630  1.00  0.00     0.200 A 
ATOM     99  F   UNL A   1      50.973  26.166  25.581  1.00  0.00    -0.200 F 
ATOM    100  F   UNL A   1      50.977  26.678  22.903  1.00  0.00    -0.200 F 
ENDBRANCH  67  90
ENDBRANCH  41  42
ENDBRANCH  34  36
ENDBRANCH  33  34
ENDBRANCH  32  33
ENDBRANCH  31  32
ENDBRANCH  30  31
ENDBRANCH  29  30
ENDBRANCH  28  29
ENDBRANCH  27  28
ENDBRANCH   1  27
TORSDOF 24
ENDMDL
