MODEL 1
REMARK VINA RESULT:     -11.4      0.000      0.000
REMARK SMILES Cc1ccc(C(=O)N2CCCC[C@@H]2C(=O)OCCOCCOCCOCCOC(=O)c2ccc(-c3c4nc(c(-c5c(F)c(F)c(F)c(F)c5F)c5ccc([nH]5)c(-c5c(F)c(F)c(F)c(F)c5F)c5nc(c(-c6c(F)c(F)c(F)c(F)c6F)c6ccc3[nH]6)C=C5)C=C4)cc2)cc1S(=O)(=O)N1CCCCC1
REMARK SMILES IDX 21 1 20 2 19 3 18 4 17 5 16 6 14 7 15 8 13 9 8 10 9 11 10 12
REMARK SMILES IDX 12 13 11 14 6 15 7 16 5 17 1 18 2 19 3 20 95 21 4 22 94 23
REMARK SMILES IDX 96 24 97 25 98 26 99 27 100 28 104 29 101 30 103 31 102 32
REMARK SMILES IDX 22 33 23 34 24 35 25 36 26 37 27 38 28 39 29 40 30 41 31 42
REMARK SMILES IDX 32 43 93 44 33 45 92 46 34 47 35 48 36 49 86 50 37 51 91 52
REMARK SMILES IDX 85 53 87 54 38 55 90 56 84 57 83 58 39 60 71 61 51 62 70 63
REMARK SMILES IDX 52 64 55 65 69 66 88 67 53 68 54 69 68 71 89 72 56 73 40 74
REMARK SMILES IDX 41 75 49 76 42 77 43 78 47 79 50 80 44 81 45 82 48 83 46 84
REMARK SMILES IDX 72 85 73 86 81 87 74 88 75 89 79 90 82 91 76 92 77 93 80 94
REMARK SMILES IDX 78 95 57 96 58 97 66 98 59 99 60 100 64 101 67 102 61 103
REMARK SMILES IDX 62 104 65 105 63 106
REMARK H PARENT 87 59 55 70
REMARK Flexibility Score: inf
ROOT
ATOM      1  C   UNL A   1      33.017  29.931  27.045  1.00  0.00     0.188 C 
ENDROOT
BRANCH   1   2
ATOM      2  C   UNL A   1      31.933  28.537  26.981  1.00  0.00     0.188 C 
BRANCH   2   3
ATOM      3  O   UNL A   1      31.551  27.237  25.719  1.00  0.00    -0.376 OA
BRANCH   3   4
ATOM      4  C   UNL A   1      31.229  27.311  23.932  1.00  0.00     0.202 C 
BRANCH   4   5
ATOM      5  C   UNL A   1      32.220  26.305  22.772  1.00  0.00     0.261 C 
BRANCH   5   6
ATOM      6  O   UNL A   1      33.547  25.144  23.279  1.00  0.00    -0.462 OA
BRANCH   6   7
ATOM      7  C   UNL A   1      34.155  23.712  23.303  1.00  0.00     0.328 C 
ATOM      8  O   UNL A   1      35.166  23.322  22.696  1.00  0.00    -0.250 OA
BRANCH   7   9
ATOM      9  C   UNL A   1      33.586  22.536  24.319  1.00  0.00     0.195 C 
ATOM     10  N   UNL A   1      34.449  21.907  25.301  1.00  0.00    -0.325 N 
ATOM     11  C   UNL A   1      33.786  20.986  26.228  1.00  0.00     0.121 C 
ATOM     12  C   UNL A   1      33.268  19.774  25.494  1.00  0.00     0.022 C 
ATOM     13  C   UNL A   1      32.623  21.432  23.638  1.00  0.00     0.037 C 
ATOM     14  C   UNL A   1      32.249  20.185  24.449  1.00  0.00     0.005 C 
BRANCH  10  15
ATOM     15  C   UNL A   1      35.698  22.413  25.664  1.00  0.00     0.254 C 
ATOM     16  O   UNL A   1      35.725  23.560  26.115  1.00  0.00    -0.269 OA
BRANCH  15  17
ATOM     17  C   UNL A   1      36.953  21.659  25.134  1.00  0.00     0.041 A 
ATOM     18  C   UNL A   1      41.504  19.434  26.388  1.00  0.00     0.046 C 
ATOM     19  C   UNL A   1      40.293  20.246  26.088  1.00  0.00    -0.031 A 
ATOM     20  C   UNL A   1      39.043  19.311  25.437  1.00  0.00     0.005 A 
ATOM     21  C   UNL A   1      39.997  21.986  26.232  1.00  0.00     0.086 A 
ATOM     22  C   UNL A   1      37.503  19.960  24.956  1.00  0.00     0.014 A 
ATOM     23  C   UNL A   1      38.157  22.710  25.596  1.00  0.00     0.035 A 
BRANCH  21  24
ATOM     24  S   UNL A   1      41.691  22.995  26.690  1.00  0.00     0.243 S 
ATOM     25  O   UNL A   1      42.290  22.665  27.968  1.00  0.00    -0.207 OA
ATOM     26  O   UNL A   1      42.515  22.873  25.506  1.00  0.00    -0.207 OA
BRANCH  24  27
ATOM     27  N   UNL A   1      41.257  24.599  26.936  1.00  0.00    -0.198 NA
ATOM     28  C   UNL A   1      41.210  24.850  28.360  1.00  0.00     0.102 C 
ATOM     29  C   UNL A   1      41.124  25.647  25.912  1.00  0.00     0.102 C 
ATOM     30  C   UNL A   1      40.552  26.133  28.732  1.00  0.00     0.017 C 
ATOM     31  C   UNL A   1      40.594  26.984  26.409  1.00  0.00     0.017 C 
ATOM     32  C   UNL A   1      40.980  27.277  27.840  1.00  0.00     0.003 C 
ENDBRANCH  24  27
ENDBRANCH  21  24
ENDBRANCH  15  17
ENDBRANCH  10  15
ENDBRANCH   7   9
ENDBRANCH   6   7
ENDBRANCH   5   6
ENDBRANCH   4   5
ENDBRANCH   3   4
ENDBRANCH   2   3
ENDBRANCH   1   2
BRANCH   1  33
ATOM     33  O   UNL A   1      32.913  31.369  27.184  1.00  0.00    -0.377 OA
BRANCH  33  34
ATOM     34  C   UNL A   1      33.781  32.187  27.920  1.00  0.00     0.188 C 
BRANCH  34  35
ATOM     35  C   UNL A   1      35.157  31.677  27.976  1.00  0.00     0.188 C 
BRANCH  35  36
ATOM     36  O   UNL A   1      35.841  32.228  29.075  1.00  0.00    -0.376 OA
BRANCH  36  37
ATOM     37  C   UNL A   1      35.098  32.757  30.139  1.00  0.00     0.202 C 
BRANCH  37  38
ATOM     38  C   UNL A   1      35.712  32.237  31.422  1.00  0.00     0.261 C 
BRANCH  38  39
ATOM     39  O   UNL A   1      35.878  30.771  31.264  1.00  0.00    -0.460 OA
BRANCH  39  40
ATOM     40  C   UNL A   1      36.841  30.043  31.956  1.00  0.00     0.338 C 
ATOM     41  O   UNL A   1      37.103  30.213  33.137  1.00  0.00    -0.246 OA
BRANCH  40  42
ATOM     42  C   UNL A   1      37.746  29.192  31.029  1.00  0.00     0.060 A 
ATOM     43  C   UNL A   1      38.644  28.178  31.515  1.00  0.00     0.016 A 
ATOM     44  C   UNL A   1      38.255  29.906  30.016  1.00  0.00     0.016 A 
ATOM     45  C   UNL A   1      40.115  28.287  31.487  1.00  0.00     0.010 A 
ATOM     46  C   UNL A   1      39.623  30.076  30.145  1.00  0.00     0.010 A 
ATOM     47  C   UNL A   1      40.700  29.469  31.077  1.00  0.00    -0.014 A 
BRANCH  47  48
ATOM     48  C   UNL A   1      42.465  30.153  31.308  1.00  0.00     0.031 A 
ATOM     49  C   UNL A   1      42.692  32.176  31.628  1.00  0.00     0.074 A 
ATOM     50  C   UNL A   1      43.518  29.182  31.105  1.00  0.00     0.049 A 
ATOM     51  N   UNL A   1      43.683  33.078  31.523  1.00  0.00    -0.248 NA
ATOM     52  C   UNL A   1      41.465  33.434  31.516  1.00  0.00     0.031 C 
ATOM     53  C   UNL A   1      44.813  29.048  31.793  1.00  0.00     0.029 A 
ATOM     54  N   UNL A   1      43.776  28.031  30.349  1.00  0.00    -0.354 N 
ATOM     55  C   UNL A   1      43.387  34.339  31.993  1.00  0.00     0.074 A 
ATOM     56  C   UNL A   1      42.067  34.593  31.617  1.00  0.00     0.031 C 
ATOM     57  C   UNL A   1      45.834  28.476  31.175  1.00  0.00     0.029 A 
ATOM     58  C   UNL A   1      45.204  28.050  30.008  1.00  0.00     0.049 A 
ATOM     59  H   UNL A   1      43.122  27.339  30.094  1.00  0.00     0.167 HD
ATOM     60  C   UNL A   1      44.280  35.051  32.727  1.00  0.00     0.037 A 
ATOM     61  C   UNL A   1      45.925  27.595  28.968  1.00  0.00     0.037 A 
ATOM     62  C   UNL A   1      45.752  34.537  32.373  1.00  0.00     0.049 A 
ATOM     63  C   UNL A   1      47.062  28.739  28.563  1.00  0.00     0.074 A 
ATOM     64  C   UNL A   1      47.446  34.614  32.982  1.00  0.00     0.029 A 
ATOM     65  N   UNL A   1      45.905  33.780  30.664  1.00  0.00    -0.354 N 
ATOM     66  N   UNL A   1      47.118  29.965  29.082  1.00  0.00    -0.248 NA
ATOM     67  C   UNL A   1      48.222  28.618  27.673  1.00  0.00     0.031 C 
ATOM     68  C   UNL A   1      48.753  34.076  31.591  1.00  0.00     0.029 A 
ATOM     69  C   UNL A   1      47.820  33.462  30.112  1.00  0.00     0.049 A 
ATOM     70  H   UNL A   1      45.132  33.561  30.096  1.00  0.00     0.167 HD
ATOM     71  C   UNL A   1      48.198  30.849  28.597  1.00  0.00     0.074 A 
ATOM     72  C   UNL A   1      48.850  29.831  27.734  1.00  0.00     0.031 C 
ATOM     73  C   UNL A   1      48.476  32.332  28.863  1.00  0.00     0.037 A 
BRANCH  60  74
ATOM     74  C   UNL A   1      43.711  36.392  33.515  1.00  0.00     0.064 A 
ATOM     75  C   UNL A   1      43.233  36.322  34.826  1.00  0.00     0.173 A 
ATOM     76  C   UNL A   1      43.887  37.775  33.136  1.00  0.00     0.173 A 
ATOM     77  F   UNL A   1      42.470  35.283  35.188  1.00  0.00    -0.203 F 
ATOM     78  C   UNL A   1      43.436  37.361  35.776  1.00  0.00     0.198 A 
ATOM     79  C   UNL A   1      44.004  38.846  34.052  1.00  0.00     0.198 A 
ATOM     80  F   UNL A   1      43.898  38.196  31.868  1.00  0.00    -0.203 F 
ATOM     81  F   UNL A   1      43.216  37.137  37.079  1.00  0.00    -0.200 F 
ATOM     82  C   UNL A   1      43.889  38.609  35.394  1.00  0.00     0.200 A 
ATOM     83  F   UNL A   1      44.285  40.086  33.614  1.00  0.00    -0.200 F 
ATOM     84  F   UNL A   1      44.145  39.577  36.287  1.00  0.00    -0.200 F 
ENDBRANCH  60  74
BRANCH  61  85
ATOM     85  C   UNL A   1      44.961  26.507  28.441  1.00  0.00     0.064 A 
ATOM     86  C   UNL A   1      44.486  26.726  27.072  1.00  0.00     0.173 A 
ATOM     87  C   UNL A   1      45.333  25.168  28.699  1.00  0.00     0.173 A 
ATOM     88  F   UNL A   1      44.205  27.977  26.663  1.00  0.00    -0.203 F 
ATOM     89  C   UNL A   1      44.667  25.774  26.031  1.00  0.00     0.198 A 
ATOM     90  C   UNL A   1      45.442  24.207  27.657  1.00  0.00     0.198 A 
ATOM     91  F   UNL A   1      45.955  24.887  29.853  1.00  0.00    -0.203 F 
ATOM     92  F   UNL A   1      44.588  26.154  24.741  1.00  0.00    -0.200 F 
ATOM     93  C   UNL A   1      45.186  24.529  26.324  1.00  0.00     0.200 A 
ATOM     94  F   UNL A   1      46.004  23.021  27.937  1.00  0.00    -0.200 F 
ATOM     95  F   UNL A   1      45.603  23.723  25.331  1.00  0.00    -0.200 F 
ENDBRANCH  61  85
BRANCH  73  96
ATOM     96  C   UNL A   1      49.087  33.149  27.675  1.00  0.00     0.064 A 
ATOM     97  C   UNL A   1      48.324  33.620  26.584  1.00  0.00     0.173 A 
ATOM     98  C   UNL A   1      50.348  33.783  27.806  1.00  0.00     0.173 A 
ATOM     99  F   UNL A   1      47.041  33.286  26.409  1.00  0.00    -0.203 F 
ATOM    100  C   UNL A   1      48.792  34.582  25.684  1.00  0.00     0.198 A 
ATOM    101  C   UNL A   1      50.746  34.852  26.990  1.00  0.00     0.198 A 
ATOM    102  F   UNL A   1      51.199  33.467  28.790  1.00  0.00    -0.203 F 
ATOM    103  F   UNL A   1      48.029  34.934  24.639  1.00  0.00    -0.200 F 
ATOM    104  C   UNL A   1      49.980  35.234  25.914  1.00  0.00     0.200 A 
ATOM    105  F   UNL A   1      51.833  35.570  27.313  1.00  0.00    -0.200 F 
ATOM    106  F   UNL A   1      50.356  36.258  25.136  1.00  0.00    -0.200 F 
ENDBRANCH  73  96
ENDBRANCH  47  48
ENDBRANCH  40  42
ENDBRANCH  39  40
ENDBRANCH  38  39
ENDBRANCH  37  38
ENDBRANCH  36  37
ENDBRANCH  35  36
ENDBRANCH  34  35
ENDBRANCH  33  34
ENDBRANCH   1  33
TORSDOF 24
ENDMDL
MODEL 2
REMARK VINA RESULT:     -10.9      4.450     10.340
REMARK SMILES Cc1ccc(C(=O)N2CCCC[C@@H]2C(=O)OCCOCCOCCOCCOC(=O)c2ccc(-c3c4nc(c(-c5c(F)c(F)c(F)c(F)c5F)c5ccc([nH]5)c(-c5c(F)c(F)c(F)c(F)c5F)c5nc(c(-c6c(F)c(F)c(F)c(F)c6F)c6ccc3[nH]6)C=C5)C=C4)cc2)cc1S(=O)(=O)N1CCCCC1
REMARK SMILES IDX 21 1 20 2 19 3 18 4 17 5 16 6 14 7 15 8 13 9 8 10 9 11 10 12
REMARK SMILES IDX 12 13 11 14 6 15 7 16 5 17 1 18 2 19 3 20 95 21 4 22 94 23
REMARK SMILES IDX 96 24 97 25 98 26 99 27 100 28 104 29 101 30 103 31 102 32
REMARK SMILES IDX 22 33 23 34 24 35 25 36 26 37 27 38 28 39 29 40 30 41 31 42
REMARK SMILES IDX 32 43 93 44 33 45 92 46 34 47 35 48 36 49 86 50 37 51 91 52
REMARK SMILES IDX 85 53 87 54 38 55 90 56 84 57 83 58 39 60 71 61 51 62 70 63
REMARK SMILES IDX 52 64 55 65 69 66 88 67 53 68 54 69 68 71 89 72 56 73 40 74
REMARK SMILES IDX 41 75 49 76 42 77 43 78 47 79 50 80 44 81 45 82 48 83 46 84
REMARK SMILES IDX 72 85 73 86 81 87 74 88 75 89 79 90 82 91 76 92 77 93 80 94
REMARK SMILES IDX 78 95 57 96 58 97 66 98 59 99 60 100 64 101 67 102 61 103
REMARK SMILES IDX 62 104 65 105 63 106
REMARK H PARENT 87 59 55 70
REMARK Flexibility Score: inf
ROOT
ATOM      1  C   UNL A   1      40.897  24.151  27.049  1.00  0.00     0.188 C 
ENDROOT
BRANCH   1   2
ATOM      2  C   UNL A   1      41.702  25.401  26.094  1.00  0.00     0.188 C 
BRANCH   2   3
ATOM      3  O   UNL A   1      41.293  27.139  25.607  1.00  0.00    -0.376 OA
BRANCH   3   4
ATOM      4  C   UNL A   1      42.024  28.745  26.042  1.00  0.00     0.202 C 
BRANCH   4   5
ATOM      5  C   UNL A   1      42.712  29.025  27.712  1.00  0.00     0.261 C 
BRANCH   5   6
ATOM      6  O   UNL A   1      42.921  30.675  28.485  1.00  0.00    -0.462 OA
BRANCH   6   7
ATOM      7  C   UNL A   1      43.806  31.721  29.222  1.00  0.00     0.328 C 
ATOM      8  O   UNL A   1      45.033  31.876  29.100  1.00  0.00    -0.250 OA
BRANCH   7   9
ATOM      9  C   UNL A   1      43.153  32.908  30.173  1.00  0.00     0.195 C 
ATOM     10  N   UNL A   1      43.062  32.754  31.612  1.00  0.00    -0.325 N 
ATOM     11  C   UNL A   1      42.595  33.934  32.346  1.00  0.00     0.121 C 
ATOM     12  C   UNL A   1      41.157  34.236  32.006  1.00  0.00     0.022 C 
ATOM     13  C   UNL A   1      41.809  33.598  29.602  1.00  0.00     0.037 C 
ATOM     14  C   UNL A   1      41.015  34.532  30.524  1.00  0.00     0.005 C 
BRANCH  10  15
ATOM     15  C   UNL A   1      43.748  31.770  32.326  1.00  0.00     0.254 C 
ATOM     16  O   UNL A   1      44.927  32.000  32.600  1.00  0.00    -0.269 OA
BRANCH  15  17
ATOM     17  C   UNL A   1      43.104  30.354  32.383  1.00  0.00     0.041 A 
ATOM     18  C   UNL A   1      39.048  27.395  30.955  1.00  0.00     0.046 C 
ATOM     19  C   UNL A   1      40.070  28.344  31.476  1.00  0.00    -0.031 A 
ATOM     20  C   UNL A   1      41.624  27.979  30.918  1.00  0.00     0.005 A 
ATOM     21  C   UNL A   1      39.925  29.698  32.609  1.00  0.00     0.086 A 
ATOM     22  C   UNL A   1      43.044  28.881  31.359  1.00  0.00     0.014 A 
ATOM     23  C   UNL A   1      41.663  30.706  33.138  1.00  0.00     0.035 A 
BRANCH  21  24
ATOM     24  S   UNL A   1      38.083  29.778  33.444  1.00  0.00     0.243 S 
ATOM     25  O   UNL A   1      37.213  28.658  33.146  1.00  0.00    -0.207 OA
ATOM     26  O   UNL A   1      38.331  30.091  34.835  1.00  0.00    -0.207 OA
BRANCH  24  27
ATOM     27  N   UNL A   1      37.260  31.040  32.700  1.00  0.00    -0.198 NA
ATOM     28  C   UNL A   1      36.415  30.490  31.662  1.00  0.00     0.102 C 
ATOM     29  C   UNL A   1      37.233  32.449  33.122  1.00  0.00     0.102 C 
ATOM     30  C   UNL A   1      35.859  31.505  30.726  1.00  0.00     0.017 C 
ATOM     31  C   UNL A   1      36.501  33.398  32.183  1.00  0.00     0.017 C 
ATOM     32  C   UNL A   1      35.360  32.738  31.446  1.00  0.00     0.003 C 
ENDBRANCH  24  27
ENDBRANCH  21  24
ENDBRANCH  15  17
ENDBRANCH  10  15
ENDBRANCH   7   9
ENDBRANCH   6   7
ENDBRANCH   5   6
ENDBRANCH   4   5
ENDBRANCH   3   4
ENDBRANCH   2   3
ENDBRANCH   1   2
BRANCH   1  33
ATOM     33  O   UNL A   1      40.837  22.705  27.096  1.00  0.00    -0.377 OA
BRANCH  33  34
ATOM     34  C   UNL A   1      40.186  21.880  26.169  1.00  0.00     0.188 C 
BRANCH  34  35
ATOM     35  C   UNL A   1      40.256  20.452  26.507  1.00  0.00     0.188 C 
BRANCH  35  36
ATOM     36  O   UNL A   1      41.431  19.881  25.982  1.00  0.00    -0.376 OA
BRANCH  36  37
ATOM     37  C   UNL A   1      42.266  19.146  26.834  1.00  0.00     0.202 C 
BRANCH  37  38
ATOM     38  C   UNL A   1      43.250  18.394  25.963  1.00  0.00     0.261 C 
BRANCH  38  39
ATOM     39  O   UNL A   1      43.659  19.313  24.872  1.00  0.00    -0.460 OA
BRANCH  39  40
ATOM     40  C   UNL A   1      44.820  20.078  24.928  1.00  0.00     0.338 C 
ATOM     41  O   UNL A   1      45.872  19.684  25.408  1.00  0.00    -0.246 OA
BRANCH  40  42
ATOM     42  C   UNL A   1      44.583  21.570  24.581  1.00  0.00     0.060 A 
ATOM     43  C   UNL A   1      45.554  22.388  23.903  1.00  0.00     0.016 A 
ATOM     44  C   UNL A   1      43.929  22.223  25.552  1.00  0.00     0.016 A 
ATOM     45  C   UNL A   1      46.293  23.498  24.534  1.00  0.00     0.010 A 
ATOM     46  C   UNL A   1      44.741  23.151  26.182  1.00  0.00     0.010 A 
ATOM     47  C   UNL A   1      46.149  23.726  25.888  1.00  0.00    -0.014 A 
BRANCH  47  48
ATOM     48  C   UNL A   1      47.210  24.718  27.123  1.00  0.00     0.031 A 
ATOM     49  C   UNL A   1      46.340  25.319  28.892  1.00  0.00     0.074 A 
ATOM     50  C   UNL A   1      48.525  25.075  26.636  1.00  0.00     0.049 A 
ATOM     51  N   UNL A   1      46.582  26.244  29.837  1.00  0.00    -0.248 NA
ATOM     52  C   UNL A   1      44.643  25.218  29.353  1.00  0.00     0.031 C 
ATOM     53  C   UNL A   1      49.798  25.173  27.368  1.00  0.00     0.029 A 
ATOM     54  N   UNL A   1      49.168  25.379  25.430  1.00  0.00    -0.354 N 
ATOM     55  C   UNL A   1      45.770  26.182  30.948  1.00  0.00     0.074 A 
ATOM     56  C   UNL A   1      44.492  25.872  30.478  1.00  0.00     0.031 C 
ATOM     57  C   UNL A   1      50.753  25.979  26.928  1.00  0.00     0.029 A 
ATOM     58  C   UNL A   1      50.184  26.396  25.727  1.00  0.00     0.049 A 
ATOM     59  H   UNL A   1      48.975  24.984  24.548  1.00  0.00     0.167 HD
ATOM     60  C   UNL A   1      46.267  26.338  32.202  1.00  0.00     0.037 A 
ATOM     61  C   UNL A   1      50.724  27.412  25.032  1.00  0.00     0.037 A 
ATOM     62  C   UNL A   1      47.613  27.197  32.108  1.00  0.00     0.049 A 
ATOM     63  C   UNL A   1      50.865  28.733  26.033  1.00  0.00     0.074 A 
ATOM     64  C   UNL A   1      49.060  27.640  33.086  1.00  0.00     0.029 A 
ATOM     65  N   UNL A   1      47.698  28.323  30.612  1.00  0.00    -0.354 N 
ATOM     66  N   UNL A   1      50.361  28.804  27.264  1.00  0.00    -0.248 NA
ATOM     67  C   UNL A   1      51.602  29.983  25.820  1.00  0.00     0.031 C 
ATOM     68  C   UNL A   1      50.012  29.205  32.323  1.00  0.00     0.029 A 
ATOM     69  C   UNL A   1      49.228  29.636  30.700  1.00  0.00     0.049 A 
ATOM     70  H   UNL A   1      47.062  28.278  29.862  1.00  0.00     0.167 HD
ATOM     71  C   UNL A   1      50.581  30.062  28.006  1.00  0.00     0.074 A 
ATOM     72  C   UNL A   1      51.430  30.702  26.970  1.00  0.00     0.031 C 
ATOM     73  C   UNL A   1      50.039  30.537  29.359  1.00  0.00     0.037 A 
BRANCH  60  74
ATOM     74  C   UNL A   1      45.282  25.917  33.464  1.00  0.00     0.064 A 
ATOM     75  C   UNL A   1      44.568  26.876  34.186  1.00  0.00     0.173 A 
ATOM     76  C   UNL A   1      44.797  24.597  33.798  1.00  0.00     0.173 A 
ATOM     77  F   UNL A   1      45.164  28.032  34.504  1.00  0.00    -0.203 F 
ATOM     78  C   UNL A   1      43.259  26.643  34.691  1.00  0.00     0.198 A 
ATOM     79  C   UNL A   1      43.537  24.334  34.383  1.00  0.00     0.198 A 
ATOM     80  F   UNL A   1      45.520  23.484  33.642  1.00  0.00    -0.203 F 
ATOM     81  F   UNL A   1      42.508  27.666  35.122  1.00  0.00    -0.200 F 
ATOM     82  C   UNL A   1      42.716  25.373  34.727  1.00  0.00     0.200 A 
ATOM     83  F   UNL A   1      43.117  23.068  34.551  1.00  0.00    -0.200 F 
ATOM     84  F   UNL A   1      41.460  25.148  35.142  1.00  0.00    -0.200 F 
ENDBRANCH  60  74
BRANCH  61  85
ATOM     85  C   UNL A   1      50.438  26.922  23.593  1.00  0.00     0.064 A 
ATOM     86  C   UNL A   1      49.244  27.508  22.978  1.00  0.00     0.173 A 
ATOM     87  C   UNL A   1      51.549  26.865  22.721  1.00  0.00     0.173 A 
ATOM     88  F   UNL A   1      48.149  27.720  23.731  1.00  0.00    -0.203 F 
ATOM     89  C   UNL A   1      49.280  28.219  21.747  1.00  0.00     0.198 A 
ATOM     90  C   UNL A   1      51.547  27.525  21.462  1.00  0.00     0.198 A 
ATOM     91  F   UNL A   1      52.743  26.524  23.228  1.00  0.00    -0.203 F 
ATOM     92  F   UNL A   1      48.282  29.064  21.420  1.00  0.00    -0.200 F 
ATOM     93  C   UNL A   1      50.449  28.260  21.014  1.00  0.00     0.200 A 
ATOM     94  F   UNL A   1      52.701  27.612  20.783  1.00  0.00    -0.200 F 
ATOM     95  F   UNL A   1      50.576  29.131  19.997  1.00  0.00    -0.200 F 
ENDBRANCH  61  85
BRANCH  73  96
ATOM     96  C   UNL A   1      49.740  32.068  29.488  1.00  0.00     0.064 A 
ATOM     97  C   UNL A   1      48.675  32.710  28.820  1.00  0.00     0.173 A 
ATOM     98  C   UNL A   1      50.276  32.821  30.563  1.00  0.00     0.173 A 
ATOM     99  F   UNL A   1      47.919  32.086  27.911  1.00  0.00    -0.203 F 
ATOM    100  C   UNL A   1      48.228  33.993  29.151  1.00  0.00     0.198 A 
ATOM    101  C   UNL A   1      49.723  34.039  30.984  1.00  0.00     0.198 A 
ATOM    102  F   UNL A   1      51.285  32.363  31.314  1.00  0.00    -0.203 F 
ATOM    103  F   UNL A   1      47.249  34.557  28.429  1.00  0.00    -0.200 F 
ATOM    104  C   UNL A   1      48.716  34.637  30.263  1.00  0.00     0.200 A 
ATOM    105  F   UNL A   1      50.110  34.582  32.149  1.00  0.00    -0.200 F 
ATOM    106  F   UNL A   1      48.183  35.798  30.666  1.00  0.00    -0.200 F 
ENDBRANCH  73  96
ENDBRANCH  47  48
ENDBRANCH  40  42
ENDBRANCH  39  40
ENDBRANCH  38  39
ENDBRANCH  37  38
ENDBRANCH  36  37
ENDBRANCH  35  36
ENDBRANCH  34  35
ENDBRANCH  33  34
ENDBRANCH   1  33
TORSDOF 24
ENDMDL
MODEL 3
REMARK VINA RESULT:     -10.8      4.480     10.619
REMARK SMILES Cc1ccc(C(=O)N2CCCC[C@@H]2C(=O)OCCOCCOCCOCCOC(=O)c2ccc(-c3c4nc(c(-c5c(F)c(F)c(F)c(F)c5F)c5ccc([nH]5)c(-c5c(F)c(F)c(F)c(F)c5F)c5nc(c(-c6c(F)c(F)c(F)c(F)c6F)c6ccc3[nH]6)C=C5)C=C4)cc2)cc1S(=O)(=O)N1CCCCC1
REMARK SMILES IDX 21 1 20 2 19 3 18 4 17 5 16 6 14 7 15 8 13 9 8 10 9 11 10 12
REMARK SMILES IDX 12 13 11 14 6 15 7 16 5 17 1 18 2 19 3 20 95 21 4 22 94 23
REMARK SMILES IDX 96 24 97 25 98 26 99 27 100 28 104 29 101 30 103 31 102 32
REMARK SMILES IDX 22 33 23 34 24 35 25 36 26 37 27 38 28 39 29 40 30 41 31 42
REMARK SMILES IDX 32 43 93 44 33 45 92 46 34 47 35 48 36 49 86 50 37 51 91 52
REMARK SMILES IDX 85 53 87 54 38 55 90 56 84 57 83 58 39 60 71 61 51 62 70 63
REMARK SMILES IDX 52 64 55 65 69 66 88 67 53 68 54 69 68 71 89 72 56 73 40 74
REMARK SMILES IDX 41 75 49 76 42 77 43 78 47 79 50 80 44 81 45 82 48 83 46 84
REMARK SMILES IDX 72 85 73 86 81 87 74 88 75 89 79 90 82 91 76 92 77 93 80 94
REMARK SMILES IDX 78 95 57 96 58 97 66 98 59 99 60 100 64 101 67 102 61 103
REMARK SMILES IDX 62 104 65 105 63 106
REMARK H PARENT 87 59 55 70
REMARK Flexibility Score: inf
ROOT
ATOM      1  C   UNL A   1      41.042  24.074  26.619  1.00  0.00     0.188 C 
ENDROOT
BRANCH   1   2
ATOM      2  C   UNL A   1      41.822  25.386  25.729  1.00  0.00     0.188 C 
BRANCH   2   3
ATOM      3  O   UNL A   1      41.499  27.197  25.524  1.00  0.00    -0.376 OA
BRANCH   3   4
ATOM      4  C   UNL A   1      41.260  28.549  26.715  1.00  0.00     0.202 C 
BRANCH   4   5
ATOM      5  C   UNL A   1      40.564  28.208  28.371  1.00  0.00     0.261 C 
BRANCH   5   6
ATOM      6  O   UNL A   1      40.470  29.437  29.729  1.00  0.00    -0.462 OA
BRANCH   6   7
ATOM      7  C   UNL A   1      40.846  29.893  31.169  1.00  0.00     0.328 C 
ATOM      8  O   UNL A   1      41.348  29.193  32.064  1.00  0.00    -0.250 OA
BRANCH   7   9
ATOM      9  C   UNL A   1      40.764  31.478  31.635  1.00  0.00     0.195 C 
ATOM     10  N   UNL A   1      39.650  31.977  32.418  1.00  0.00    -0.325 N 
ATOM     11  C   UNL A   1      39.773  33.362  32.882  1.00  0.00     0.121 C 
ATOM     12  C   UNL A   1      39.744  34.318  31.715  1.00  0.00     0.022 C 
ATOM     13  C   UNL A   1      41.178  32.559  30.507  1.00  0.00     0.037 C 
ATOM     14  C   UNL A   1      40.906  34.044  30.779  1.00  0.00     0.005 C 
BRANCH  10  15
ATOM     15  C   UNL A   1      38.735  31.148  33.070  1.00  0.00     0.254 C 
ATOM     16  O   UNL A   1      39.085  30.675  34.153  1.00  0.00    -0.269 OA
BRANCH  15  17
ATOM     17  C   UNL A   1      37.545  30.603  32.228  1.00  0.00     0.041 A 
ATOM     18  C   UNL A   1      35.169  30.638  27.581  1.00  0.00     0.046 C 
ATOM     19  C   UNL A   1      35.793  30.826  28.919  1.00  0.00    -0.031 A 
ATOM     20  C   UNL A   1      36.459  29.392  29.520  1.00  0.00     0.005 A 
ATOM     21  C   UNL A   1      35.875  32.248  29.972  1.00  0.00     0.086 A 
ATOM     22  C   UNL A   1      37.241  29.267  31.068  1.00  0.00     0.014 A 
ATOM     23  C   UNL A   1      36.778  32.025  31.829  1.00  0.00     0.035 A 
BRANCH  21  24
ATOM     24  S   UNL A   1      34.738  33.766  29.265  1.00  0.00     0.243 S 
ATOM     25  O   UNL A   1      35.431  34.734  28.438  1.00  0.00    -0.207 OA
ATOM     26  O   UNL A   1      33.571  33.114  28.709  1.00  0.00    -0.207 OA
BRANCH  24  27
ATOM     27  N   UNL A   1      34.305  34.712  30.584  1.00  0.00    -0.198 NA
ATOM     28  C   UNL A   1      33.123  35.470  30.238  1.00  0.00     0.102 C 
ATOM     29  C   UNL A   1      34.887  34.667  31.934  1.00  0.00     0.102 C 
ATOM     30  C   UNL A   1      32.800  36.568  31.191  1.00  0.00     0.017 C 
ATOM     31  C   UNL A   1      34.381  35.728  32.900  1.00  0.00     0.017 C 
ATOM     32  C   UNL A   1      32.951  36.137  32.633  1.00  0.00     0.003 C 
ENDBRANCH  24  27
ENDBRANCH  21  24
ENDBRANCH  15  17
ENDBRANCH  10  15
ENDBRANCH   7   9
ENDBRANCH   6   7
ENDBRANCH   5   6
ENDBRANCH   4   5
ENDBRANCH   3   4
ENDBRANCH   2   3
ENDBRANCH   1   2
BRANCH   1  33
ATOM     33  O   UNL A   1      41.113  22.629  26.686  1.00  0.00    -0.377 OA
BRANCH  33  34
ATOM     34  C   UNL A   1      40.176  21.736  26.149  1.00  0.00     0.188 C 
BRANCH  34  35
ATOM     35  C   UNL A   1      40.318  20.365  26.659  1.00  0.00     0.188 C 
BRANCH  35  36
ATOM     36  O   UNL A   1      41.499  19.778  26.169  1.00  0.00    -0.376 OA
BRANCH  36  37
ATOM     37  C   UNL A   1      42.336  19.094  27.060  1.00  0.00     0.202 C 
BRANCH  37  38
ATOM     38  C   UNL A   1      43.269  18.234  26.233  1.00  0.00     0.261 C 
BRANCH  38  39
ATOM     39  O   UNL A   1      43.689  19.045  25.063  1.00  0.00    -0.460 OA
BRANCH  39  40
ATOM     40  C   UNL A   1      44.866  19.787  25.046  1.00  0.00     0.338 C 
ATOM     41  O   UNL A   1      45.928  19.389  25.498  1.00  0.00    -0.246 OA
BRANCH  40  42
ATOM     42  C   UNL A   1      44.646  21.271  24.654  1.00  0.00     0.060 A 
ATOM     43  C   UNL A   1      45.644  22.071  23.994  1.00  0.00     0.016 A 
ATOM     44  C   UNL A   1      43.955  21.947  25.581  1.00  0.00     0.016 A 
ATOM     45  C   UNL A   1      46.358  23.196  24.627  1.00  0.00     0.010 A 
ATOM     46  C   UNL A   1      44.742  22.890  26.220  1.00  0.00     0.010 A 
ATOM     47  C   UNL A   1      46.161  23.457  25.968  1.00  0.00    -0.014 A 
BRANCH  47  48
ATOM     48  C   UNL A   1      47.174  24.478  27.220  1.00  0.00     0.031 A 
ATOM     49  C   UNL A   1      46.284  24.988  29.008  1.00  0.00     0.074 A 
ATOM     50  C   UNL A   1      48.462  24.921  26.734  1.00  0.00     0.049 A 
ATOM     51  N   UNL A   1      46.481  25.903  29.974  1.00  0.00    -0.248 NA
ATOM     52  C   UNL A   1      44.599  24.780  29.477  1.00  0.00     0.031 C 
ATOM     53  C   UNL A   1      49.734  25.074  27.460  1.00  0.00     0.029 A 
ATOM     54  N   UNL A   1      49.079  25.289  25.531  1.00  0.00    -0.354 N 
ATOM     55  C   UNL A   1      45.682  25.768  31.088  1.00  0.00     0.074 A 
ATOM     56  C   UNL A   1      44.420  25.398  30.618  1.00  0.00     0.031 C 
ATOM     57  C   UNL A   1      50.638  25.942  27.034  1.00  0.00     0.029 A 
ATOM     58  C   UNL A   1      50.038  26.354  25.846  1.00  0.00     0.049 A 
ATOM     59  H   UNL A   1      48.902  24.904  24.642  1.00  0.00     0.167 HD
ATOM     60  C   UNL A   1      46.179  25.924  32.342  1.00  0.00     0.037 A 
ATOM     61  C   UNL A   1      50.514  27.415  25.172  1.00  0.00     0.037 A 
ATOM     62  C   UNL A   1      47.473  26.859  32.260  1.00  0.00     0.049 A 
ATOM     63  C   UNL A   1      50.587  28.718  26.203  1.00  0.00     0.074 A 
ATOM     64  C   UNL A   1      48.901  27.361  33.239  1.00  0.00     0.029 A 
ATOM     65  N   UNL A   1      47.483  28.023  30.790  1.00  0.00    -0.354 N 
ATOM     66  N   UNL A   1      50.090  28.732  27.439  1.00  0.00    -0.248 NA
ATOM     67  C   UNL A   1      51.251  30.013  26.015  1.00  0.00     0.031 C 
ATOM     68  C   UNL A   1      49.756  28.994  32.507  1.00  0.00     0.029 A 
ATOM     69  C   UNL A   1      48.937  29.418  30.900  1.00  0.00     0.049 A 
ATOM     70  H   UNL A   1      46.846  27.960  30.043  1.00  0.00     0.167 HD
ATOM     71  C   UNL A   1      50.244  29.982  28.209  1.00  0.00     0.074 A 
ATOM     72  C   UNL A   1      51.048  30.694  27.183  1.00  0.00     0.031 C 
ATOM     73  C   UNL A   1      49.686  30.395  29.576  1.00  0.00     0.037 A 
BRANCH  60  74
ATOM     74  C   UNL A   1      45.229  25.417  33.599  1.00  0.00     0.064 A 
ATOM     75  C   UNL A   1      44.242  26.240  34.147  1.00  0.00     0.173 A 
ATOM     76  C   UNL A   1      45.061  24.067  34.087  1.00  0.00     0.173 A 
ATOM     77  F   UNL A   1      44.503  27.540  34.332  1.00  0.00    -0.203 F 
ATOM     78  C   UNL A   1      42.994  25.740  34.614  1.00  0.00     0.198 A 
ATOM     79  C   UNL A   1      43.862  23.561  34.640  1.00  0.00     0.198 A 
ATOM     80  F   UNL A   1      46.049  23.168  34.121  1.00  0.00    -0.203 F 
ATOM     81  F   UNL A   1      41.980  26.580  34.862  1.00  0.00    -0.200 F 
ATOM     82  C   UNL A   1      42.783  24.387  34.797  1.00  0.00     0.200 A 
ATOM     83  F   UNL A   1      43.758  22.259  34.959  1.00  0.00    -0.200 F 
ATOM     84  F   UNL A   1      41.593  23.898  35.176  1.00  0.00    -0.200 F 
ENDBRANCH  60  74
BRANCH  61  85
ATOM     85  C   UNL A   1      50.245  26.944  23.724  1.00  0.00     0.064 A 
ATOM     86  C   UNL A   1      49.020  27.483  23.126  1.00  0.00     0.173 A 
ATOM     87  C   UNL A   1      51.353  26.961  22.846  1.00  0.00     0.173 A 
ATOM     88  F   UNL A   1      47.920  27.625  23.888  1.00  0.00    -0.203 F 
ATOM     89  C   UNL A   1      49.016  28.223  21.912  1.00  0.00     0.198 A 
ATOM     90  C   UNL A   1      51.313  27.647  21.602  1.00  0.00     0.198 A 
ATOM     91  F   UNL A   1      52.565  26.668  23.341  1.00  0.00    -0.203 F 
ATOM     92  F   UNL A   1      47.976  29.024  21.607  1.00  0.00    -0.200 F 
ATOM     93  C   UNL A   1      50.178  28.337  21.174  1.00  0.00     0.200 A 
ATOM     94  F   UNL A   1      52.457  27.806  20.921  1.00  0.00    -0.200 F 
ATOM     95  F   UNL A   1      50.256  29.236  20.177  1.00  0.00    -0.200 F 
ENDBRANCH  61  85
BRANCH  73  96
ATOM     96  C   UNL A   1      49.302  31.903  29.743  1.00  0.00     0.064 A 
ATOM     97  C   UNL A   1      48.040  32.427  29.387  1.00  0.00     0.173 A 
ATOM     98  C   UNL A   1      50.048  32.748  30.603  1.00  0.00     0.173 A 
ATOM     99  F   UNL A   1      47.118  31.702  28.745  1.00  0.00    -0.203 F 
ATOM    100  C   UNL A   1      47.593  33.687  29.796  1.00  0.00     0.198 A 
ATOM    101  C   UNL A   1      49.530  33.940  31.130  1.00  0.00     0.198 A 
ATOM    102  F   UNL A   1      51.263  32.406  31.050  1.00  0.00    -0.203 F 
ATOM    103  F   UNL A   1      46.406  34.137  29.365  1.00  0.00    -0.200 F 
ATOM    104  C   UNL A   1      48.314  34.422  30.707  1.00  0.00     0.200 A 
ATOM    105  F   UNL A   1      50.178  34.568  32.123  1.00  0.00    -0.200 F 
ATOM    106  F   UNL A   1      47.814  35.557  31.213  1.00  0.00    -0.200 F 
ENDBRANCH  73  96
ENDBRANCH  47  48
ENDBRANCH  40  42
ENDBRANCH  39  40
ENDBRANCH  38  39
ENDBRANCH  37  38
ENDBRANCH  36  37
ENDBRANCH  35  36
ENDBRANCH  34  35
ENDBRANCH  33  34
ENDBRANCH   1  33
TORSDOF 24
ENDMDL
