MODEL 1
REMARK VINA RESULT:      -9.1      0.000      0.000
REMARK SMILES CC[C@](C)(C(=O)OCCOCCOCCOCCOC(=O)c1ccc(-c2c3nc(c(-c4c(F)c(F)c(F)c(F)c4F)c4ccc([nH]4)c(-c4c(F)c(F)c(F)c(F)c4F)c4nc(c(-c5c(F)c(F)c(F)c(F)c5F)c5ccc2[nH]5)C=C4)C=C3)cc1)[C@@H]1CCC[C@@H]1O
REMARK SMILES IDX 13 1 12 2 11 3 10 4 9 5 8 6 7 7 5 8 6 9 3 10 4 11 2 12 1 13
REMARK SMILES IDX 85 14 86 15 89 16 87 17 88 18 90 19 14 21 15 22 16 23 17 24
REMARK SMILES IDX 18 25 19 26 20 27 21 28 22 29 23 30 84 31 24 32 83 33 25 34
REMARK SMILES IDX 26 35 27 36 77 37 28 38 82 39 76 40 78 41 29 42 81 43 75 44
REMARK SMILES IDX 74 45 30 47 62 48 42 49 61 50 43 51 46 52 60 53 79 54 44 55
REMARK SMILES IDX 45 56 59 58 80 59 47 60 31 61 32 62 40 63 33 64 34 65 38 66
REMARK SMILES IDX 41 67 35 68 36 69 39 70 37 71 63 72 64 73 72 74 65 75 66 76
REMARK SMILES IDX 70 77 73 78 67 79 68 80 71 81 69 82 48 83 49 84 57 85 50 86
REMARK SMILES IDX 51 87 55 88 58 89 52 90 53 91 56 92 54 93
REMARK H PARENT 90 20 78 46 46 57
REMARK Flexibility Score: inf
ROOT
ATOM      1  O   UNL A   1      40.200  21.247  26.971  1.00  0.00    -0.377 OA
ENDROOT
BRANCH   1   2
ATOM      2  C   UNL A   1      39.550  22.202  26.149  1.00  0.00     0.188 C 
BRANCH   2   3
ATOM      3  C   UNL A   1      38.930  23.413  26.851  1.00  0.00     0.188 C 
BRANCH   3   4
ATOM      4  O   UNL A   1      38.035  24.114  26.014  1.00  0.00    -0.376 OA
BRANCH   4   5
ATOM      5  C   UNL A   1      37.277  23.388  25.068  1.00  0.00     0.202 C 
BRANCH   5   6
ATOM      6  C   UNL A   1      35.819  23.697  24.659  1.00  0.00     0.261 C 
BRANCH   6   7
ATOM      7  O   UNL A   1      34.910  22.623  24.392  1.00  0.00    -0.463 OA
BRANCH   7   8
ATOM      8  C   UNL A   1      33.963  22.353  25.330  1.00  0.00     0.312 C 
ATOM      9  O   UNL A   1      34.151  22.504  26.534  1.00  0.00    -0.252 OA
BRANCH   8  10
ATOM     10  C   UNL A   1      32.644  21.773  24.750  1.00  0.00     0.070 C 
ATOM     11  C   UNL A   1      32.795  21.447  23.233  1.00  0.00     0.024 C 
BRANCH  10  12
ATOM     12  C   UNL A   1      32.537  20.330  25.388  1.00  0.00     0.015 C 
ATOM     13  C   UNL A   1      33.144  19.153  24.627  1.00  0.00     0.005 C 
ENDBRANCH  10  12
BRANCH  10  14
ATOM     14  C   UNL A   1      31.341  22.628  25.089  1.00  0.00     0.035 C 
ATOM     15  C   UNL A   1      31.029  23.856  24.196  1.00  0.00     0.007 C 
ATOM     16  C   UNL A   1      30.971  23.146  26.503  1.00  0.00     0.118 C 
ATOM     17  C   UNL A   1      30.977  25.101  25.081  1.00  0.00     0.003 C 
ATOM     18  C   UNL A   1      31.210  24.646  26.503  1.00  0.00     0.032 C 
BRANCH  16  19
ATOM     19  O   UNL A   1      31.618  22.579  27.611  1.00  0.00    -0.393 OA
ATOM     20  H   UNL A   1      32.576  22.585  27.465  1.00  0.00     0.210 HD
ENDBRANCH  16  19
ENDBRANCH  10  14
ENDBRANCH   8  10
ENDBRANCH   7   8
ENDBRANCH   6   7
ENDBRANCH   5   6
ENDBRANCH   4   5
ENDBRANCH   3   4
ENDBRANCH   2   3
ENDBRANCH   1   2
BRANCH   1  21
ATOM     21  C   UNL A   1      40.407  19.941  26.441  1.00  0.00     0.188 C 
BRANCH  21  22
ATOM     22  C   UNL A   1      41.837  19.407  26.207  1.00  0.00     0.188 C 
BRANCH  22  23
ATOM     23  O   UNL A   1      42.869  20.371  26.365  1.00  0.00    -0.376 OA
BRANCH  23  24
ATOM     24  C   UNL A   1      43.878  20.425  25.367  1.00  0.00     0.202 C 
BRANCH  24  25
ATOM     25  C   UNL A   1      44.238  21.834  24.881  1.00  0.00     0.261 C 
BRANCH  25  26
ATOM     26  O   UNL A   1      43.503  22.910  25.488  1.00  0.00    -0.460 OA
BRANCH  26  27
ATOM     27  C   UNL A   1      43.937  24.173  25.295  1.00  0.00     0.338 C 
ATOM     28  O   UNL A   1      44.358  24.671  24.267  1.00  0.00    -0.246 OA
BRANCH  27  29
ATOM     29  C   UNL A   1      43.635  24.933  26.522  1.00  0.00     0.060 A 
ATOM     30  C   UNL A   1      42.674  24.434  27.409  1.00  0.00     0.016 A 
ATOM     31  C   UNL A   1      44.309  26.124  26.796  1.00  0.00     0.016 A 
ATOM     32  C   UNL A   1      42.354  25.149  28.563  1.00  0.00     0.010 A 
ATOM     33  C   UNL A   1      43.972  26.853  27.938  1.00  0.00     0.010 A 
ATOM     34  C   UNL A   1      42.969  26.386  28.804  1.00  0.00    -0.014 A 
BRANCH  34  35
ATOM     35  C   UNL A   1      42.398  27.299  29.819  1.00  0.00     0.031 A 
ATOM     36  C   UNL A   1      43.075  27.365  31.160  1.00  0.00     0.074 A 
ATOM     37  C   UNL A   1      41.316  28.052  29.564  1.00  0.00     0.049 A 
ATOM     38  N   UNL A   1      42.743  28.039  32.230  1.00  0.00    -0.248 NA
ATOM     39  C   UNL A   1      44.294  26.553  31.313  1.00  0.00     0.031 C 
ATOM     40  C   UNL A   1      40.598  28.103  28.294  1.00  0.00     0.029 A 
ATOM     41  N   UNL A   1      40.626  28.915  30.379  1.00  0.00    -0.354 N 
ATOM     42  C   UNL A   1      43.708  27.731  33.180  1.00  0.00     0.074 A 
ATOM     43  C   UNL A   1      44.621  26.788  32.574  1.00  0.00     0.031 C 
ATOM     44  C   UNL A   1      39.555  28.943  28.418  1.00  0.00     0.029 A 
ATOM     45  C   UNL A   1      39.517  29.464  29.784  1.00  0.00     0.049 A 
ATOM     46  H   UNL A   1      40.900  29.121  31.302  1.00  0.00     0.167 HD
ATOM     47  C   UNL A   1      43.827  28.201  34.443  1.00  0.00     0.037 A 
ATOM     48  C   UNL A   1      38.573  30.277  30.298  1.00  0.00     0.037 A 
ATOM     49  C   UNL A   1      42.913  29.131  35.048  1.00  0.00     0.049 A 
ATOM     50  C   UNL A   1      38.685  30.725  31.735  1.00  0.00     0.074 A 
ATOM     51  C   UNL A   1      42.952  29.677  36.318  1.00  0.00     0.029 A 
ATOM     52  N   UNL A   1      41.786  29.643  34.423  1.00  0.00    -0.354 N 
ATOM     53  N   UNL A   1      39.615  30.456  32.619  1.00  0.00    -0.248 NA
ATOM     54  C   UNL A   1      37.612  31.593  32.244  1.00  0.00     0.031 C 
ATOM     55  C   UNL A   1      41.820  30.482  36.480  1.00  0.00     0.029 A 
ATOM     56  C   UNL A   1      41.107  30.481  35.291  1.00  0.00     0.049 A 
ATOM     57  H   UNL A   1      41.511  29.443  33.499  1.00  0.00     0.167 HD
ATOM     58  C   UNL A   1      39.259  31.142  33.773  1.00  0.00     0.074 A 
ATOM     59  C   UNL A   1      38.032  31.850  33.475  1.00  0.00     0.031 C 
ATOM     60  C   UNL A   1      39.891  31.185  34.972  1.00  0.00     0.037 A 
BRANCH  47  61
ATOM     61  C   UNL A   1      44.974  27.687  35.261  1.00  0.00     0.064 A 
ATOM     62  C   UNL A   1      46.213  28.345  35.289  1.00  0.00     0.173 A 
ATOM     63  C   UNL A   1      44.827  26.529  36.039  1.00  0.00     0.173 A 
ATOM     64  F   UNL A   1      46.409  29.446  34.546  1.00  0.00    -0.203 F 
ATOM     65  C   UNL A   1      47.270  27.849  36.046  1.00  0.00     0.198 A 
ATOM     66  C   UNL A   1      45.878  26.051  36.817  1.00  0.00     0.198 A 
ATOM     67  F   UNL A   1      43.664  25.862  36.046  1.00  0.00    -0.203 F 
ATOM     68  F   UNL A   1      48.460  28.466  36.019  1.00  0.00    -0.200 F 
ATOM     69  C   UNL A   1      47.101  26.706  36.814  1.00  0.00     0.200 A 
ATOM     70  F   UNL A   1      45.710  24.952  37.565  1.00  0.00    -0.200 F 
ATOM     71  F   UNL A   1      48.118  26.232  37.546  1.00  0.00    -0.200 F 
ENDBRANCH  47  61
BRANCH  48  72
ATOM     72  C   UNL A   1      37.427  30.713  29.457  1.00  0.00     0.064 A 
ATOM     73  C   UNL A   1      36.380  29.833  29.149  1.00  0.00     0.173 A 
ATOM     74  C   UNL A   1      37.371  32.007  28.921  1.00  0.00     0.173 A 
ATOM     75  F   UNL A   1      36.403  28.576  29.614  1.00  0.00    -0.203 F 
ATOM     76  C   UNL A   1      35.330  30.226  28.320  1.00  0.00     0.198 A 
ATOM     77  C   UNL A   1      36.307  32.408  28.115  1.00  0.00     0.198 A 
ATOM     78  F   UNL A   1      38.350  32.886  29.181  1.00  0.00    -0.203 F 
ATOM     79  F   UNL A   1      34.369  29.350  28.001  1.00  0.00    -0.200 F 
ATOM     80  C   UNL A   1      35.292  31.515  27.809  1.00  0.00     0.200 A 
ATOM     81  F   UNL A   1      36.269  33.656  27.631  1.00  0.00    -0.200 F 
ATOM     82  F   UNL A   1      34.283  31.891  27.012  1.00  0.00    -0.200 F 
ENDBRANCH  48  72
BRANCH  60  83
ATOM     83  C   UNL A   1      39.294  32.057  36.039  1.00  0.00     0.064 A 
ATOM     84  C   UNL A   1      38.289  31.587  36.897  1.00  0.00     0.173 A 
ATOM     85  C   UNL A   1      39.774  33.361  36.241  1.00  0.00     0.173 A 
ATOM     86  F   UNL A   1      37.788  30.354  36.739  1.00  0.00    -0.203 F 
ATOM     87  C   UNL A   1      37.769  32.401  37.901  1.00  0.00     0.198 A 
ATOM     88  C   UNL A   1      39.273  34.159  37.264  1.00  0.00     0.198 A 
ATOM     89  F   UNL A   1      40.742  33.853  35.453  1.00  0.00    -0.203 F 
ATOM     90  F   UNL A   1      36.777  31.948  38.682  1.00  0.00    -0.200 F 
ATOM     91  C   UNL A   1      38.267  33.681  38.089  1.00  0.00     0.200 A 
ATOM     92  F   UNL A   1      39.766  35.391  37.454  1.00  0.00    -0.200 F 
ATOM     93  F   UNL A   1      37.772  34.458  39.063  1.00  0.00    -0.200 F 
ENDBRANCH  60  83
ENDBRANCH  34  35
ENDBRANCH  27  29
ENDBRANCH  26  27
ENDBRANCH  25  26
ENDBRANCH  24  25
ENDBRANCH  23  24
ENDBRANCH  22  23
ENDBRANCH  21  22
ENDBRANCH   1  21
TORSDOF 23
ENDMDL
MODEL 2
REMARK VINA RESULT:      -8.9      0.866      2.153
REMARK SMILES CC[C@](C)(C(=O)OCCOCCOCCOCCOC(=O)c1ccc(-c2c3nc(c(-c4c(F)c(F)c(F)c(F)c4F)c4ccc([nH]4)c(-c4c(F)c(F)c(F)c(F)c4F)c4nc(c(-c5c(F)c(F)c(F)c(F)c5F)c5ccc2[nH]5)C=C4)C=C3)cc1)[C@@H]1CCC[C@@H]1O
REMARK SMILES IDX 13 1 12 2 11 3 10 4 9 5 8 6 7 7 5 8 6 9 3 10 4 11 2 12 1 13
REMARK SMILES IDX 85 14 86 15 89 16 87 17 88 18 90 19 14 21 15 22 16 23 17 24
REMARK SMILES IDX 18 25 19 26 20 27 21 28 22 29 23 30 84 31 24 32 83 33 25 34
REMARK SMILES IDX 26 35 27 36 77 37 28 38 82 39 76 40 78 41 29 42 81 43 75 44
REMARK SMILES IDX 74 45 30 47 62 48 42 49 61 50 43 51 46 52 60 53 79 54 44 55
REMARK SMILES IDX 45 56 59 58 80 59 47 60 31 61 32 62 40 63 33 64 34 65 38 66
REMARK SMILES IDX 41 67 35 68 36 69 39 70 37 71 63 72 64 73 72 74 65 75 66 76
REMARK SMILES IDX 70 77 73 78 67 79 68 80 71 81 69 82 48 83 49 84 57 85 50 86
REMARK SMILES IDX 51 87 55 88 58 89 52 90 53 91 56 92 54 93
REMARK H PARENT 90 20 78 46 46 57
REMARK Flexibility Score: inf
ROOT
ATOM      1  O   UNL A   1      40.174  21.697  27.122  1.00  0.00    -0.377 OA
ENDROOT
BRANCH   1   2
ATOM      2  C   UNL A   1      40.008  22.949  26.477  1.00  0.00     0.188 C 
BRANCH   2   3
ATOM      3  C   UNL A   1      39.261  24.035  27.256  1.00  0.00     0.188 C 
BRANCH   3   4
ATOM      4  O   UNL A   1      37.918  24.161  26.839  1.00  0.00    -0.376 OA
BRANCH   4   5
ATOM      5  C   UNL A   1      37.422  23.268  25.862  1.00  0.00     0.202 C 
BRANCH   5   6
ATOM      6  C   UNL A   1      36.432  23.636  24.733  1.00  0.00     0.261 C 
BRANCH   6   7
ATOM      7  O   UNL A   1      35.218  22.891  24.579  1.00  0.00    -0.463 OA
BRANCH   7   8
ATOM      8  C   UNL A   1      35.302  21.535  24.641  1.00  0.00     0.312 C 
ATOM      9  O   UNL A   1      36.343  20.918  24.434  1.00  0.00    -0.252 OA
BRANCH   8  10
ATOM     10  C   UNL A   1      33.949  20.830  24.931  1.00  0.00     0.070 C 
ATOM     11  C   UNL A   1      33.697  20.709  26.465  1.00  0.00     0.024 C 
BRANCH  10  12
ATOM     12  C   UNL A   1      32.855  21.889  24.500  1.00  0.00     0.015 C 
ATOM     13  C   UNL A   1      31.693  22.161  25.454  1.00  0.00     0.005 C 
ENDBRANCH  10  12
BRANCH  10  14
ATOM     14  C   UNL A   1      33.735  19.459  24.143  1.00  0.00     0.035 C 
ATOM     15  C   UNL A   1      32.299  18.878  24.077  1.00  0.00     0.007 C 
ATOM     16  C   UNL A   1      34.597  18.186  24.344  1.00  0.00     0.118 C 
ATOM     17  C   UNL A   1      32.311  17.479  24.691  1.00  0.00     0.003 C 
ATOM     18  C   UNL A   1      33.737  17.182  25.093  1.00  0.00     0.032 C 
BRANCH  16  19
ATOM     19  O   UNL A   1      35.830  18.311  25.001  1.00  0.00    -0.393 OA
ATOM     20  H   UNL A   1      36.327  19.049  24.616  1.00  0.00     0.210 HD
ENDBRANCH  16  19
ENDBRANCH  10  14
ENDBRANCH   8  10
ENDBRANCH   7   8
ENDBRANCH   6   7
ENDBRANCH   5   6
ENDBRANCH   4   5
ENDBRANCH   3   4
ENDBRANCH   2   3
ENDBRANCH   1   2
BRANCH   1  21
ATOM     21  C   UNL A   1      40.130  20.521  26.319  1.00  0.00     0.188 C 
BRANCH  21  22
ATOM     22  C   UNL A   1      41.382  19.631  26.160  1.00  0.00     0.188 C 
BRANCH  22  23
ATOM     23  O   UNL A   1      42.613  20.267  26.480  1.00  0.00    -0.376 OA
BRANCH  23  24
ATOM     24  C   UNL A   1      43.629  20.270  25.488  1.00  0.00     0.202 C 
BRANCH  24  25
ATOM     25  C   UNL A   1      44.182  21.654  25.129  1.00  0.00     0.261 C 
BRANCH  25  26
ATOM     26  O   UNL A   1      43.541  22.769  25.771  1.00  0.00    -0.460 OA
BRANCH  26  27
ATOM     27  C   UNL A   1      44.017  24.008  25.532  1.00  0.00     0.338 C 
ATOM     28  O   UNL A   1      44.452  24.454  24.487  1.00  0.00    -0.246 OA
BRANCH  27  29
ATOM     29  C   UNL A   1      43.745  24.822  26.732  1.00  0.00     0.060 A 
ATOM     30  C   UNL A   1      42.933  24.290  27.741  1.00  0.00     0.016 A 
ATOM     31  C   UNL A   1      44.301  26.096  26.859  1.00  0.00     0.016 A 
ATOM     32  C   UNL A   1      42.641  25.052  28.872  1.00  0.00     0.010 A 
ATOM     33  C   UNL A   1      43.989  26.869  27.980  1.00  0.00     0.010 A 
ATOM     34  C   UNL A   1      43.130  26.362  28.970  1.00  0.00    -0.014 A 
BRANCH  34  35
ATOM     35  C   UNL A   1      42.555  27.283  29.976  1.00  0.00     0.031 A 
ATOM     36  C   UNL A   1      43.215  27.346  31.326  1.00  0.00     0.074 A 
ATOM     37  C   UNL A   1      41.482  28.046  29.705  1.00  0.00     0.049 A 
ATOM     38  N   UNL A   1      42.875  28.025  32.390  1.00  0.00    -0.248 NA
ATOM     39  C   UNL A   1      44.424  26.523  31.495  1.00  0.00     0.031 C 
ATOM     40  C   UNL A   1      40.781  28.100  28.427  1.00  0.00     0.029 A 
ATOM     41  N   UNL A   1      40.790  28.916  30.510  1.00  0.00    -0.354 N 
ATOM     42  C   UNL A   1      43.826  27.711  33.352  1.00  0.00     0.074 A 
ATOM     43  C   UNL A   1      44.738  26.758  32.759  1.00  0.00     0.031 C 
ATOM     44  C   UNL A   1      39.745  28.949  28.535  1.00  0.00     0.029 A 
ATOM     45  C   UNL A   1      39.694  29.474  29.900  1.00  0.00     0.049 A 
ATOM     46  H   UNL A   1      41.054  29.121  31.436  1.00  0.00     0.167 HD
ATOM     47  C   UNL A   1      43.933  28.182  34.616  1.00  0.00     0.037 A 
ATOM     48  C   UNL A   1      38.750  30.296  30.400  1.00  0.00     0.037 A 
ATOM     49  C   UNL A   1      43.020  29.122  35.207  1.00  0.00     0.049 A 
ATOM     50  C   UNL A   1      38.849  30.746  31.837  1.00  0.00     0.074 A 
ATOM     51  C   UNL A   1      43.048  29.670  36.476  1.00  0.00     0.029 A 
ATOM     52  N   UNL A   1      41.906  29.643  34.567  1.00  0.00    -0.354 N 
ATOM     53  N   UNL A   1      39.765  30.471  32.733  1.00  0.00    -0.248 NA
ATOM     54  C   UNL A   1      37.777  31.625  32.330  1.00  0.00     0.031 C 
ATOM     55  C   UNL A   1      41.921  30.486  36.623  1.00  0.00     0.029 A 
ATOM     56  C   UNL A   1      41.223  30.488  35.425  1.00  0.00     0.049 A 
ATOM     57  H   UNL A   1      41.640  29.443  33.640  1.00  0.00     0.167 HD
ATOM     58  C   UNL A   1      39.401  31.163  33.882  1.00  0.00     0.074 A 
ATOM     59  C   UNL A   1      38.184  31.881  33.566  1.00  0.00     0.031 C 
ATOM     60  C   UNL A   1      40.018  31.203  35.088  1.00  0.00     0.037 A 
BRANCH  47  61
ATOM     61  C   UNL A   1      45.065  27.660  35.449  1.00  0.00     0.064 A 
ATOM     62  C   UNL A   1      46.307  28.311  35.497  1.00  0.00     0.173 A 
ATOM     63  C   UNL A   1      44.900  26.501  36.222  1.00  0.00     0.173 A 
ATOM     64  F   UNL A   1      46.520  29.412  34.760  1.00  0.00    -0.203 F 
ATOM     65  C   UNL A   1      47.350  27.807  36.268  1.00  0.00     0.198 A 
ATOM     66  C   UNL A   1      45.937  26.015  37.014  1.00  0.00     0.198 A 
ATOM     67  F   UNL A   1      43.733  25.840  36.210  1.00  0.00    -0.203 F 
ATOM     68  F   UNL A   1      48.543  28.417  36.261  1.00  0.00    -0.200 F 
ATOM     69  C   UNL A   1      47.163  26.664  37.031  1.00  0.00     0.200 A 
ATOM     70  F   UNL A   1      45.751  24.915  37.757  1.00  0.00    -0.200 F 
ATOM     71  F   UNL A   1      48.166  26.182  37.777  1.00  0.00    -0.200 F 
ENDBRANCH  47  61
BRANCH  48  72
ATOM     72  C   UNL A   1      37.620  30.741  29.544  1.00  0.00     0.064 A 
ATOM     73  C   UNL A   1      37.537  32.063  29.086  1.00  0.00     0.173 A 
ATOM     74  C   UNL A   1      36.585  29.863  29.193  1.00  0.00     0.173 A 
ATOM     75  F   UNL A   1      38.487  32.948  29.419  1.00  0.00    -0.203 F 
ATOM     76  C   UNL A   1      36.452  32.494  28.324  1.00  0.00     0.198 A 
ATOM     77  C   UNL A   1      35.514  30.288  28.408  1.00  0.00     0.198 A 
ATOM     78  F   UNL A   1      36.612  28.589  29.611  1.00  0.00    -0.203 F 
ATOM     79  F   UNL A   1      36.372  33.776  27.941  1.00  0.00    -0.200 F 
ATOM     80  C   UNL A   1      35.445  31.605  27.982  1.00  0.00     0.200 A 
ATOM     81  F   UNL A   1      34.547  29.423  28.072  1.00  0.00    -0.200 F 
ATOM     82  F   UNL A   1      34.402  32.020  27.250  1.00  0.00    -0.200 F 
ENDBRANCH  48  72
BRANCH  60  83
ATOM     83  C   UNL A   1      39.415  32.082  36.146  1.00  0.00     0.064 A 
ATOM     84  C   UNL A   1      38.343  31.650  36.941  1.00  0.00     0.173 A 
ATOM     85  C   UNL A   1      39.954  33.352  36.404  1.00  0.00     0.173 A 
ATOM     86  F   UNL A   1      37.785  30.450  36.727  1.00  0.00    -0.203 F 
ATOM     87  C   UNL A   1      37.818  32.468  37.938  1.00  0.00     0.198 A 
ATOM     88  C   UNL A   1      39.445  34.154  37.421  1.00  0.00     0.198 A 
ATOM     89  F   UNL A   1      40.986  33.808  35.678  1.00  0.00    -0.203 F 
ATOM     90  F   UNL A   1      36.764  32.053  38.657  1.00  0.00    -0.200 F 
ATOM     91  C   UNL A   1      38.374  33.715  38.183  1.00  0.00     0.200 A 
ATOM     92  F   UNL A   1      39.994  35.353  37.666  1.00  0.00    -0.200 F 
ATOM     93  F   UNL A   1      37.873  34.496  39.149  1.00  0.00    -0.200 F 
ENDBRANCH  60  83
ENDBRANCH  34  35
ENDBRANCH  27  29
ENDBRANCH  26  27
ENDBRANCH  25  26
ENDBRANCH  24  25
ENDBRANCH  23  24
ENDBRANCH  22  23
ENDBRANCH  21  22
ENDBRANCH   1  21
TORSDOF 23
ENDMDL
MODEL 3
REMARK VINA RESULT:      -8.9      0.927      2.073
REMARK SMILES CC[C@](C)(C(=O)OCCOCCOCCOCCOC(=O)c1ccc(-c2c3nc(c(-c4c(F)c(F)c(F)c(F)c4F)c4ccc([nH]4)c(-c4c(F)c(F)c(F)c(F)c4F)c4nc(c(-c5c(F)c(F)c(F)c(F)c5F)c5ccc2[nH]5)C=C4)C=C3)cc1)[C@@H]1CCC[C@@H]1O
REMARK SMILES IDX 13 1 12 2 11 3 10 4 9 5 8 6 7 7 5 8 6 9 3 10 4 11 2 12 1 13
REMARK SMILES IDX 85 14 86 15 89 16 87 17 88 18 90 19 14 21 15 22 16 23 17 24
REMARK SMILES IDX 18 25 19 26 20 27 21 28 22 29 23 30 84 31 24 32 83 33 25 34
REMARK SMILES IDX 26 35 27 36 77 37 28 38 82 39 76 40 78 41 29 42 81 43 75 44
REMARK SMILES IDX 74 45 30 47 62 48 42 49 61 50 43 51 46 52 60 53 79 54 44 55
REMARK SMILES IDX 45 56 59 58 80 59 47 60 31 61 32 62 40 63 33 64 34 65 38 66
REMARK SMILES IDX 41 67 35 68 36 69 39 70 37 71 63 72 64 73 72 74 65 75 66 76
REMARK SMILES IDX 70 77 73 78 67 79 68 80 71 81 69 82 48 83 49 84 57 85 50 86
REMARK SMILES IDX 51 87 55 88 58 89 52 90 53 91 56 92 54 93
REMARK H PARENT 90 20 78 46 46 57
REMARK Flexibility Score: inf
ROOT
ATOM      1  O   UNL A   1      40.015  21.700  26.953  1.00  0.00    -0.377 OA
ENDROOT
BRANCH   1   2
ATOM      2  C   UNL A   1      39.890  22.949  26.293  1.00  0.00     0.188 C 
BRANCH   2   3
ATOM      3  C   UNL A   1      39.206  24.077  27.070  1.00  0.00     0.188 C 
BRANCH   3   4
ATOM      4  O   UNL A   1      37.926  24.378  26.556  1.00  0.00    -0.376 OA
BRANCH   4   5
ATOM      5  C   UNL A   1      37.257  23.403  25.782  1.00  0.00     0.202 C 
BRANCH   5   6
ATOM      6  C   UNL A   1      36.327  23.694  24.582  1.00  0.00     0.261 C 
BRANCH   6   7
ATOM      7  O   UNL A   1      34.974  23.223  24.598  1.00  0.00    -0.463 OA
BRANCH   7   8
ATOM      8  C   UNL A   1      34.148  23.653  23.607  1.00  0.00     0.312 C 
ATOM      9  O   UNL A   1      34.477  23.679  22.424  1.00  0.00    -0.252 OA
BRANCH   8  10
ATOM     10  C   UNL A   1      32.773  24.173  24.109  1.00  0.00     0.070 C 
ATOM     11  C   UNL A   1      31.866  24.601  22.916  1.00  0.00     0.024 C 
BRANCH  10  12
ATOM     12  C   UNL A   1      32.034  22.878  24.638  1.00  0.00     0.015 C 
ATOM     13  C   UNL A   1      32.141  21.595  23.815  1.00  0.00     0.005 C 
ENDBRANCH  10  12
BRANCH  10  14
ATOM     14  C   UNL A   1      32.862  25.271  25.263  1.00  0.00     0.035 C 
ATOM     15  C   UNL A   1      31.709  25.331  26.296  1.00  0.00     0.007 C 
ATOM     16  C   UNL A   1      33.171  26.772  25.026  1.00  0.00     0.118 C 
ATOM     17  C   UNL A   1      31.090  26.727  26.256  1.00  0.00     0.003 C 
ATOM     18  C   UNL A   1      31.874  27.531  25.245  1.00  0.00     0.032 C 
BRANCH  16  19
ATOM     19  O   UNL A   1      33.722  27.154  23.794  1.00  0.00    -0.393 OA
ATOM     20  H   UNL A   1      34.029  26.367  23.319  1.00  0.00     0.210 HD
ENDBRANCH  16  19
ENDBRANCH  10  14
ENDBRANCH   8  10
ENDBRANCH   7   8
ENDBRANCH   6   7
ENDBRANCH   5   6
ENDBRANCH   4   5
ENDBRANCH   3   4
ENDBRANCH   2   3
ENDBRANCH   1   2
BRANCH   1  21
ATOM     21  C   UNL A   1      40.021  20.520  26.154  1.00  0.00     0.188 C 
BRANCH  21  22
ATOM     22  C   UNL A   1      41.241  19.574  26.160  1.00  0.00     0.188 C 
BRANCH  22  23
ATOM     23  O   UNL A   1      42.459  20.171  26.584  1.00  0.00    -0.376 OA
BRANCH  23  24
ATOM     24  C   UNL A   1      43.580  20.065  25.718  1.00  0.00     0.202 C 
BRANCH  24  25
ATOM     25  C   UNL A   1      44.206  21.400  25.299  1.00  0.00     0.261 C 
BRANCH  25  26
ATOM     26  O   UNL A   1      43.468  22.578  25.665  1.00  0.00    -0.460 OA
BRANCH  26  27
ATOM     27  C   UNL A   1      44.026  23.784  25.432  1.00  0.00     0.338 C 
ATOM     28  O   UNL A   1      44.505  24.199  24.392  1.00  0.00    -0.246 OA
BRANCH  27  29
ATOM     29  C   UNL A   1      43.789  24.616  26.626  1.00  0.00     0.060 A 
ATOM     30  C   UNL A   1      42.967  24.120  27.645  1.00  0.00     0.016 A 
ATOM     31  C   UNL A   1      44.386  25.873  26.739  1.00  0.00     0.016 A 
ATOM     32  C   UNL A   1      42.708  24.900  28.771  1.00  0.00     0.010 A 
ATOM     33  C   UNL A   1      44.107  26.664  27.854  1.00  0.00     0.010 A 
ATOM     34  C   UNL A   1      43.239  26.195  28.854  1.00  0.00    -0.014 A 
BRANCH  34  35
ATOM     35  C   UNL A   1      42.701  27.142  29.856  1.00  0.00     0.031 A 
ATOM     36  C   UNL A   1      43.394  27.220  31.188  1.00  0.00     0.074 A 
ATOM     37  C   UNL A   1      41.633  27.914  29.597  1.00  0.00     0.049 A 
ATOM     38  N   UNL A   1      43.090  27.925  32.247  1.00  0.00    -0.248 NA
ATOM     39  C   UNL A   1      44.596  26.385  31.345  1.00  0.00     0.031 C 
ATOM     40  C   UNL A   1      40.902  27.954  28.335  1.00  0.00     0.029 A 
ATOM     41  N   UNL A   1      40.972  28.809  30.401  1.00  0.00    -0.354 N 
ATOM     42  C   UNL A   1      44.058  27.615  33.192  1.00  0.00     0.074 A 
ATOM     43  C   UNL A   1      44.943  26.638  32.596  1.00  0.00     0.031 C 
ATOM     44  C   UNL A   1      39.880  28.820  28.451  1.00  0.00     0.029 A 
ATOM     45  C   UNL A   1      39.869  29.371  29.807  1.00  0.00     0.049 A 
ATOM     46  H   UNL A   1      41.261  29.028  31.316  1.00  0.00     0.167 HD
ATOM     47  C   UNL A   1      44.203  28.108  34.444  1.00  0.00     0.037 A 
ATOM     48  C   UNL A   1      38.949  30.215  30.314  1.00  0.00     0.037 A 
ATOM     49  C   UNL A   1      43.317  29.071  35.039  1.00  0.00     0.049 A 
ATOM     50  C   UNL A   1      39.088  30.690  31.739  1.00  0.00     0.074 A 
ATOM     51  C   UNL A   1      43.382  29.643  36.296  1.00  0.00     0.029 A 
ATOM     52  N   UNL A   1      42.194  29.596  34.416  1.00  0.00    -0.354 N 
ATOM     53  N   UNL A   1      40.021  30.419  32.618  1.00  0.00    -0.248 NA
ATOM     54  C   UNL A   1      38.040  31.593  32.241  1.00  0.00     0.031 C 
ATOM     55  C   UNL A   1      42.270  30.477  36.454  1.00  0.00     0.029 A 
ATOM     56  C   UNL A   1      41.544  30.467  35.273  1.00  0.00     0.049 A 
ATOM     57  H   UNL A   1      41.904  29.382  33.500  1.00  0.00     0.167 HD
ATOM     58  C   UNL A   1      39.694  31.138  33.761  1.00  0.00     0.074 A 
ATOM     59  C   UNL A   1      38.480  31.866  33.462  1.00  0.00     0.031 C 
ATOM     60  C   UNL A   1      40.341  31.192  34.952  1.00  0.00     0.037 A 
BRANCH  47  61
ATOM     61  C   UNL A   1      45.347  27.586  35.260  1.00  0.00     0.064 A 
ATOM     62  C   UNL A   1      46.602  28.214  35.258  1.00  0.00     0.173 A 
ATOM     63  C   UNL A   1      45.182  26.450  36.066  1.00  0.00     0.173 A 
ATOM     64  F   UNL A   1      46.815  29.293  34.487  1.00  0.00    -0.203 F 
ATOM     65  C   UNL A   1      47.656  27.711  36.013  1.00  0.00     0.198 A 
ATOM     66  C   UNL A   1      46.231  25.965  36.843  1.00  0.00     0.198 A 
ATOM     67  F   UNL A   1      44.004  25.811  36.102  1.00  0.00    -0.203 F 
ATOM     68  F   UNL A   1      48.859  28.298  35.958  1.00  0.00    -0.200 F 
ATOM     69  C   UNL A   1      47.468  26.590  36.810  1.00  0.00     0.200 A 
ATOM     70  F   UNL A   1      46.046  24.888  37.618  1.00  0.00    -0.200 F 
ATOM     71  F   UNL A   1      48.483  26.108  37.541  1.00  0.00    -0.200 F 
ENDBRANCH  47  61
BRANCH  48  72
ATOM     72  C   UNL A   1      37.804  30.660  29.476  1.00  0.00     0.064 A 
ATOM     73  C   UNL A   1      37.722  31.977  29.004  1.00  0.00     0.173 A 
ATOM     74  C   UNL A   1      36.754  29.787  29.158  1.00  0.00     0.173 A 
ATOM     75  F   UNL A   1      38.687  32.858  29.306  1.00  0.00    -0.203 F 
ATOM     76  C   UNL A   1      36.625  32.408  28.260  1.00  0.00     0.198 A 
ATOM     77  C   UNL A   1      35.670  30.211  28.391  1.00  0.00     0.198 A 
ATOM     78  F   UNL A   1      36.780  28.518  29.590  1.00  0.00    -0.203 F 
ATOM     79  F   UNL A   1      36.548  33.686  27.863  1.00  0.00    -0.200 F 
ATOM     80  C   UNL A   1      35.603  31.524  27.950  1.00  0.00     0.200 A 
ATOM     81  F   UNL A   1      34.690  29.351  28.086  1.00  0.00    -0.200 F 
ATOM     82  F   UNL A   1      34.549  31.940  27.236  1.00  0.00    -0.200 F 
ENDBRANCH  48  72
BRANCH  60  83
ATOM     83  C   UNL A   1      39.775  32.099  36.007  1.00  0.00     0.064 A 
ATOM     84  C   UNL A   1      40.293  33.383  36.230  1.00  0.00     0.173 A 
ATOM     85  C   UNL A   1      38.666  31.696  36.767  1.00  0.00     0.173 A 
ATOM     86  F   UNL A   1      41.360  33.811  35.538  1.00  0.00    -0.203 F 
ATOM     87  C   UNL A   1      39.735  34.221  37.192  1.00  0.00     0.198 A 
ATOM     88  C   UNL A   1      38.094  32.548  37.706  1.00  0.00     0.198 A 
ATOM     89  F   UNL A   1      38.128  30.481  36.586  1.00  0.00    -0.203 F 
ATOM     90  F   UNL A   1      40.274  35.428  37.420  1.00  0.00    -0.200 F 
ATOM     91  C   UNL A   1      38.632  33.807  37.923  1.00  0.00     0.200 A 
ATOM     92  F   UNL A   1      37.017  32.152  38.401  1.00  0.00    -0.200 F 
ATOM     93  F   UNL A   1      38.091  34.619  38.842  1.00  0.00    -0.200 F 
ENDBRANCH  60  83
ENDBRANCH  34  35
ENDBRANCH  27  29
ENDBRANCH  26  27
ENDBRANCH  25  26
ENDBRANCH  24  25
ENDBRANCH  23  24
ENDBRANCH  22  23
ENDBRANCH  21  22
ENDBRANCH   1  21
TORSDOF 23
ENDMDL
