MODEL 1
REMARK VINA RESULT:     -14.6      0.000      0.000
REMARK SMILES Cc1ccc(-c2cc(C(=O)OCCOCCOCCOCCOC(=O)c3ccc(-c4c5nc(c(-c6c(F)c(F)c(F)c(F)c6F)c6ccc([nH]6)c(-c6c(F)c(F)c(F)c(F)c6F)c6nc(c(-c7c(F)c(F)c(F)c(F)c7F)c7ccc4[nH]7)C=C6)C=C5)cc3)c3c(-c4cccc([N+](=O)[O-])c4)[nH]nc3n2)cc1
REMARK SMILES IDX 17 1 16 2 15 3 14 4 13 5 12 6 11 7 9 8 10 9 8 10 6 11 7 12
REMARK SMILES IDX 103 13 102 14 89 15 101 16 90 17 100 18 5 20 1 21 2 22 3 23
REMARK SMILES IDX 105 24 4 25 104 26 91 27 92 28 99 29 93 30 95 31 94 32 96 33
REMARK SMILES IDX 97 34 98 35 18 36 19 37 20 38 21 39 22 40 23 41 24 42 25 43
REMARK SMILES IDX 26 44 27 45 88 46 28 47 87 48 29 49 30 50 31 51 81 52 32 53
REMARK SMILES IDX 86 54 80 55 82 56 33 57 85 58 79 59 78 60 34 62 66 63 46 64
REMARK SMILES IDX 65 65 47 66 50 67 64 68 83 69 48 70 49 71 63 73 84 74 51 75
REMARK SMILES IDX 35 76 36 77 44 78 37 79 38 80 42 81 45 82 39 83 40 84 43 85
REMARK SMILES IDX 41 86 67 87 68 88 76 89 69 90 70 91 74 92 77 93 71 94 72 95
REMARK SMILES IDX 75 96 73 97 52 98 53 99 61 100 54 101 55 102 59 103 62 104
REMARK SMILES IDX 56 105 57 106 60 107 58 108
REMARK H PARENT 100 19 82 61 50 72
REMARK Flexibility Score: inf
ROOT
ATOM      1  O   UNL A   1      33.967  34.220  29.890  1.00  0.00    -0.377 OA
ENDROOT
BRANCH   1   2
ATOM      2  C   UNL A   1      34.406  33.438  28.779  1.00  0.00     0.188 C 
BRANCH   2   3
ATOM      3  C   UNL A   1      34.379  31.786  28.458  1.00  0.00     0.188 C 
BRANCH   3   4
ATOM      4  O   UNL A   1      33.663  30.632  27.264  1.00  0.00    -0.376 OA
BRANCH   4   5
ATOM      5  C   UNL A   1      33.386  28.901  27.158  1.00  0.00     0.202 C 
BRANCH   5   6
ATOM      6  C   UNL A   1      31.835  27.945  27.624  1.00  0.00     0.261 C 
BRANCH   6   7
ATOM      7  O   UNL A   1      31.286  26.392  26.826  1.00  0.00    -0.460 OA
BRANCH   7   8
ATOM      8  C   UNL A   1      31.152  25.581  25.570  1.00  0.00     0.339 C 
ATOM      9  O   UNL A   1      30.081  25.113  25.185  1.00  0.00    -0.246 OA
BRANCH   8  10
ATOM     10  C   UNL A   1      32.258  25.141  24.525  1.00  0.00     0.075 A 
ATOM     11  C   UNL A   1      34.122  23.644  23.566  1.00  0.00     0.074 A 
ATOM     12  C   UNL A   1      33.347  24.230  24.603  1.00  0.00     0.045 A 
ATOM     13  N   UNL A   1      34.013  23.990  22.281  1.00  0.00    -0.226 NA
ATOM     14  C   UNL A   1      33.158  25.026  22.111  1.00  0.00     0.182 A 
ATOM     15  C   UNL A   1      32.335  25.608  23.177  1.00  0.00     0.061 A 
ATOM     16  N   UNL A   1      33.009  25.660  20.951  1.00  0.00    -0.154 NA
ATOM     17  C   UNL A   1      31.830  26.760  22.575  1.00  0.00     0.076 A 
ATOM     18  N   UNL A   1      32.204  26.674  21.254  1.00  0.00    -0.275 N 
ATOM     19  H   UNL A   1      31.897  27.320  20.578  1.00  0.00     0.190 HD
BRANCH  11  20
ATOM     20  C   UNL A   1      35.101  22.585  23.928  1.00  0.00     0.000 A 
ATOM     21  C   UNL A   1      37.949  19.570  25.254  1.00  0.00     0.044 C 
ATOM     22  C   UNL A   1      36.963  20.616  24.817  1.00  0.00    -0.051 A 
ATOM     23  C   UNL A   1      37.395  21.767  24.146  1.00  0.00     0.004 A 
ATOM     24  C   UNL A   1      35.594  20.446  25.032  1.00  0.00     0.004 A 
ATOM     25  C   UNL A   1      36.477  22.738  23.708  1.00  0.00     0.010 A 
ATOM     26  C   UNL A   1      34.680  21.419  24.598  1.00  0.00     0.010 A 
ENDBRANCH  11  20
BRANCH  17  27
ATOM     27  C   UNL A   1      31.149  27.977  23.003  1.00  0.00     0.007 A 
ATOM     28  C   UNL A   1      31.721  28.785  23.994  1.00  0.00     0.011 A 
ATOM     29  C   UNL A   1      29.897  28.321  22.477  1.00  0.00     0.096 A 
ATOM     30  C   UNL A   1      31.085  29.953  24.417  1.00  0.00     0.008 A 
ATOM     31  C   UNL A   1      29.270  29.505  22.900  1.00  0.00     0.270 A 
ATOM     32  C   UNL A   1      29.863  30.328  23.863  1.00  0.00     0.085 A 
BRANCH  31  33
ATOM     33  N   UNL A   1      28.040  29.952  22.232  1.00  0.00     0.062 N 
ATOM     34  O   UNL A   1      28.047  30.020  20.994  1.00  0.00    -0.258 OA
ATOM     35  O   UNL A   1      27.048  30.172  22.942  1.00  0.00    -0.258 OA
ENDBRANCH  31  33
ENDBRANCH  17  27
ENDBRANCH   8  10
ENDBRANCH   7   8
ENDBRANCH   6   7
ENDBRANCH   5   6
ENDBRANCH   4   5
ENDBRANCH   3   4
ENDBRANCH   2   3
ENDBRANCH   1   2
BRANCH   1  36
ATOM     36  C   UNL A   1      34.546  34.244  31.181  1.00  0.00     0.188 C 
BRANCH  36  37
ATOM     37  C   UNL A   1      34.383  35.447  32.079  1.00  0.00     0.188 C 
BRANCH  37  38
ATOM     38  O   UNL A   1      35.231  35.311  33.204  1.00  0.00    -0.376 OA
BRANCH  38  39
ATOM     39  C   UNL A   1      36.348  34.464  32.976  1.00  0.00     0.202 C 
BRANCH  39  40
ATOM     40  C   UNL A   1      36.671  33.594  34.200  1.00  0.00     0.261 C 
BRANCH  40  41
ATOM     41  O   UNL A   1      38.097  33.368  34.284  1.00  0.00    -0.460 OA
BRANCH  41  42
ATOM     42  C   UNL A   1      38.596  32.996  35.498  1.00  0.00     0.338 C 
ATOM     43  O   UNL A   1      38.079  32.163  36.256  1.00  0.00    -0.246 OA
BRANCH  42  44
ATOM     44  C   UNL A   1      39.644  33.958  35.920  1.00  0.00     0.060 A 
ATOM     45  C   UNL A   1      39.575  35.341  35.743  1.00  0.00     0.016 A 
ATOM     46  C   UNL A   1      40.872  33.464  36.203  1.00  0.00     0.016 A 
ATOM     47  C   UNL A   1      40.748  36.125  35.419  1.00  0.00     0.010 A 
ATOM     48  C   UNL A   1      41.958  34.252  35.836  1.00  0.00     0.010 A 
ATOM     49  C   UNL A   1      41.994  35.554  35.137  1.00  0.00    -0.014 A 
BRANCH  49  50
ATOM     50  C   UNL A   1      43.332  36.322  34.066  1.00  0.00     0.031 A 
ATOM     51  C   UNL A   1      43.934  38.240  34.246  1.00  0.00     0.074 A 
ATOM     52  C   UNL A   1      43.637  35.365  33.018  1.00  0.00     0.049 A 
ATOM     53  N   UNL A   1      43.844  39.189  33.260  1.00  0.00    -0.248 NA
ATOM     54  C   UNL A   1      43.916  39.390  35.421  1.00  0.00     0.031 C 
ATOM     55  C   UNL A   1      44.568  35.325  31.856  1.00  0.00     0.029 A 
ATOM     56  N   UNL A   1      42.976  34.143  32.672  1.00  0.00    -0.354 N 
ATOM     57  C   UNL A   1      44.067  40.510  33.494  1.00  0.00     0.074 A 
ATOM     58  C   UNL A   1      43.908  40.613  34.887  1.00  0.00     0.031 C 
ATOM     59  C   UNL A   1      44.479  34.306  31.013  1.00  0.00     0.029 A 
ATOM     60  C   UNL A   1      43.215  33.813  31.308  1.00  0.00     0.049 A 
ATOM     61  H   UNL A   1      42.431  33.605  33.290  1.00  0.00     0.167 HD
ATOM     62  C   UNL A   1      44.436  41.372  32.495  1.00  0.00     0.037 A 
ATOM     63  C   UNL A   1      42.300  33.887  30.310  1.00  0.00     0.037 A 
ATOM     64  C   UNL A   1      44.723  40.677  31.224  1.00  0.00     0.049 A 
ATOM     65  C   UNL A   1      42.491  35.112  29.362  1.00  0.00     0.074 A 
ATOM     66  C   UNL A   1      45.917  40.188  30.710  1.00  0.00     0.029 A 
ATOM     67  N   UNL A   1      43.724  40.096  30.436  1.00  0.00    -0.354 N 
ATOM     68  N   UNL A   1      42.892  36.328  29.707  1.00  0.00    -0.248 NA
ATOM     69  C   UNL A   1      42.473  34.959  27.909  1.00  0.00     0.031 C 
ATOM     70  C   UNL A   1      45.621  39.158  29.773  1.00  0.00     0.029 A 
ATOM     71  C   UNL A   1      44.242  39.092  29.599  1.00  0.00     0.049 A 
ATOM     72  H   UNL A   1      42.776  40.358  30.464  1.00  0.00     0.167 HD
ATOM     73  C   UNL A   1      43.106  37.118  28.581  1.00  0.00     0.074 A 
ATOM     74  C   UNL A   1      42.872  36.175  27.491  1.00  0.00     0.031 C 
ATOM     75  C   UNL A   1      43.466  38.457  28.522  1.00  0.00     0.037 A 
BRANCH  62  76
ATOM     76  C   UNL A   1      44.954  42.747  32.893  1.00  0.00     0.064 A 
ATOM     77  C   UNL A   1      46.245  42.932  33.424  1.00  0.00     0.173 A 
ATOM     78  C   UNL A   1      44.142  43.902  32.900  1.00  0.00     0.173 A 
ATOM     79  F   UNL A   1      47.177  41.974  33.347  1.00  0.00    -0.203 F 
ATOM     80  C   UNL A   1      46.620  44.112  34.078  1.00  0.00     0.198 A 
ATOM     81  C   UNL A   1      44.489  45.057  33.611  1.00  0.00     0.198 A 
ATOM     82  F   UNL A   1      42.983  43.928  32.226  1.00  0.00    -0.203 F 
ATOM     83  F   UNL A   1      47.847  44.220  34.608  1.00  0.00    -0.200 F 
ATOM     84  C   UNL A   1      45.722  45.151  34.223  1.00  0.00     0.200 A 
ATOM     85  F   UNL A   1      43.605  46.058  33.736  1.00  0.00    -0.200 F 
ATOM     86  F   UNL A   1      46.045  46.236  34.943  1.00  0.00    -0.200 F 
ENDBRANCH  62  76
BRANCH  63  87
ATOM     87  C   UNL A   1      41.204  32.962  30.685  1.00  0.00     0.064 A 
ATOM     88  C   UNL A   1      39.918  33.581  30.794  1.00  0.00     0.173 A 
ATOM     89  C   UNL A   1      41.239  31.622  30.312  1.00  0.00     0.173 A 
ATOM     90  F   UNL A   1      39.828  34.882  31.127  1.00  0.00    -0.203 F 
ATOM     91  C   UNL A   1      38.775  32.966  30.294  1.00  0.00     0.198 A 
ATOM     92  C   UNL A   1      40.066  30.982  29.894  1.00  0.00     0.198 A 
ATOM     93  F   UNL A   1      42.415  30.999  30.168  1.00  0.00    -0.203 F 
ATOM     94  F   UNL A   1      37.652  33.679  30.122  1.00  0.00    -0.200 F 
ATOM     95  C   UNL A   1      38.856  31.670  29.829  1.00  0.00     0.200 A 
ATOM     96  F   UNL A   1      40.135  29.742  29.391  1.00  0.00    -0.200 F 
ATOM     97  F   UNL A   1      37.793  31.114  29.228  1.00  0.00    -0.200 F 
ENDBRANCH  63  87
BRANCH  75  98
ATOM     98  C   UNL A   1      43.222  39.373  27.306  1.00  0.00     0.064 A 
ATOM     99  C   UNL A   1      41.992  39.993  27.038  1.00  0.00     0.173 A 
ATOM    100  C   UNL A   1      44.302  39.841  26.500  1.00  0.00     0.173 A 
ATOM    101  F   UNL A   1      40.900  39.731  27.767  1.00  0.00    -0.203 F 
ATOM    102  C   UNL A   1      41.847  40.968  26.045  1.00  0.00     0.198 A 
ATOM    103  C   UNL A   1      44.170  40.871  25.571  1.00  0.00     0.198 A 
ATOM    104  F   UNL A   1      45.544  39.349  26.600  1.00  0.00    -0.203 F 
ATOM    105  F   UNL A   1      40.637  41.495  25.814  1.00  0.00    -0.200 F 
ATOM    106  C   UNL A   1      42.938  41.430  25.335  1.00  0.00     0.200 A 
ATOM    107  F   UNL A   1      45.256  41.334  24.933  1.00  0.00    -0.200 F 
ATOM    108  F   UNL A   1      42.806  42.422  24.447  1.00  0.00    -0.200 F 
ENDBRANCH  75  98
ENDBRANCH  49  50
ENDBRANCH  42  44
ENDBRANCH  41  42
ENDBRANCH  40  41
ENDBRANCH  39  40
ENDBRANCH  38  39
ENDBRANCH  37  38
ENDBRANCH  36  37
ENDBRANCH   1  36
TORSDOF 23
ENDMDL
MODEL 2
REMARK VINA RESULT:     -13.5      6.610      9.280
REMARK SMILES Cc1ccc(-c2cc(C(=O)OCCOCCOCCOCCOC(=O)c3ccc(-c4c5nc(c(-c6c(F)c(F)c(F)c(F)c6F)c6ccc([nH]6)c(-c6c(F)c(F)c(F)c(F)c6F)c6nc(c(-c7c(F)c(F)c(F)c(F)c7F)c7ccc4[nH]7)C=C6)C=C5)cc3)c3c(-c4cccc([N+](=O)[O-])c4)[nH]nc3n2)cc1
REMARK SMILES IDX 17 1 16 2 15 3 14 4 13 5 12 6 11 7 9 8 10 9 8 10 6 11 7 12
REMARK SMILES IDX 103 13 102 14 89 15 101 16 90 17 100 18 5 20 1 21 2 22 3 23
REMARK SMILES IDX 105 24 4 25 104 26 91 27 92 28 99 29 93 30 95 31 94 32 96 33
REMARK SMILES IDX 97 34 98 35 18 36 19 37 20 38 21 39 22 40 23 41 24 42 25 43
REMARK SMILES IDX 26 44 27 45 88 46 28 47 87 48 29 49 30 50 31 51 81 52 32 53
REMARK SMILES IDX 86 54 80 55 82 56 33 57 85 58 79 59 78 60 34 62 66 63 46 64
REMARK SMILES IDX 65 65 47 66 50 67 64 68 83 69 48 70 49 71 63 73 84 74 51 75
REMARK SMILES IDX 35 76 36 77 44 78 37 79 38 80 42 81 45 82 39 83 40 84 43 85
REMARK SMILES IDX 41 86 67 87 68 88 76 89 69 90 70 91 74 92 77 93 71 94 72 95
REMARK SMILES IDX 75 96 73 97 52 98 53 99 61 100 54 101 55 102 59 103 62 104
REMARK SMILES IDX 56 105 57 106 60 107 58 108
REMARK H PARENT 100 19 82 61 50 72
REMARK Flexibility Score: inf
ROOT
ATOM      1  O   UNL A   1      32.585  35.212  30.242  1.00  0.00    -0.377 OA
ENDROOT
BRANCH   1   2
ATOM      2  C   UNL A   1      33.237  34.514  29.181  1.00  0.00     0.188 C 
BRANCH   2   3
ATOM      3  C   UNL A   1      32.795  34.170  27.594  1.00  0.00     0.188 C 
BRANCH   3   4
ATOM      4  O   UNL A   1      31.927  32.889  26.659  1.00  0.00    -0.376 OA
BRANCH   4   5
ATOM      5  C   UNL A   1      31.314  31.271  26.960  1.00  0.00     0.202 C 
BRANCH   5   6
ATOM      6  C   UNL A   1      32.254  29.644  26.885  1.00  0.00     0.261 C 
BRANCH   6   7
ATOM      7  O   UNL A   1      32.634  28.727  25.347  1.00  0.00    -0.460 OA
BRANCH   7   8
ATOM      8  C   UNL A   1      33.376  27.604  24.682  1.00  0.00     0.339 C 
ATOM      9  O   UNL A   1      34.059  27.759  23.670  1.00  0.00    -0.246 OA
BRANCH   8  10
ATOM     10  C   UNL A   1      33.447  26.069  25.064  1.00  0.00     0.075 A 
ATOM     11  C   UNL A   1      34.593  23.879  25.789  1.00  0.00     0.074 A 
ATOM     12  C   UNL A   1      34.529  25.151  25.159  1.00  0.00     0.045 A 
ATOM     13  N   UNL A   1      33.530  23.261  26.311  1.00  0.00    -0.226 NA
ATOM     14  C   UNL A   1      32.386  23.945  26.072  1.00  0.00     0.182 A 
ATOM     15  C   UNL A   1      32.325  25.273  25.451  1.00  0.00     0.061 A 
ATOM     16  N   UNL A   1      31.179  23.456  26.342  1.00  0.00    -0.154 NA
ATOM     17  C   UNL A   1      30.961  25.434  25.212  1.00  0.00     0.076 A 
ATOM     18  N   UNL A   1      30.354  24.368  25.834  1.00  0.00    -0.275 N 
ATOM     19  H   UNL A   1      29.376  24.285  25.899  1.00  0.00     0.190 HD
BRANCH  11  20
ATOM     20  C   UNL A   1      35.913  23.200  25.880  1.00  0.00     0.000 A 
ATOM     21  C   UNL A   1      39.851  21.342  25.906  1.00  0.00     0.044 C 
ATOM     22  C   UNL A   1      38.498  21.995  25.879  1.00  0.00    -0.051 A 
ATOM     23  C   UNL A   1      37.361  21.263  25.515  1.00  0.00     0.004 A 
ATOM     24  C   UNL A   1      38.338  23.330  26.255  1.00  0.00     0.004 A 
ATOM     25  C   UNL A   1      36.087  21.858  25.515  1.00  0.00     0.010 A 
ATOM     26  C   UNL A   1      37.065  23.922  26.250  1.00  0.00     0.010 A 
ENDBRANCH  11  20
BRANCH  17  27
ATOM     27  C   UNL A   1      30.111  26.332  24.437  1.00  0.00     0.007 A 
ATOM     28  C   UNL A   1      28.719  26.213  24.511  1.00  0.00     0.011 A 
ATOM     29  C   UNL A   1      30.673  27.279  23.570  1.00  0.00     0.096 A 
ATOM     30  C   UNL A   1      27.889  27.063  23.778  1.00  0.00     0.008 A 
ATOM     31  C   UNL A   1      29.831  28.139  22.845  1.00  0.00     0.270 A 
ATOM     32  C   UNL A   1      28.440  28.040  22.951  1.00  0.00     0.085 A 
BRANCH  31  33
ATOM     33  N   UNL A   1      30.415  29.238  22.064  1.00  0.00     0.062 N 
ATOM     34  O   UNL A   1      29.642  29.962  21.419  1.00  0.00    -0.258 OA
ATOM     35  O   UNL A   1      31.638  29.417  22.149  1.00  0.00    -0.258 OA
ENDBRANCH  31  33
ENDBRANCH  17  27
ENDBRANCH   8  10
ENDBRANCH   7   8
ENDBRANCH   6   7
ENDBRANCH   5   6
ENDBRANCH   4   5
ENDBRANCH   3   4
ENDBRANCH   2   3
ENDBRANCH   1   2
BRANCH   1  36
ATOM     36  C   UNL A   1      32.913  36.502  30.725  1.00  0.00     0.188 C 
BRANCH  36  37
ATOM     37  C   UNL A   1      33.442  36.692  32.126  1.00  0.00     0.188 C 
BRANCH  37  38
ATOM     38  O   UNL A   1      33.452  35.445  32.796  1.00  0.00    -0.376 OA
BRANCH  38  39
ATOM     39  C   UNL A   1      34.499  35.319  33.746  1.00  0.00     0.202 C 
BRANCH  39  40
ATOM     40  C   UNL A   1      35.835  34.948  33.083  1.00  0.00     0.261 C 
BRANCH  40  41
ATOM     41  O   UNL A   1      36.806  34.590  34.094  1.00  0.00    -0.460 OA
BRANCH  41  42
ATOM     42  C   UNL A   1      38.079  34.341  33.672  1.00  0.00     0.338 C 
ATOM     43  O   UNL A   1      38.604  34.834  32.664  1.00  0.00    -0.246 OA
BRANCH  42  44
ATOM     44  C   UNL A   1      38.619  33.161  34.392  1.00  0.00     0.060 A 
ATOM     45  C   UNL A   1      39.972  32.937  34.650  1.00  0.00     0.016 A 
ATOM     46  C   UNL A   1      37.809  32.087  34.534  1.00  0.00     0.016 A 
ATOM     47  C   UNL A   1      40.543  31.608  34.609  1.00  0.00     0.010 A 
ATOM     48  C   UNL A   1      38.416  30.838  34.451  1.00  0.00     0.010 A 
ATOM     49  C   UNL A   1      39.826  30.482  34.191  1.00  0.00    -0.014 A 
BRANCH  49  50
ATOM     50  C   UNL A   1      40.569  28.930  33.438  1.00  0.00     0.031 A 
ATOM     51  C   UNL A   1      42.444  28.293  33.829  1.00  0.00     0.074 A 
ATOM     52  C   UNL A   1      39.643  28.467  32.419  1.00  0.00     0.049 A 
ATOM     53  N   UNL A   1      43.438  28.149  32.894  1.00  0.00    -0.248 NA
ATOM     54  C   UNL A   1      43.543  28.490  35.036  1.00  0.00     0.031 C 
ATOM     55  C   UNL A   1      39.605  27.331  31.458  1.00  0.00     0.029 A 
ATOM     56  N   UNL A   1      38.473  29.100  31.890  1.00  0.00    -0.354 N 
ATOM     57  C   UNL A   1      44.734  27.920  33.235  1.00  0.00     0.074 A 
ATOM     58  C   UNL A   1      44.786  28.342  34.575  1.00  0.00     0.031 C 
ATOM     59  C   UNL A   1      38.628  27.298  30.562  1.00  0.00     0.029 A 
ATOM     60  C   UNL A   1      38.189  28.615  30.583  1.00  0.00     0.049 A 
ATOM     61  H   UNL A   1      37.938  29.777  32.363  1.00  0.00     0.167 HD
ATOM     62  C   UNL A   1      45.617  27.328  32.371  1.00  0.00     0.037 A 
ATOM     63  C   UNL A   1      38.352  29.314  29.432  1.00  0.00     0.037 A 
ATOM     64  C   UNL A   1      44.963  26.828  31.144  1.00  0.00     0.049 A 
ATOM     65  C   UNL A   1      39.605  28.891  28.603  1.00  0.00     0.074 A 
ATOM     66  C   UNL A   1      44.435  25.579  30.845  1.00  0.00     0.029 A 
ATOM     67  N   UNL A   1      44.469  27.679  30.150  1.00  0.00    -0.354 N 
ATOM     68  N   UNL A   1      40.783  28.513  29.082  1.00  0.00    -0.248 NA
ATOM     69  C   UNL A   1      39.515  28.632  27.168  1.00  0.00     0.031 C 
ATOM     70  C   UNL A   1      43.463  25.731  29.817  1.00  0.00     0.029 A 
ATOM     71  C   UNL A   1      43.476  27.051  29.378  1.00  0.00     0.049 A 
ATOM     72  H   UNL A   1      44.778  28.603  30.010  1.00  0.00     0.167 HD
ATOM     73  C   UNL A   1      41.608  28.051  28.060  1.00  0.00     0.074 A 
ATOM     74  C   UNL A   1      40.725  28.109  26.898  1.00  0.00     0.031 C 
ATOM     75  C   UNL A   1      42.928  27.630  28.140  1.00  0.00     0.037 A 
BRANCH  62  76
ATOM     76  C   UNL A   1      46.946  26.839  32.932  1.00  0.00     0.064 A 
ATOM     77  C   UNL A   1      47.050  25.638  33.661  1.00  0.00     0.173 A 
ATOM     78  C   UNL A   1      48.127  27.610  32.893  1.00  0.00     0.173 A 
ATOM     79  F   UNL A   1      46.066  24.732  33.662  1.00  0.00    -0.203 F 
ATOM     80  C   UNL A   1      48.174  25.335  34.440  1.00  0.00     0.198 A 
ATOM     81  C   UNL A   1      49.223  27.344  33.722  1.00  0.00     0.198 A 
ATOM     82  F   UNL A   1      48.237  28.653  32.056  1.00  0.00    -0.203 F 
ATOM     83  F   UNL A   1      48.203  24.201  35.154  1.00  0.00    -0.200 F 
ATOM     84  C   UNL A   1      49.235  26.216  34.517  1.00  0.00     0.200 A 
ATOM     85  F   UNL A   1      50.247  28.209  33.779  1.00  0.00    -0.200 F 
ATOM     86  F   UNL A   1      50.261  25.978  35.346  1.00  0.00    -0.200 F 
ENDBRANCH  62  76
BRANCH  63  87
ATOM     87  C   UNL A   1      37.471  30.501  29.541  1.00  0.00     0.064 A 
ATOM     88  C   UNL A   1      38.165  31.744  29.685  1.00  0.00     0.173 A 
ATOM     89  C   UNL A   1      36.230  30.530  28.912  1.00  0.00     0.173 A 
ATOM     90  F   UNL A   1      39.380  31.768  30.264  1.00  0.00    -0.203 F 
ATOM     91  C   UNL A   1      37.759  32.882  28.997  1.00  0.00     0.198 A 
ATOM     92  C   UNL A   1      35.786  31.708  28.297  1.00  0.00     0.198 A 
ATOM     93  F   UNL A   1      35.547  29.394  28.726  1.00  0.00    -0.203 F 
ATOM     94  F   UNL A   1      38.585  33.934  28.896  1.00  0.00    -0.200 F 
ATOM     95  C   UNL A   1      36.575  32.856  28.289  1.00  0.00     0.200 A 
ATOM     96  F   UNL A   1      34.665  31.686  27.563  1.00  0.00    -0.200 F 
ATOM     97  F   UNL A   1      36.240  33.902  27.521  1.00  0.00    -0.200 F 
ENDBRANCH  63  87
BRANCH  75  98
ATOM     98  C   UNL A   1      43.906  27.593  26.950  1.00  0.00     0.064 A 
ATOM     99  C   UNL A   1      44.819  28.621  26.666  1.00  0.00     0.173 A 
ATOM    100  C   UNL A   1      44.110  26.402  26.191  1.00  0.00     0.173 A 
ATOM    101  F   UNL A   1      44.820  29.769  27.353  1.00  0.00    -0.203 F 
ATOM    102  C   UNL A   1      45.825  28.482  25.703  1.00  0.00     0.198 A 
ATOM    103  C   UNL A   1      45.164  26.240  25.294  1.00  0.00     0.198 A 
ATOM    104  F   UNL A   1      43.323  25.326  26.312  1.00  0.00    -0.203 F 
ATOM    105  F   UNL A   1      46.642  29.514  25.454  1.00  0.00    -0.200 F 
ATOM    106  C   UNL A   1      46.018  27.285  25.041  1.00  0.00     0.200 A 
ATOM    107  F   UNL A   1      45.358  25.050  24.705  1.00  0.00    -0.200 F 
ATOM    108  F   UNL A   1      47.034  27.134  24.183  1.00  0.00    -0.200 F 
ENDBRANCH  75  98
ENDBRANCH  49  50
ENDBRANCH  42  44
ENDBRANCH  41  42
ENDBRANCH  40  41
ENDBRANCH  39  40
ENDBRANCH  38  39
ENDBRANCH  37  38
ENDBRANCH  36  37
ENDBRANCH   1  36
TORSDOF 23
ENDMDL
MODEL 3
REMARK VINA RESULT:     -13.2      5.733     10.277
REMARK SMILES Cc1ccc(-c2cc(C(=O)OCCOCCOCCOCCOC(=O)c3ccc(-c4c5nc(c(-c6c(F)c(F)c(F)c(F)c6F)c6ccc([nH]6)c(-c6c(F)c(F)c(F)c(F)c6F)c6nc(c(-c7c(F)c(F)c(F)c(F)c7F)c7ccc4[nH]7)C=C6)C=C5)cc3)c3c(-c4cccc([N+](=O)[O-])c4)[nH]nc3n2)cc1
REMARK SMILES IDX 17 1 16 2 15 3 14 4 13 5 12 6 11 7 9 8 10 9 8 10 6 11 7 12
REMARK SMILES IDX 103 13 102 14 89 15 101 16 90 17 100 18 5 20 1 21 2 22 3 23
REMARK SMILES IDX 105 24 4 25 104 26 91 27 92 28 99 29 93 30 95 31 94 32 96 33
REMARK SMILES IDX 97 34 98 35 18 36 19 37 20 38 21 39 22 40 23 41 24 42 25 43
REMARK SMILES IDX 26 44 27 45 88 46 28 47 87 48 29 49 30 50 31 51 81 52 32 53
REMARK SMILES IDX 86 54 80 55 82 56 33 57 85 58 79 59 78 60 34 62 66 63 46 64
REMARK SMILES IDX 65 65 47 66 50 67 64 68 83 69 48 70 49 71 63 73 84 74 51 75
REMARK SMILES IDX 35 76 36 77 44 78 37 79 38 80 42 81 45 82 39 83 40 84 43 85
REMARK SMILES IDX 41 86 67 87 68 88 76 89 69 90 70 91 74 92 77 93 71 94 72 95
REMARK SMILES IDX 75 96 73 97 52 98 53 99 61 100 54 101 55 102 59 103 62 104
REMARK SMILES IDX 56 105 57 106 60 107 58 108
REMARK H PARENT 100 19 82 61 50 72
REMARK Flexibility Score: inf
ROOT
ATOM      1  O   UNL A   1      40.684  26.504  28.530  1.00  0.00    -0.377 OA
ENDROOT
BRANCH   1   2
ATOM      2  C   UNL A   1      39.611  25.646  28.144  1.00  0.00     0.188 C 
BRANCH   2   3
ATOM      3  C   UNL A   1      39.561  24.092  27.500  1.00  0.00     0.188 C 
BRANCH   3   4
ATOM      4  O   UNL A   1      38.597  23.128  26.313  1.00  0.00    -0.376 OA
BRANCH   4   5
ATOM      5  C   UNL A   1      37.074  23.301  25.454  1.00  0.00     0.202 C 
BRANCH   5   6
ATOM      6  C   UNL A   1      36.770  23.192  23.601  1.00  0.00     0.261 C 
BRANCH   6   7
ATOM      7  O   UNL A   1      35.128  23.316  22.803  1.00  0.00    -0.460 OA
BRANCH   7   8
ATOM      8  C   UNL A   1      33.674  23.669  22.924  1.00  0.00     0.339 C 
ATOM      9  O   UNL A   1      32.882  23.584  21.985  1.00  0.00    -0.246 OA
BRANCH   8  10
ATOM     10  C   UNL A   1      32.862  24.210  24.172  1.00  0.00     0.075 A 
ATOM     11  C   UNL A   1      31.691  25.989  25.621  1.00  0.00     0.074 A 
ATOM     12  C   UNL A   1      32.658  25.518  24.692  1.00  0.00     0.045 A 
ATOM     13  N   UNL A   1      30.856  25.186  26.285  1.00  0.00    -0.226 NA
ATOM     14  C   UNL A   1      31.116  23.880  26.041  1.00  0.00     0.182 A 
ATOM     15  C   UNL A   1      32.091  23.396  25.058  1.00  0.00     0.061 A 
ATOM     16  N   UNL A   1      30.535  22.888  26.710  1.00  0.00    -0.154 NA
ATOM     17  C   UNL A   1      32.162  22.034  25.346  1.00  0.00     0.076 A 
ATOM     18  N   UNL A   1      31.165  21.804  26.265  1.00  0.00    -0.275 N 
ATOM     19  H   UNL A   1      30.934  20.899  26.574  1.00  0.00     0.190 HD
BRANCH  11  20
ATOM     20  C   UNL A   1      31.598  27.453  25.863  1.00  0.00     0.000 A 
ATOM     21  C   UNL A   1      31.575  31.768  26.446  1.00  0.00     0.044 C 
ATOM     22  C   UNL A   1      31.602  30.281  26.233  1.00  0.00    -0.051 A 
ATOM     23  C   UNL A   1      31.872  29.413  27.299  1.00  0.00     0.004 A 
ATOM     24  C   UNL A   1      31.318  29.730  24.982  1.00  0.00     0.004 A 
ATOM     25  C   UNL A   1      31.870  28.019  27.116  1.00  0.00     0.010 A 
ATOM     26  C   UNL A   1      31.321  28.339  24.801  1.00  0.00     0.010 A 
ENDBRANCH  11  20
BRANCH  17  27
ATOM     27  C   UNL A   1      33.036  20.915  25.008  1.00  0.00     0.007 A 
ATOM     28  C   UNL A   1      34.386  20.947  25.379  1.00  0.00     0.011 A 
ATOM     29  C   UNL A   1      32.556  19.830  24.263  1.00  0.00     0.096 A 
ATOM     30  C   UNL A   1      35.237  19.887  25.065  1.00  0.00     0.008 A 
ATOM     31  C   UNL A   1      33.417  18.761  23.963  1.00  0.00     0.270 A 
ATOM     32  C   UNL A   1      34.755  18.781  24.368  1.00  0.00     0.085 A 
BRANCH  31  33
ATOM     33  N   UNL A   1      32.877  17.551  23.328  1.00  0.00     0.062 N 
ATOM     34  O   UNL A   1      32.829  16.515  24.008  1.00  0.00    -0.258 OA
ATOM     35  O   UNL A   1      32.441  17.653  22.173  1.00  0.00    -0.258 OA
ENDBRANCH  31  33
ENDBRANCH  17  27
ENDBRANCH   8  10
ENDBRANCH   7   8
ENDBRANCH   6   7
ENDBRANCH   5   6
ENDBRANCH   4   5
ENDBRANCH   3   4
ENDBRANCH   2   3
ENDBRANCH   1   2
BRANCH   1  36
ATOM     36  C   UNL A   1      41.448  27.332  27.672  1.00  0.00     0.188 C 
BRANCH  36  37
ATOM     37  C   UNL A   1      41.960  26.812  26.351  1.00  0.00     0.188 C 
BRANCH  37  38
ATOM     38  O   UNL A   1      43.375  26.788  26.373  1.00  0.00    -0.376 OA
BRANCH  38  39
ATOM     39  C   UNL A   1      43.938  25.734  25.606  1.00  0.00     0.202 C 
BRANCH  39  40
ATOM     40  C   UNL A   1      42.861  24.806  25.025  1.00  0.00     0.261 C 
BRANCH  40  41
ATOM     41  O   UNL A   1      42.728  23.625  25.850  1.00  0.00    -0.460 OA
BRANCH  41  42
ATOM     42  C   UNL A   1      43.880  23.011  26.246  1.00  0.00     0.338 C 
ATOM     43  O   UNL A   1      44.475  22.132  25.608  1.00  0.00    -0.246 OA
BRANCH  42  44
ATOM     44  C   UNL A   1      44.131  23.305  27.679  1.00  0.00     0.060 A 
ATOM     45  C   UNL A   1      43.140  23.584  28.621  1.00  0.00     0.016 A 
ATOM     46  C   UNL A   1      45.393  23.635  28.040  1.00  0.00     0.016 A 
ATOM     47  C   UNL A   1      43.345  24.553  29.675  1.00  0.00     0.010 A 
ATOM     48  C   UNL A   1      45.521  24.597  29.036  1.00  0.00     0.010 A 
ATOM     49  C   UNL A   1      44.483  25.364  29.756  1.00  0.00    -0.014 A 
BRANCH  49  50
ATOM     50  C   UNL A   1      44.566  27.052  30.575  1.00  0.00     0.031 A 
ATOM     51  C   UNL A   1      42.947  28.024  31.286  1.00  0.00     0.074 A 
ATOM     52  C   UNL A   1      45.917  27.550  30.382  1.00  0.00     0.049 A 
ATOM     53  N   UNL A   1      42.505  29.246  30.847  1.00  0.00    -0.248 NA
ATOM     54  C   UNL A   1      41.440  27.612  31.801  1.00  0.00     0.031 C 
ATOM     55  C   UNL A   1      46.653  28.789  30.756  1.00  0.00     0.029 A 
ATOM     56  N   UNL A   1      46.981  27.026  29.582  1.00  0.00    -0.354 N 
ATOM     57  C   UNL A   1      41.299  29.760  31.206  1.00  0.00     0.074 A 
ATOM     58  C   UNL A   1      40.588  28.625  31.633  1.00  0.00     0.031 C 
ATOM     59  C   UNL A   1      47.880  28.958  30.285  1.00  0.00     0.029 A 
ATOM     60  C   UNL A   1      47.898  28.056  29.229  1.00  0.00     0.049 A 
ATOM     61  H   UNL A   1      47.069  26.083  29.312  1.00  0.00     0.167 HD
ATOM     62  C   UNL A   1      41.046  31.106  31.175  1.00  0.00     0.037 A 
ATOM     63  C   UNL A   1      48.039  28.591  27.991  1.00  0.00     0.037 A 
ATOM     64  C   UNL A   1      42.255  31.904  30.887  1.00  0.00     0.049 A 
ATOM     65  C   UNL A   1      47.405  30.009  27.836  1.00  0.00     0.074 A 
ATOM     66  C   UNL A   1      43.176  32.492  31.744  1.00  0.00     0.029 A 
ATOM     67  N   UNL A   1      42.864  31.929  29.628  1.00  0.00    -0.354 N 
ATOM     68  N   UNL A   1      46.285  30.444  28.399  1.00  0.00    -0.248 NA
ATOM     69  C   UNL A   1      48.143  31.109  27.220  1.00  0.00     0.031 C 
ATOM     70  C   UNL A   1      44.404  32.662  31.045  1.00  0.00     0.029 A 
ATOM     71  C   UNL A   1      44.216  32.305  29.713  1.00  0.00     0.049 A 
ATOM     72  H   UNL A   1      42.403  31.710  28.787  1.00  0.00     0.167 HD
ATOM     73  C   UNL A   1      46.113  31.806  28.171  1.00  0.00     0.074 A 
ATOM     74  C   UNL A   1      47.343  32.162  27.470  1.00  0.00     0.031 C 
ATOM     75  C   UNL A   1      45.045  32.614  28.537  1.00  0.00     0.037 A 
BRANCH  62  76
ATOM     76  C   UNL A   1      39.792  31.614  31.874  1.00  0.00     0.064 A 
ATOM     77  C   UNL A   1      38.651  32.018  31.155  1.00  0.00     0.173 A 
ATOM     78  C   UNL A   1      39.730  31.853  33.263  1.00  0.00     0.173 A 
ATOM     79  F   UNL A   1      38.498  31.721  29.859  1.00  0.00    -0.203 F 
ATOM     80  C   UNL A   1      37.626  32.770  31.744  1.00  0.00     0.198 A 
ATOM     81  C   UNL A   1      38.742  32.661  33.841  1.00  0.00     0.198 A 
ATOM     82  F   UNL A   1      40.640  31.319  34.092  1.00  0.00    -0.203 F 
ATOM     83  F   UNL A   1      36.583  33.172  31.004  1.00  0.00    -0.200 F 
ATOM     84  C   UNL A   1      37.702  33.141  33.072  1.00  0.00     0.200 A 
ATOM     85  F   UNL A   1      38.830  33.006  35.134  1.00  0.00    -0.200 F 
ATOM     86  F   UNL A   1      36.777  33.951  33.608  1.00  0.00    -0.200 F 
ENDBRANCH  62  76
BRANCH  63  87
ATOM     87  C   UNL A   1      48.440  27.476  27.101  1.00  0.00     0.064 A 
ATOM     88  C   UNL A   1      47.704  27.400  25.877  1.00  0.00     0.173 A 
ATOM     89  C   UNL A   1      49.749  27.004  27.091  1.00  0.00     0.173 A 
ATOM     90  F   UNL A   1      46.441  27.865  25.826  1.00  0.00    -0.203 F 
ATOM     91  C   UNL A   1      48.336  27.127  24.669  1.00  0.00     0.198 A 
ATOM     92  C   UNL A   1      50.352  26.644  25.879  1.00  0.00     0.198 A 
ATOM     93  F   UNL A   1      50.495  27.074  28.201  1.00  0.00    -0.203 F 
ATOM     94  F   UNL A   1      47.702  27.366  23.511  1.00  0.00    -0.200 F 
ATOM     95  C   UNL A   1      49.667  26.764  24.672  1.00  0.00     0.200 A 
ATOM     96  F   UNL A   1      51.657  26.340  25.857  1.00  0.00    -0.200 F 
ATOM     97  F   UNL A   1      50.318  26.623  23.508  1.00  0.00    -0.200 F 
ENDBRANCH  63  87
BRANCH  75  98
ATOM     98  C   UNL A   1      44.694  33.954  27.862  1.00  0.00     0.064 A 
ATOM     99  C   UNL A   1      43.943  34.052  26.680  1.00  0.00     0.173 A 
ATOM    100  C   UNL A   1      44.909  35.200  28.524  1.00  0.00     0.173 A 
ATOM    101  F   UNL A   1      43.577  32.967  25.988  1.00  0.00    -0.203 F 
ATOM    102  C   UNL A   1      43.473  35.277  26.193  1.00  0.00     0.198 A 
ATOM    103  C   UNL A   1      44.368  36.404  28.079  1.00  0.00     0.198 A 
ATOM    104  F   UNL A   1      45.622  35.303  29.653  1.00  0.00    -0.203 F 
ATOM    105  F   UNL A   1      42.792  35.307  25.039  1.00  0.00    -0.200 F 
ATOM    106  C   UNL A   1      43.656  36.445  26.906  1.00  0.00     0.200 A 
ATOM    107  F   UNL A   1      44.519  37.513  28.819  1.00  0.00    -0.200 F 
ATOM    108  F   UNL A   1      43.130  37.599  26.476  1.00  0.00    -0.200 F 
ENDBRANCH  75  98
ENDBRANCH  49  50
ENDBRANCH  42  44
ENDBRANCH  41  42
ENDBRANCH  40  41
ENDBRANCH  39  40
ENDBRANCH  38  39
ENDBRANCH  37  38
ENDBRANCH  36  37
ENDBRANCH   1  36
TORSDOF 23
ENDMDL
