MODEL 1
REMARK VINA RESULT:      -8.2      0.000      0.000
REMARK SMILES O=C(OCCOCCOCCOCCOC(=O)c1ccccc1-c1ccc(/C=C2/SC(=S)N(Cc3ccccc3)C2=O)o1)c1ccc(-c2c3nc(c(-c4c(F)c(F)c(F)c(F)c4F)c4ccc([nH]4)c(-c4c(F)c(F)c(F)c(F)c4F)c4nc(c(-c5c(F)c(F)c(F)c(F)c5F)c5ccc2[nH]5)C=C4)C=C3)cc1
REMARK SMILES IDX 10 1 9 2 8 3 7 4 6 5 5 6 4 7 3 8 2 9 1 10 44 11 45 12 106 13
REMARK SMILES IDX 46 14 105 15 47 16 48 17 49 18 99 19 50 20 104 21 98 22
REMARK SMILES IDX 100 23 51 24 103 25 97 26 96 27 52 29 84 30 64 31 83 32
REMARK SMILES IDX 65 33 68 34 82 35 101 36 66 37 67 38 81 40 102 41 69 42
REMARK SMILES IDX 53 43 54 44 62 45 55 46 56 47 60 48 63 49 57 50 58 51 61 52
REMARK SMILES IDX 59 53 85 54 86 55 94 56 87 57 88 58 92 59 95 60 89 61 90 62
REMARK SMILES IDX 93 63 91 64 70 65 71 66 79 67 72 68 73 69 77 70 80 71 74 72
REMARK SMILES IDX 75 73 78 74 76 75 11 76 12 77 13 78 14 79 15 80 16 81 17 82
REMARK SMILES IDX 18 83 19 84 23 85 20 86 22 87 21 88 24 89 25 90 43 91 26 92
REMARK SMILES IDX 27 93 28 94 29 95 30 96 41 97 31 98 33 99 42 100 32 101
REMARK SMILES IDX 34 102 35 103 36 104 40 105 37 106 39 107 38 108
REMARK H PARENT 100 28 68 39
REMARK Flexibility Score: inf
ROOT
ATOM      1  C   UNL A   1      46.649  24.549  27.905  1.00  0.00     0.188 C 
ENDROOT
BRANCH   1   2
ATOM      2  O   UNL A   1      47.596  24.926  26.912  1.00  0.00    -0.377 OA
BRANCH   2   3
ATOM      3  C   UNL A   1      48.973  24.870  27.275  1.00  0.00     0.188 C 
BRANCH   3   4
ATOM      4  C   UNL A   1      49.520  26.142  27.921  1.00  0.00     0.188 C 
BRANCH   4   5
ATOM      5  O   UNL A   1      50.430  26.794  27.031  1.00  0.00    -0.376 OA
BRANCH   5   6
ATOM      6  C   UNL A   1      50.417  26.314  25.688  1.00  0.00     0.202 C 
BRANCH   6   7
ATOM      7  C   UNL A   1      49.733  27.270  24.711  1.00  0.00     0.261 C 
BRANCH   7   8
ATOM      8  O   UNL A   1      48.381  26.876  24.439  1.00  0.00    -0.460 OA
BRANCH   8   9
ATOM      9  C   UNL A   1      47.261  27.637  24.518  1.00  0.00     0.338 C 
ATOM     10  O   UNL A   1      46.709  27.960  23.467  1.00  0.00    -0.246 OA
BRANCH   9  11
ATOM     11  C   UNL A   1      46.622  28.086  25.799  1.00  0.00     0.060 A 
ATOM     12  C   UNL A   1      45.290  27.886  26.173  1.00  0.00     0.016 A 
ATOM     13  C   UNL A   1      47.467  28.723  26.727  1.00  0.00     0.016 A 
ATOM     14  C   UNL A   1      44.789  28.357  27.380  1.00  0.00     0.010 A 
ATOM     15  C   UNL A   1      46.979  29.189  27.952  1.00  0.00     0.010 A 
ATOM     16  C   UNL A   1      45.625  29.035  28.260  1.00  0.00    -0.014 A 
BRANCH  16  17
ATOM     17  C   UNL A   1      45.000  29.751  29.385  1.00  0.00     0.031 A 
ATOM     18  C   UNL A   1      44.794  28.989  30.659  1.00  0.00     0.074 A 
ATOM     19  C   UNL A   1      44.768  31.072  29.305  1.00  0.00     0.049 A 
ATOM     20  N   UNL A   1      44.230  29.366  31.774  1.00  0.00    -0.248 NA
ATOM     21  C   UNL A   1      45.317  27.610  30.683  1.00  0.00     0.031 C 
ATOM     22  C   UNL A   1      45.079  31.913  28.150  1.00  0.00     0.029 A 
ATOM     23  N   UNL A   1      44.243  31.941  30.224  1.00  0.00    -0.354 N 
ATOM     24  C   UNL A   1      44.301  28.264  32.616  1.00  0.00     0.074 A 
ATOM     25  C   UNL A   1      44.963  27.205  31.892  1.00  0.00     0.031 C 
ATOM     26  C   UNL A   1      44.746  33.184  28.433  1.00  0.00     0.029 A 
ATOM     27  C   UNL A   1      44.142  33.230  29.761  1.00  0.00     0.049 A 
ATOM     28  H   UNL A   1      43.964  31.669  31.128  1.00  0.00     0.167 HD
ATOM     29  C   UNL A   1      43.841  28.155  33.882  1.00  0.00     0.037 A 
ATOM     30  C   UNL A   1      43.586  34.308  30.346  1.00  0.00     0.037 A 
ATOM     31  C   UNL A   1      43.186  29.230  34.574  1.00  0.00     0.049 A 
ATOM     32  C   UNL A   1      42.990  34.133  31.719  1.00  0.00     0.074 A 
ATOM     33  C   UNL A   1      42.607  29.234  35.827  1.00  0.00     0.029 A 
ATOM     34  N   UNL A   1      43.029  30.508  34.049  1.00  0.00    -0.354 N 
ATOM     35  N   UNL A   1      42.981  33.070  32.489  1.00  0.00    -0.248 NA
ATOM     36  C   UNL A   1      42.310  35.298  32.298  1.00  0.00     0.031 C 
ATOM     37  C   UNL A   1      42.059  30.504  36.043  1.00  0.00     0.029 A 
ATOM     38  C   UNL A   1      42.344  31.306  34.947  1.00  0.00     0.049 A 
ATOM     39  H   UNL A   1      43.355  30.801  33.168  1.00  0.00     0.167 HD
ATOM     40  C   UNL A   1      42.311  33.438  33.647  1.00  0.00     0.074 A 
ATOM     41  C   UNL A   1      41.946  34.832  33.485  1.00  0.00     0.031 C 
ATOM     42  C   UNL A   1      42.014  32.695  34.743  1.00  0.00     0.037 A 
BRANCH  29  43
ATOM     43  C   UNL A   1      43.963  26.812  34.538  1.00  0.00     0.064 A 
ATOM     44  C   UNL A   1      42.864  25.954  34.696  1.00  0.00     0.173 A 
ATOM     45  C   UNL A   1      45.196  26.400  35.068  1.00  0.00     0.173 A 
ATOM     46  F   UNL A   1      41.656  26.316  34.239  1.00  0.00    -0.203 F 
ATOM     47  C   UNL A   1      42.988  24.751  35.389  1.00  0.00     0.198 A 
ATOM     48  C   UNL A   1      45.322  25.185  35.735  1.00  0.00     0.198 A 
ATOM     49  F   UNL A   1      46.277  27.187  34.955  1.00  0.00    -0.203 F 
ATOM     50  F   UNL A   1      41.909  23.980  35.585  1.00  0.00    -0.200 F 
ATOM     51  C   UNL A   1      44.215  24.366  35.904  1.00  0.00     0.200 A 
ATOM     52  F   UNL A   1      46.510  24.815  36.233  1.00  0.00    -0.200 F 
ATOM     53  F   UNL A   1      44.329  23.215  36.581  1.00  0.00    -0.200 F 
ENDBRANCH  29  43
BRANCH  30  54
ATOM     54  C   UNL A   1      43.520  35.607  29.623  1.00  0.00     0.064 A 
ATOM     55  C   UNL A   1      42.463  35.908  28.754  1.00  0.00     0.173 A 
ATOM     56  C   UNL A   1      44.525  36.576  29.778  1.00  0.00     0.173 A 
ATOM     57  F   UNL A   1      41.487  35.010  28.549  1.00  0.00    -0.203 F 
ATOM     58  C   UNL A   1      42.419  37.118  28.060  1.00  0.00     0.198 A 
ATOM     59  C   UNL A   1      44.465  37.796  29.110  1.00  0.00     0.198 A 
ATOM     60  F   UNL A   1      45.566  36.340  30.591  1.00  0.00    -0.203 F 
ATOM     61  F   UNL A   1      41.420  37.360  27.201  1.00  0.00    -0.200 F 
ATOM     62  C   UNL A   1      43.417  38.063  28.244  1.00  0.00     0.200 A 
ATOM     63  F   UNL A   1      45.425  38.711  29.302  1.00  0.00    -0.200 F 
ATOM     64  F   UNL A   1      43.372  39.228  27.582  1.00  0.00    -0.200 F 
ENDBRANCH  30  54
BRANCH  42  65
ATOM     65  C   UNL A   1      41.289  33.390  35.855  1.00  0.00     0.064 A 
ATOM     66  C   UNL A   1      41.975  34.138  36.822  1.00  0.00     0.173 A 
ATOM     67  C   UNL A   1      39.888  33.353  35.915  1.00  0.00     0.173 A 
ATOM     68  F   UNL A   1      43.315  34.189  36.812  1.00  0.00    -0.203 F 
ATOM     69  C   UNL A   1      41.282  34.810  37.823  1.00  0.00     0.198 A 
ATOM     70  C   UNL A   1      39.198  34.051  36.899  1.00  0.00     0.198 A 
ATOM     71  F   UNL A   1      39.191  32.656  35.005  1.00  0.00    -0.203 F 
ATOM     72  F   UNL A   1      41.956  35.486  38.763  1.00  0.00    -0.200 F 
ATOM     73  C   UNL A   1      39.895  34.773  37.856  1.00  0.00     0.200 A 
ATOM     74  F   UNL A   1      37.858  34.027  36.920  1.00  0.00    -0.200 F 
ATOM     75  F   UNL A   1      39.230  35.432  38.814  1.00  0.00    -0.200 F 
ENDBRANCH  42  65
ENDBRANCH  16  17
ENDBRANCH   9  11
ENDBRANCH   8   9
ENDBRANCH   7   8
ENDBRANCH   6   7
ENDBRANCH   5   6
ENDBRANCH   4   5
ENDBRANCH   3   4
ENDBRANCH   2   3
ENDBRANCH   1   2
BRANCH   1  76
ATOM     76  C   UNL A   1      45.274  23.990  27.463  1.00  0.00     0.188 C 
BRANCH  76  77
ATOM     77  O   UNL A   1      45.288  22.686  26.890  1.00  0.00    -0.376 OA
BRANCH  77  78
ATOM     78  C   UNL A   1      44.404  22.500  25.785  1.00  0.00     0.202 C 
BRANCH  78  79
ATOM     79  C   UNL A   1      43.151  23.366  25.838  1.00  0.00     0.261 C 
BRANCH  79  80
ATOM     80  O   UNL A   1      41.945  22.596  25.885  1.00  0.00    -0.460 OA
BRANCH  80  81
ATOM     81  C   UNL A   1      41.137  22.646  26.966  1.00  0.00     0.338 C 
ATOM     82  O   UNL A   1      41.473  22.631  28.135  1.00  0.00    -0.246 OA
BRANCH  81  83
ATOM     83  C   UNL A   1      39.764  22.889  26.449  1.00  0.00     0.071 A 
ATOM     84  C   UNL A   1      39.042  21.768  26.010  1.00  0.00     0.016 A 
ATOM     85  C   UNL A   1      39.139  24.149  26.581  1.00  0.00     0.032 A 
ATOM     86  C   UNL A   1      37.677  21.885  25.745  1.00  0.00     0.001 A 
ATOM     87  C   UNL A   1      37.769  24.244  26.295  1.00  0.00     0.013 A 
ATOM     88  C   UNL A   1      37.042  23.118  25.892  1.00  0.00     0.001 A 
BRANCH  85  89
ATOM     89  C   UNL A   1      39.890  25.316  27.029  1.00  0.00     0.135 A 
ATOM     90  C   UNL A   1      40.643  26.253  26.355  1.00  0.00     0.051 A 
ATOM     91  O   UNL A   1      39.974  25.532  28.375  1.00  0.00    -0.457 OA
ATOM     92  C   UNL A   1      41.319  26.991  27.339  1.00  0.00     0.051 A 
ATOM     93  C   UNL A   1      40.809  26.603  28.572  1.00  0.00     0.128 A 
BRANCH  93  94
ATOM     94  C   UNL A   1      41.028  27.264  29.809  1.00  0.00     0.068 C 
ATOM     95  C   UNL A   1      40.305  28.364  30.064  1.00  0.00     0.084 C 
ATOM     96  S   UNL A   1      40.754  29.627  31.136  1.00  0.00    -0.054 SA
ATOM     97  C   UNL A   1      39.127  28.804  29.268  1.00  0.00     0.266 C 
ATOM     98  C   UNL A   1      39.824  30.820  30.206  1.00  0.00     0.148 C 
ATOM     99  N   UNL A   1      39.055  30.180  29.260  1.00  0.00    -0.288 N 
ATOM    100  O   UNL A   1      38.322  28.045  28.747  1.00  0.00    -0.268 OA
ATOM    101  S   UNL A   1      39.929  32.455  30.515  1.00  0.00    -0.052 S 
BRANCH  99 102
ATOM    102  C   UNL A   1      38.109  30.809  28.340  1.00  0.00     0.163 C 
BRANCH 102 103
ATOM    103  C   UNL A   1      37.064  31.664  29.038  1.00  0.00    -0.028 A 
ATOM    104  C   UNL A   1      37.028  33.050  28.833  1.00  0.00     0.005 A 
ATOM    105  C   UNL A   1      36.159  31.106  29.958  1.00  0.00     0.005 A 
ATOM    106  C   UNL A   1      36.117  33.852  29.528  1.00  0.00     0.000 A 
ATOM    107  C   UNL A   1      35.235  31.905  30.637  1.00  0.00     0.000 A 
ATOM    108  C   UNL A   1      35.219  33.279  30.427  1.00  0.00     0.000 A 
ENDBRANCH 102 103
ENDBRANCH  99 102
ENDBRANCH  93  94
ENDBRANCH  85  89
ENDBRANCH  81  83
ENDBRANCH  80  81
ENDBRANCH  79  80
ENDBRANCH  78  79
ENDBRANCH  77  78
ENDBRANCH  76  77
ENDBRANCH   1  76
TORSDOF 24
ENDMDL
MODEL 2
REMARK VINA RESULT:      -8.0      3.380      6.250
REMARK SMILES O=C(OCCOCCOCCOCCOC(=O)c1ccccc1-c1ccc(/C=C2/SC(=S)N(Cc3ccccc3)C2=O)o1)c1ccc(-c2c3nc(c(-c4c(F)c(F)c(F)c(F)c4F)c4ccc([nH]4)c(-c4c(F)c(F)c(F)c(F)c4F)c4nc(c(-c5c(F)c(F)c(F)c(F)c5F)c5ccc2[nH]5)C=C4)C=C3)cc1
REMARK SMILES IDX 10 1 9 2 8 3 7 4 6 5 5 6 4 7 3 8 2 9 1 10 44 11 45 12 106 13
REMARK SMILES IDX 46 14 105 15 47 16 48 17 49 18 99 19 50 20 104 21 98 22
REMARK SMILES IDX 100 23 51 24 103 25 97 26 96 27 52 29 84 30 64 31 83 32
REMARK SMILES IDX 65 33 68 34 82 35 101 36 66 37 67 38 81 40 102 41 69 42
REMARK SMILES IDX 53 43 54 44 62 45 55 46 56 47 60 48 63 49 57 50 58 51 61 52
REMARK SMILES IDX 59 53 85 54 86 55 94 56 87 57 88 58 92 59 95 60 89 61 90 62
REMARK SMILES IDX 93 63 91 64 70 65 71 66 79 67 72 68 73 69 77 70 80 71 74 72
REMARK SMILES IDX 75 73 78 74 76 75 11 76 12 77 13 78 14 79 15 80 16 81 17 82
REMARK SMILES IDX 18 83 19 84 23 85 20 86 22 87 21 88 24 89 25 90 43 91 26 92
REMARK SMILES IDX 27 93 28 94 29 95 30 96 41 97 31 98 33 99 42 100 32 101
REMARK SMILES IDX 34 102 35 103 36 104 40 105 37 106 39 107 38 108
REMARK H PARENT 100 28 68 39
REMARK Flexibility Score: inf
ROOT
ATOM      1  C   UNL A   1      53.054  27.854  31.256  1.00  0.00     0.188 C 
ENDROOT
BRANCH   1   2
ATOM      2  O   UNL A   1      54.013  28.869  30.982  1.00  0.00    -0.377 OA
BRANCH   2   3
ATOM      3  C   UNL A   1      54.572  28.895  29.671  1.00  0.00     0.188 C 
BRANCH   3   4
ATOM      4  C   UNL A   1      55.922  29.603  29.561  1.00  0.00     0.188 C 
BRANCH   4   5
ATOM      5  O   UNL A   1      55.818  30.726  28.681  1.00  0.00    -0.376 OA
BRANCH   5   6
ATOM      6  C   UNL A   1      55.921  32.003  29.309  1.00  0.00     0.202 C 
BRANCH   6   7
ATOM      7  C   UNL A   1      54.832  32.981  28.871  1.00  0.00     0.261 C 
BRANCH   7   8
ATOM      8  O   UNL A   1      53.532  32.376  28.893  1.00  0.00    -0.460 OA
BRANCH   8   9
ATOM      9  C   UNL A   1      52.544  32.493  27.972  1.00  0.00     0.338 C 
ATOM     10  O   UNL A   1      52.862  32.789  26.820  1.00  0.00    -0.246 OA
BRANCH   9  11
ATOM     11  C   UNL A   1      51.088  32.253  28.244  1.00  0.00     0.060 A 
ATOM     12  C   UNL A   1      50.102  31.983  27.291  1.00  0.00     0.016 A 
ATOM     13  C   UNL A   1      50.700  32.251  29.597  1.00  0.00     0.016 A 
ATOM     14  C   UNL A   1      48.773  31.791  27.646  1.00  0.00     0.010 A 
ATOM     15  C   UNL A   1      49.368  32.043  29.969  1.00  0.00     0.010 A 
ATOM     16  C   UNL A   1      48.397  31.849  28.984  1.00  0.00    -0.014 A 
BRANCH  16  17
ATOM     17  C   UNL A   1      46.958  31.916  29.289  1.00  0.00     0.031 A 
ATOM     18  C   UNL A   1      46.308  30.677  29.827  1.00  0.00     0.074 A 
ATOM     19  C   UNL A   1      46.303  33.087  29.223  1.00  0.00     0.049 A 
ATOM     20  N   UNL A   1      45.058  30.456  30.132  1.00  0.00    -0.248 NA
ATOM     21  C   UNL A   1      47.202  29.530  30.076  1.00  0.00     0.031 C 
ATOM     22  C   UNL A   1      46.903  34.368  28.849  1.00  0.00     0.029 A 
ATOM     23  N   UNL A   1      44.997  33.394  29.496  1.00  0.00    -0.354 N 
ATOM     24  C   UNL A   1      45.012  29.141  30.575  1.00  0.00     0.074 A 
ATOM     25  C   UNL A   1      46.353  28.611  30.505  1.00  0.00     0.031 C 
ATOM     26  C   UNL A   1      45.966  35.328  28.925  1.00  0.00     0.029 A 
ATOM     27  C   UNL A   1      44.692  34.716  29.290  1.00  0.00     0.049 A 
ATOM     28  H   UNL A   1      44.340  32.731  29.810  1.00  0.00     0.167 HD
ATOM     29  C   UNL A   1      43.933  28.443  30.994  1.00  0.00     0.037 A 
ATOM     30  C   UNL A   1      43.500  35.340  29.358  1.00  0.00     0.037 A 
ATOM     31  C   UNL A   1      42.611  29.003  31.050  1.00  0.00     0.049 A 
ATOM     32  C   UNL A   1      42.295  34.515  29.729  1.00  0.00     0.074 A 
ATOM     33  C   UNL A   1      41.420  28.389  31.383  1.00  0.00     0.029 A 
ATOM     34  N   UNL A   1      42.317  30.331  30.761  1.00  0.00    -0.354 N 
ATOM     35  N   UNL A   1      42.231  33.249  30.070  1.00  0.00    -0.248 NA
ATOM     36  C   UNL A   1      40.995  35.196  29.708  1.00  0.00     0.031 C 
ATOM     37  C   UNL A   1      40.397  29.336  31.251  1.00  0.00     0.029 A 
ATOM     38  C   UNL A   1      40.959  30.552  30.889  1.00  0.00     0.049 A 
ATOM     39  H   UNL A   1      42.979  31.012  30.501  1.00  0.00     0.167 HD
ATOM     40  C   UNL A   1      40.893  32.982  30.318  1.00  0.00     0.074 A 
ATOM     41  C   UNL A   1      40.181  34.228  30.108  1.00  0.00     0.031 C 
ATOM     42  C   UNL A   1      40.299  31.817  30.678  1.00  0.00     0.037 A 
BRANCH  29  43
ATOM     43  C   UNL A   1      44.145  26.997  31.330  1.00  0.00     0.064 A 
ATOM     44  C   UNL A   1      44.138  25.993  30.350  1.00  0.00     0.173 A 
ATOM     45  C   UNL A   1      44.305  26.605  32.668  1.00  0.00     0.173 A 
ATOM     46  F   UNL A   1      43.954  26.311  29.059  1.00  0.00    -0.203 F 
ATOM     47  C   UNL A   1      44.249  24.649  30.701  1.00  0.00     0.198 A 
ATOM     48  C   UNL A   1      44.442  25.263  33.013  1.00  0.00     0.198 A 
ATOM     49  F   UNL A   1      44.307  27.523  33.646  1.00  0.00    -0.203 F 
ATOM     50  F   UNL A   1      44.172  23.703  29.754  1.00  0.00    -0.200 F 
ATOM     51  C   UNL A   1      44.403  24.286  32.030  1.00  0.00     0.200 A 
ATOM     52  F   UNL A   1      44.592  24.914  34.298  1.00  0.00    -0.200 F 
ATOM     53  F   UNL A   1      44.496  22.992  32.366  1.00  0.00    -0.200 F 
ENDBRANCH  29  43
BRANCH  30  54
ATOM     54  C   UNL A   1      43.386  36.784  29.018  1.00  0.00     0.064 A 
ATOM     55  C   UNL A   1      43.045  37.207  27.726  1.00  0.00     0.173 A 
ATOM     56  C   UNL A   1      43.627  37.778  29.980  1.00  0.00     0.173 A 
ATOM     57  F   UNL A   1      42.827  36.302  26.760  1.00  0.00    -0.203 F 
ATOM     58  C   UNL A   1      42.963  38.563  27.407  1.00  0.00     0.198 A 
ATOM     59  C   UNL A   1      43.514  39.131  29.670  1.00  0.00     0.198 A 
ATOM     60  F   UNL A   1      43.964  37.433  31.232  1.00  0.00    -0.203 F 
ATOM     61  F   UNL A   1      42.681  38.939  26.152  1.00  0.00    -0.200 F 
ATOM     62  C   UNL A   1      43.191  39.523  28.381  1.00  0.00     0.200 A 
ATOM     63  F   UNL A   1      43.722  40.054  30.619  1.00  0.00    -0.200 F 
ATOM     64  F   UNL A   1      43.107  40.826  28.076  1.00  0.00    -0.200 F 
ENDBRANCH  30  54
BRANCH  42  65
ATOM     65  C   UNL A   1      38.817  31.852  30.896  1.00  0.00     0.064 A 
ATOM     66  C   UNL A   1      37.918  31.511  29.875  1.00  0.00     0.173 A 
ATOM     67  C   UNL A   1      38.296  32.173  32.158  1.00  0.00     0.173 A 
ATOM     68  F   UNL A   1      38.371  31.212  28.648  1.00  0.00    -0.203 F 
ATOM     69  C   UNL A   1      36.546  31.509  30.106  1.00  0.00     0.198 A 
ATOM     70  C   UNL A   1      36.927  32.141  32.393  1.00  0.00     0.198 A 
ATOM     71  F   UNL A   1      39.120  32.497  33.166  1.00  0.00    -0.203 F 
ATOM     72  F   UNL A   1      35.701  31.221  29.108  1.00  0.00    -0.200 F 
ATOM     73  C   UNL A   1      36.053  31.815  31.367  1.00  0.00     0.200 A 
ATOM     74  F   UNL A   1      36.452  32.422  33.615  1.00  0.00    -0.200 F 
ATOM     75  F   UNL A   1      34.732  31.801  31.591  1.00  0.00    -0.200 F 
ENDBRANCH  42  65
ENDBRANCH  16  17
ENDBRANCH   9  11
ENDBRANCH   8   9
ENDBRANCH   7   8
ENDBRANCH   6   7
ENDBRANCH   5   6
ENDBRANCH   4   5
ENDBRANCH   3   4
ENDBRANCH   2   3
ENDBRANCH   1   2
BRANCH   1  76
ATOM     76  C   UNL A   1      51.887  27.631  30.263  1.00  0.00     0.188 C 
BRANCH  76  77
ATOM     77  O   UNL A   1      50.651  27.220  30.840  1.00  0.00    -0.376 OA
BRANCH  77  78
ATOM     78  C   UNL A   1      50.189  25.933  30.431  1.00  0.00     0.202 C 
BRANCH  78  79
ATOM     79  C   UNL A   1      48.674  25.823  30.313  1.00  0.00     0.261 C 
BRANCH  79  80
ATOM     80  O   UNL A   1      48.258  25.079  29.163  1.00  0.00    -0.460 OA
BRANCH  80  81
ATOM     81  C   UNL A   1      48.914  25.200  27.989  1.00  0.00     0.338 C 
ATOM     82  O   UNL A   1      49.762  24.450  27.541  1.00  0.00    -0.246 OA
BRANCH  81  83
ATOM     83  C   UNL A   1      48.282  26.340  27.273  1.00  0.00     0.071 A 
ATOM     84  C   UNL A   1      48.848  27.609  27.473  1.00  0.00     0.016 A 
ATOM     85  C   UNL A   1      47.293  26.133  26.286  1.00  0.00     0.032 A 
ATOM     86  C   UNL A   1      48.466  28.673  26.655  1.00  0.00     0.001 A 
ATOM     87  C   UNL A   1      46.916  27.221  25.485  1.00  0.00     0.013 A 
ATOM     88  C   UNL A   1      47.507  28.478  25.661  1.00  0.00     0.001 A 
BRANCH  85  89
ATOM     89  C   UNL A   1      46.698  24.817  26.083  1.00  0.00     0.135 A 
ATOM     90  C   UNL A   1      47.019  23.770  25.245  1.00  0.00     0.051 A 
ATOM     91  O   UNL A   1      45.548  24.534  26.762  1.00  0.00    -0.457 OA
ATOM     92  C   UNL A   1      45.948  22.867  25.321  1.00  0.00     0.051 A 
ATOM     93  C   UNL A   1      45.109  23.304  26.340  1.00  0.00     0.128 A 
BRANCH  93  94
ATOM     94  C   UNL A   1      44.047  22.562  26.919  1.00  0.00     0.068 C 
ATOM     95  C   UNL A   1      42.801  23.034  26.768  1.00  0.00     0.084 C 
ATOM     96  S   UNL A   1      41.473  22.697  27.802  1.00  0.00    -0.054 SA
ATOM     97  C   UNL A   1      42.421  24.135  25.840  1.00  0.00     0.266 C 
ATOM     98  C   UNL A   1      40.707  24.251  27.414  1.00  0.00     0.148 C 
ATOM     99  N   UNL A   1      41.375  24.856  26.372  1.00  0.00    -0.288 N 
ATOM    100  O   UNL A   1      42.937  24.327  24.748  1.00  0.00    -0.268 OA
ATOM    101  S   UNL A   1      39.371  24.806  28.242  1.00  0.00    -0.052 S 
BRANCH  99 102
ATOM    102  C   UNL A   1      41.016  26.117  25.727  1.00  0.00     0.163 C 
BRANCH 102 103
ATOM    103  C   UNL A   1      41.722  27.324  26.321  1.00  0.00    -0.028 A 
ATOM    104  C   UNL A   1      40.994  28.312  26.997  1.00  0.00     0.005 A 
ATOM    105  C   UNL A   1      43.104  27.522  26.147  1.00  0.00     0.005 A 
ATOM    106  C   UNL A   1      41.626  29.461  27.482  1.00  0.00     0.000 A 
ATOM    107  C   UNL A   1      43.739  28.661  26.649  1.00  0.00     0.000 A 
ATOM    108  C   UNL A   1      42.998  29.634  27.311  1.00  0.00     0.000 A 
ENDBRANCH 102 103
ENDBRANCH  99 102
ENDBRANCH  93  94
ENDBRANCH  85  89
ENDBRANCH  81  83
ENDBRANCH  80  81
ENDBRANCH  79  80
ENDBRANCH  78  79
ENDBRANCH  77  78
ENDBRANCH  76  77
ENDBRANCH   1  76
TORSDOF 24
ENDMDL
MODEL 3
REMARK VINA RESULT:      -7.7      3.472      9.594
REMARK SMILES O=C(OCCOCCOCCOCCOC(=O)c1ccccc1-c1ccc(/C=C2/SC(=S)N(Cc3ccccc3)C2=O)o1)c1ccc(-c2c3nc(c(-c4c(F)c(F)c(F)c(F)c4F)c4ccc([nH]4)c(-c4c(F)c(F)c(F)c(F)c4F)c4nc(c(-c5c(F)c(F)c(F)c(F)c5F)c5ccc2[nH]5)C=C4)C=C3)cc1
REMARK SMILES IDX 10 1 9 2 8 3 7 4 6 5 5 6 4 7 3 8 2 9 1 10 44 11 45 12 106 13
REMARK SMILES IDX 46 14 105 15 47 16 48 17 49 18 99 19 50 20 104 21 98 22
REMARK SMILES IDX 100 23 51 24 103 25 97 26 96 27 52 29 84 30 64 31 83 32
REMARK SMILES IDX 65 33 68 34 82 35 101 36 66 37 67 38 81 40 102 41 69 42
REMARK SMILES IDX 53 43 54 44 62 45 55 46 56 47 60 48 63 49 57 50 58 51 61 52
REMARK SMILES IDX 59 53 85 54 86 55 94 56 87 57 88 58 92 59 95 60 89 61 90 62
REMARK SMILES IDX 93 63 91 64 70 65 71 66 79 67 72 68 73 69 77 70 80 71 74 72
REMARK SMILES IDX 75 73 78 74 76 75 11 76 12 77 13 78 14 79 15 80 16 81 17 82
REMARK SMILES IDX 18 83 19 84 23 85 20 86 22 87 21 88 24 89 25 90 43 91 26 92
REMARK SMILES IDX 27 93 28 94 29 95 30 96 41 97 31 98 33 99 42 100 32 101
REMARK SMILES IDX 34 102 35 103 36 104 40 105 37 106 39 107 38 108
REMARK H PARENT 100 28 68 39
REMARK Flexibility Score: inf
ROOT
ATOM      1  C   UNL A   1      56.221  30.489  25.015  1.00  0.00     0.188 C 
ENDROOT
BRANCH   1   2
ATOM      2  O   UNL A   1      56.966  29.954  23.928  1.00  0.00    -0.377 OA
BRANCH   2   3
ATOM      3  C   UNL A   1      57.336  28.580  24.009  1.00  0.00     0.188 C 
BRANCH   3   4
ATOM      4  C   UNL A   1      57.484  28.037  25.430  1.00  0.00     0.188 C 
BRANCH   4   5
ATOM      5  O   UNL A   1      56.528  26.998  25.661  1.00  0.00    -0.376 OA
BRANCH   5   6
ATOM      6  C   UNL A   1      56.696  26.277  26.880  1.00  0.00     0.202 C 
BRANCH   6   7
ATOM      7  C   UNL A   1      55.527  25.346  27.197  1.00  0.00     0.261 C 
BRANCH   7   8
ATOM      8  O   UNL A   1      54.359  26.075  27.599  1.00  0.00    -0.460 OA
BRANCH   8   9
ATOM      9  C   UNL A   1      53.922  26.317  28.860  1.00  0.00     0.338 C 
ATOM     10  O   UNL A   1      54.698  26.102  29.790  1.00  0.00    -0.246 OA
BRANCH   9  11
ATOM     11  C   UNL A   1      52.569  26.866  29.204  1.00  0.00     0.060 A 
ATOM     12  C   UNL A   1      52.297  27.870  30.139  1.00  0.00     0.016 A 
ATOM     13  C   UNL A   1      51.483  26.349  28.474  1.00  0.00     0.016 A 
ATOM     14  C   UNL A   1      51.002  28.298  30.398  1.00  0.00     0.010 A 
ATOM     15  C   UNL A   1      50.175  26.783  28.714  1.00  0.00     0.010 A 
ATOM     16  C   UNL A   1      49.934  27.735  29.707  1.00  0.00    -0.014 A 
BRANCH  16  17
ATOM     17  C   UNL A   1      48.575  28.013  30.201  1.00  0.00     0.031 A 
ATOM     18  C   UNL A   1      47.821  29.134  29.553  1.00  0.00     0.074 A 
ATOM     19  C   UNL A   1      47.995  27.193  31.093  1.00  0.00     0.049 A 
ATOM     20  N   UNL A   1      46.637  29.611  29.828  1.00  0.00    -0.248 NA
ATOM     21  C   UNL A   1      48.491  29.799  28.420  1.00  0.00     0.031 C 
ATOM     22  C   UNL A   1      48.612  25.993  31.660  1.00  0.00     0.029 A 
ATOM     23  N   UNL A   1      46.747  27.227  31.655  1.00  0.00    -0.354 N 
ATOM     24  C   UNL A   1      46.437  30.648  28.926  1.00  0.00     0.074 A 
ATOM     25  C   UNL A   1      47.614  30.735  28.095  1.00  0.00     0.031 C 
ATOM     26  C   UNL A   1      47.734  25.399  32.486  1.00  0.00     0.029 A 
ATOM     27  C   UNL A   1      46.523  26.211  32.551  1.00  0.00     0.049 A 
ATOM     28  H   UNL A   1      46.075  27.913  31.438  1.00  0.00     0.167 HD
ATOM     29  C   UNL A   1      45.361  31.460  28.818  1.00  0.00     0.037 A 
ATOM     30  C   UNL A   1      45.464  25.997  33.355  1.00  0.00     0.037 A 
ATOM     31  C   UNL A   1      44.206  31.346  29.664  1.00  0.00     0.049 A 
ATOM     32  C   UNL A   1      44.320  26.976  33.286  1.00  0.00     0.074 A 
ATOM     33  C   UNL A   1      43.081  32.146  29.713  1.00  0.00     0.029 A 
ATOM     34  N   UNL A   1      44.039  30.350  30.620  1.00  0.00    -0.354 N 
ATOM     35  N   UNL A   1      44.161  28.009  32.492  1.00  0.00    -0.248 NA
ATOM     36  C   UNL A   1      43.218  26.774  34.234  1.00  0.00     0.031 C 
ATOM     37  C   UNL A   1      42.252  31.659  30.731  1.00  0.00     0.029 A 
ATOM     38  C   UNL A   1      42.835  30.525  31.278  1.00  0.00     0.049 A 
ATOM     39  H   UNL A   1      44.682  29.629  30.802  1.00  0.00     0.167 HD
ATOM     40  C   UNL A   1      42.939  28.572  32.831  1.00  0.00     0.074 A 
ATOM     41  C   UNL A   1      42.389  27.750  33.891  1.00  0.00     0.031 C 
ATOM     42  C   UNL A   1      42.327  29.671  32.323  1.00  0.00     0.037 A 
BRANCH  29  43
ATOM     43  C   UNL A   1      45.444  32.570  27.814  1.00  0.00     0.064 A 
ATOM     44  C   UNL A   1      46.169  33.746  28.057  1.00  0.00     0.173 A 
ATOM     45  C   UNL A   1      44.736  32.476  26.605  1.00  0.00     0.173 A 
ATOM     46  F   UNL A   1      46.834  33.902  29.212  1.00  0.00    -0.203 F 
ATOM     47  C   UNL A   1      46.154  34.799  27.144  1.00  0.00     0.198 A 
ATOM     48  C   UNL A   1      44.747  33.518  25.682  1.00  0.00     0.198 A 
ATOM     49  F   UNL A   1      44.017  31.377  26.327  1.00  0.00    -0.203 F 
ATOM     50  F   UNL A   1      46.799  35.938  27.428  1.00  0.00    -0.200 F 
ATOM     51  C   UNL A   1      45.447  34.682  25.957  1.00  0.00     0.200 A 
ATOM     52  F   UNL A   1      44.062  33.403  24.536  1.00  0.00    -0.200 F 
ATOM     53  F   UNL A   1      45.424  35.700  25.086  1.00  0.00    -0.200 F 
ENDBRANCH  29  43
BRANCH  30  54
ATOM     54  C   UNL A   1      45.464  24.859  34.315  1.00  0.00     0.064 A 
ATOM     55  C   UNL A   1      44.967  23.599  33.956  1.00  0.00     0.173 A 
ATOM     56  C   UNL A   1      45.954  25.013  35.621  1.00  0.00     0.173 A 
ATOM     57  F   UNL A   1      44.464  23.402  32.728  1.00  0.00    -0.203 F 
ATOM     58  C   UNL A   1      44.948  22.543  34.867  1.00  0.00     0.198 A 
ATOM     59  C   UNL A   1      45.964  23.950  36.522  1.00  0.00     0.198 A 
ATOM     60  F   UNL A   1      46.436  26.198  36.024  1.00  0.00    -0.203 F 
ATOM     61  F   UNL A   1      44.424  21.362  34.512  1.00  0.00    -0.200 F 
ATOM     62  C   UNL A   1      45.452  22.718  36.147  1.00  0.00     0.200 A 
ATOM     63  F   UNL A   1      46.465  24.121  37.752  1.00  0.00    -0.200 F 
ATOM     64  F   UNL A   1      45.439  21.702  37.022  1.00  0.00    -0.200 F 
ENDBRANCH  30  54
BRANCH  42  65
ATOM     65  C   UNL A   1      40.984  30.020  32.890  1.00  0.00     0.064 A 
ATOM     66  C   UNL A   1      40.835  31.030  33.850  1.00  0.00     0.173 A 
ATOM     67  C   UNL A   1      39.831  29.375  32.420  1.00  0.00     0.173 A 
ATOM     68  F   UNL A   1      41.912  31.663  34.338  1.00  0.00    -0.203 F 
ATOM     69  C   UNL A   1      39.576  31.369  34.335  1.00  0.00     0.198 A 
ATOM     70  C   UNL A   1      38.572  29.737  32.885  1.00  0.00     0.198 A 
ATOM     71  F   UNL A   1      39.926  28.408  31.495  1.00  0.00    -0.203 F 
ATOM     72  F   UNL A   1      39.456  32.309  35.283  1.00  0.00    -0.200 F 
ATOM     73  C   UNL A   1      38.446  30.729  33.846  1.00  0.00     0.200 A 
ATOM     74  F   UNL A   1      37.480  29.129  32.401  1.00  0.00    -0.200 F 
ATOM     75  F   UNL A   1      37.233  31.066  34.306  1.00  0.00    -0.200 F 
ENDBRANCH  42  65
ENDBRANCH  16  17
ENDBRANCH   9  11
ENDBRANCH   8   9
ENDBRANCH   7   8
ENDBRANCH   6   7
ENDBRANCH   5   6
ENDBRANCH   4   5
ENDBRANCH   3   4
ENDBRANCH   2   3
ENDBRANCH   1   2
BRANCH   1  76
ATOM     76  C   UNL A   1      54.750  30.915  24.785  1.00  0.00     0.188 C 
BRANCH  76  77
ATOM     77  O   UNL A   1      53.938  29.987  24.073  1.00  0.00    -0.376 OA
BRANCH  77  78
ATOM     78  C   UNL A   1      53.699  28.750  24.744  1.00  0.00     0.202 C 
BRANCH  78  79
ATOM     79  C   UNL A   1      52.581  28.808  25.778  1.00  0.00     0.261 C 
BRANCH  79  80
ATOM     80  O   UNL A   1      51.312  28.415  25.247  1.00  0.00    -0.460 OA
BRANCH  80  81
ATOM     81  C   UNL A   1      51.164  27.227  24.621  1.00  0.00     0.338 C 
ATOM     82  O   UNL A   1      51.479  26.130  25.043  1.00  0.00    -0.246 OA
BRANCH  81  83
ATOM     83  C   UNL A   1      50.392  27.503  23.380  1.00  0.00     0.071 A 
ATOM     84  C   UNL A   1      51.131  27.773  22.217  1.00  0.00     0.016 A 
ATOM     85  C   UNL A   1      48.995  27.304  23.322  1.00  0.00     0.032 A 
ATOM     86  C   UNL A   1      50.488  27.798  20.979  1.00  0.00     0.001 A 
ATOM     87  C   UNL A   1      48.369  27.348  22.067  1.00  0.00     0.013 A 
ATOM     88  C   UNL A   1      49.112  27.582  20.905  1.00  0.00     0.001 A 
BRANCH  85  89
ATOM     89  C   UNL A   1      48.224  27.031  24.530  1.00  0.00     0.135 A 
ATOM     90  C   UNL A   1      47.569  27.854  25.421  1.00  0.00     0.051 A 
ATOM     91  O   UNL A   1      48.174  25.739  24.966  1.00  0.00    -0.457 OA
ATOM     92  C   UNL A   1      47.217  27.045  26.513  1.00  0.00     0.051 A 
ATOM     93  C   UNL A   1      47.502  25.730  26.163  1.00  0.00     0.128 A 
BRANCH  93  94
ATOM     94  C   UNL A   1      47.077  24.572  26.865  1.00  0.00     0.068 C 
ATOM     95  C   UNL A   1      45.790  24.213  26.754  1.00  0.00     0.084 C 
ATOM     96  S   UNL A   1      44.914  23.273  27.893  1.00  0.00    -0.054 SA
ATOM     97  C   UNL A   1      44.834  24.786  25.767  1.00  0.00     0.266 C 
ATOM     98  C   UNL A   1      43.382  24.042  27.430  1.00  0.00     0.148 C 
ATOM     99  N   UNL A   1      43.567  24.813  26.304  1.00  0.00    -0.288 N 
ATOM    100  O   UNL A   1      45.136  25.130  24.633  1.00  0.00    -0.268 OA
ATOM    101  S   UNL A   1      41.977  23.796  28.293  1.00  0.00    -0.052 S 
BRANCH  99 102
ATOM    102  C   UNL A   1      42.534  25.556  25.583  1.00  0.00     0.163 C 
BRANCH 102 103
ATOM    103  C   UNL A   1      42.083  26.817  26.301  1.00  0.00    -0.028 A 
ATOM    104  C   UNL A   1      43.025  27.694  26.855  1.00  0.00     0.005 A 
ATOM    105  C   UNL A   1      40.720  27.101  26.493  1.00  0.00     0.005 A 
ATOM    106  C   UNL A   1      42.616  28.817  27.581  1.00  0.00     0.000 A 
ATOM    107  C   UNL A   1      40.311  28.234  27.201  1.00  0.00     0.000 A 
ATOM    108  C   UNL A   1      41.260  29.089  27.751  1.00  0.00     0.000 A 
ENDBRANCH 102 103
ENDBRANCH  99 102
ENDBRANCH  93  94
ENDBRANCH  85  89
ENDBRANCH  81  83
ENDBRANCH  80  81
ENDBRANCH  79  80
ENDBRANCH  78  79
ENDBRANCH  77  78
ENDBRANCH  76  77
ENDBRANCH   1  76
TORSDOF 24
ENDMDL
