MODEL 1
REMARK VINA RESULT:     -12.4      0.000      0.000
REMARK SMILES Cc1ccc([C@@]23C[C@@H]4C[C@@H](C[C@@](C(=O)N5CCC(C(=O)OCCOCCOCCOCCOC(=O)c6ccc(-c7c8nc(c(-c9c(F)c(F)c(F)c(F)c9F)c9ccc([nH]9)c(-c9c(F)c(F)c(F)c(F)c9F)c9nc(c(-c%10c(F)c(F)c(F)c(F)c%10F)c%10ccc7[nH]%10)C=C9)C=C8)cc6)CC5)(C4)C2)C3)cc1
REMARK SMILES IDX 27 1 26 2 25 3 24 4 23 5 22 6 21 7 19 8 20 9 18 10 13 11
REMARK SMILES IDX 14 12 15 13 16 14 100 15 17 16 99 17 12 18 6 19 7 20 102 21
REMARK SMILES IDX 103 22 8 23 10 24 9 25 101 26 11 27 5 28 1 29 2 30 3 31
REMARK SMILES IDX 105 32 4 33 104 34 28 35 29 36 30 37 31 38 32 39 33 40 34 41
REMARK SMILES IDX 35 42 36 43 37 44 98 45 38 46 97 47 39 48 40 49 41 50 91 51
REMARK SMILES IDX 42 52 96 53 90 54 92 55 43 56 95 57 89 58 88 59 44 61 76 62
REMARK SMILES IDX 56 63 75 64 57 65 60 66 74 67 93 68 58 69 59 70 73 72 94 73
REMARK SMILES IDX 61 74 45 75 46 76 54 77 47 78 48 79 52 80 55 81 49 82 50 83
REMARK SMILES IDX 53 84 51 85 77 86 78 87 86 88 79 89 80 90 84 91 87 92 81 93
REMARK SMILES IDX 82 94 85 95 83 96 62 97 63 98 71 99 64 100 65 101 69 102
REMARK SMILES IDX 72 103 66 104 67 105 70 106 68 107
REMARK H PARENT 92 60 60 71
REMARK Flexibility Score: inf
ROOT
ATOM      1  O   UNL A   1      36.723  32.580  29.492  1.00  0.00    -0.377 OA
ENDROOT
BRANCH   1   2
ATOM      2  C   UNL A   1      37.398  31.867  28.462  1.00  0.00     0.188 C 
BRANCH   2   3
ATOM      3  C   UNL A   1      37.179  30.346  28.336  1.00  0.00     0.188 C 
BRANCH   3   4
ATOM      4  O   UNL A   1      36.172  29.886  27.454  1.00  0.00    -0.376 OA
BRANCH   4   5
ATOM      5  C   UNL A   1      35.027  30.716  27.395  1.00  0.00     0.202 C 
BRANCH   5   6
ATOM      6  C   UNL A   1      33.669  30.041  27.369  1.00  0.00     0.261 C 
BRANCH   6   7
ATOM      7  O   UNL A   1      33.359  29.633  26.039  1.00  0.00    -0.463 OA
BRANCH   7   8
ATOM      8  C   UNL A   1      32.067  29.657  25.692  1.00  0.00     0.309 C 
ATOM      9  O   UNL A   1      31.415  30.664  25.413  1.00  0.00    -0.252 OA
BRANCH   8  10
ATOM     10  C   UNL A   1      31.564  28.264  25.498  1.00  0.00     0.103 C 
ATOM     11  C   UNL A   1      31.647  24.113  26.170  1.00  0.00     0.228 C 
ATOM     12  O   UNL A   1      31.243  23.762  27.281  1.00  0.00    -0.274 OA
ATOM     13  N   UNL A   1      31.447  25.417  25.706  1.00  0.00    -0.342 N 
ATOM     14  C   UNL A   1      30.402  26.239  26.324  1.00  0.00     0.120 C 
ATOM     15  C   UNL A   1      32.130  26.064  24.581  1.00  0.00     0.120 C 
ATOM     16  C   UNL A   1      30.938  27.613  26.730  1.00  0.00     0.037 C 
ATOM     17  C   UNL A   1      32.707  27.380  25.008  1.00  0.00     0.037 C 
BRANCH  11  18
ATOM     18  C   UNL A   1      32.290  23.081  25.215  1.00  0.00     0.051 C 
ATOM     19  C   UNL A   1      34.634  22.161  24.648  1.00  0.00    -0.003 C 
ATOM     20  C   UNL A   1      34.040  20.758  24.974  1.00  0.00     0.015 C 
ATOM     21  C   UNL A   1      33.811  23.191  25.421  1.00  0.00     0.028 C 
ATOM     22  C   UNL A   1      34.393  22.489  23.154  1.00  0.00     0.015 C 
ATOM     23  C   UNL A   1      32.553  20.659  24.576  1.00  0.00    -0.009 C 
ATOM     24  C   UNL A   1      32.881  22.432  22.826  1.00  0.00    -0.009 C 
ATOM     25  C   UNL A   1      32.391  20.998  23.087  1.00  0.00     0.007 C 
ATOM     26  C   UNL A   1      31.721  21.657  25.393  1.00  0.00     0.020 C 
ATOM     27  C   UNL A   1      32.079  23.422  23.714  1.00  0.00     0.020 C 
BRANCH  19  28
ATOM     28  C   UNL A   1      36.117  22.232  25.070  1.00  0.00    -0.042 A 
ATOM     29  C   UNL A   1      40.243  22.376  26.435  1.00  0.00     0.044 C 
ATOM     30  C   UNL A   1      38.823  22.309  25.962  1.00  0.00    -0.051 A 
ATOM     31  C   UNL A   1      38.037  23.456  26.002  1.00  0.00     0.004 A 
ATOM     32  C   UNL A   1      38.258  21.126  25.475  1.00  0.00     0.004 A 
ATOM     33  C   UNL A   1      36.717  23.418  25.553  1.00  0.00     0.004 A 
ATOM     34  C   UNL A   1      36.924  21.088  25.039  1.00  0.00     0.004 A 
ENDBRANCH  19  28
ENDBRANCH  11  18
ENDBRANCH   8  10
ENDBRANCH   7   8
ENDBRANCH   6   7
ENDBRANCH   5   6
ENDBRANCH   4   5
ENDBRANCH   3   4
ENDBRANCH   2   3
ENDBRANCH   1   2
BRANCH   1  35
ATOM     35  C   UNL A   1      36.224  33.884  29.188  1.00  0.00     0.188 C 
BRANCH  35  36
ATOM     36  C   UNL A   1      34.749  34.008  28.834  1.00  0.00     0.188 C 
BRANCH  36  37
ATOM     37  O   UNL A   1      34.590  35.208  28.078  1.00  0.00    -0.376 OA
BRANCH  37  38
ATOM     38  C   UNL A   1      33.844  36.240  28.712  1.00  0.00     0.202 C 
BRANCH  38  39
ATOM     39  C   UNL A   1      32.936  35.729  29.835  1.00  0.00     0.261 C 
BRANCH  39  40
ATOM     40  O   UNL A   1      33.520  36.075  31.115  1.00  0.00    -0.460 OA
BRANCH  40  41
ATOM     41  C   UNL A   1      32.976  35.486  32.216  1.00  0.00     0.338 C 
ATOM     42  O   UNL A   1      31.862  35.727  32.647  1.00  0.00    -0.246 OA
BRANCH  41  43
ATOM     43  C   UNL A   1      33.938  34.550  32.872  1.00  0.00     0.060 A 
ATOM     44  C   UNL A   1      34.717  34.964  33.965  1.00  0.00     0.016 A 
ATOM     45  C   UNL A   1      34.203  33.317  32.293  1.00  0.00     0.016 A 
ATOM     46  C   UNL A   1      35.849  34.223  34.360  1.00  0.00     0.010 A 
ATOM     47  C   UNL A   1      35.376  32.653  32.615  1.00  0.00     0.010 A 
ATOM     48  C   UNL A   1      36.242  33.106  33.624  1.00  0.00    -0.014 A 
BRANCH  48  49
ATOM     49  C   UNL A   1      37.576  32.448  33.697  1.00  0.00     0.031 A 
ATOM     50  C   UNL A   1      37.793  31.123  33.019  1.00  0.00     0.074 A 
ATOM     51  C   UNL A   1      38.644  33.224  34.024  1.00  0.00     0.049 A 
ATOM     52  N   UNL A   1      38.932  30.529  32.880  1.00  0.00    -0.248 NA
ATOM     53  C   UNL A   1      36.711  30.348  32.407  1.00  0.00     0.031 C 
ATOM     54  C   UNL A   1      40.008  33.122  33.501  1.00  0.00     0.029 A 
ATOM     55  N   UNL A   1      38.714  34.375  34.808  1.00  0.00    -0.354 N 
ATOM     56  C   UNL A   1      38.808  29.552  31.903  1.00  0.00     0.074 A 
ATOM     57  C   UNL A   1      37.385  29.403  31.737  1.00  0.00     0.031 C 
ATOM     58  C   UNL A   1      40.766  34.138  33.943  1.00  0.00     0.029 A 
ATOM     59  C   UNL A   1      40.069  34.684  35.070  1.00  0.00     0.049 A 
ATOM     60  H   UNL A   1      37.941  34.891  35.130  1.00  0.00     0.167 HD
ATOM     61  C   UNL A   1      39.928  29.105  31.242  1.00  0.00     0.037 A 
ATOM     62  C   UNL A   1      40.550  34.507  36.343  1.00  0.00     0.037 A 
ATOM     63  C   UNL A   1      41.186  29.590  31.877  1.00  0.00     0.049 A 
ATOM     64  C   UNL A   1      41.326  33.182  36.516  1.00  0.00     0.074 A 
ATOM     65  C   UNL A   1      42.393  30.120  31.443  1.00  0.00     0.029 A 
ATOM     66  N   UNL A   1      41.238  29.702  33.266  1.00  0.00    -0.354 N 
ATOM     67  N   UNL A   1      41.727  32.415  35.524  1.00  0.00    -0.248 NA
ATOM     68  C   UNL A   1      41.668  32.582  37.803  1.00  0.00     0.031 C 
ATOM     69  C   UNL A   1      43.131  30.580  32.587  1.00  0.00     0.029 A 
ATOM     70  C   UNL A   1      42.405  30.278  33.724  1.00  0.00     0.049 A 
ATOM     71  H   UNL A   1      40.514  29.401  33.861  1.00  0.00     0.167 HD
ATOM     72  C   UNL A   1      42.258  31.239  35.979  1.00  0.00     0.074 A 
ATOM     73  C   UNL A   1      42.202  31.404  37.426  1.00  0.00     0.031 C 
ATOM     74  C   UNL A   1      42.668  30.210  35.159  1.00  0.00     0.037 A 
BRANCH  61  75
ATOM     75  C   UNL A   1      39.921  28.378  29.879  1.00  0.00     0.064 A 
ATOM     76  C   UNL A   1      39.382  27.073  29.759  1.00  0.00     0.173 A 
ATOM     77  C   UNL A   1      40.531  28.847  28.690  1.00  0.00     0.173 A 
ATOM     78  F   UNL A   1      38.744  26.492  30.783  1.00  0.00    -0.203 F 
ATOM     79  C   UNL A   1      39.477  26.306  28.583  1.00  0.00     0.198 A 
ATOM     80  C   UNL A   1      40.563  28.106  27.494  1.00  0.00     0.198 A 
ATOM     81  F   UNL A   1      41.179  30.016  28.639  1.00  0.00    -0.203 F 
ATOM     82  F   UNL A   1      39.007  25.049  28.566  1.00  0.00    -0.200 F 
ATOM     83  C   UNL A   1      40.055  26.828  27.446  1.00  0.00     0.200 A 
ATOM     84  F   UNL A   1      41.118  28.640  26.395  1.00  0.00    -0.200 F 
ATOM     85  F   UNL A   1      40.131  26.104  26.320  1.00  0.00    -0.200 F 
ENDBRANCH  61  75
BRANCH  62  86
ATOM     86  C   UNL A   1      39.674  35.301  37.281  1.00  0.00     0.064 A 
ATOM     87  C   UNL A   1      38.821  34.476  38.064  1.00  0.00     0.173 A 
ATOM     88  C   UNL A   1      40.207  36.434  37.916  1.00  0.00     0.173 A 
ATOM     89  F   UNL A   1      38.228  33.411  37.500  1.00  0.00    -0.203 F 
ATOM     90  C   UNL A   1      38.828  34.558  39.457  1.00  0.00     0.198 A 
ATOM     91  C   UNL A   1      40.160  36.545  39.314  1.00  0.00     0.198 A 
ATOM     92  F   UNL A   1      40.975  37.291  37.229  1.00  0.00    -0.203 F 
ATOM     93  F   UNL A   1      38.281  33.576  40.189  1.00  0.00    -0.200 F 
ATOM     94  C   UNL A   1      39.550  35.560  40.081  1.00  0.00     0.200 A 
ATOM     95  F   UNL A   1      40.850  37.516  39.931  1.00  0.00    -0.200 F 
ATOM     96  F   UNL A   1      39.743  35.519  41.409  1.00  0.00    -0.200 F 
ENDBRANCH  62  86
BRANCH  74  97
ATOM     97  C   UNL A   1      43.266  28.907  35.659  1.00  0.00     0.064 A 
ATOM     98  C   UNL A   1      44.612  28.573  35.490  1.00  0.00     0.173 A 
ATOM     99  C   UNL A   1      42.475  27.911  36.293  1.00  0.00     0.173 A 
ATOM    100  F   UNL A   1      45.409  29.304  34.699  1.00  0.00    -0.203 F 
ATOM    101  C   UNL A   1      45.172  27.450  36.102  1.00  0.00     0.198 A 
ATOM    102  C   UNL A   1      43.024  26.763  36.855  1.00  0.00     0.198 A 
ATOM    103  F   UNL A   1      41.144  28.000  36.397  1.00  0.00    -0.203 F 
ATOM    104  F   UNL A   1      46.491  27.239  36.010  1.00  0.00    -0.200 F 
ATOM    105  C   UNL A   1      44.382  26.560  36.806  1.00  0.00     0.200 A 
ATOM    106  F   UNL A   1      42.224  25.871  37.459  1.00  0.00    -0.200 F 
ATOM    107  F   UNL A   1      44.926  25.499  37.417  1.00  0.00    -0.200 F 
ENDBRANCH  74  97
ENDBRANCH  48  49
ENDBRANCH  41  43
ENDBRANCH  40  41
ENDBRANCH  39  40
ENDBRANCH  38  39
ENDBRANCH  37  38
ENDBRANCH  36  37
ENDBRANCH  35  36
ENDBRANCH   1  35
TORSDOF 22
ENDMDL
MODEL 2
REMARK VINA RESULT:     -11.5      5.577     10.521
REMARK SMILES Cc1ccc([C@@]23C[C@@H]4C[C@@H](C[C@@](C(=O)N5CCC(C(=O)OCCOCCOCCOCCOC(=O)c6ccc(-c7c8nc(c(-c9c(F)c(F)c(F)c(F)c9F)c9ccc([nH]9)c(-c9c(F)c(F)c(F)c(F)c9F)c9nc(c(-c%10c(F)c(F)c(F)c(F)c%10F)c%10ccc7[nH]%10)C=C9)C=C8)cc6)CC5)(C4)C2)C3)cc1
REMARK SMILES IDX 27 1 26 2 25 3 24 4 23 5 22 6 21 7 19 8 20 9 18 10 13 11
REMARK SMILES IDX 14 12 15 13 16 14 100 15 17 16 99 17 12 18 6 19 7 20 102 21
REMARK SMILES IDX 103 22 8 23 10 24 9 25 101 26 11 27 5 28 1 29 2 30 3 31
REMARK SMILES IDX 105 32 4 33 104 34 28 35 29 36 30 37 31 38 32 39 33 40 34 41
REMARK SMILES IDX 35 42 36 43 37 44 98 45 38 46 97 47 39 48 40 49 41 50 91 51
REMARK SMILES IDX 42 52 96 53 90 54 92 55 43 56 95 57 89 58 88 59 44 61 76 62
REMARK SMILES IDX 56 63 75 64 57 65 60 66 74 67 93 68 58 69 59 70 73 72 94 73
REMARK SMILES IDX 61 74 45 75 46 76 54 77 47 78 48 79 52 80 55 81 49 82 50 83
REMARK SMILES IDX 53 84 51 85 77 86 78 87 86 88 79 89 80 90 84 91 87 92 81 93
REMARK SMILES IDX 82 94 85 95 83 96 62 97 63 98 71 99 64 100 65 101 69 102
REMARK SMILES IDX 72 103 66 104 67 105 70 106 68 107
REMARK H PARENT 92 60 60 71
REMARK Flexibility Score: inf
ROOT
ATOM      1  O   UNL A   1      33.802  33.798  28.721  1.00  0.00    -0.377 OA
ENDROOT
BRANCH   1   2
ATOM      2  C   UNL A   1      33.464  32.827  27.737  1.00  0.00     0.188 C 
BRANCH   2   3
ATOM      3  C   UNL A   1      34.035  31.401  27.865  1.00  0.00     0.188 C 
BRANCH   3   4
ATOM      4  O   UNL A   1      33.660  30.440  26.894  1.00  0.00    -0.376 OA
BRANCH   4   5
ATOM      5  C   UNL A   1      32.266  30.206  26.816  1.00  0.00     0.202 C 
BRANCH   5   6
ATOM      6  C   UNL A   1      31.618  30.269  25.446  1.00  0.00     0.261 C 
BRANCH   6   7
ATOM      7  O   UNL A   1      30.997  29.021  25.150  1.00  0.00    -0.463 OA
BRANCH   7   8
ATOM      8  C   UNL A   1      30.930  28.679  23.857  1.00  0.00     0.309 C 
ATOM      9  O   UNL A   1      30.130  29.127  23.036  1.00  0.00    -0.252 OA
BRANCH   8  10
ATOM     10  C   UNL A   1      32.094  27.815  23.496  1.00  0.00     0.103 C 
ATOM     11  C   UNL A   1      33.958  24.101  22.845  1.00  0.00     0.228 C 
ATOM     12  O   UNL A   1      33.621  23.530  21.806  1.00  0.00    -0.274 OA
ATOM     13  N   UNL A   1      33.625  25.440  23.076  1.00  0.00    -0.342 N 
ATOM     14  C   UNL A   1      33.266  26.290  21.937  1.00  0.00     0.120 C 
ATOM     15  C   UNL A   1      33.666  26.147  24.360  1.00  0.00     0.120 C 
ATOM     16  C   UNL A   1      31.957  27.039  22.188  1.00  0.00     0.037 C 
ATOM     17  C   UNL A   1      32.355  26.823  24.626  1.00  0.00     0.037 C 
BRANCH  11  18
ATOM     18  C   UNL A   1      34.856  23.376  23.874  1.00  0.00     0.051 C 
ATOM     19  C   UNL A   1      35.068  21.045  24.963  1.00  0.00    -0.003 C 
ATOM     20  C   UNL A   1      36.530  21.050  24.423  1.00  0.00     0.015 C 
ATOM     21  C   UNL A   1      34.252  21.974  24.064  1.00  0.00     0.028 C 
ATOM     22  C   UNL A   1      35.033  21.704  26.363  1.00  0.00     0.015 C 
ATOM     23  C   UNL A   1      37.139  22.467  24.428  1.00  0.00    -0.009 C 
ATOM     24  C   UNL A   1      35.601  23.144  26.297  1.00  0.00    -0.009 C 
ATOM     25  C   UNL A   1      37.068  23.055  25.845  1.00  0.00     0.007 C 
ATOM     26  C   UNL A   1      36.349  23.383  23.483  1.00  0.00     0.020 C 
ATOM     27  C   UNL A   1      34.801  24.014  25.291  1.00  0.00     0.020 C 
BRANCH  19  28
ATOM     28  C   UNL A   1      34.483  19.617  24.931  1.00  0.00    -0.042 A 
ATOM     29  C   UNL A   1      32.874  15.580  25.032  1.00  0.00     0.044 C 
ATOM     30  C   UNL A   1      33.412  16.978  25.003  1.00  0.00    -0.051 A 
ATOM     31  C   UNL A   1      34.742  17.187  24.652  1.00  0.00     0.004 A 
ATOM     32  C   UNL A   1      32.619  18.085  25.316  1.00  0.00     0.004 A 
ATOM     33  C   UNL A   1      35.260  18.481  24.606  1.00  0.00     0.004 A 
ATOM     34  C   UNL A   1      33.148  19.385  25.284  1.00  0.00     0.004 A 
ENDBRANCH  19  28
ENDBRANCH  11  18
ENDBRANCH   8  10
ENDBRANCH   7   8
ENDBRANCH   6   7
ENDBRANCH   5   6
ENDBRANCH   4   5
ENDBRANCH   3   4
ENDBRANCH   2   3
ENDBRANCH   1   2
BRANCH   1  35
ATOM     35  C   UNL A   1      34.700  33.411  29.764  1.00  0.00     0.188 C 
BRANCH  35  36
ATOM     36  C   UNL A   1      36.172  33.750  29.585  1.00  0.00     0.188 C 
BRANCH  36  37
ATOM     37  O   UNL A   1      36.913  32.542  29.755  1.00  0.00    -0.376 OA
BRANCH  37  38
ATOM     38  C   UNL A   1      36.290  31.547  30.559  1.00  0.00     0.202 C 
BRANCH  38  39
ATOM     39  C   UNL A   1      37.135  30.279  30.716  1.00  0.00     0.261 C 
BRANCH  39  40
ATOM     40  O   UNL A   1      38.297  30.370  29.856  1.00  0.00    -0.460 OA
BRANCH  40  41
ATOM     41  C   UNL A   1      39.502  30.532  30.470  1.00  0.00     0.338 C 
ATOM     42  O   UNL A   1      39.772  31.447  31.228  1.00  0.00    -0.246 OA
BRANCH  41  43
ATOM     43  C   UNL A   1      40.479  29.482  30.051  1.00  0.00     0.060 A 
ATOM     44  C   UNL A   1      41.126  28.677  31.004  1.00  0.00     0.016 A 
ATOM     45  C   UNL A   1      40.895  29.416  28.729  1.00  0.00     0.016 A 
ATOM     46  C   UNL A   1      42.279  27.943  30.657  1.00  0.00     0.010 A 
ATOM     47  C   UNL A   1      42.088  28.780  28.422  1.00  0.00     0.010 A 
ATOM     48  C   UNL A   1      42.825  28.064  29.380  1.00  0.00    -0.014 A 
BRANCH  48  49
ATOM     49  C   UNL A   1      44.197  27.647  28.984  1.00  0.00     0.031 A 
ATOM     50  C   UNL A   1      45.358  28.573  29.227  1.00  0.00     0.074 A 
ATOM     51  C   UNL A   1      44.420  26.320  28.784  1.00  0.00     0.049 A 
ATOM     52  N   UNL A   1      46.605  28.271  29.070  1.00  0.00    -0.248 NA
ATOM     53  C   UNL A   1      45.201  29.950  29.700  1.00  0.00     0.031 C 
ATOM     54  C   UNL A   1      45.632  25.565  29.111  1.00  0.00     0.029 A 
ATOM     55  N   UNL A   1      43.552  25.316  28.359  1.00  0.00    -0.354 N 
ATOM     56  C   UNL A   1      47.378  29.213  29.734  1.00  0.00     0.074 A 
ATOM     57  C   UNL A   1      46.461  30.293  29.997  1.00  0.00     0.031 C 
ATOM     58  C   UNL A   1      45.446  24.252  28.902  1.00  0.00     0.029 A 
ATOM     59  C   UNL A   1      44.292  24.149  28.057  1.00  0.00     0.049 A 
ATOM     60  H   UNL A   1      42.575  25.405  28.281  1.00  0.00     0.167 HD
ATOM     61  C   UNL A   1      48.659  28.892  30.118  1.00  0.00     0.037 A 
ATOM     62  C   UNL A   1      44.418  23.771  26.744  1.00  0.00     0.037 A 
ATOM     63  C   UNL A   1      49.119  27.607  29.522  1.00  0.00     0.049 A 
ATOM     64  C   UNL A   1      45.765  24.200  26.118  1.00  0.00     0.074 A 
ATOM     65  C   UNL A   1      49.800  26.479  29.961  1.00  0.00     0.029 A 
ATOM     66  N   UNL A   1      48.718  27.285  28.226  1.00  0.00    -0.354 N 
ATOM     67  N   UNL A   1      46.800  24.641  26.802  1.00  0.00    -0.248 NA
ATOM     68  C   UNL A   1      46.044  24.221  24.686  1.00  0.00     0.031 C 
ATOM     69  C   UNL A   1      49.756  25.483  28.927  1.00  0.00     0.029 A 
ATOM     70  C   UNL A   1      49.102  26.019  27.833  1.00  0.00     0.049 A 
ATOM     71  H   UNL A   1      48.210  27.899  27.648  1.00  0.00     0.167 HD
ATOM     72  C   UNL A   1      47.798  25.081  25.976  1.00  0.00     0.074 A 
ATOM     73  C   UNL A   1      47.268  24.784  24.651  1.00  0.00     0.031 C 
ATOM     74  C   UNL A   1      48.956  25.682  26.419  1.00  0.00     0.037 A 
BRANCH  61  75
ATOM     75  C   UNL A   1      49.466  29.630  31.208  1.00  0.00     0.064 A 
ATOM     76  C   UNL A   1      50.647  30.339  30.878  1.00  0.00     0.173 A 
ATOM     77  C   UNL A   1      49.210  29.581  32.601  1.00  0.00     0.173 A 
ATOM     78  F   UNL A   1      51.020  30.505  29.601  1.00  0.00    -0.203 F 
ATOM     79  C   UNL A   1      51.501  30.906  31.842  1.00  0.00     0.198 A 
ATOM     80  C   UNL A   1      50.028  30.209  33.559  1.00  0.00     0.198 A 
ATOM     81  F   UNL A   1      48.196  28.875  33.110  1.00  0.00    -0.203 F 
ATOM     82  F   UNL A   1      52.641  31.500  31.458  1.00  0.00    -0.200 F 
ATOM     83  C   UNL A   1      51.183  30.854  33.182  1.00  0.00     0.200 A 
ATOM     84  F   UNL A   1      49.691  30.158  34.857  1.00  0.00    -0.200 F 
ATOM     85  F   UNL A   1      51.987  31.409  34.101  1.00  0.00    -0.200 F 
ENDBRANCH  61  75
BRANCH  62  86
ATOM     86  C   UNL A   1      43.029  23.634  26.170  1.00  0.00     0.064 A 
ATOM     87  C   UNL A   1      42.298  22.565  26.755  1.00  0.00     0.173 A 
ATOM     88  C   UNL A   1      42.302  24.795  25.859  1.00  0.00     0.173 A 
ATOM     89  F   UNL A   1      42.919  21.404  27.019  1.00  0.00    -0.203 F 
ATOM     90  C   UNL A   1      41.051  22.787  27.341  1.00  0.00     0.198 A 
ATOM     91  C   UNL A   1      41.023  24.991  26.400  1.00  0.00     0.198 A 
ATOM     92  F   UNL A   1      42.908  25.826  25.254  1.00  0.00    -0.203 F 
ATOM     93  F   UNL A   1      40.524  21.868  28.164  1.00  0.00    -0.200 F 
ATOM     94  C   UNL A   1      40.443  24.023  27.212  1.00  0.00     0.200 A 
ATOM     95  F   UNL A   1      40.419  26.182  26.276  1.00  0.00    -0.200 F 
ATOM     96  F   UNL A   1      39.359  24.317  27.947  1.00  0.00    -0.200 F 
ENDBRANCH  62  86
BRANCH  74  97
ATOM     97  C   UNL A   1      50.070  26.165  25.507  1.00  0.00     0.064 A 
ATOM     98  C   UNL A   1      49.878  27.137  24.521  1.00  0.00     0.173 A 
ATOM     99  C   UNL A   1      51.380  25.619  25.566  1.00  0.00     0.173 A 
ATOM    100  F   UNL A   1      48.647  27.553  24.195  1.00  0.00    -0.203 F 
ATOM    101  C   UNL A   1      50.949  27.682  23.810  1.00  0.00     0.198 A 
ATOM    102  C   UNL A   1      52.438  26.125  24.817  1.00  0.00     0.198 A 
ATOM    103  F   UNL A   1      51.696  24.577  26.344  1.00  0.00    -0.203 F 
ATOM    104  F   UNL A   1      50.729  28.695  22.962  1.00  0.00    -0.200 F 
ATOM    105  C   UNL A   1      52.231  27.194  23.978  1.00  0.00     0.200 A 
ATOM    106  F   UNL A   1      53.657  25.577  24.934  1.00  0.00    -0.200 F 
ATOM    107  F   UNL A   1      53.262  27.739  23.318  1.00  0.00    -0.200 F 
ENDBRANCH  74  97
ENDBRANCH  48  49
ENDBRANCH  41  43
ENDBRANCH  40  41
ENDBRANCH  39  40
ENDBRANCH  38  39
ENDBRANCH  37  38
ENDBRANCH  36  37
ENDBRANCH  35  36
ENDBRANCH   1  35
TORSDOF 22
ENDMDL
MODEL 3
REMARK VINA RESULT:     -11.5      1.247      2.059
REMARK SMILES Cc1ccc([C@@]23C[C@@H]4C[C@@H](C[C@@](C(=O)N5CCC(C(=O)OCCOCCOCCOCCOC(=O)c6ccc(-c7c8nc(c(-c9c(F)c(F)c(F)c(F)c9F)c9ccc([nH]9)c(-c9c(F)c(F)c(F)c(F)c9F)c9nc(c(-c%10c(F)c(F)c(F)c(F)c%10F)c%10ccc7[nH]%10)C=C9)C=C8)cc6)CC5)(C4)C2)C3)cc1
REMARK SMILES IDX 27 1 26 2 25 3 24 4 23 5 22 6 21 7 19 8 20 9 18 10 13 11
REMARK SMILES IDX 14 12 15 13 16 14 100 15 17 16 99 17 12 18 6 19 7 20 102 21
REMARK SMILES IDX 103 22 8 23 10 24 9 25 101 26 11 27 5 28 1 29 2 30 3 31
REMARK SMILES IDX 105 32 4 33 104 34 28 35 29 36 30 37 31 38 32 39 33 40 34 41
REMARK SMILES IDX 35 42 36 43 37 44 98 45 38 46 97 47 39 48 40 49 41 50 91 51
REMARK SMILES IDX 42 52 96 53 90 54 92 55 43 56 95 57 89 58 88 59 44 61 76 62
REMARK SMILES IDX 56 63 75 64 57 65 60 66 74 67 93 68 58 69 59 70 73 72 94 73
REMARK SMILES IDX 61 74 45 75 46 76 54 77 47 78 48 79 52 80 55 81 49 82 50 83
REMARK SMILES IDX 53 84 51 85 77 86 78 87 86 88 79 89 80 90 84 91 87 92 81 93
REMARK SMILES IDX 82 94 85 95 83 96 62 97 63 98 71 99 64 100 65 101 69 102
REMARK SMILES IDX 72 103 66 104 67 105 70 106 68 107
REMARK H PARENT 92 60 60 71
REMARK Flexibility Score: inf
ROOT
ATOM      1  O   UNL A   1      36.255  31.915  28.720  1.00  0.00    -0.377 OA
ENDROOT
BRANCH   1   2
ATOM      2  C   UNL A   1      35.584  31.257  27.651  1.00  0.00     0.188 C 
BRANCH   2   3
ATOM      3  C   UNL A   1      35.086  29.813  27.855  1.00  0.00     0.188 C 
BRANCH   3   4
ATOM      4  O   UNL A   1      33.800  29.473  27.369  1.00  0.00    -0.376 OA
BRANCH   4   5
ATOM      5  C   UNL A   1      32.937  30.581  27.187  1.00  0.00     0.202 C 
BRANCH   5   6
ATOM      6  C   UNL A   1      31.597  30.326  26.522  1.00  0.00     0.261 C 
BRANCH   6   7
ATOM      7  O   UNL A   1      31.750  30.351  25.106  1.00  0.00    -0.463 OA
BRANCH   7   8
ATOM      8  C   UNL A   1      31.191  29.342  24.427  1.00  0.00     0.309 C 
ATOM      9  O   UNL A   1      30.069  29.350  23.919  1.00  0.00    -0.252 OA
BRANCH   8  10
ATOM     10  C   UNL A   1      32.198  28.262  24.197  1.00  0.00     0.103 C 
ATOM     11  C   UNL A   1      33.349  24.375  23.077  1.00  0.00     0.228 C 
ATOM     12  O   UNL A   1      33.309  24.154  21.865  1.00  0.00    -0.274 OA
ATOM     13  N   UNL A   1      33.242  25.675  23.580  1.00  0.00    -0.342 N 
ATOM     14  C   UNL A   1      33.517  26.807  22.689  1.00  0.00     0.120 C 
ATOM     15  C   UNL A   1      32.952  26.061  24.965  1.00  0.00     0.120 C 
ATOM     16  C   UNL A   1      32.395  27.845  22.742  1.00  0.00     0.037 C 
ATOM     17  C   UNL A   1      31.809  27.029  25.008  1.00  0.00     0.037 C 
BRANCH  11  18
ATOM     18  C   UNL A   1      33.629  23.221  24.068  1.00  0.00     0.051 C 
ATOM     19  C   UNL A   1      35.588  22.312  25.482  1.00  0.00    -0.003 C 
ATOM     20  C   UNL A   1      34.635  22.476  26.704  1.00  0.00     0.015 C 
ATOM     21  C   UNL A   1      35.126  23.302  24.413  1.00  0.00     0.028 C 
ATOM     22  C   UNL A   1      35.383  20.913  24.852  1.00  0.00     0.015 C 
ATOM     23  C   UNL A   1      33.164  22.204  26.325  1.00  0.00    -0.009 C 
ATOM     24  C   UNL A   1      33.903  20.717  24.438  1.00  0.00    -0.009 C 
ATOM     25  C   UNL A   1      33.039  20.804  25.707  1.00  0.00     0.007 C 
ATOM     26  C   UNL A   1      32.688  23.234  25.292  1.00  0.00     0.020 C 
ATOM     27  C   UNL A   1      33.456  21.813  23.433  1.00  0.00     0.020 C 
BRANCH  19  28
ATOM     28  C   UNL A   1      37.047  22.604  25.890  1.00  0.00    -0.042 A 
ATOM     29  C   UNL A   1      41.193  23.486  26.860  1.00  0.00     0.044 C 
ATOM     30  C   UNL A   1      39.760  23.200  26.529  1.00  0.00    -0.051 A 
ATOM     31  C   UNL A   1      39.398  21.917  26.130  1.00  0.00     0.004 A 
ATOM     32  C   UNL A   1      38.768  24.181  26.611  1.00  0.00     0.004 A 
ATOM     33  C   UNL A   1      38.067  21.626  25.829  1.00  0.00     0.004 A 
ATOM     34  C   UNL A   1      37.433  23.888  26.293  1.00  0.00     0.004 A 
ENDBRANCH  19  28
ENDBRANCH  11  18
ENDBRANCH   8  10
ENDBRANCH   7   8
ENDBRANCH   6   7
ENDBRANCH   5   6
ENDBRANCH   4   5
ENDBRANCH   3   4
ENDBRANCH   2   3
ENDBRANCH   1   2
BRANCH   1  35
ATOM     35  C   UNL A   1      35.997  33.306  28.918  1.00  0.00     0.188 C 
BRANCH  35  36
ATOM     36  C   UNL A   1      34.590  33.808  28.628  1.00  0.00     0.188 C 
BRANCH  36  37
ATOM     37  O   UNL A   1      34.703  35.157  28.175  1.00  0.00    -0.376 OA
BRANCH  37  38
ATOM     38  C   UNL A   1      33.687  36.045  28.628  1.00  0.00     0.202 C 
BRANCH  38  39
ATOM     39  C   UNL A   1      32.810  35.449  29.733  1.00  0.00     0.261 C 
BRANCH  39  40
ATOM     40  O   UNL A   1      33.316  35.869  31.023  1.00  0.00    -0.460 OA
BRANCH  40  41
ATOM     41  C   UNL A   1      32.874  35.178  32.110  1.00  0.00     0.338 C 
ATOM     42  O   UNL A   1      31.701  35.045  32.412  1.00  0.00    -0.246 OA
BRANCH  41  43
ATOM     43  C   UNL A   1      34.008  34.651  32.927  1.00  0.00     0.060 A 
ATOM     44  C   UNL A   1      35.022  35.506  33.390  1.00  0.00     0.016 A 
ATOM     45  C   UNL A   1      34.167  33.281  33.083  1.00  0.00     0.016 A 
ATOM     46  C   UNL A   1      36.247  34.981  33.852  1.00  0.00     0.010 A 
ATOM     47  C   UNL A   1      35.409  32.777  33.434  1.00  0.00     0.010 A 
ATOM     48  C   UNL A   1      36.485  33.608  33.789  1.00  0.00    -0.014 A 
BRANCH  48  49
ATOM     49  C   UNL A   1      37.818  32.957  33.898  1.00  0.00     0.031 A 
ATOM     50  C   UNL A   1      38.089  31.680  33.149  1.00  0.00     0.074 A 
ATOM     51  C   UNL A   1      38.857  33.716  34.339  1.00  0.00     0.049 A 
ATOM     52  N   UNL A   1      39.240  31.104  33.041  1.00  0.00    -0.248 NA
ATOM     53  C   UNL A   1      37.054  30.940  32.424  1.00  0.00     0.031 C 
ATOM     54  C   UNL A   1      40.251  33.658  33.893  1.00  0.00     0.029 A 
ATOM     55  N   UNL A   1      38.868  34.813  35.200  1.00  0.00    -0.354 N 
ATOM     56  C   UNL A   1      39.185  30.192  31.996  1.00  0.00     0.074 A 
ATOM     57  C   UNL A   1      37.776  30.046  31.736  1.00  0.00     0.031 C 
ATOM     58  C   UNL A   1      40.970  34.647  34.445  1.00  0.00     0.029 A 
ATOM     59  C   UNL A   1      40.202  35.113  35.562  1.00  0.00     0.049 A 
ATOM     60  H   UNL A   1      38.072  35.302  35.508  1.00  0.00     0.167 HD
ATOM     61  C   UNL A   1      40.347  29.797  31.377  1.00  0.00     0.037 A 
ATOM     62  C   UNL A   1      40.608  34.856  36.848  1.00  0.00     0.037 A 
ATOM     63  C   UNL A   1      41.560  30.248  32.116  1.00  0.00     0.049 A 
ATOM     64  C   UNL A   1      41.386  33.527  36.980  1.00  0.00     0.074 A 
ATOM     65  C   UNL A   1      42.785  30.813  31.792  1.00  0.00     0.029 A 
ATOM     66  N   UNL A   1      41.528  30.268  33.510  1.00  0.00    -0.354 N 
ATOM     67  N   UNL A   1      41.853  32.830  35.965  1.00  0.00    -0.248 NA
ATOM     68  C   UNL A   1      41.656  32.846  38.243  1.00  0.00     0.031 C 
ATOM     69  C   UNL A   1      43.449  31.201  33.005  1.00  0.00     0.029 A 
ATOM     70  C   UNL A   1      42.660  30.821  34.074  1.00  0.00     0.049 A 
ATOM     71  H   UNL A   1      40.773  29.924  34.040  1.00  0.00     0.167 HD
ATOM     72  C   UNL A   1      42.369  31.630  36.374  1.00  0.00     0.074 A 
ATOM     73  C   UNL A   1      42.224  31.699  37.823  1.00  0.00     0.031 C 
ATOM     74  C   UNL A   1      42.837  30.660  35.515  1.00  0.00     0.037 A 
BRANCH  61  75
ATOM     75  C   UNL A   1      40.429  29.161  29.971  1.00  0.00     0.064 A 
ATOM     76  C   UNL A   1      39.680  29.694  28.893  1.00  0.00     0.173 A 
ATOM     77  C   UNL A   1      41.116  27.967  29.643  1.00  0.00     0.173 A 
ATOM     78  F   UNL A   1      38.994  30.837  29.026  1.00  0.00    -0.203 F 
ATOM     79  C   UNL A   1      39.600  29.076  27.631  1.00  0.00     0.198 A 
ATOM     80  C   UNL A   1      41.091  27.388  28.361  1.00  0.00     0.198 A 
ATOM     81  F   UNL A   1      41.796  27.267  30.558  1.00  0.00    -0.203 F 
ATOM     82  F   UNL A   1      38.812  29.600  26.680  1.00  0.00    -0.200 F 
ATOM     83  C   UNL A   1      40.316  27.930  27.361  1.00  0.00     0.200 A 
ATOM     84  F   UNL A   1      41.809  26.281  28.117  1.00  0.00    -0.200 F 
ATOM     85  F   UNL A   1      40.254  27.349  26.154  1.00  0.00    -0.200 F 
ENDBRANCH  61  75
BRANCH  62  86
ATOM     86  C   UNL A   1      39.669  35.581  37.781  1.00  0.00     0.064 A 
ATOM     87  C   UNL A   1      38.747  34.707  38.417  1.00  0.00     0.173 A 
ATOM     88  C   UNL A   1      40.163  36.644  38.555  1.00  0.00     0.173 A 
ATOM     89  F   UNL A   1      38.188  33.707  37.716  1.00  0.00    -0.203 F 
ATOM     90  C   UNL A   1      38.643  34.666  39.809  1.00  0.00     0.198 A 
ATOM     91  C   UNL A   1      40.006  36.632  39.949  1.00  0.00     0.198 A 
ATOM     92  F   UNL A   1      40.994  37.543  38.009  1.00  0.00    -0.203 F 
ATOM     93  F   UNL A   1      38.028  33.634  40.405  1.00  0.00    -0.200 F 
ATOM     94  C   UNL A   1      39.325  35.595  40.574  1.00  0.00     0.200 A 
ATOM     95  F   UNL A   1      40.656  37.532  40.702  1.00  0.00    -0.200 F 
ATOM     96  F   UNL A   1      39.411  35.434  41.904  1.00  0.00    -0.200 F 
ENDBRANCH  62  86
BRANCH  74  97
ATOM     97  C   UNL A   1      43.417  29.330  35.964  1.00  0.00     0.064 A 
ATOM     98  C   UNL A   1      42.625  28.226  36.289  1.00  0.00     0.173 A 
ATOM     99  C   UNL A   1      44.815  29.137  36.131  1.00  0.00     0.173 A 
ATOM    100  F   UNL A   1      41.296  28.344  36.412  1.00  0.00    -0.203 F 
ATOM    101  C   UNL A   1      43.183  26.970  36.537  1.00  0.00     0.198 A 
ATOM    102  C   UNL A   1      45.370  27.898  36.433  1.00  0.00     0.198 A 
ATOM    103  F   UNL A   1      45.703  30.132  36.013  1.00  0.00    -0.203 F 
ATOM    104  F   UNL A   1      42.378  25.917  36.725  1.00  0.00    -0.200 F 
ATOM    105  C   UNL A   1      44.555  26.802  36.583  1.00  0.00     0.200 A 
ATOM    106  F   UNL A   1      46.701  27.778  36.557  1.00  0.00    -0.200 F 
ATOM    107  F   UNL A   1      45.088  25.591  36.791  1.00  0.00    -0.200 F 
ENDBRANCH  74  97
ENDBRANCH  48  49
ENDBRANCH  41  43
ENDBRANCH  40  41
ENDBRANCH  39  40
ENDBRANCH  38  39
ENDBRANCH  37  38
ENDBRANCH  36  37
ENDBRANCH  35  36
ENDBRANCH   1  35
TORSDOF 22
ENDMDL
