MODEL 1
REMARK VINA RESULT:     -10.4      0.000      0.000
REMARK SMILES CCn1c(SCC(=O)OCCOCCOCCOCCOC(=O)c2ccc(-c3c4nc(c(-c5c(F)c(F)c(F)c(F)c5F)c5ccc([nH]5)c(-c5c(F)c(F)c(F)c(F)c5F)c5nc(c(-c6c(F)c(F)c(F)c(F)c6F)c6ccc3[nH]6)C=C5)C=C4)cc2)nnc1-c1ccc(C)cc1
REMARK SMILES IDX 14 1 13 2 12 3 11 4 10 5 9 6 7 7 8 8 6 9 5 10 4 11 3 12
REMARK SMILES IDX 89 13 87 14 88 15 2 16 1 17 90 18 91 19 96 20 92 21 95 22
REMARK SMILES IDX 93 23 94 24 15 25 16 26 17 27 18 28 19 29 20 30 21 31 22 32
REMARK SMILES IDX 23 33 24 34 25 35 86 36 26 37 85 38 27 39 28 40 29 41 79 42
REMARK SMILES IDX 30 43 84 44 78 45 80 46 31 47 83 48 77 49 76 50 32 52 64 53
REMARK SMILES IDX 44 54 63 55 45 56 48 57 62 58 81 59 46 60 47 61 61 63 82 64
REMARK SMILES IDX 49 65 33 66 34 67 42 68 35 69 36 70 40 71 43 72 37 73 38 74
REMARK SMILES IDX 41 75 39 76 65 77 66 78 74 79 67 80 68 81 72 82 75 83 69 84
REMARK SMILES IDX 70 85 73 86 71 87 50 88 51 89 59 90 52 91 53 92 57 93 60 94
REMARK SMILES IDX 54 95 55 96 58 97 56 98
REMARK H PARENT 80 51 48 62
REMARK Flexibility Score: inf
ROOT
ATOM      1  C   UNL A   1      33.272  25.095  23.055  1.00  0.00     0.188 C 
ENDROOT
BRANCH   1   2
ATOM      2  C   UNL A   1      32.728  26.035  21.967  1.00  0.00     0.188 C 
BRANCH   2   3
ATOM      3  O   UNL A   1      33.663  27.019  21.608  1.00  0.00    -0.376 OA
BRANCH   3   4
ATOM      4  C   UNL A   1      33.997  27.996  22.570  1.00  0.00     0.202 C 
BRANCH   4   5
ATOM      5  C   UNL A   1      33.044  29.157  22.946  1.00  0.00     0.261 C 
BRANCH   5   6
ATOM      6  O   UNL A   1      32.347  29.163  24.224  1.00  0.00    -0.463 OA
BRANCH   6   7
ATOM      7  C   UNL A   1      31.586  28.118  24.624  1.00  0.00     0.316 C 
ATOM      8  O   UNL A   1      30.461  27.921  24.176  1.00  0.00    -0.251 OA
BRANCH   7   9
ATOM      9  C   UNL A   1      32.184  27.238  25.735  1.00  0.00     0.200 C 
BRANCH   9  10
ATOM     10  S   UNL A   1      31.277  25.853  26.418  1.00  0.00    -0.074 SA
BRANCH  10  11
ATOM     11  C   UNL A   1      32.004  24.261  26.425  1.00  0.00     0.192 A 
ATOM     12  N   UNL A   1      31.525  23.006  26.090  1.00  0.00    -0.302 N 
ATOM     13  C   UNL A   1      32.647  22.215  25.807  1.00  0.00     0.164 A 
ATOM     14  N   UNL A   1      33.315  24.170  26.527  1.00  0.00    -0.123 NA
ATOM     15  N   UNL A   1      33.711  22.910  26.166  1.00  0.00    -0.129 NA
BRANCH  12  16
ATOM     16  C   UNL A   1      30.153  22.559  26.088  1.00  0.00     0.123 C 
ATOM     17  C   UNL A   1      29.374  22.837  27.367  1.00  0.00     0.028 C 
ENDBRANCH  12  16
BRANCH  13  18
ATOM     18  C   UNL A   1      32.726  20.875  25.163  1.00  0.00     0.019 A 
ATOM     19  C   UNL A   1      33.269  19.783  25.862  1.00  0.00     0.012 A 
ATOM     20  C   UNL A   1      32.402  20.663  23.813  1.00  0.00     0.012 A 
ATOM     21  C   UNL A   1      33.431  18.525  25.253  1.00  0.00     0.004 A 
ATOM     22  C   UNL A   1      32.576  19.414  23.196  1.00  0.00     0.004 A 
ATOM     23  C   UNL A   1      33.082  18.331  23.912  1.00  0.00    -0.051 A 
ATOM     24  C   UNL A   1      33.207  16.980  23.265  1.00  0.00     0.044 C 
ENDBRANCH  13  18
ENDBRANCH  10  11
ENDBRANCH   9  10
ENDBRANCH   7   9
ENDBRANCH   6   7
ENDBRANCH   5   6
ENDBRANCH   4   5
ENDBRANCH   3   4
ENDBRANCH   2   3
ENDBRANCH   1   2
BRANCH   1  25
ATOM     25  O   UNL A   1      34.622  24.677  23.118  1.00  0.00    -0.377 OA
BRANCH  25  26
ATOM     26  C   UNL A   1      34.931  23.316  23.002  1.00  0.00     0.188 C 
BRANCH  26  27
ATOM     27  C   UNL A   1      36.172  22.788  23.745  1.00  0.00     0.188 C 
BRANCH  27  28
ATOM     28  O   UNL A   1      37.095  23.645  24.425  1.00  0.00    -0.376 OA
BRANCH  28  29
ATOM     29  C   UNL A   1      37.312  23.508  25.824  1.00  0.00     0.202 C 
BRANCH  29  30
ATOM     30  C   UNL A   1      38.570  22.765  26.244  1.00  0.00     0.261 C 
BRANCH  30  31
ATOM     31  O   UNL A   1      39.214  23.565  27.219  1.00  0.00    -0.460 OA
BRANCH  31  32
ATOM     32  C   UNL A   1      40.510  23.214  27.369  1.00  0.00     0.338 C 
ATOM     33  O   UNL A   1      40.943  22.133  27.685  1.00  0.00    -0.246 OA
BRANCH  32  34
ATOM     34  C   UNL A   1      41.300  24.440  27.188  1.00  0.00     0.060 A 
ATOM     35  C   UNL A   1      41.999  24.771  28.336  1.00  0.00     0.016 A 
ATOM     36  C   UNL A   1      40.908  25.384  26.221  1.00  0.00     0.016 A 
ATOM     37  C   UNL A   1      41.894  26.069  28.740  1.00  0.00     0.010 A 
ATOM     38  C   UNL A   1      40.819  26.690  26.620  1.00  0.00     0.010 A 
ATOM     39  C   UNL A   1      41.194  26.975  27.925  1.00  0.00    -0.014 A 
BRANCH  39  40
ATOM     40  C   UNL A   1      41.014  28.297  28.460  1.00  0.00     0.031 A 
ATOM     41  C   UNL A   1      42.110  29.169  28.012  1.00  0.00     0.074 A 
ATOM     42  C   UNL A   1      39.997  28.648  29.261  1.00  0.00     0.049 A 
ATOM     43  N   UNL A   1      43.137  29.529  28.703  1.00  0.00    -0.248 NA
ATOM     44  C   UNL A   1      42.220  29.423  26.568  1.00  0.00     0.031 C 
ATOM     45  C   UNL A   1      38.762  27.929  29.570  1.00  0.00     0.029 A 
ATOM     46  N   UNL A   1      39.854  29.814  29.942  1.00  0.00    -0.354 N 
ATOM     47  C   UNL A   1      43.924  30.249  27.820  1.00  0.00     0.074 A 
ATOM     48  C   UNL A   1      43.441  29.952  26.497  1.00  0.00     0.031 C 
ATOM     49  C   UNL A   1      37.902  28.772  30.191  1.00  0.00     0.029 A 
ATOM     50  C   UNL A   1      38.580  30.031  30.447  1.00  0.00     0.049 A 
ATOM     51  H   UNL A   1      40.593  30.452  30.068  1.00  0.00     0.167 HD
ATOM     52  C   UNL A   1      44.688  31.273  28.275  1.00  0.00     0.037 A 
ATOM     53  C   UNL A   1      38.142  31.217  30.942  1.00  0.00     0.037 A 
ATOM     54  C   UNL A   1      44.939  31.147  29.691  1.00  0.00     0.049 A 
ATOM     55  C   UNL A   1      39.350  32.009  31.313  1.00  0.00     0.074 A 
ATOM     56  C   UNL A   1      45.560  30.192  30.475  1.00  0.00     0.029 A 
ATOM     57  N   UNL A   1      44.158  31.883  30.548  1.00  0.00    -0.354 N 
ATOM     58  N   UNL A   1      40.147  31.684  32.295  1.00  0.00    -0.248 NA
ATOM     59  C   UNL A   1      39.939  32.863  30.291  1.00  0.00     0.031 C 
ATOM     60  C   UNL A   1      44.769  30.107  31.660  1.00  0.00     0.029 A 
ATOM     61  C   UNL A   1      43.753  31.059  31.570  1.00  0.00     0.049 A 
ATOM     62  H   UNL A   1      43.927  32.835  30.447  1.00  0.00     0.167 HD
ATOM     63  C   UNL A   1      41.427  31.921  31.808  1.00  0.00     0.074 A 
ATOM     64  C   UNL A   1      41.232  32.710  30.594  1.00  0.00     0.031 C 
ATOM     65  C   UNL A   1      42.496  31.207  32.267  1.00  0.00     0.037 A 
BRANCH  52  66
ATOM     66  C   UNL A   1      44.816  32.567  27.520  1.00  0.00     0.064 A 
ATOM     67  C   UNL A   1      45.953  32.782  26.725  1.00  0.00     0.173 A 
ATOM     68  C   UNL A   1      44.016  33.709  27.765  1.00  0.00     0.173 A 
ATOM     69  F   UNL A   1      46.801  31.776  26.463  1.00  0.00    -0.203 F 
ATOM     70  C   UNL A   1      46.291  34.055  26.260  1.00  0.00     0.198 A 
ATOM     71  C   UNL A   1      44.323  34.962  27.248  1.00  0.00     0.198 A 
ATOM     72  F   UNL A   1      42.976  33.696  28.606  1.00  0.00    -0.203 F 
ATOM     73  F   UNL A   1      47.448  34.237  25.610  1.00  0.00    -0.200 F 
ATOM     74  C   UNL A   1      45.476  35.143  26.522  1.00  0.00     0.200 A 
ATOM     75  F   UNL A   1      43.530  36.004  27.538  1.00  0.00    -0.200 F 
ATOM     76  F   UNL A   1      45.827  36.371  26.122  1.00  0.00    -0.200 F 
ENDBRANCH  52  66
BRANCH  53  77
ATOM     77  C   UNL A   1      36.813  31.845  30.746  1.00  0.00     0.064 A 
ATOM     78  C   UNL A   1      36.021  32.218  31.845  1.00  0.00     0.173 A 
ATOM     79  C   UNL A   1      36.421  32.356  29.493  1.00  0.00     0.173 A 
ATOM     80  F   UNL A   1      36.352  31.818  33.081  1.00  0.00    -0.203 F 
ATOM     81  C   UNL A   1      34.919  33.069  31.701  1.00  0.00     0.198 A 
ATOM     82  C   UNL A   1      35.319  33.201  29.350  1.00  0.00     0.198 A 
ATOM     83  F   UNL A   1      37.156  32.129  28.395  1.00  0.00    -0.203 F 
ATOM     84  F   UNL A   1      34.225  33.453  32.782  1.00  0.00    -0.200 F 
ATOM     85  C   UNL A   1      34.576  33.568  30.456  1.00  0.00     0.200 A 
ATOM     86  F   UNL A   1      35.022  33.709  28.145  1.00  0.00    -0.200 F 
ATOM     87  F   UNL A   1      33.560  34.433  30.327  1.00  0.00    -0.200 F 
ENDBRANCH  53  77
BRANCH  65  88
ATOM     88  C   UNL A   1      42.282  30.341  33.480  1.00  0.00     0.064 A 
ATOM     89  C   UNL A   1      42.380  30.799  34.806  1.00  0.00     0.173 A 
ATOM     90  C   UNL A   1      41.831  29.028  33.287  1.00  0.00     0.173 A 
ATOM     91  F   UNL A   1      42.706  32.070  35.073  1.00  0.00    -0.203 F 
ATOM     92  C   UNL A   1      42.086  29.966  35.887  1.00  0.00     0.198 A 
ATOM     93  C   UNL A   1      41.502  28.210  34.365  1.00  0.00     0.198 A 
ATOM     94  F   UNL A   1      41.663  28.552  32.044  1.00  0.00    -0.203 F 
ATOM     95  F   UNL A   1      42.204  30.422  37.143  1.00  0.00    -0.200 F 
ATOM     96  C   UNL A   1      41.641  28.673  35.663  1.00  0.00     0.200 A 
ATOM     97  F   UNL A   1      41.024  26.978  34.142  1.00  0.00    -0.200 F 
ATOM     98  F   UNL A   1      41.320  27.883  36.697  1.00  0.00    -0.200 F 
ENDBRANCH  65  88
ENDBRANCH  39  40
ENDBRANCH  32  34
ENDBRANCH  31  32
ENDBRANCH  30  31
ENDBRANCH  29  30
ENDBRANCH  28  29
ENDBRANCH  27  28
ENDBRANCH  26  27
ENDBRANCH  25  26
ENDBRANCH   1  25
TORSDOF 24
ENDMDL
MODEL 2
REMARK VINA RESULT:     -10.4      0.973      1.990
REMARK SMILES CCn1c(SCC(=O)OCCOCCOCCOCCOC(=O)c2ccc(-c3c4nc(c(-c5c(F)c(F)c(F)c(F)c5F)c5ccc([nH]5)c(-c5c(F)c(F)c(F)c(F)c5F)c5nc(c(-c6c(F)c(F)c(F)c(F)c6F)c6ccc3[nH]6)C=C5)C=C4)cc2)nnc1-c1ccc(C)cc1
REMARK SMILES IDX 14 1 13 2 12 3 11 4 10 5 9 6 7 7 8 8 6 9 5 10 4 11 3 12
REMARK SMILES IDX 89 13 87 14 88 15 2 16 1 17 90 18 91 19 96 20 92 21 95 22
REMARK SMILES IDX 93 23 94 24 15 25 16 26 17 27 18 28 19 29 20 30 21 31 22 32
REMARK SMILES IDX 23 33 24 34 25 35 86 36 26 37 85 38 27 39 28 40 29 41 79 42
REMARK SMILES IDX 30 43 84 44 78 45 80 46 31 47 83 48 77 49 76 50 32 52 64 53
REMARK SMILES IDX 44 54 63 55 45 56 48 57 62 58 81 59 46 60 47 61 61 63 82 64
REMARK SMILES IDX 49 65 33 66 34 67 42 68 35 69 36 70 40 71 43 72 37 73 38 74
REMARK SMILES IDX 41 75 39 76 65 77 66 78 74 79 67 80 68 81 72 82 75 83 69 84
REMARK SMILES IDX 70 85 73 86 71 87 50 88 51 89 59 90 52 91 53 92 57 93 60 94
REMARK SMILES IDX 54 95 55 96 58 97 56 98
REMARK H PARENT 80 51 48 62
REMARK Flexibility Score: inf
ROOT
ATOM      1  C   UNL A   1      33.352  25.052  22.880  1.00  0.00     0.188 C 
ENDROOT
BRANCH   1   2
ATOM      2  C   UNL A   1      33.054  26.225  21.934  1.00  0.00     0.188 C 
BRANCH   2   3
ATOM      3  O   UNL A   1      33.615  27.427  22.395  1.00  0.00    -0.376 OA
BRANCH   3   4
ATOM      4  C   UNL A   1      33.241  27.882  23.678  1.00  0.00     0.202 C 
BRANCH   4   5
ATOM      5  C   UNL A   1      31.807  28.365  24.007  1.00  0.00     0.261 C 
BRANCH   5   6
ATOM      6  O   UNL A   1      31.105  27.867  25.181  1.00  0.00    -0.463 OA
BRANCH   6   7
ATOM      7  C   UNL A   1      30.610  26.609  25.234  1.00  0.00     0.316 C 
ATOM      8  O   UNL A   1      29.571  26.293  24.663  1.00  0.00    -0.251 OA
BRANCH   7   9
ATOM      9  C   UNL A   1      31.383  25.619  26.122  1.00  0.00     0.200 C 
BRANCH   9  10
ATOM     10  S   UNL A   1      30.888  23.903  26.256  1.00  0.00    -0.074 SA
BRANCH  10  11
ATOM     11  C   UNL A   1      31.804  22.669  25.419  1.00  0.00     0.192 A 
ATOM     12  N   UNL A   1      32.646  21.661  25.857  1.00  0.00    -0.302 N 
ATOM     13  C   UNL A   1      32.683  20.702  24.836  1.00  0.00     0.164 A 
ATOM     14  N   UNL A   1      31.520  22.426  24.155  1.00  0.00    -0.123 NA
ATOM     15  N   UNL A   1      32.073  21.228  23.789  1.00  0.00    -0.129 NA
BRANCH  12  16
ATOM     16  C   UNL A   1      33.397  21.615  27.089  1.00  0.00     0.123 C 
ATOM     17  C   UNL A   1      34.329  22.795  27.329  1.00  0.00     0.028 C 
ENDBRANCH  12  16
BRANCH  13  18
ATOM     18  C   UNL A   1      33.217  19.313  24.857  1.00  0.00     0.019 A 
ATOM     19  C   UNL A   1      32.511  18.292  25.518  1.00  0.00     0.012 A 
ATOM     20  C   UNL A   1      34.485  18.980  24.354  1.00  0.00     0.012 A 
ATOM     21  C   UNL A   1      33.030  16.988  25.624  1.00  0.00     0.004 A 
ATOM     22  C   UNL A   1      35.014  17.686  24.472  1.00  0.00     0.004 A 
ATOM     23  C   UNL A   1      34.287  16.674  25.098  1.00  0.00    -0.051 A 
ATOM     24  C   UNL A   1      34.830  15.275  25.165  1.00  0.00     0.044 C 
ENDBRANCH  13  18
ENDBRANCH  10  11
ENDBRANCH   9  10
ENDBRANCH   7   9
ENDBRANCH   6   7
ENDBRANCH   5   6
ENDBRANCH   4   5
ENDBRANCH   3   4
ENDBRANCH   2   3
ENDBRANCH   1   2
BRANCH   1  25
ATOM     25  O   UNL A   1      34.653  24.547  23.109  1.00  0.00    -0.377 OA
BRANCH  25  26
ATOM     26  C   UNL A   1      34.882  23.166  23.043  1.00  0.00     0.188 C 
BRANCH  26  27
ATOM     27  C   UNL A   1      36.134  22.604  23.740  1.00  0.00     0.188 C 
BRANCH  27  28
ATOM     28  O   UNL A   1      37.124  23.437  24.353  1.00  0.00    -0.376 OA
BRANCH  28  29
ATOM     29  C   UNL A   1      37.384  23.342  25.748  1.00  0.00     0.202 C 
BRANCH  29  30
ATOM     30  C   UNL A   1      38.663  22.626  26.150  1.00  0.00     0.261 C 
BRANCH  30  31
ATOM     31  O   UNL A   1      39.324  23.459  27.084  1.00  0.00    -0.460 OA
BRANCH  31  32
ATOM     32  C   UNL A   1      40.622  23.109  27.228  1.00  0.00     0.338 C 
ATOM     33  O   UNL A   1      41.059  22.023  27.524  1.00  0.00    -0.246 OA
BRANCH  32  34
ATOM     34  C   UNL A   1      41.408  24.341  27.069  1.00  0.00     0.060 A 
ATOM     35  C   UNL A   1      42.168  24.609  28.194  1.00  0.00     0.016 A 
ATOM     36  C   UNL A   1      40.971  25.334  26.174  1.00  0.00     0.016 A 
ATOM     37  C   UNL A   1      42.092  25.885  28.669  1.00  0.00     0.010 A 
ATOM     38  C   UNL A   1      40.910  26.619  26.644  1.00  0.00     0.010 A 
ATOM     39  C   UNL A   1      41.355  26.834  27.940  1.00  0.00    -0.014 A 
BRANCH  39  40
ATOM     40  C   UNL A   1      41.212  28.127  28.551  1.00  0.00     0.031 A 
ATOM     41  C   UNL A   1      42.369  28.969  28.214  1.00  0.00     0.074 A 
ATOM     42  C   UNL A   1      40.173  28.478  29.324  1.00  0.00     0.049 A 
ATOM     43  N   UNL A   1      43.375  29.233  28.976  1.00  0.00    -0.248 NA
ATOM     44  C   UNL A   1      42.564  29.308  26.797  1.00  0.00     0.031 C 
ATOM     45  C   UNL A   1      38.891  27.804  29.526  1.00  0.00     0.029 A 
ATOM     46  N   UNL A   1      40.051  29.604  30.073  1.00  0.00    -0.354 N 
ATOM     47  C   UNL A   1      44.240  29.965  28.181  1.00  0.00     0.074 A 
ATOM     48  C   UNL A   1      43.811  29.777  26.819  1.00  0.00     0.031 C 
ATOM     49  C   UNL A   1      38.042  28.649  30.160  1.00  0.00     0.029 A 
ATOM     50  C   UNL A   1      38.764  29.853  30.530  1.00  0.00     0.049 A 
ATOM     51  H   UNL A   1      40.813  30.195  30.275  1.00  0.00     0.167 HD
ATOM     52  C   UNL A   1      45.027  30.919  28.738  1.00  0.00     0.037 A 
ATOM     53  C   UNL A   1      38.358  31.026  31.079  1.00  0.00     0.037 A 
ATOM     54  C   UNL A   1      45.200  30.691  30.152  1.00  0.00     0.049 A 
ATOM     55  C   UNL A   1      39.582  31.731  31.559  1.00  0.00     0.074 A 
ATOM     56  C   UNL A   1      45.734  29.658  30.901  1.00  0.00     0.029 A 
ATOM     57  N   UNL A   1      44.411  31.410  31.017  1.00  0.00    -0.354 N 
ATOM     58  N   UNL A   1      40.313  31.305  32.554  1.00  0.00    -0.248 NA
ATOM     59  C   UNL A   1      40.263  32.617  30.624  1.00  0.00     0.031 C 
ATOM     60  C   UNL A   1      44.881  29.540  32.038  1.00  0.00     0.029 A 
ATOM     61  C   UNL A   1      43.917  30.545  31.963  1.00  0.00     0.049 A 
ATOM     62  H   UNL A   1      44.232  32.377  30.969  1.00  0.00     0.167 HD
ATOM     63  C   UNL A   1      41.625  31.507  32.146  1.00  0.00     0.074 A 
ATOM     64  C   UNL A   1      41.529  32.379  30.978  1.00  0.00     0.031 C 
ATOM     65  C   UNL A   1      42.635  30.712  32.608  1.00  0.00     0.037 A 
BRANCH  52  66
ATOM     66  C   UNL A   1      45.255  32.250  28.076  1.00  0.00     0.064 A 
ATOM     67  C   UNL A   1      44.168  33.125  27.915  1.00  0.00     0.173 A 
ATOM     68  C   UNL A   1      46.421  32.583  27.347  1.00  0.00     0.173 A 
ATOM     69  F   UNL A   1      43.001  32.882  28.532  1.00  0.00    -0.203 F 
ATOM     70  C   UNL A   1      44.229  34.216  27.046  1.00  0.00     0.198 A 
ATOM     71  C   UNL A   1      46.498  33.706  26.531  1.00  0.00     0.198 A 
ATOM     72  F   UNL A   1      47.492  31.784  27.292  1.00  0.00    -0.203 F 
ATOM     73  F   UNL A   1      43.131  34.952  26.829  1.00  0.00    -0.200 F 
ATOM     74  C   UNL A   1      45.393  34.505  26.355  1.00  0.00     0.200 A 
ATOM     75  F   UNL A   1      47.629  33.949  25.853  1.00  0.00    -0.200 F 
ATOM     76  F   UNL A   1      45.435  35.518  25.482  1.00  0.00    -0.200 F 
ENDBRANCH  52  66
BRANCH  53  77
ATOM     77  C   UNL A   1      37.073  31.732  30.862  1.00  0.00     0.064 A 
ATOM     78  C   UNL A   1      36.157  31.905  31.913  1.00  0.00     0.173 A 
ATOM     79  C   UNL A   1      36.845  32.501  29.704  1.00  0.00     0.173 A 
ATOM     80  F   UNL A   1      36.328  31.250  33.071  1.00  0.00    -0.203 F 
ATOM     81  C   UNL A   1      35.093  32.809  31.819  1.00  0.00     0.198 A 
ATOM     82  C   UNL A   1      35.781  33.399  29.609  1.00  0.00     0.198 A 
ATOM     83  F   UNL A   1      37.707  32.473  28.677  1.00  0.00    -0.203 F 
ATOM     84  F   UNL A   1      34.276  32.993  32.866  1.00  0.00    -0.200 F 
ATOM     85  C   UNL A   1      34.913  33.563  30.672  1.00  0.00     0.200 A 
ATOM     86  F   UNL A   1      35.642  34.152  28.508  1.00  0.00    -0.200 F 
ATOM     87  F   UNL A   1      33.932  34.475  30.605  1.00  0.00    -0.200 F 
ENDBRANCH  53  77
BRANCH  65  88
ATOM     88  C   UNL A   1      42.318  29.783  33.750  1.00  0.00     0.064 A 
ATOM     89  C   UNL A   1      41.796  28.486  33.592  1.00  0.00     0.173 A 
ATOM     90  C   UNL A   1      42.680  30.176  35.045  1.00  0.00     0.173 A 
ATOM     91  F   UNL A   1      41.519  27.999  32.377  1.00  0.00    -0.203 F 
ATOM     92  C   UNL A   1      41.603  27.644  34.688  1.00  0.00     0.198 A 
ATOM     93  C   UNL A   1      42.523  29.319  36.132  1.00  0.00     0.198 A 
ATOM     94  F   UNL A   1      43.235  31.380  35.250  1.00  0.00    -0.203 F 
ATOM     95  F   UNL A   1      41.089  26.417  34.513  1.00  0.00    -0.200 F 
ATOM     96  C   UNL A   1      41.974  28.060  35.956  1.00  0.00     0.200 A 
ATOM     97  F   UNL A   1      42.929  29.709  37.348  1.00  0.00    -0.200 F 
ATOM     98  F   UNL A   1      41.826  27.238  37.005  1.00  0.00    -0.200 F 
ENDBRANCH  65  88
ENDBRANCH  39  40
ENDBRANCH  32  34
ENDBRANCH  31  32
ENDBRANCH  30  31
ENDBRANCH  29  30
ENDBRANCH  28  29
ENDBRANCH  27  28
ENDBRANCH  26  27
ENDBRANCH  25  26
ENDBRANCH   1  25
TORSDOF 24
ENDMDL
MODEL 3
REMARK VINA RESULT:     -10.1      2.872      8.156
REMARK SMILES CCn1c(SCC(=O)OCCOCCOCCOCCOC(=O)c2ccc(-c3c4nc(c(-c5c(F)c(F)c(F)c(F)c5F)c5ccc([nH]5)c(-c5c(F)c(F)c(F)c(F)c5F)c5nc(c(-c6c(F)c(F)c(F)c(F)c6F)c6ccc3[nH]6)C=C5)C=C4)cc2)nnc1-c1ccc(C)cc1
REMARK SMILES IDX 14 1 13 2 12 3 11 4 10 5 9 6 7 7 8 8 6 9 5 10 4 11 3 12
REMARK SMILES IDX 89 13 87 14 88 15 2 16 1 17 90 18 91 19 96 20 92 21 95 22
REMARK SMILES IDX 93 23 94 24 15 25 16 26 17 27 18 28 19 29 20 30 21 31 22 32
REMARK SMILES IDX 23 33 24 34 25 35 86 36 26 37 85 38 27 39 28 40 29 41 79 42
REMARK SMILES IDX 30 43 84 44 78 45 80 46 31 47 83 48 77 49 76 50 32 52 64 53
REMARK SMILES IDX 44 54 63 55 45 56 48 57 62 58 81 59 46 60 47 61 61 63 82 64
REMARK SMILES IDX 49 65 33 66 34 67 42 68 35 69 36 70 40 71 43 72 37 73 38 74
REMARK SMILES IDX 41 75 39 76 65 77 66 78 74 79 67 80 68 81 72 82 75 83 69 84
REMARK SMILES IDX 70 85 73 86 71 87 50 88 51 89 59 90 52 91 53 92 57 93 60 94
REMARK SMILES IDX 54 95 55 96 58 97 56 98
REMARK H PARENT 80 51 48 62
REMARK Flexibility Score: inf
ROOT
ATOM      1  C   UNL A   1      33.269  29.795  26.475  1.00  0.00     0.188 C 
ENDROOT
BRANCH   1   2
ATOM      2  C   UNL A   1      33.470  28.282  26.651  1.00  0.00     0.188 C 
BRANCH   2   3
ATOM      3  O   UNL A   1      34.268  27.736  25.632  1.00  0.00    -0.376 OA
BRANCH   3   4
ATOM      4  C   UNL A   1      33.619  27.072  24.569  1.00  0.00     0.202 C 
BRANCH   4   5
ATOM      5  C   UNL A   1      32.656  27.795  23.596  1.00  0.00     0.261 C 
BRANCH   5   6
ATOM      6  O   UNL A   1      31.721  27.040  22.775  1.00  0.00    -0.463 OA
BRANCH   6   7
ATOM      7  C   UNL A   1      30.387  27.259  22.831  1.00  0.00     0.316 C 
ATOM      8  O   UNL A   1      29.874  28.276  22.378  1.00  0.00    -0.251 OA
BRANCH   7   9
ATOM      9  C   UNL A   1      29.562  26.192  23.572  1.00  0.00     0.200 C 
BRANCH   9  10
ATOM     10  S   UNL A   1      29.853  25.821  25.299  1.00  0.00    -0.074 SA
BRANCH  10  11
ATOM     11  C   UNL A   1      31.058  24.630  25.739  1.00  0.00     0.192 A 
ATOM     12  N   UNL A   1      32.086  24.026  25.034  1.00  0.00    -0.302 N 
ATOM     13  C   UNL A   1      33.005  23.567  25.988  1.00  0.00     0.164 A 
ATOM     14  N   UNL A   1      31.251  24.375  27.017  1.00  0.00    -0.123 NA
ATOM     15  N   UNL A   1      32.436  23.707  27.171  1.00  0.00    -0.129 NA
BRANCH  12  16
ATOM     16  C   UNL A   1      32.182  23.837  23.606  1.00  0.00     0.123 C 
ATOM     17  C   UNL A   1      31.952  22.413  23.120  1.00  0.00     0.028 C 
ENDBRANCH  12  16
BRANCH  13  18
ATOM     18  C   UNL A   1      34.396  23.071  25.803  1.00  0.00     0.019 A 
ATOM     19  C   UNL A   1      34.642  21.698  25.631  1.00  0.00     0.012 A 
ATOM     20  C   UNL A   1      35.520  23.904  25.926  1.00  0.00     0.012 A 
ATOM     21  C   UNL A   1      35.951  21.191  25.535  1.00  0.00     0.004 A 
ATOM     22  C   UNL A   1      36.828  23.401  25.847  1.00  0.00     0.004 A 
ATOM     23  C   UNL A   1      37.056  22.041  25.640  1.00  0.00    -0.051 A 
ATOM     24  C   UNL A   1      38.457  21.517  25.492  1.00  0.00     0.044 C 
ENDBRANCH  13  18
ENDBRANCH  10  11
ENDBRANCH   9  10
ENDBRANCH   7   9
ENDBRANCH   6   7
ENDBRANCH   5   6
ENDBRANCH   4   5
ENDBRANCH   3   4
ENDBRANCH   2   3
ENDBRANCH   1   2
BRANCH   1  25
ATOM     25  O   UNL A   1      32.899  30.659  27.531  1.00  0.00    -0.377 OA
BRANCH  25  26
ATOM     26  C   UNL A   1      33.341  31.989  27.526  1.00  0.00     0.188 C 
BRANCH  26  27
ATOM     27  C   UNL A   1      34.438  32.393  28.528  1.00  0.00     0.188 C 
BRANCH  27  28
ATOM     28  O   UNL A   1      34.988  33.713  28.588  1.00  0.00    -0.376 OA
BRANCH  28  29
ATOM     29  C   UNL A   1      34.135  34.852  28.609  1.00  0.00     0.202 C 
BRANCH  29  30
ATOM     30  C   UNL A   1      33.836  35.447  29.976  1.00  0.00     0.261 C 
BRANCH  30  31
ATOM     31  O   UNL A   1      33.937  34.392  30.914  1.00  0.00    -0.460 OA
BRANCH  31  32
ATOM     32  C   UNL A   1      33.735  34.832  32.176  1.00  0.00     0.338 C 
ATOM     33  O   UNL A   1      32.863  35.571  32.563  1.00  0.00    -0.246 OA
BRANCH  32  34
ATOM     34  C   UNL A   1      34.860  34.331  32.979  1.00  0.00     0.060 A 
ATOM     35  C   UNL A   1      36.025  35.031  32.719  1.00  0.00     0.016 A 
ATOM     36  C   UNL A   1      34.842  33.005  33.451  1.00  0.00     0.016 A 
ATOM     37  C   UNL A   1      37.132  34.271  32.482  1.00  0.00     0.010 A 
ATOM     38  C   UNL A   1      35.959  32.246  33.230  1.00  0.00     0.010 A 
ATOM     39  C   UNL A   1      37.037  32.877  32.624  1.00  0.00    -0.014 A 
BRANCH  39  40
ATOM     40  C   UNL A   1      38.200  32.122  32.246  1.00  0.00     0.031 A 
ATOM     41  C   UNL A   1      39.078  31.942  33.411  1.00  0.00     0.074 A 
ATOM     42  C   UNL A   1      38.431  31.676  31.001  1.00  0.00     0.049 A 
ATOM     43  N   UNL A   1      40.157  32.599  33.669  1.00  0.00    -0.248 NA
ATOM     44  C   UNL A   1      38.548  31.163  34.540  1.00  0.00     0.031 C 
ATOM     45  C   UNL A   1      37.529  31.609  29.853  1.00  0.00     0.029 A 
ATOM     46  N   UNL A   1      39.575  31.117  30.530  1.00  0.00    -0.354 N 
ATOM     47  C   UNL A   1      40.559  32.147  34.914  1.00  0.00     0.074 A 
ATOM     48  C   UNL A   1      39.431  31.463  35.491  1.00  0.00     0.031 C 
ATOM     49  C   UNL A   1      38.091  30.835  28.893  1.00  0.00     0.029 A 
ATOM     50  C   UNL A   1      39.438  30.480  29.304  1.00  0.00     0.049 A 
ATOM     51  H   UNL A   1      40.429  31.160  31.016  1.00  0.00     0.167 HD
ATOM     52  C   UNL A   1      41.879  32.094  35.221  1.00  0.00     0.037 A 
ATOM     53  C   UNL A   1      40.368  29.653  28.761  1.00  0.00     0.037 A 
ATOM     54  C   UNL A   1      42.646  32.977  34.377  1.00  0.00     0.049 A 
ATOM     55  C   UNL A   1      41.671  29.971  29.414  1.00  0.00     0.074 A 
ATOM     56  C   UNL A   1      42.641  34.344  34.159  1.00  0.00     0.029 A 
ATOM     57  N   UNL A   1      43.290  32.430  33.294  1.00  0.00    -0.354 N 
ATOM     58  N   UNL A   1      42.305  31.099  29.240  1.00  0.00    -0.248 NA
ATOM     59  C   UNL A   1      42.009  29.250  30.634  1.00  0.00     0.031 C 
ATOM     60  C   UNL A   1      42.858  34.501  32.758  1.00  0.00     0.029 A 
ATOM     61  C   UNL A   1      43.054  33.234  32.206  1.00  0.00     0.049 A 
ATOM     62  H   UNL A   1      43.827  31.604  33.296  1.00  0.00     0.167 HD
ATOM     63  C   UNL A   1      42.782  31.438  30.500  1.00  0.00     0.074 A 
ATOM     64  C   UNL A   1      42.627  30.228  31.303  1.00  0.00     0.031 C 
ATOM     65  C   UNL A   1      42.978  32.743  30.849  1.00  0.00     0.037 A 
BRANCH  52  66
ATOM     66  C   UNL A   1      42.476  30.935  35.971  1.00  0.00     0.064 A 
ATOM     67  C   UNL A   1      43.246  31.191  37.118  1.00  0.00     0.173 A 
ATOM     68  C   UNL A   1      42.561  29.619  35.458  1.00  0.00     0.173 A 
ATOM     69  F   UNL A   1      43.268  32.416  37.664  1.00  0.00    -0.203 F 
ATOM     70  C   UNL A   1      44.079  30.217  37.672  1.00  0.00     0.198 A 
ATOM     71  C   UNL A   1      43.344  28.634  36.051  1.00  0.00     0.198 A 
ATOM     72  F   UNL A   1      41.993  29.255  34.304  1.00  0.00    -0.203 F 
ATOM     73  F   UNL A   1      44.889  30.538  38.689  1.00  0.00    -0.200 F 
ATOM     74  C   UNL A   1      44.127  28.940  37.138  1.00  0.00     0.200 A 
ATOM     75  F   UNL A   1      43.392  27.414  35.498  1.00  0.00    -0.200 F 
ATOM     76  F   UNL A   1      44.965  28.023  37.635  1.00  0.00    -0.200 F 
ENDBRANCH  52  66
BRANCH  53  77
ATOM     77  C   UNL A   1      40.136  28.380  28.036  1.00  0.00     0.064 A 
ATOM     78  C   UNL A   1      40.797  28.107  26.827  1.00  0.00     0.173 A 
ATOM     79  C   UNL A   1      39.492  27.291  28.655  1.00  0.00     0.173 A 
ATOM     80  F   UNL A   1      41.478  29.076  26.197  1.00  0.00    -0.203 F 
ATOM     81  C   UNL A   1      40.831  26.818  26.283  1.00  0.00     0.198 A 
ATOM     82  C   UNL A   1      39.522  26.006  28.110  1.00  0.00     0.198 A 
ATOM     83  F   UNL A   1      38.904  27.427  29.852  1.00  0.00    -0.203 F 
ATOM     84  F   UNL A   1      41.525  26.584  25.160  1.00  0.00    -0.200 F 
ATOM     85  C   UNL A   1      40.203  25.767  26.931  1.00  0.00     0.200 A 
ATOM     86  F   UNL A   1      38.944  24.991  28.767  1.00  0.00    -0.200 F 
ATOM     87  F   UNL A   1      40.288  24.521  26.444  1.00  0.00    -0.200 F 
ENDBRANCH  53  77
BRANCH  65  88
ATOM     88  C   UNL A   1      42.896  33.773  29.753  1.00  0.00     0.064 A 
ATOM     89  C   UNL A   1      43.949  34.074  28.870  1.00  0.00     0.173 A 
ATOM     90  C   UNL A   1      41.659  34.384  29.507  1.00  0.00     0.173 A 
ATOM     91  F   UNL A   1      45.132  33.457  28.976  1.00  0.00    -0.203 F 
ATOM     92  C   UNL A   1      43.781  34.979  27.822  1.00  0.00     0.198 A 
ATOM     93  C   UNL A   1      41.483  35.258  28.437  1.00  0.00     0.198 A 
ATOM     94  F   UNL A   1      40.602  34.094  30.281  1.00  0.00    -0.203 F 
ATOM     95  F   UNL A   1      44.806  35.261  27.003  1.00  0.00    -0.200 F 
ATOM     96  C   UNL A   1      42.545  35.565  27.603  1.00  0.00     0.200 A 
ATOM     97  F   UNL A   1      40.273  35.783  28.201  1.00  0.00    -0.200 F 
ATOM     98  F   UNL A   1      42.371  36.405  26.573  1.00  0.00    -0.200 F 
ENDBRANCH  65  88
ENDBRANCH  39  40
ENDBRANCH  32  34
ENDBRANCH  31  32
ENDBRANCH  30  31
ENDBRANCH  29  30
ENDBRANCH  28  29
ENDBRANCH  27  28
ENDBRANCH  26  27
ENDBRANCH  25  26
ENDBRANCH   1  25
TORSDOF 24
ENDMDL
