MODEL 1
REMARK VINA RESULT:     -10.0      0.000      0.000
REMARK SMILES O=C(OCCOCCOCCOCCOC(=O)[C@@H]1CC[C@@H](CS(=O)(=O)c2cccc(F)c2)O1)c1ccc(-c2c3nc(c(-c4c(F)c(F)c(F)c(F)c4F)c4ccc([nH]4)c(-c4c(F)c(F)c(F)c(F)c4F)c4nc(c(-c5c(F)c(F)c(F)c(F)c5F)c5ccc2[nH]5)C=C4)C=C3)cc1
REMARK SMILES IDX 10 1 9 2 8 3 7 4 6 5 5 6 4 7 3 8 2 9 1 10 34 11 35 12 96 13
REMARK SMILES IDX 36 14 95 15 37 16 38 17 39 18 89 19 40 20 94 21 88 22 90 23
REMARK SMILES IDX 41 24 93 25 87 26 86 27 42 29 74 30 54 31 73 32 55 33 58 34
REMARK SMILES IDX 72 35 91 36 56 37 57 38 71 40 92 41 59 42 43 43 44 44 52 45
REMARK SMILES IDX 45 46 46 47 50 48 53 49 47 50 48 51 51 52 49 53 75 54 76 55
REMARK SMILES IDX 84 56 77 57 78 58 82 59 85 60 79 61 80 62 83 63 81 64 60 65
REMARK SMILES IDX 61 66 69 67 62 68 63 69 67 70 70 71 64 72 65 73 68 74 66 75
REMARK SMILES IDX 11 76 12 77 13 78 14 79 15 80 16 81 17 82 18 83 19 84 33 85
REMARK SMILES IDX 20 86 21 87 22 88 23 89 24 90 25 91 26 92 27 93 32 94 28 95
REMARK SMILES IDX 30 96 29 97 31 98
REMARK H PARENT 90 28 58 39
REMARK Flexibility Score: inf
ROOT
ATOM      1  C   UNL A   1      44.220  18.852  24.371  1.00  0.00     0.188 C 
ENDROOT
BRANCH   1   2
ATOM      2  O   UNL A   1      45.598  18.606  24.626  1.00  0.00    -0.377 OA
BRANCH   2   3
ATOM      3  C   UNL A   1      46.347  19.627  25.280  1.00  0.00     0.188 C 
BRANCH   3   4
ATOM      4  C   UNL A   1      46.048  21.048  24.820  1.00  0.00     0.188 C 
BRANCH   4   5
ATOM      5  O   UNL A   1      45.984  21.887  25.971  1.00  0.00    -0.376 OA
BRANCH   5   6
ATOM      6  C   UNL A   1      45.158  23.036  25.818  1.00  0.00     0.202 C 
BRANCH   6   7
ATOM      7  C   UNL A   1      45.967  24.291  25.503  1.00  0.00     0.261 C 
BRANCH   7   8
ATOM      8  O   UNL A   1      45.190  25.281  24.806  1.00  0.00    -0.460 OA
BRANCH   8   9
ATOM      9  C   UNL A   1      45.148  26.617  25.040  1.00  0.00     0.338 C 
ATOM     10  O   UNL A   1      45.708  27.375  24.249  1.00  0.00    -0.246 OA
BRANCH   9  11
ATOM     11  C   UNL A   1      44.399  27.239  26.176  1.00  0.00     0.060 A 
ATOM     12  C   UNL A   1      44.501  28.573  26.568  1.00  0.00     0.016 A 
ATOM     13  C   UNL A   1      43.456  26.435  26.841  1.00  0.00     0.016 A 
ATOM     14  C   UNL A   1      43.765  29.085  27.624  1.00  0.00     0.010 A 
ATOM     15  C   UNL A   1      42.681  26.948  27.888  1.00  0.00     0.010 A 
ATOM     16  C   UNL A   1      42.856  28.274  28.295  1.00  0.00    -0.014 A 
BRANCH  16  17
ATOM     17  C   UNL A   1      42.244  28.822  29.519  1.00  0.00     0.031 A 
ATOM     18  C   UNL A   1      40.858  29.379  29.415  1.00  0.00     0.074 A 
ATOM     19  C   UNL A   1      42.842  28.634  30.708  1.00  0.00     0.049 A 
ATOM     20  N   UNL A   1      40.115  29.932  30.333  1.00  0.00    -0.248 NA
ATOM     21  C   UNL A   1      40.205  29.273  28.096  1.00  0.00     0.031 C 
ATOM     22  C   UNL A   1      44.119  27.941  30.908  1.00  0.00     0.029 A 
ATOM     23  N   UNL A   1      42.438  28.956  31.976  1.00  0.00    -0.354 N 
ATOM     24  C   UNL A   1      38.927  30.266  29.700  1.00  0.00     0.074 A 
ATOM     25  C   UNL A   1      39.037  29.854  28.321  1.00  0.00     0.031 C 
ATOM     26  C   UNL A   1      44.371  27.858  32.224  1.00  0.00     0.029 A 
ATOM     27  C   UNL A   1      43.320  28.559  32.952  1.00  0.00     0.049 A 
ATOM     28  H   UNL A   1      41.596  29.427  32.170  1.00  0.00     0.167 HD
ATOM     29  C   UNL A   1      37.846  30.874  30.236  1.00  0.00     0.037 A 
ATOM     30  C   UNL A   1      43.286  28.775  34.281  1.00  0.00     0.037 A 
ATOM     31  C   UNL A   1      37.768  31.260  31.617  1.00  0.00     0.049 A 
ATOM     32  C   UNL A   1      42.124  29.561  34.831  1.00  0.00     0.074 A 
ATOM     33  C   UNL A   1      36.775  31.968  32.264  1.00  0.00     0.029 A 
ATOM     34  N   UNL A   1      38.734  30.949  32.565  1.00  0.00    -0.354 N 
ATOM     35  N   UNL A   1      41.051  29.990  34.209  1.00  0.00    -0.248 NA
ATOM     36  C   UNL A   1      42.180  29.924  36.252  1.00  0.00     0.031 C 
ATOM     37  C   UNL A   1      37.160  32.118  33.601  1.00  0.00     0.029 A 
ATOM     38  C   UNL A   1      38.369  31.465  33.795  1.00  0.00     0.049 A 
ATOM     39  H   UNL A   1      39.556  30.438  32.388  1.00  0.00     0.167 HD
ATOM     40  C   UNL A   1      40.303  30.670  35.157  1.00  0.00     0.074 A 
ATOM     41  C   UNL A   1      41.033  30.571  36.407  1.00  0.00     0.031 C 
ATOM     42  C   UNL A   1      39.128  31.331  35.012  1.00  0.00     0.037 A 
BRANCH  29  43
ATOM     43  C   UNL A   1      36.714  31.210  29.314  1.00  0.00     0.064 A 
ATOM     44  C   UNL A   1      35.817  30.210  28.910  1.00  0.00     0.173 A 
ATOM     45  C   UNL A   1      36.510  32.510  28.832  1.00  0.00     0.173 A 
ATOM     46  F   UNL A   1      35.962  28.953  29.354  1.00  0.00    -0.203 F 
ATOM     47  C   UNL A   1      34.761  30.499  28.050  1.00  0.00     0.198 A 
ATOM     48  C   UNL A   1      35.440  32.800  27.988  1.00  0.00     0.198 A 
ATOM     49  F   UNL A   1      37.320  33.508  29.216  1.00  0.00    -0.203 F 
ATOM     50  F   UNL A   1      33.923  29.524  27.668  1.00  0.00    -0.200 F 
ATOM     51  C   UNL A   1      34.571  31.793  27.592  1.00  0.00     0.200 A 
ATOM     52  F   UNL A   1      35.238  34.058  27.573  1.00  0.00    -0.200 F 
ATOM     53  F   UNL A   1      33.544  32.074  26.779  1.00  0.00    -0.200 F 
ENDBRANCH  29  43
BRANCH  30  54
ATOM     54  C   UNL A   1      44.397  28.306  35.154  1.00  0.00     0.064 A 
ATOM     55  C   UNL A   1      44.348  27.052  35.785  1.00  0.00     0.173 A 
ATOM     56  C   UNL A   1      45.535  29.094  35.376  1.00  0.00     0.173 A 
ATOM     57  F   UNL A   1      43.290  26.248  35.601  1.00  0.00    -0.203 F 
ATOM     58  C   UNL A   1      45.377  26.617  36.619  1.00  0.00     0.198 A 
ATOM     59  C   UNL A   1      46.580  28.644  36.185  1.00  0.00     0.198 A 
ATOM     60  F   UNL A   1      45.649  30.289  34.778  1.00  0.00    -0.203 F 
ATOM     61  F   UNL A   1      45.282  25.429  37.232  1.00  0.00    -0.200 F 
ATOM     62  C   UNL A   1      46.495  27.410  36.813  1.00  0.00     0.200 A 
ATOM     63  F   UNL A   1      47.673  29.401  36.345  1.00  0.00    -0.200 F 
ATOM     64  F   UNL A   1      47.494  26.983  37.596  1.00  0.00    -0.200 F 
ENDBRANCH  30  54
BRANCH  42  65
ATOM     65  C   UNL A   1      38.562  31.990  36.231  1.00  0.00     0.064 A 
ATOM     66  C   UNL A   1      38.846  33.335  36.505  1.00  0.00     0.173 A 
ATOM     67  C   UNL A   1      37.818  31.261  37.169  1.00  0.00     0.173 A 
ATOM     68  F   UNL A   1      39.564  34.065  35.639  1.00  0.00    -0.203 F 
ATOM     69  C   UNL A   1      38.420  33.923  37.691  1.00  0.00     0.198 A 
ATOM     70  C   UNL A   1      37.369  31.862  38.340  1.00  0.00     0.198 A 
ATOM     71  F   UNL A   1      37.514  29.975  36.939  1.00  0.00    -0.203 F 
ATOM     72  F   UNL A   1      38.735  35.199  37.954  1.00  0.00    -0.200 F 
ATOM     73  C   UNL A   1      37.680  33.187  38.605  1.00  0.00     0.200 A 
ATOM     74  F   UNL A   1      36.636  31.157  39.213  1.00  0.00    -0.200 F 
ATOM     75  F   UNL A   1      37.265  33.758  39.744  1.00  0.00    -0.200 F 
ENDBRANCH  42  65
ENDBRANCH  16  17
ENDBRANCH   9  11
ENDBRANCH   8   9
ENDBRANCH   7   8
ENDBRANCH   6   7
ENDBRANCH   5   6
ENDBRANCH   4   5
ENDBRANCH   3   4
ENDBRANCH   2   3
ENDBRANCH   1   2
BRANCH   1  76
ATOM     76  C   UNL A   1      43.212  18.739  25.524  1.00  0.00     0.188 C 
BRANCH  76  77
ATOM     77  O   UNL A   1      42.147  19.667  25.566  1.00  0.00    -0.376 OA
BRANCH  77  78
ATOM     78  C   UNL A   1      41.565  19.993  26.828  1.00  0.00     0.202 C 
BRANCH  78  79
ATOM     79  C   UNL A   1      40.810  21.314  27.086  1.00  0.00     0.261 C 
BRANCH  79  80
ATOM     80  O   UNL A   1      39.502  21.386  26.495  1.00  0.00    -0.461 OA
BRANCH  80  81
ATOM     81  C   UNL A   1      38.994  22.635  26.335  1.00  0.00     0.335 C 
ATOM     82  O   UNL A   1      39.628  23.667  26.545  1.00  0.00    -0.249 OA
BRANCH  81  83
ATOM     83  C   UNL A   1      37.558  22.666  25.761  1.00  0.00     0.228 C 
ATOM     84  C   UNL A   1      37.189  21.296  25.223  1.00  0.00     0.047 C 
ATOM     85  O   UNL A   1      37.126  23.601  24.776  1.00  0.00    -0.362 OA
ATOM     86  C   UNL A   1      36.007  21.584  24.332  1.00  0.00     0.036 C 
ATOM     87  C   UNL A   1      36.317  22.975  23.789  1.00  0.00     0.135 C 
BRANCH  87  88
ATOM     88  C   UNL A   1      35.064  23.744  23.369  1.00  0.00     0.174 C 
BRANCH  88  89
ATOM     89  S   UNL A   1      33.964  24.430  24.570  1.00  0.00     0.181 S 
ATOM     90  O   UNL A   1      33.088  23.389  25.076  1.00  0.00    -0.224 OA
ATOM     91  O   UNL A   1      34.803  25.160  25.506  1.00  0.00    -0.224 OA
BRANCH  89  92
ATOM     92  C   UNL A   1      32.926  25.685  23.860  1.00  0.00     0.070 A 
ATOM     93  C   UNL A   1      32.336  25.412  22.614  1.00  0.00     0.020 A 
ATOM     94  C   UNL A   1      32.633  26.871  24.521  1.00  0.00     0.059 A 
ATOM     95  C   UNL A   1      31.469  26.339  22.028  1.00  0.00     0.004 A 
ATOM     96  C   UNL A   1      31.789  27.796  23.913  1.00  0.00     0.124 A 
ATOM     97  C   UNL A   1      31.203  27.543  22.678  1.00  0.00     0.039 A 
ATOM     98  F   UNL A   1      31.528  28.950  24.540  1.00  0.00    -0.207 F 
ENDBRANCH  89  92
ENDBRANCH  88  89
ENDBRANCH  87  88
ENDBRANCH  81  83
ENDBRANCH  80  81
ENDBRANCH  79  80
ENDBRANCH  78  79
ENDBRANCH  77  78
ENDBRANCH  76  77
ENDBRANCH   1  76
TORSDOF 23
ENDMDL
MODEL 2
REMARK VINA RESULT:     -10.0      5.814     11.717
REMARK SMILES O=C(OCCOCCOCCOCCOC(=O)[C@@H]1CC[C@@H](CS(=O)(=O)c2cccc(F)c2)O1)c1ccc(-c2c3nc(c(-c4c(F)c(F)c(F)c(F)c4F)c4ccc([nH]4)c(-c4c(F)c(F)c(F)c(F)c4F)c4nc(c(-c5c(F)c(F)c(F)c(F)c5F)c5ccc2[nH]5)C=C4)C=C3)cc1
REMARK SMILES IDX 10 1 9 2 8 3 7 4 6 5 5 6 4 7 3 8 2 9 1 10 34 11 35 12 96 13
REMARK SMILES IDX 36 14 95 15 37 16 38 17 39 18 89 19 40 20 94 21 88 22 90 23
REMARK SMILES IDX 41 24 93 25 87 26 86 27 42 29 74 30 54 31 73 32 55 33 58 34
REMARK SMILES IDX 72 35 91 36 56 37 57 38 71 40 92 41 59 42 43 43 44 44 52 45
REMARK SMILES IDX 45 46 46 47 50 48 53 49 47 50 48 51 51 52 49 53 75 54 76 55
REMARK SMILES IDX 84 56 77 57 78 58 82 59 85 60 79 61 80 62 83 63 81 64 60 65
REMARK SMILES IDX 61 66 69 67 62 68 63 69 67 70 70 71 64 72 65 73 68 74 66 75
REMARK SMILES IDX 11 76 12 77 13 78 14 79 15 80 16 81 17 82 18 83 19 84 33 85
REMARK SMILES IDX 20 86 21 87 22 88 23 89 24 90 25 91 26 92 27 93 32 94 28 95
REMARK SMILES IDX 30 96 29 97 31 98
REMARK H PARENT 90 28 58 39
REMARK Flexibility Score: inf
ROOT
ATOM      1  C   UNL A   1      34.734  33.965  28.026  1.00  0.00     0.188 C 
ENDROOT
BRANCH   1   2
ATOM      2  O   UNL A   1      34.655  35.108  28.869  1.00  0.00    -0.377 OA
BRANCH   2   3
ATOM      3  C   UNL A   1      33.383  35.445  29.415  1.00  0.00     0.188 C 
BRANCH   3   4
ATOM      4  C   UNL A   1      33.210  35.134  30.896  1.00  0.00     0.188 C 
BRANCH   4   5
ATOM      5  O   UNL A   1      34.014  36.045  31.642  1.00  0.00    -0.376 OA
BRANCH   5   6
ATOM      6  C   UNL A   1      34.537  35.514  32.856  1.00  0.00     0.202 C 
BRANCH   6   7
ATOM      7  C   UNL A   1      35.914  34.885  32.664  1.00  0.00     0.261 C 
BRANCH   7   8
ATOM      8  O   UNL A   1      35.940  33.500  33.052  1.00  0.00    -0.460 OA
BRANCH   8   9
ATOM      9  C   UNL A   1      35.815  32.413  32.249  1.00  0.00     0.338 C 
ATOM     10  O   UNL A   1      34.689  31.982  32.006  1.00  0.00    -0.246 OA
BRANCH   9  11
ATOM     11  C   UNL A   1      36.970  31.736  31.580  1.00  0.00     0.060 A 
ATOM     12  C   UNL A   1      37.894  30.909  32.217  1.00  0.00     0.016 A 
ATOM     13  C   UNL A   1      37.077  31.879  30.185  1.00  0.00     0.016 A 
ATOM     14  C   UNL A   1      38.932  30.304  31.529  1.00  0.00     0.010 A 
ATOM     15  C   UNL A   1      38.101  31.245  29.471  1.00  0.00     0.010 A 
ATOM     16  C   UNL A   1      39.048  30.474  30.153  1.00  0.00    -0.014 A 
BRANCH  16  17
ATOM     17  C   UNL A   1      40.271  29.960  29.513  1.00  0.00     0.031 A 
ATOM     18  C   UNL A   1      41.493  30.824  29.551  1.00  0.00     0.074 A 
ATOM     19  C   UNL A   1      40.323  28.682  29.097  1.00  0.00     0.049 A 
ATOM     20  N   UNL A   1      42.676  30.610  29.047  1.00  0.00    -0.248 NA
ATOM     21  C   UNL A   1      41.374  32.099  30.285  1.00  0.00     0.031 C 
ATOM     22  C   UNL A   1      39.218  27.722  29.189  1.00  0.00     0.029 A 
ATOM     23  N   UNL A   1      41.353  27.952  28.568  1.00  0.00    -0.354 N 
ATOM     24  C   UNL A   1      43.429  31.729  29.373  1.00  0.00     0.074 A 
ATOM     25  C   UNL A   1      42.578  32.623  30.123  1.00  0.00     0.031 C 
ATOM     26  C   UNL A   1      39.645  26.522  28.767  1.00  0.00     0.029 A 
ATOM     27  C   UNL A   1      41.021  26.646  28.301  1.00  0.00     0.049 A 
ATOM     28  H   UNL A   1      42.246  28.327  28.394  1.00  0.00     0.167 HD
ATOM     29  C   UNL A   1      44.719  31.980  29.061  1.00  0.00     0.037 A 
ATOM     30  C   UNL A   1      41.749  25.677  27.713  1.00  0.00     0.037 A 
ATOM     31  C   UNL A   1      45.539  31.061  28.323  1.00  0.00     0.049 A 
ATOM     32  C   UNL A   1      43.145  26.026  27.267  1.00  0.00     0.074 A 
ATOM     33  C   UNL A   1      46.827  31.231  27.855  1.00  0.00     0.029 A 
ATOM     34  N   UNL A   1      45.137  29.782  27.957  1.00  0.00    -0.354 N 
ATOM     35  N   UNL A   1      43.821  27.133  27.466  1.00  0.00    -0.248 NA
ATOM     36  C   UNL A   1      43.867  25.013  26.489  1.00  0.00     0.031 C 
ATOM     37  C   UNL A   1      47.191  30.065  27.173  1.00  0.00     0.029 A 
ATOM     38  C   UNL A   1      46.148  29.153  27.255  1.00  0.00     0.049 A 
ATOM     39  H   UNL A   1      44.262  29.383  28.168  1.00  0.00     0.167 HD
ATOM     40  C   UNL A   1      45.046  26.952  26.843  1.00  0.00     0.074 A 
ATOM     41  C   UNL A   1      45.031  25.614  26.282  1.00  0.00     0.031 C 
ATOM     42  C   UNL A   1      46.085  27.815  26.725  1.00  0.00     0.037 A 
BRANCH  29  43
ATOM     43  C   UNL A   1      45.279  33.312  29.454  1.00  0.00     0.064 A 
ATOM     44  C   UNL A   1      45.117  34.419  28.608  1.00  0.00     0.173 A 
ATOM     45  C   UNL A   1      45.968  33.501  30.660  1.00  0.00     0.173 A 
ATOM     46  F   UNL A   1      44.454  34.292  27.449  1.00  0.00    -0.203 F 
ATOM     47  C   UNL A   1      45.633  35.665  28.951  1.00  0.00     0.198 A 
ATOM     48  C   UNL A   1      46.465  34.755  31.010  1.00  0.00     0.198 A 
ATOM     49  F   UNL A   1      46.120  32.482  31.519  1.00  0.00    -0.203 F 
ATOM     50  F   UNL A   1      45.476  36.707  28.120  1.00  0.00    -0.200 F 
ATOM     51  C   UNL A   1      46.303  35.834  30.153  1.00  0.00     0.200 A 
ATOM     52  F   UNL A   1      47.084  34.924  32.186  1.00  0.00    -0.200 F 
ATOM     53  F   UNL A   1      46.784  37.038  30.491  1.00  0.00    -0.200 F 
ENDBRANCH  29  43
BRANCH  30  54
ATOM     54  C   UNL A   1      41.158  24.334  27.459  1.00  0.00     0.064 A 
ATOM     55  C   UNL A   1      40.102  24.164  26.548  1.00  0.00     0.173 A 
ATOM     56  C   UNL A   1      41.635  23.190  28.113  1.00  0.00     0.173 A 
ATOM     57  F   UNL A   1      39.610  25.220  25.883  1.00  0.00    -0.203 F 
ATOM     58  C   UNL A   1      39.532  22.912  26.322  1.00  0.00     0.198 A 
ATOM     59  C   UNL A   1      41.086  21.931  27.861  1.00  0.00     0.198 A 
ATOM     60  F   UNL A   1      42.660  23.288  28.973  1.00  0.00    -0.203 F 
ATOM     61  F   UNL A   1      38.504  22.790  25.471  1.00  0.00    -0.200 F 
ATOM     62  C   UNL A   1      40.030  21.795  26.973  1.00  0.00     0.200 A 
ATOM     63  F   UNL A   1      41.590  20.850  28.470  1.00  0.00    -0.200 F 
ATOM     64  F   UNL A   1      39.497  20.588  26.738  1.00  0.00    -0.200 F 
ENDBRANCH  30  54
BRANCH  42  65
ATOM     65  C   UNL A   1      47.287  27.335  25.972  1.00  0.00     0.064 A 
ATOM     66  C   UNL A   1      48.352  26.727  26.653  1.00  0.00     0.173 A 
ATOM     67  C   UNL A   1      47.420  27.563  24.596  1.00  0.00     0.173 A 
ATOM     68  F   UNL A   1      48.270  26.500  27.973  1.00  0.00    -0.203 F 
ATOM     69  C   UNL A   1      49.518  26.381  25.981  1.00  0.00     0.198 A 
ATOM     70  C   UNL A   1      48.577  27.189  23.923  1.00  0.00     0.198 A 
ATOM     71  F   UNL A   1      46.419  28.131  23.906  1.00  0.00    -0.203 F 
ATOM     72  F   UNL A   1      50.541  25.837  26.656  1.00  0.00    -0.200 F 
ATOM     73  C   UNL A   1      49.629  26.610  24.617  1.00  0.00     0.200 A 
ATOM     74  F   UNL A   1      48.676  27.391  22.602  1.00  0.00    -0.200 F 
ATOM     75  F   UNL A   1      50.753  26.271  23.971  1.00  0.00    -0.200 F 
ENDBRANCH  42  65
ENDBRANCH  16  17
ENDBRANCH   9  11
ENDBRANCH   8   9
ENDBRANCH   7   8
ENDBRANCH   6   7
ENDBRANCH   5   6
ENDBRANCH   4   5
ENDBRANCH   3   4
ENDBRANCH   2   3
ENDBRANCH   1   2
BRANCH   1  76
ATOM     76  C   UNL A   1      33.795  32.778  28.281  1.00  0.00     0.188 C 
BRANCH  76  77
ATOM     77  O   UNL A   1      34.366  31.489  28.377  1.00  0.00    -0.376 OA
BRANCH  77  78
ATOM     78  C   UNL A   1      33.870  30.448  27.535  1.00  0.00     0.202 C 
BRANCH  78  79
ATOM     79  C   UNL A   1      34.783  29.383  26.892  1.00  0.00     0.261 C 
BRANCH  79  80
ATOM     80  O   UNL A   1      34.283  28.823  25.666  1.00  0.00    -0.461 OA
BRANCH  80  81
ATOM     81  C   UNL A   1      32.965  29.032  25.415  1.00  0.00     0.335 C 
ATOM     82  O   UNL A   1      32.485  30.127  25.128  1.00  0.00    -0.249 OA
BRANCH  81  83
ATOM     83  C   UNL A   1      32.108  27.744  25.417  1.00  0.00     0.228 C 
ATOM     84  C   UNL A   1      31.404  27.596  26.753  1.00  0.00     0.047 C 
ATOM     85  O   UNL A   1      32.627  26.454  25.106  1.00  0.00    -0.362 OA
ATOM     86  C   UNL A   1      30.998  26.144  26.769  1.00  0.00     0.036 C 
ATOM     87  C   UNL A   1      32.121  25.465  25.993  1.00  0.00     0.135 C 
BRANCH  87  88
ATOM     88  C   UNL A   1      31.688  24.150  25.346  1.00  0.00     0.174 C 
BRANCH  88  89
ATOM     89  S   UNL A   1      31.783  22.621  26.227  1.00  0.00     0.181 S 
ATOM     90  O   UNL A   1      31.946  22.887  27.644  1.00  0.00    -0.224 OA
ATOM     91  O   UNL A   1      30.642  21.836  25.784  1.00  0.00    -0.224 OA
BRANCH  89  92
ATOM     92  C   UNL A   1      33.185  21.659  25.712  1.00  0.00     0.070 A 
ATOM     93  C   UNL A   1      34.462  22.147  26.035  1.00  0.00     0.020 A 
ATOM     94  C   UNL A   1      33.053  20.430  25.077  1.00  0.00     0.059 A 
ATOM     95  C   UNL A   1      35.603  21.410  25.702  1.00  0.00     0.004 A 
ATOM     96  C   UNL A   1      34.198  19.720  24.728  1.00  0.00     0.124 A 
ATOM     97  C   UNL A   1      35.469  20.195  25.035  1.00  0.00     0.039 A 
ATOM     98  F   UNL A   1      34.070  18.549  24.092  1.00  0.00    -0.207 F 
ENDBRANCH  89  92
ENDBRANCH  88  89
ENDBRANCH  87  88
ENDBRANCH  81  83
ENDBRANCH  80  81
ENDBRANCH  79  80
ENDBRANCH  78  79
ENDBRANCH  77  78
ENDBRANCH  76  77
ENDBRANCH   1  76
TORSDOF 23
ENDMDL
MODEL 3
REMARK VINA RESULT:      -9.9      1.370      7.183
REMARK SMILES O=C(OCCOCCOCCOCCOC(=O)[C@@H]1CC[C@@H](CS(=O)(=O)c2cccc(F)c2)O1)c1ccc(-c2c3nc(c(-c4c(F)c(F)c(F)c(F)c4F)c4ccc([nH]4)c(-c4c(F)c(F)c(F)c(F)c4F)c4nc(c(-c5c(F)c(F)c(F)c(F)c5F)c5ccc2[nH]5)C=C4)C=C3)cc1
REMARK SMILES IDX 10 1 9 2 8 3 7 4 6 5 5 6 4 7 3 8 2 9 1 10 34 11 35 12 96 13
REMARK SMILES IDX 36 14 95 15 37 16 38 17 39 18 89 19 40 20 94 21 88 22 90 23
REMARK SMILES IDX 41 24 93 25 87 26 86 27 42 29 74 30 54 31 73 32 55 33 58 34
REMARK SMILES IDX 72 35 91 36 56 37 57 38 71 40 92 41 59 42 43 43 44 44 52 45
REMARK SMILES IDX 45 46 46 47 50 48 53 49 47 50 48 51 51 52 49 53 75 54 76 55
REMARK SMILES IDX 84 56 77 57 78 58 82 59 85 60 79 61 80 62 83 63 81 64 60 65
REMARK SMILES IDX 61 66 69 67 62 68 63 69 67 70 70 71 64 72 65 73 68 74 66 75
REMARK SMILES IDX 11 76 12 77 13 78 14 79 15 80 16 81 17 82 18 83 19 84 33 85
REMARK SMILES IDX 20 86 21 87 22 88 23 89 24 90 25 91 26 92 27 93 32 94 28 95
REMARK SMILES IDX 30 96 29 97 31 98
REMARK H PARENT 90 28 58 39
REMARK Flexibility Score: inf
ROOT
ATOM      1  C   UNL A   1      44.259  18.817  24.451  1.00  0.00     0.188 C 
ENDROOT
BRANCH   1   2
ATOM      2  O   UNL A   1      45.655  18.564  24.560  1.00  0.00    -0.377 OA
BRANCH   2   3
ATOM      3  C   UNL A   1      46.461  19.548  25.203  1.00  0.00     0.188 C 
BRANCH   3   4
ATOM      4  C   UNL A   1      46.232  20.980  24.737  1.00  0.00     0.188 C 
BRANCH   4   5
ATOM      5  O   UNL A   1      46.202  21.825  25.886  1.00  0.00    -0.376 OA
BRANCH   5   6
ATOM      6  C   UNL A   1      45.479  23.038  25.707  1.00  0.00     0.202 C 
BRANCH   6   7
ATOM      7  C   UNL A   1      46.395  24.214  25.380  1.00  0.00     0.261 C 
BRANCH   7   8
ATOM      8  O   UNL A   1      45.698  25.280  24.714  1.00  0.00    -0.460 OA
BRANCH   8   9
ATOM      9  C   UNL A   1      45.711  26.601  25.026  1.00  0.00     0.338 C 
ATOM     10  O   UNL A   1      46.223  27.392  24.234  1.00  0.00    -0.246 OA
BRANCH   9  11
ATOM     11  C   UNL A   1      45.077  27.172  26.255  1.00  0.00     0.060 A 
ATOM     12  C   UNL A   1      44.451  26.428  27.254  1.00  0.00     0.016 A 
ATOM     13  C   UNL A   1      45.199  28.559  26.455  1.00  0.00     0.016 A 
ATOM     14  C   UNL A   1      43.895  27.025  28.373  1.00  0.00     0.010 A 
ATOM     15  C   UNL A   1      44.672  29.172  27.599  1.00  0.00     0.010 A 
ATOM     16  C   UNL A   1      43.995  28.401  28.550  1.00  0.00    -0.014 A 
BRANCH  16  17
ATOM     17  C   UNL A   1      43.228  28.994  29.660  1.00  0.00     0.031 A 
ATOM     18  C   UNL A   1      43.969  29.325  30.918  1.00  0.00     0.074 A 
ATOM     19  C   UNL A   1      41.962  29.399  29.457  1.00  0.00     0.049 A 
ATOM     20  N   UNL A   1      43.522  29.830  32.035  1.00  0.00    -0.248 NA
ATOM     21  C   UNL A   1      45.423  29.080  30.909  1.00  0.00     0.031 C 
ATOM     22  C   UNL A   1      41.228  29.266  28.195  1.00  0.00     0.029 A 
ATOM     23  N   UNL A   1      41.087  30.052  30.283  1.00  0.00    -0.354 N 
ATOM     24  C   UNL A   1      44.627  29.932  32.866  1.00  0.00     0.074 A 
ATOM     25  C   UNL A   1      45.771  29.444  32.133  1.00  0.00     0.031 C 
ATOM     26  C   UNL A   1      40.029  29.855  28.321  1.00  0.00     0.029 A 
ATOM     27  C   UNL A   1      39.879  30.333  29.691  1.00  0.00     0.049 A 
ATOM     28  H   UNL A   1      41.301  30.295  31.212  1.00  0.00     0.167 HD
ATOM     29  C   UNL A   1      44.668  30.391  34.137  1.00  0.00     0.037 A 
ATOM     30  C   UNL A   1      38.770  30.884  30.221  1.00  0.00     0.037 A 
ATOM     31  C   UNL A   1      43.510  30.879  34.831  1.00  0.00     0.049 A 
ATOM     32  C   UNL A   1      38.811  31.274  31.676  1.00  0.00     0.074 A 
ATOM     33  C   UNL A   1      43.393  31.279  36.147  1.00  0.00     0.029 A 
ATOM     34  N   UNL A   1      42.263  31.043  34.241  1.00  0.00    -0.354 N 
ATOM     35  N   UNL A   1      39.828  31.257  32.505  1.00  0.00    -0.248 NA
ATOM     36  C   UNL A   1      37.552  31.727  32.279  1.00  0.00     0.031 C 
ATOM     37  C   UNL A   1      42.062  31.651  36.364  1.00  0.00     0.029 A 
ATOM     38  C   UNL A   1      41.363  31.526  35.172  1.00  0.00     0.049 A 
ATOM     39  H   UNL A   1      42.052  30.845  33.301  1.00  0.00     0.167 HD
ATOM     40  C   UNL A   1      39.336  31.695  33.725  1.00  0.00     0.074 A 
ATOM     41  C   UNL A   1      37.933  32.000  33.519  1.00  0.00     0.031 C 
ATOM     42  C   UNL A   1      39.976  31.821  34.914  1.00  0.00     0.037 A 
BRANCH  29  43
ATOM     43  C   UNL A   1      45.979  30.313  34.857  1.00  0.00     0.064 A 
ATOM     44  C   UNL A   1      46.330  29.147  35.552  1.00  0.00     0.173 A 
ATOM     45  C   UNL A   1      46.889  31.379  34.860  1.00  0.00     0.173 A 
ATOM     46  F   UNL A   1      45.499  28.094  35.568  1.00  0.00    -0.203 F 
ATOM     47  C   UNL A   1      47.541  29.054  36.233  1.00  0.00     0.198 A 
ATOM     48  C   UNL A   1      48.109  31.275  35.524  1.00  0.00     0.198 A 
ATOM     49  F   UNL A   1      46.615  32.503  34.181  1.00  0.00    -0.203 F 
ATOM     50  F   UNL A   1      47.849  27.932  36.900  1.00  0.00    -0.200 F 
ATOM     51  C   UNL A   1      48.431  30.116  36.215  1.00  0.00     0.200 A 
ATOM     52  F   UNL A   1      48.983  32.290  35.479  1.00  0.00    -0.200 F 
ATOM     53  F   UNL A   1      49.605  30.019  36.855  1.00  0.00    -0.200 F 
ENDBRANCH  29  43
BRANCH  30  54
ATOM     54  C   UNL A   1      37.534  31.036  29.404  1.00  0.00     0.064 A 
ATOM     55  C   UNL A   1      37.199  32.265  28.812  1.00  0.00     0.173 A 
ATOM     56  C   UNL A   1      36.662  29.959  29.191  1.00  0.00     0.173 A 
ATOM     57  F   UNL A   1      38.000  33.328  28.970  1.00  0.00    -0.203 F 
ATOM     58  C   UNL A   1      36.033  32.417  28.063  1.00  0.00     0.198 A 
ATOM     59  C   UNL A   1      35.511  30.104  28.414  1.00  0.00     0.198 A 
ATOM     60  F   UNL A   1      36.945  28.755  29.710  1.00  0.00    -0.203 F 
ATOM     61  F   UNL A   1      35.726  33.612  27.540  1.00  0.00    -0.200 F 
ATOM     62  C   UNL A   1      35.194  31.334  27.859  1.00  0.00     0.200 A 
ATOM     63  F   UNL A   1      34.719  29.047  28.193  1.00  0.00    -0.200 F 
ATOM     64  F   UNL A   1      34.085  31.474  27.120  1.00  0.00    -0.200 F 
ENDBRANCH  30  54
BRANCH  42  65
ATOM     65  C   UNL A   1      39.168  32.313  36.074  1.00  0.00     0.064 A 
ATOM     66  C   UNL A   1      39.302  33.636  36.519  1.00  0.00     0.173 A 
ATOM     67  C   UNL A   1      38.334  31.449  36.795  1.00  0.00     0.173 A 
ATOM     68  F   UNL A   1      40.099  34.493  35.863  1.00  0.00    -0.203 F 
ATOM     69  C   UNL A   1      38.643  34.070  37.663  1.00  0.00     0.198 A 
ATOM     70  C   UNL A   1      37.654  31.896  37.922  1.00  0.00     0.198 A 
ATOM     71  F   UNL A   1      38.168  30.179  36.395  1.00  0.00    -0.203 F 
ATOM     72  F   UNL A   1      38.815  35.326  38.096  1.00  0.00    -0.200 F 
ATOM     73  C   UNL A   1      37.818  33.201  38.362  1.00  0.00     0.200 A 
ATOM     74  F   UNL A   1      36.840  31.062  38.585  1.00  0.00    -0.200 F 
ATOM     75  F   UNL A   1      37.179  33.623  39.461  1.00  0.00    -0.200 F 
ENDBRANCH  42  65
ENDBRANCH  16  17
ENDBRANCH   9  11
ENDBRANCH   8   9
ENDBRANCH   7   8
ENDBRANCH   6   7
ENDBRANCH   5   6
ENDBRANCH   4   5
ENDBRANCH   3   4
ENDBRANCH   2   3
ENDBRANCH   1   2
BRANCH   1  76
ATOM     76  C   UNL A   1      43.368  18.657  25.690  1.00  0.00     0.188 C 
BRANCH  76  77
ATOM     77  O   UNL A   1      42.360  19.623  25.911  1.00  0.00    -0.376 OA
BRANCH  77  78
ATOM     78  C   UNL A   1      42.009  19.961  27.253  1.00  0.00     0.202 C 
BRANCH  78  79
ATOM     79  C   UNL A   1      41.328  21.293  27.632  1.00  0.00     0.261 C 
BRANCH  79  80
ATOM     80  O   UNL A   1      39.957  21.408  27.215  1.00  0.00    -0.461 OA
BRANCH  80  81
ATOM     81  C   UNL A   1      39.612  22.586  26.636  1.00  0.00     0.335 C 
ATOM     82  O   UNL A   1      40.403  23.501  26.415  1.00  0.00    -0.249 OA
BRANCH  81  83
ATOM     83  C   UNL A   1      38.138  22.656  26.170  1.00  0.00     0.228 C 
ATOM     84  C   UNL A   1      37.870  21.570  25.145  1.00  0.00     0.047 C 
ATOM     85  O   UNL A   1      37.533  23.838  25.654  1.00  0.00    -0.362 OA
ATOM     86  C   UNL A   1      36.595  22.030  24.483  1.00  0.00     0.036 C 
ATOM     87  C   UNL A   1      36.714  23.550  24.528  1.00  0.00     0.135 C 
BRANCH  87  88
ATOM     88  C   UNL A   1      35.359  24.256  24.492  1.00  0.00     0.174 C 
BRANCH  88  89
ATOM     89  S   UNL A   1      33.874  23.411  24.944  1.00  0.00     0.181 S 
ATOM     90  O   UNL A   1      33.496  22.493  23.885  1.00  0.00    -0.224 OA
ATOM     91  O   UNL A   1      34.105  22.888  26.280  1.00  0.00    -0.224 OA
BRANCH  89  92
ATOM     92  C   UNL A   1      32.521  24.544  25.160  1.00  0.00     0.070 A 
ATOM     93  C   UNL A   1      31.361  24.323  24.399  1.00  0.00     0.020 A 
ATOM     94  C   UNL A   1      32.555  25.575  26.091  1.00  0.00     0.059 A 
ATOM     95  C   UNL A   1      30.245  25.149  24.562  1.00  0.00     0.004 A 
ATOM     96  C   UNL A   1      31.446  26.406  26.222  1.00  0.00     0.124 A 
ATOM     97  C   UNL A   1      30.293  26.204  25.472  1.00  0.00     0.039 A 
ATOM     98  F   UNL A   1      31.489  27.415  27.102  1.00  0.00    -0.207 F 
ENDBRANCH  89  92
ENDBRANCH  88  89
ENDBRANCH  87  88
ENDBRANCH  81  83
ENDBRANCH  80  81
ENDBRANCH  79  80
ENDBRANCH  78  79
ENDBRANCH  77  78
ENDBRANCH  76  77
ENDBRANCH   1  76
TORSDOF 23
ENDMDL
