MODEL 1
REMARK VINA RESULT:      -9.5      0.000      0.000
REMARK SMILES Cc1ccc(-c2cnnc(-n3nc(C)c4c3NC(=O)C[C@@H]4c3ccc(C(=O)OCCOCCOCCOCCOC(=O)c4ccc(-c5c6nc(c(-c7c(F)c(F)c(F)c(F)c7F)c7ccc([nH]7)c(-c7c(F)c(F)c(F)c(F)c7F)c7nc(c(-c8c(F)c(F)c(F)c(F)c8F)c8ccc5[nH]8)C=C7)C=C6)cc4)cc3)n2)cc1
REMARK SMILES IDX 33 1 32 2 31 3 30 4 29 5 28 6 26 7 27 8 25 9 22 10 23 11
REMARK SMILES IDX 107 12 24 13 106 14 21 15 11 16 12 17 16 18 13 19 15 20
REMARK SMILES IDX 17 21 14 22 18 23 20 25 19 26 10 27 6 28 7 29 108 30 8 31
REMARK SMILES IDX 9 32 5 33 1 34 2 35 3 36 110 37 4 38 109 39 34 40 35 41
REMARK SMILES IDX 36 42 37 43 38 44 39 45 40 46 41 47 42 48 43 49 44 50 105 51
REMARK SMILES IDX 45 52 104 53 46 54 47 55 48 56 98 57 49 58 103 59 97 60
REMARK SMILES IDX 99 61 50 62 102 63 96 64 95 65 51 67 83 68 63 69 82 70 64 71
REMARK SMILES IDX 67 72 81 73 100 74 65 75 66 76 80 78 101 79 68 80 52 81
REMARK SMILES IDX 53 82 61 83 54 84 55 85 59 86 62 87 56 88 57 89 60 90 58 91
REMARK SMILES IDX 84 92 85 93 93 94 86 95 87 96 91 97 94 98 88 99 89 100
REMARK SMILES IDX 92 101 90 102 69 103 70 104 78 105 71 106 72 107 76 108
REMARK SMILES IDX 79 109 73 110 74 111 77 112 75 113
REMARK H PARENT 17 24 99 66 67 77
REMARK Flexibility Score: inf
ROOT
ATOM      1  C   UNL A   1      51.663  28.793  36.608  1.00  0.00     0.188 C 
ENDROOT
BRANCH   1   2
ATOM      2  C   UNL A   1      50.316  28.528  37.403  1.00  0.00     0.188 C 
BRANCH   2   3
ATOM      3  O   UNL A   1      48.884  28.547  36.783  1.00  0.00    -0.376 OA
BRANCH   3   4
ATOM      4  C   UNL A   1      48.142  29.574  35.736  1.00  0.00     0.202 C 
BRANCH   4   5
ATOM      5  C   UNL A   1      46.455  30.083  35.198  1.00  0.00     0.261 C 
BRANCH   5   6
ATOM      6  O   UNL A   1      45.817  31.119  33.821  1.00  0.00    -0.460 OA
BRANCH   6   7
ATOM      7  C   UNL A   1      45.413  31.206  32.280  1.00  0.00     0.338 C 
ATOM      8  O   UNL A   1      46.066  31.941  31.526  1.00  0.00    -0.246 OA
BRANCH   7   9
ATOM      9  C   UNL A   1      44.052  30.633  31.511  1.00  0.00     0.060 A 
ATOM     10  C   UNL A   1      41.521  30.373  30.041  1.00  0.00    -0.040 A 
ATOM     11  C   UNL A   1      42.782  30.519  29.403  1.00  0.00     0.005 A 
ATOM     12  C   UNL A   1      41.581  30.148  31.403  1.00  0.00     0.005 A 
ATOM     13  C   UNL A   1      44.011  30.678  30.118  1.00  0.00     0.016 A 
ATOM     14  C   UNL A   1      42.832  30.165  32.082  1.00  0.00     0.016 A 
BRANCH  10  15
ATOM     15  C   UNL A   1      40.239  30.341  29.214  1.00  0.00     0.064 C 
ATOM     16  N   UNL A   1      36.855  31.433  29.979  1.00  0.00    -0.180 N 
ATOM     17  N   UNL A   1      37.451  32.516  30.544  1.00  0.00    -0.168 NA
ATOM     18  C   UNL A   1      37.788  30.409  29.927  1.00  0.00     0.143 A 
ATOM     19  C   UNL A   1      38.763  32.309  30.378  1.00  0.00     0.066 A 
ATOM     20  C   UNL A   1      39.031  31.027  29.824  1.00  0.00     0.026 A 
ATOM     21  N   UNL A   1      37.687  29.033  29.966  1.00  0.00    -0.310 N 
ATOM     22  C   UNL A   1      39.666  33.382  30.842  1.00  0.00     0.069 C 
ATOM     23  C   UNL A   1      38.880  28.282  29.716  1.00  0.00     0.226 C 
ATOM     24  H   UNL A   1      36.832  28.587  30.160  1.00  0.00     0.171 HD
ATOM     25  C   UNL A   1      39.866  28.921  28.768  1.00  0.00     0.113 C 
ATOM     26  O   UNL A   1      38.949  27.157  30.176  1.00  0.00    -0.275 OA
BRANCH  16  27
ATOM     27  C   UNL A   1      35.615  31.570  29.265  1.00  0.00     0.272 A 
ATOM     28  C   UNL A   1      34.115  31.033  27.609  1.00  0.00     0.095 A 
ATOM     29  C   UNL A   1      33.517  32.274  27.758  1.00  0.00     0.164 A 
ATOM     30  N   UNL A   1      35.222  30.667  28.330  1.00  0.00    -0.208 NA
ATOM     31  N   UNL A   1      33.948  33.136  28.685  1.00  0.00    -0.153 NA
ATOM     32  N   UNL A   1      34.981  32.757  29.472  1.00  0.00    -0.109 NA
BRANCH  28  33
ATOM     33  C   UNL A   1      33.483  30.029  26.737  1.00  0.00     0.002 A 
ATOM     34  C   UNL A   1      31.560  26.906  24.412  1.00  0.00     0.044 C 
ATOM     35  C   UNL A   1      32.219  27.973  25.237  1.00  0.00    -0.051 A 
ATOM     36  C   UNL A   1      31.553  29.174  25.498  1.00  0.00     0.004 A 
ATOM     37  C   UNL A   1      33.509  27.795  25.745  1.00  0.00     0.004 A 
ATOM     38  C   UNL A   1      32.175  30.187  26.240  1.00  0.00     0.011 A 
ATOM     39  C   UNL A   1      34.132  28.811  26.481  1.00  0.00     0.011 A 
ENDBRANCH  28  33
ENDBRANCH  16  27
ENDBRANCH  10  15
ENDBRANCH   7   9
ENDBRANCH   6   7
ENDBRANCH   5   6
ENDBRANCH   4   5
ENDBRANCH   3   4
ENDBRANCH   2   3
ENDBRANCH   1   2
BRANCH   1  40
ATOM     40  O   UNL A   1      52.542  27.732  36.287  1.00  0.00    -0.377 OA
BRANCH  40  41
ATOM     41  C   UNL A   1      51.976  26.450  36.460  1.00  0.00     0.188 C 
BRANCH  41  42
ATOM     42  C   UNL A   1      52.931  25.422  37.080  1.00  0.00     0.188 C 
BRANCH  42  43
ATOM     43  O   UNL A   1      54.123  25.296  36.320  1.00  0.00    -0.376 OA
BRANCH  43  44
ATOM     44  C   UNL A   1      54.216  24.313  35.316  1.00  0.00     0.202 C 
BRANCH  44  45
ATOM     45  C   UNL A   1      54.951  24.851  34.091  1.00  0.00     0.261 C 
BRANCH  45  46
ATOM     46  O   UNL A   1      54.403  24.275  32.882  1.00  0.00    -0.460 OA
BRANCH  46  47
ATOM     47  C   UNL A   1      53.920  25.173  31.964  1.00  0.00     0.338 C 
ATOM     48  O   UNL A   1      54.584  25.837  31.220  1.00  0.00    -0.246 OA
BRANCH  47  49
ATOM     49  C   UNL A   1      52.454  25.388  32.246  1.00  0.00     0.060 A 
ATOM     50  C   UNL A   1      51.523  24.460  31.797  1.00  0.00     0.016 A 
ATOM     51  C   UNL A   1      51.990  26.642  32.653  1.00  0.00     0.016 A 
ATOM     52  C   UNL A   1      50.197  24.881  31.574  1.00  0.00     0.010 A 
ATOM     53  C   UNL A   1      50.738  27.102  32.226  1.00  0.00     0.010 A 
ATOM     54  C   UNL A   1      49.855  26.261  31.531  1.00  0.00    -0.014 A 
BRANCH  54  55
ATOM     55  C   UNL A   1      48.506  26.927  30.863  1.00  0.00     0.031 A 
ATOM     56  C   UNL A   1      47.471  26.102  32.073  1.00  0.00     0.074 A 
ATOM     57  C   UNL A   1      48.160  27.687  29.407  1.00  0.00     0.049 A 
ATOM     58  N   UNL A   1      46.437  25.327  31.814  1.00  0.00    -0.248 NA
ATOM     59  C   UNL A   1      47.771  25.939  33.516  1.00  0.00     0.031 C 
ATOM     60  C   UNL A   1      46.784  28.235  28.635  1.00  0.00     0.029 A 
ATOM     61  N   UNL A   1      48.857  27.901  28.074  1.00  0.00    -0.354 N 
ATOM     62  C   UNL A   1      45.672  25.237  32.928  1.00  0.00     0.074 A 
ATOM     63  C   UNL A   1      46.671  25.307  33.963  1.00  0.00     0.031 C 
ATOM     64  C   UNL A   1      46.862  28.511  27.337  1.00  0.00     0.029 A 
ATOM     65  C   UNL A   1      48.038  27.881  26.916  1.00  0.00     0.049 A 
ATOM     66  H   UNL A   1      49.829  28.045  28.017  1.00  0.00     0.167 HD
ATOM     67  C   UNL A   1      44.313  25.448  32.851  1.00  0.00     0.037 A 
ATOM     68  C   UNL A   1      48.000  26.934  25.920  1.00  0.00     0.037 A 
ATOM     69  C   UNL A   1      43.829  25.798  31.459  1.00  0.00     0.049 A 
ATOM     70  C   UNL A   1      46.626  26.180  25.954  1.00  0.00     0.074 A 
ATOM     71  C   UNL A   1      43.339  26.990  30.928  1.00  0.00     0.029 A 
ATOM     72  N   UNL A   1      44.070  24.995  30.320  1.00  0.00    -0.354 N 
ATOM     73  N   UNL A   1      45.839  26.143  27.009  1.00  0.00    -0.248 NA
ATOM     74  C   UNL A   1      46.011  25.482  24.833  1.00  0.00     0.031 C 
ATOM     75  C   UNL A   1      43.352  26.931  29.504  1.00  0.00     0.029 A 
ATOM     76  C   UNL A   1      43.815  25.684  29.111  1.00  0.00     0.049 A 
ATOM     77  H   UNL A   1      44.382  24.062  30.363  1.00  0.00     0.167 HD
ATOM     78  C   UNL A   1      44.717  25.381  26.798  1.00  0.00     0.074 A 
ATOM     79  C   UNL A   1      44.843  25.071  25.375  1.00  0.00     0.031 C 
ATOM     80  C   UNL A   1      43.803  25.030  27.779  1.00  0.00     0.037 A 
BRANCH  67  81
ATOM     81  C   UNL A   1      43.542  25.787  34.141  1.00  0.00     0.064 A 
ATOM     82  C   UNL A   1      42.876  24.810  34.914  1.00  0.00     0.173 A 
ATOM     83  C   UNL A   1      43.385  27.100  34.640  1.00  0.00     0.173 A 
ATOM     84  F   UNL A   1      43.069  23.503  34.714  1.00  0.00    -0.203 F 
ATOM     85  C   UNL A   1      42.006  25.135  35.966  1.00  0.00     0.198 A 
ATOM     86  C   UNL A   1      42.475  27.435  35.653  1.00  0.00     0.198 A 
ATOM     87  F   UNL A   1      44.169  28.100  34.217  1.00  0.00    -0.203 F 
ATOM     88  F   UNL A   1      41.397  24.157  36.651  1.00  0.00    -0.200 F 
ATOM     89  C   UNL A   1      41.771  26.450  36.307  1.00  0.00     0.200 A 
ATOM     90  F   UNL A   1      42.302  28.720  35.997  1.00  0.00    -0.200 F 
ATOM     91  F   UNL A   1      40.917  26.761  37.293  1.00  0.00    -0.200 F 
ENDBRANCH  67  81
BRANCH  68  92
ATOM     92  C   UNL A   1      49.335  26.407  25.463  1.00  0.00     0.064 A 
ATOM     93  C   UNL A   1      49.917  27.008  24.323  1.00  0.00     0.173 A 
ATOM     94  C   UNL A   1      50.178  25.583  26.223  1.00  0.00     0.173 A 
ATOM     95  F   UNL A   1      49.161  27.761  23.509  1.00  0.00    -0.203 F 
ATOM     96  C   UNL A   1      51.285  26.925  24.057  1.00  0.00     0.198 A 
ATOM     97  C   UNL A   1      51.560  25.534  25.981  1.00  0.00     0.198 A 
ATOM     98  F   UNL A   1      49.702  24.935  27.297  1.00  0.00    -0.203 F 
ATOM     99  F   UNL A   1      51.810  27.604  23.026  1.00  0.00    -0.200 F 
ATOM    100  C   UNL A   1      52.114  26.226  24.915  1.00  0.00     0.200 A 
ATOM    101  F   UNL A   1      52.368  24.888  26.835  1.00  0.00    -0.200 F 
ATOM    102  F   UNL A   1      53.445  26.275  24.750  1.00  0.00    -0.200 F 
ENDBRANCH  68  92
BRANCH  80 103
ATOM    103  C   UNL A   1      42.645  24.071  27.541  1.00  0.00     0.064 A 
ATOM    104  C   UNL A   1      41.296  24.438  27.644  1.00  0.00     0.173 A 
ATOM    105  C   UNL A   1      42.879  22.753  27.066  1.00  0.00     0.173 A 
ATOM    106  F   UNL A   1      40.938  25.695  27.938  1.00  0.00    -0.203 F 
ATOM    107  C   UNL A   1      40.264  23.533  27.389  1.00  0.00     0.198 A 
ATOM    108  C   UNL A   1      41.846  21.881  26.732  1.00  0.00     0.198 A 
ATOM    109  F   UNL A   1      44.115  22.268  26.894  1.00  0.00    -0.203 F 
ATOM    110  F   UNL A   1      38.993  23.915  27.578  1.00  0.00    -0.200 F 
ATOM    111  C   UNL A   1      40.536  22.263  26.920  1.00  0.00     0.200 A 
ATOM    112  F   UNL A   1      42.131  20.677  26.218  1.00  0.00    -0.200 F 
ATOM    113  F   UNL A   1      39.540  21.416  26.632  1.00  0.00    -0.200 F 
ENDBRANCH  80 103
ENDBRANCH  54  55
ENDBRANCH  47  49
ENDBRANCH  46  47
ENDBRANCH  45  46
ENDBRANCH  44  45
ENDBRANCH  43  44
ENDBRANCH  42  43
ENDBRANCH  41  42
ENDBRANCH  40  41
ENDBRANCH   1  40
TORSDOF 23
ENDMDL
MODEL 2
REMARK VINA RESULT:      -9.3      5.087     13.118
REMARK SMILES Cc1ccc(-c2cnnc(-n3nc(C)c4c3NC(=O)C[C@@H]4c3ccc(C(=O)OCCOCCOCCOCCOC(=O)c4ccc(-c5c6nc(c(-c7c(F)c(F)c(F)c(F)c7F)c7ccc([nH]7)c(-c7c(F)c(F)c(F)c(F)c7F)c7nc(c(-c8c(F)c(F)c(F)c(F)c8F)c8ccc5[nH]8)C=C7)C=C6)cc4)cc3)n2)cc1
REMARK SMILES IDX 33 1 32 2 31 3 30 4 29 5 28 6 26 7 27 8 25 9 22 10 23 11
REMARK SMILES IDX 107 12 24 13 106 14 21 15 11 16 12 17 16 18 13 19 15 20
REMARK SMILES IDX 17 21 14 22 18 23 20 25 19 26 10 27 6 28 7 29 108 30 8 31
REMARK SMILES IDX 9 32 5 33 1 34 2 35 3 36 110 37 4 38 109 39 34 40 35 41
REMARK SMILES IDX 36 42 37 43 38 44 39 45 40 46 41 47 42 48 43 49 44 50 105 51
REMARK SMILES IDX 45 52 104 53 46 54 47 55 48 56 98 57 49 58 103 59 97 60
REMARK SMILES IDX 99 61 50 62 102 63 96 64 95 65 51 67 83 68 63 69 82 70 64 71
REMARK SMILES IDX 67 72 81 73 100 74 65 75 66 76 80 78 101 79 68 80 52 81
REMARK SMILES IDX 53 82 61 83 54 84 55 85 59 86 62 87 56 88 57 89 60 90 58 91
REMARK SMILES IDX 84 92 85 93 93 94 86 95 87 96 91 97 94 98 88 99 89 100
REMARK SMILES IDX 92 101 90 102 69 103 70 104 78 105 71 106 72 107 76 108
REMARK SMILES IDX 79 109 73 110 74 111 77 112 75 113
REMARK H PARENT 17 24 99 66 67 77
REMARK Flexibility Score: inf
ROOT
ATOM      1  C   UNL A   1      40.794  28.312  31.443  1.00  0.00     0.188 C 
ENDROOT
BRANCH   1   2
ATOM      2  C   UNL A   1      42.329  27.923  31.365  1.00  0.00     0.188 C 
BRANCH   2   3
ATOM      3  O   UNL A   1      43.479  28.631  32.147  1.00  0.00    -0.376 OA
BRANCH   3   4
ATOM      4  C   UNL A   1      44.770  28.056  32.987  1.00  0.00     0.202 C 
BRANCH   4   5
ATOM      5  C   UNL A   1      46.124  26.815  32.840  1.00  0.00     0.261 C 
BRANCH   5   6
ATOM      6  O   UNL A   1      46.893  25.932  31.423  1.00  0.00    -0.460 OA
BRANCH   6   7
ATOM      7  C   UNL A   1      46.790  25.506  29.890  1.00  0.00     0.338 C 
ATOM      8  O   UNL A   1      47.827  25.414  29.219  1.00  0.00    -0.246 OA
BRANCH   7   9
ATOM      9  C   UNL A   1      45.445  25.381  28.916  1.00  0.00     0.060 A 
ATOM     10  C   UNL A   1      43.398  24.492  27.005  1.00  0.00    -0.040 A 
ATOM     11  C   UNL A   1      43.424  24.084  28.366  1.00  0.00     0.005 A 
ATOM     12  C   UNL A   1      44.280  25.506  26.685  1.00  0.00     0.005 A 
ATOM     13  C   UNL A   1      44.439  24.491  29.289  1.00  0.00     0.016 A 
ATOM     14  C   UNL A   1      45.189  26.005  27.660  1.00  0.00     0.016 A 
BRANCH  10  15
ATOM     15  C   UNL A   1      42.361  23.912  26.048  1.00  0.00     0.064 C 
ATOM     16  N   UNL A   1      38.833  23.152  26.496  1.00  0.00    -0.180 N 
ATOM     17  N   UNL A   1      38.776  24.335  27.162  1.00  0.00    -0.168 NA
ATOM     18  C   UNL A   1      40.150  22.719  26.501  1.00  0.00     0.143 A 
ATOM     19  C   UNL A   1      40.029  24.807  27.127  1.00  0.00     0.066 A 
ATOM     20  C   UNL A   1      40.932  23.869  26.554  1.00  0.00     0.026 A 
ATOM     21  N   UNL A   1      40.736  21.470  26.476  1.00  0.00    -0.310 N 
ATOM     22  C   UNL A   1      40.251  26.139  27.725  1.00  0.00     0.069 C 
ATOM     23  C   UNL A   1      42.158  21.418  26.323  1.00  0.00     0.226 C 
ATOM     24  H   UNL A   1      40.200  20.649  26.561  1.00  0.00     0.171 HD
ATOM     25  C   UNL A   1      42.768  22.533  25.509  1.00  0.00     0.113 C 
ATOM     26  O   UNL A   1      42.739  20.433  26.743  1.00  0.00    -0.275 OA
BRANCH  16  27
ATOM     27  C   UNL A   1      37.741  22.729  25.661  1.00  0.00     0.272 A 
ATOM     28  C   UNL A   1      35.713  23.005  24.615  1.00  0.00     0.095 A 
ATOM     29  C   UNL A   1      35.587  21.629  24.513  1.00  0.00     0.164 A 
ATOM     30  N   UNL A   1      36.780  23.594  25.245  1.00  0.00    -0.208 NA
ATOM     31  N   UNL A   1      36.555  20.817  24.950  1.00  0.00    -0.153 NA
ATOM     32  N   UNL A   1      37.660  21.381  25.490  1.00  0.00    -0.109 NA
BRANCH  28  33
ATOM     33  C   UNL A   1      34.738  23.871  23.932  1.00  0.00     0.002 A 
ATOM     34  C   UNL A   1      31.644  26.265  22.049  1.00  0.00     0.044 C 
ATOM     35  C   UNL A   1      32.695  25.424  22.712  1.00  0.00    -0.051 A 
ATOM     36  C   UNL A   1      33.403  25.919  23.811  1.00  0.00     0.004 A 
ATOM     37  C   UNL A   1      32.998  24.144  22.238  1.00  0.00     0.004 A 
ATOM     38  C   UNL A   1      34.408  25.152  24.416  1.00  0.00     0.011 A 
ATOM     39  C   UNL A   1      34.008  23.382  22.838  1.00  0.00     0.011 A 
ENDBRANCH  28  33
ENDBRANCH  16  27
ENDBRANCH  10  15
ENDBRANCH   7   9
ENDBRANCH   6   7
ENDBRANCH   5   6
ENDBRANCH   4   5
ENDBRANCH   3   4
ENDBRANCH   2   3
ENDBRANCH   1   2
BRANCH   1  40
ATOM     40  O   UNL A   1      40.341  29.325  32.321  1.00  0.00    -0.377 OA
BRANCH  40  41
ATOM     41  C   UNL A   1      39.032  29.776  32.045  1.00  0.00     0.188 C 
BRANCH  41  42
ATOM     42  C   UNL A   1      37.977  28.664  32.021  1.00  0.00     0.188 C 
BRANCH  42  43
ATOM     43  O   UNL A   1      36.847  29.036  31.249  1.00  0.00    -0.376 OA
BRANCH  43  44
ATOM     44  C   UNL A   1      37.019  29.530  29.942  1.00  0.00     0.202 C 
BRANCH  44  45
ATOM     45  C   UNL A   1      35.842  30.412  29.531  1.00  0.00     0.261 C 
BRANCH  45  46
ATOM     46  O   UNL A   1      36.090  31.788  29.904  1.00  0.00    -0.460 OA
BRANCH  46  47
ATOM     47  C   UNL A   1      35.071  32.414  30.576  1.00  0.00     0.338 C 
ATOM     48  O   UNL A   1      33.979  32.637  30.138  1.00  0.00    -0.246 OA
BRANCH  47  49
ATOM     49  C   UNL A   1      35.642  33.019  31.834  1.00  0.00     0.060 A 
ATOM     50  C   UNL A   1      35.741  34.399  31.950  1.00  0.00     0.016 A 
ATOM     51  C   UNL A   1      36.364  32.228  32.733  1.00  0.00     0.016 A 
ATOM     52  C   UNL A   1      36.711  34.940  32.817  1.00  0.00     0.010 A 
ATOM     53  C   UNL A   1      37.462  32.766  33.418  1.00  0.00     0.010 A 
ATOM     54  C   UNL A   1      37.755  34.137  33.355  1.00  0.00    -0.014 A 
BRANCH  54  55
ATOM     55  C   UNL A   1      39.179  34.660  33.993  1.00  0.00     0.031 A 
ATOM     56  C   UNL A   1      40.088  33.899  32.647  1.00  0.00     0.074 A 
ATOM     57  C   UNL A   1      39.657  35.257  35.487  1.00  0.00     0.049 A 
ATOM     58  N   UNL A   1      41.087  33.048  32.766  1.00  0.00    -0.248 NA
ATOM     59  C   UNL A   1      39.693  33.892  31.218  1.00  0.00     0.031 C 
ATOM     60  C   UNL A   1      41.107  35.652  36.216  1.00  0.00     0.029 A 
ATOM     61  N   UNL A   1      39.054  35.379  36.877  1.00  0.00    -0.354 N 
ATOM     62  C   UNL A   1      41.777  33.023  31.600  1.00  0.00     0.074 A 
ATOM     63  C   UNL A   1      40.724  33.248  30.643  1.00  0.00     0.031 C 
ATOM     64  C   UNL A   1      41.124  35.805  37.536  1.00  0.00     0.029 A 
ATOM     65  C   UNL A   1      39.939  35.203  37.972  1.00  0.00     0.049 A 
ATOM     66  H   UNL A   1      38.098  35.571  37.010  1.00  0.00     0.167 HD
ATOM     67  C   UNL A   1      43.148  33.151  31.608  1.00  0.00     0.037 A 
ATOM     68  C   UNL A   1      39.978  34.165  38.871  1.00  0.00     0.037 A 
ATOM     69  C   UNL A   1      43.735  33.338  32.992  1.00  0.00     0.049 A 
ATOM     70  C   UNL A   1      41.299  33.342  38.679  1.00  0.00     0.074 A 
ATOM     71  C   UNL A   1      44.328  34.445  33.597  1.00  0.00     0.029 A 
ATOM     72  N   UNL A   1      43.514  32.444  34.065  1.00  0.00    -0.354 N 
ATOM     73  N   UNL A   1      42.019  33.364  37.576  1.00  0.00    -0.248 NA
ATOM     74  C   UNL A   1      41.936  32.507  39.688  1.00  0.00     0.031 C 
ATOM     75  C   UNL A   1      44.396  34.250  35.008  1.00  0.00     0.029 A 
ATOM     76  C   UNL A   1      43.882  32.998  35.313  1.00  0.00     0.049 A 
ATOM     77  H   UNL A   1      43.143  31.538  33.956  1.00  0.00     0.167 HD
ATOM     78  C   UNL A   1      43.102  32.525  37.642  1.00  0.00     0.074 A 
ATOM     79  C   UNL A   1      43.043  32.086  39.036  1.00  0.00     0.031 C 
ATOM     80  C   UNL A   1      43.933  32.219  36.576  1.00  0.00     0.037 A 
BRANCH  67  81
ATOM     81  C   UNL A   1      43.860  33.569  30.307  1.00  0.00     0.064 A 
ATOM     82  C   UNL A   1      44.573  32.658  29.497  1.00  0.00     0.173 A 
ATOM     83  C   UNL A   1      43.913  34.900  29.834  1.00  0.00     0.173 A 
ATOM     84  F   UNL A   1      44.477  31.336  29.673  1.00  0.00    -0.203 F 
ATOM     85  C   UNL A   1      45.391  33.064  28.432  1.00  0.00     0.198 A 
ATOM     86  C   UNL A   1      44.770  35.319  28.807  1.00  0.00     0.198 A 
ATOM     87  F   UNL A   1      43.072  35.833  30.298  1.00  0.00    -0.203 F 
ATOM     88  F   UNL A   1      46.049  32.145  27.711  1.00  0.00    -0.200 F 
ATOM     89  C   UNL A   1      45.524  34.399  28.114  1.00  0.00     0.200 A 
ATOM     90  F   UNL A   1      44.844  36.619  28.487  1.00  0.00    -0.200 F 
ATOM     91  F   UNL A   1      46.329  34.789  27.115  1.00  0.00    -0.200 F 
ENDBRANCH  67  81
BRANCH  68  92
ATOM     92  C   UNL A   1      38.643  33.670  39.363  1.00  0.00     0.064 A 
ATOM     93  C   UNL A   1      38.104  32.521  38.741  1.00  0.00     0.173 A 
ATOM     94  C   UNL A   1      38.029  34.067  40.561  1.00  0.00     0.173 A 
ATOM     95  F   UNL A   1      38.596  32.112  37.561  1.00  0.00    -0.203 F 
ATOM     96  C   UNL A   1      37.132  31.730  39.356  1.00  0.00     0.198 A 
ATOM     97  C   UNL A   1      37.083  33.249  41.199  1.00  0.00     0.198 A 
ATOM     98  F   UNL A   1      38.443  35.172  41.199  1.00  0.00    -0.203 F 
ATOM     99  F   UNL A   1      36.732  30.588  38.777  1.00  0.00    -0.200 F 
ATOM    100  C   UNL A   1      36.656  32.070  40.608  1.00  0.00     0.200 A 
ATOM    101  F   UNL A   1      36.651  33.560  42.431  1.00  0.00    -0.200 F 
ATOM    102  F   UNL A   1      35.842  31.232  41.268  1.00  0.00    -0.200 F 
ENDBRANCH  68  92
BRANCH  80 103
ATOM    103  C   UNL A   1      45.042  31.180  36.648  1.00  0.00     0.064 A 
ATOM    104  C   UNL A   1      44.836  29.807  36.458  1.00  0.00     0.173 A 
ATOM    105  C   UNL A   1      46.399  31.574  36.791  1.00  0.00     0.173 A 
ATOM    106  F   UNL A   1      43.624  29.320  36.166  1.00  0.00    -0.203 F 
ATOM    107  C   UNL A   1      45.888  28.889  36.505  1.00  0.00     0.198 A 
ATOM    108  C   UNL A   1      47.453  30.665  36.753  1.00  0.00     0.198 A 
ATOM    109  F   UNL A   1      46.755  32.855  36.958  1.00  0.00    -0.203 F 
ATOM    110  F   UNL A   1      45.624  27.580  36.394  1.00  0.00    -0.200 F 
ATOM    111  C   UNL A   1      47.195  29.317  36.637  1.00  0.00     0.200 A 
ATOM    112  F   UNL A   1      48.717  31.107  36.818  1.00  0.00    -0.200 F 
ATOM    113  F   UNL A   1      48.203  28.436  36.633  1.00  0.00    -0.200 F 
ENDBRANCH  80 103
ENDBRANCH  54  55
ENDBRANCH  47  49
ENDBRANCH  46  47
ENDBRANCH  45  46
ENDBRANCH  44  45
ENDBRANCH  43  44
ENDBRANCH  42  43
ENDBRANCH  41  42
ENDBRANCH  40  41
ENDBRANCH   1  40
TORSDOF 23
ENDMDL
MODEL 3
REMARK VINA RESULT:      -9.3      4.720     10.425
REMARK SMILES Cc1ccc(-c2cnnc(-n3nc(C)c4c3NC(=O)C[C@@H]4c3ccc(C(=O)OCCOCCOCCOCCOC(=O)c4ccc(-c5c6nc(c(-c7c(F)c(F)c(F)c(F)c7F)c7ccc([nH]7)c(-c7c(F)c(F)c(F)c(F)c7F)c7nc(c(-c8c(F)c(F)c(F)c(F)c8F)c8ccc5[nH]8)C=C7)C=C6)cc4)cc3)n2)cc1
REMARK SMILES IDX 33 1 32 2 31 3 30 4 29 5 28 6 26 7 27 8 25 9 22 10 23 11
REMARK SMILES IDX 107 12 24 13 106 14 21 15 11 16 12 17 16 18 13 19 15 20
REMARK SMILES IDX 17 21 14 22 18 23 20 25 19 26 10 27 6 28 7 29 108 30 8 31
REMARK SMILES IDX 9 32 5 33 1 34 2 35 3 36 110 37 4 38 109 39 34 40 35 41
REMARK SMILES IDX 36 42 37 43 38 44 39 45 40 46 41 47 42 48 43 49 44 50 105 51
REMARK SMILES IDX 45 52 104 53 46 54 47 55 48 56 98 57 49 58 103 59 97 60
REMARK SMILES IDX 99 61 50 62 102 63 96 64 95 65 51 67 83 68 63 69 82 70 64 71
REMARK SMILES IDX 67 72 81 73 100 74 65 75 66 76 80 78 101 79 68 80 52 81
REMARK SMILES IDX 53 82 61 83 54 84 55 85 59 86 62 87 56 88 57 89 60 90 58 91
REMARK SMILES IDX 84 92 85 93 93 94 86 95 87 96 91 97 94 98 88 99 89 100
REMARK SMILES IDX 92 101 90 102 69 103 70 104 78 105 71 106 72 107 76 108
REMARK SMILES IDX 79 109 73 110 74 111 77 112 75 113
REMARK H PARENT 17 24 99 66 67 77
REMARK Flexibility Score: inf
ROOT
ATOM      1  C   UNL A   1      44.462  18.372  25.966  1.00  0.00     0.188 C 
ENDROOT
BRANCH   1   2
ATOM      2  C   UNL A   1      42.883  18.276  26.075  1.00  0.00     0.188 C 
BRANCH   2   3
ATOM      3  O   UNL A   1      41.874  19.322  25.507  1.00  0.00    -0.376 OA
BRANCH   3   4
ATOM      4  C   UNL A   1      40.438  19.897  26.064  1.00  0.00     0.202 C 
BRANCH   4   5
ATOM      5  C   UNL A   1      39.464  21.459  26.139  1.00  0.00     0.261 C 
BRANCH   5   6
ATOM      6  O   UNL A   1      39.836  23.164  26.714  1.00  0.00    -0.460 OA
BRANCH   6   7
ATOM      7  C   UNL A   1      40.934  24.197  27.236  1.00  0.00     0.338 C 
ATOM      8  O   UNL A   1      42.131  23.969  27.010  1.00  0.00    -0.246 OA
BRANCH   7   9
ATOM      9  C   UNL A   1      40.765  25.476  28.287  1.00  0.00     0.060 A 
ATOM     10  C   UNL A   1      40.176  28.078  29.519  1.00  0.00    -0.040 A 
ATOM     11  C   UNL A   1      39.209  27.048  29.373  1.00  0.00     0.005 A 
ATOM     12  C   UNL A   1      41.474  27.702  29.235  1.00  0.00     0.005 A 
ATOM     13  C   UNL A   1      39.486  25.793  28.745  1.00  0.00     0.016 A 
ATOM     14  C   UNL A   1      41.755  26.395  28.745  1.00  0.00     0.016 A 
BRANCH  10  15
ATOM     15  C   UNL A   1      39.772  29.438  30.080  1.00  0.00     0.064 C 
ATOM     16  N   UNL A   1      38.334  30.389  33.283  1.00  0.00    -0.180 N 
ATOM     17  N   UNL A   1      39.213  29.500  33.816  1.00  0.00    -0.168 NA
ATOM     18  C   UNL A   1      38.147  30.060  31.950  1.00  0.00     0.143 A 
ATOM     19  C   UNL A   1      39.872  28.999  32.764  1.00  0.00     0.066 A 
ATOM     20  C   UNL A   1      39.332  29.461  31.532  1.00  0.00     0.026 A 
ATOM     21  N   UNL A   1      37.088  30.208  31.077  1.00  0.00    -0.310 N 
ATOM     22  C   UNL A   1      40.958  28.041  33.058  1.00  0.00     0.069 C 
ATOM     23  C   UNL A   1      37.325  29.892  29.701  1.00  0.00     0.226 C 
ATOM     24  H   UNL A   1      36.207  30.518  31.388  1.00  0.00     0.171 HD
ATOM     25  C   UNL A   1      38.727  30.145  29.205  1.00  0.00     0.113 C 
ATOM     26  O   UNL A   1      36.367  29.570  29.021  1.00  0.00    -0.275 OA
BRANCH  16  27
ATOM     27  C   UNL A   1      38.028  31.616  33.968  1.00  0.00     0.272 A 
ATOM     28  C   UNL A   1      37.650  32.899  35.836  1.00  0.00     0.095 A 
ATOM     29  C   UNL A   1      36.973  33.823  35.056  1.00  0.00     0.164 A 
ATOM     30  N   UNL A   1      38.155  31.736  35.315  1.00  0.00    -0.208 NA
ATOM     31  N   UNL A   1      36.862  33.654  33.734  1.00  0.00    -0.153 NA
ATOM     32  N   UNL A   1      37.436  32.558  33.184  1.00  0.00    -0.109 NA
BRANCH  28  33
ATOM     33  C   UNL A   1      37.942  33.221  37.243  1.00  0.00     0.002 A 
ATOM     34  C   UNL A   1      38.617  34.407  41.365  1.00  0.00     0.044 C 
ATOM     35  C   UNL A   1      38.367  34.016  39.937  1.00  0.00    -0.051 A 
ATOM     36  C   UNL A   1      37.520  32.945  39.638  1.00  0.00     0.004 A 
ATOM     37  C   UNL A   1      38.984  34.700  38.886  1.00  0.00     0.004 A 
ATOM     38  C   UNL A   1      37.307  32.555  38.309  1.00  0.00     0.011 A 
ATOM     39  C   UNL A   1      38.776  34.304  37.559  1.00  0.00     0.011 A 
ENDBRANCH  28  33
ENDBRANCH  16  27
ENDBRANCH  10  15
ENDBRANCH   7   9
ENDBRANCH   6   7
ENDBRANCH   5   6
ENDBRANCH   4   5
ENDBRANCH   3   4
ENDBRANCH   2   3
ENDBRANCH   1   2
BRANCH   1  40
ATOM     40  O   UNL A   1      45.101  18.490  24.709  1.00  0.00    -0.377 OA
BRANCH  40  41
ATOM     41  C   UNL A   1      46.007  19.569  24.629  1.00  0.00     0.188 C 
BRANCH  41  42
ATOM     42  C   UNL A   1      45.346  20.950  24.709  1.00  0.00     0.188 C 
BRANCH  42  43
ATOM     43  O   UNL A   1      46.143  21.865  25.445  1.00  0.00    -0.376 OA
BRANCH  43  44
ATOM     44  C   UNL A   1      45.562  22.641  26.467  1.00  0.00     0.202 C 
BRANCH  44  45
ATOM     45  C   UNL A   1      46.287  23.976  26.620  1.00  0.00     0.261 C 
BRANCH  45  46
ATOM     46  O   UNL A   1      45.405  25.070  26.274  1.00  0.00    -0.460 OA
BRANCH  46  47
ATOM     47  C   UNL A   1      45.971  26.076  25.534  1.00  0.00     0.338 C 
ATOM     48  O   UNL A   1      46.455  25.955  24.445  1.00  0.00    -0.246 OA
BRANCH  47  49
ATOM     49  C   UNL A   1      46.137  27.279  26.429  1.00  0.00     0.060 A 
ATOM     50  C   UNL A   1      47.292  28.045  26.345  1.00  0.00     0.016 A 
ATOM     51  C   UNL A   1      45.316  27.444  27.548  1.00  0.00     0.016 A 
ATOM     52  C   UNL A   1      47.695  28.792  27.470  1.00  0.00     0.010 A 
ATOM     53  C   UNL A   1      45.833  28.008  28.722  1.00  0.00     0.010 A 
ATOM     54  C   UNL A   1      47.118  28.573  28.751  1.00  0.00    -0.014 A 
BRANCH  54  55
ATOM     55  C   UNL A   1      47.747  29.008  30.209  1.00  0.00     0.031 A 
ATOM     56  C   UNL A   1      48.460  27.375  30.414  1.00  0.00     0.074 A 
ATOM     57  C   UNL A   1      47.479  30.270  31.282  1.00  0.00     0.049 A 
ATOM     58  N   UNL A   1      48.291  26.576  31.448  1.00  0.00    -0.248 NA
ATOM     59  C   UNL A   1      49.117  26.568  29.358  1.00  0.00     0.031 C 
ATOM     60  C   UNL A   1      47.981  30.661  32.826  1.00  0.00     0.029 A 
ATOM     61  N   UNL A   1      46.459  31.384  31.452  1.00  0.00    -0.354 N 
ATOM     62  C   UNL A   1      49.283  25.654  31.451  1.00  0.00     0.074 A 
ATOM     63  C   UNL A   1      49.509  25.477  30.040  1.00  0.00     0.031 C 
ATOM     64  C   UNL A   1      47.310  31.601  33.484  1.00  0.00     0.029 A 
ATOM     65  C   UNL A   1      46.106  31.725  32.783  1.00  0.00     0.049 A 
ATOM     66  H   UNL A   1      46.064  31.845  30.678  1.00  0.00     0.167 HD
ATOM     67  C   UNL A   1      49.998  25.414  32.603  1.00  0.00     0.037 A 
ATOM     68  C   UNL A   1      44.907  31.517  33.422  1.00  0.00     0.037 A 
ATOM     69  C   UNL A   1      49.576  26.279  33.773  1.00  0.00     0.049 A 
ATOM     70  C   UNL A   1      45.089  30.464  34.568  1.00  0.00     0.074 A 
ATOM     71  C   UNL A   1      50.223  27.329  34.422  1.00  0.00     0.029 A 
ATOM     72  N   UNL A   1      48.249  26.350  34.257  1.00  0.00    -0.354 N 
ATOM     73  N   UNL A   1      46.089  29.607  34.621  1.00  0.00    -0.248 NA
ATOM     74  C   UNL A   1      44.237  30.326  35.742  1.00  0.00     0.031 C 
ATOM     75  C   UNL A   1      49.293  28.057  35.220  1.00  0.00     0.029 A 
ATOM     76  C   UNL A   1      48.048  27.454  35.119  1.00  0.00     0.049 A 
ATOM     77  H   UNL A   1      47.544  25.706  34.019  1.00  0.00     0.167 HD
ATOM     78  C   UNL A   1      45.997  28.763  35.700  1.00  0.00     0.074 A 
ATOM     79  C   UNL A   1      44.856  29.332  36.416  1.00  0.00     0.031 C 
ATOM     80  C   UNL A   1      46.811  27.662  35.913  1.00  0.00     0.037 A 
BRANCH  67  81
ATOM     81  C   UNL A   1      51.373  24.727  32.493  1.00  0.00     0.064 A 
ATOM     82  C   UNL A   1      51.597  23.393  32.895  1.00  0.00     0.173 A 
ATOM     83  C   UNL A   1      52.540  25.378  32.032  1.00  0.00     0.173 A 
ATOM     84  F   UNL A   1      50.587  22.563  33.173  1.00  0.00    -0.203 F 
ATOM     85  C   UNL A   1      52.880  22.831  32.991  1.00  0.00     0.198 A 
ATOM     86  C   UNL A   1      53.828  24.843  32.177  1.00  0.00     0.198 A 
ATOM     87  F   UNL A   1      52.468  26.527  31.347  1.00  0.00    -0.203 F 
ATOM     88  F   UNL A   1      53.020  21.560  33.392  1.00  0.00    -0.200 F 
ATOM     89  C   UNL A   1      53.999  23.570  32.674  1.00  0.00     0.200 A 
ATOM     90  F   UNL A   1      54.897  25.567  31.815  1.00  0.00    -0.200 F 
ATOM     91  F   UNL A   1      55.226  23.043  32.793  1.00  0.00    -0.200 F 
ENDBRANCH  67  81
BRANCH  68  92
ATOM     92  C   UNL A   1      43.671  31.792  32.606  1.00  0.00     0.064 A 
ATOM     93  C   UNL A   1      42.987  33.006  32.848  1.00  0.00     0.173 A 
ATOM     94  C   UNL A   1      43.304  31.101  31.441  1.00  0.00     0.173 A 
ATOM     95  F   UNL A   1      43.236  33.696  33.972  1.00  0.00    -0.203 F 
ATOM     96  C   UNL A   1      42.120  33.570  31.910  1.00  0.00     0.198 A 
ATOM     97  C   UNL A   1      42.466  31.688  30.479  1.00  0.00     0.198 A 
ATOM     98  F   UNL A   1      43.867  29.918  31.152  1.00  0.00    -0.203 F 
ATOM     99  F   UNL A   1      41.581  34.777  32.137  1.00  0.00    -0.200 F 
ATOM    100  C   UNL A   1      41.898  32.932  30.704  1.00  0.00     0.200 A 
ATOM    101  F   UNL A   1      42.282  31.086  29.295  1.00  0.00    -0.200 F 
ATOM    102  F   UNL A   1      41.193  33.544  29.740  1.00  0.00    -0.200 F 
ENDBRANCH  68  92
BRANCH  80 103
ATOM    103  C   UNL A   1      46.596  26.668  37.045  1.00  0.00     0.064 A 
ATOM    104  C   UNL A   1      45.790  25.526  36.936  1.00  0.00     0.173 A 
ATOM    105  C   UNL A   1      47.320  26.784  38.262  1.00  0.00     0.173 A 
ATOM    106  F   UNL A   1      45.170  25.220  35.790  1.00  0.00    -0.203 F 
ATOM    107  C   UNL A   1      45.643  24.623  37.992  1.00  0.00     0.198 A 
ATOM    108  C   UNL A   1      47.235  25.837  39.279  1.00  0.00     0.198 A 
ATOM    109  F   UNL A   1      48.147  27.810  38.502  1.00  0.00    -0.203 F 
ATOM    110  F   UNL A   1      44.800  23.590  37.861  1.00  0.00    -0.200 F 
ATOM    111  C   UNL A   1      46.373  24.770  39.155  1.00  0.00     0.200 A 
ATOM    112  F   UNL A   1      48.000  25.964  40.372  1.00  0.00    -0.200 F 
ATOM    113  F   UNL A   1      46.264  23.875  40.145  1.00  0.00    -0.200 F 
ENDBRANCH  80 103
ENDBRANCH  54  55
ENDBRANCH  47  49
ENDBRANCH  46  47
ENDBRANCH  45  46
ENDBRANCH  44  45
ENDBRANCH  43  44
ENDBRANCH  42  43
ENDBRANCH  41  42
ENDBRANCH  40  41
ENDBRANCH   1  40
TORSDOF 23
ENDMDL
