MODEL 1
REMARK VINA RESULT:     -10.0      0.000      0.000
REMARK SMILES COc1cc(-c2ccc(NC(=O)CCC(=O)OCCOCCOCCOCCOC(=O)c3ccc(-c4c5nc(c(-c6c(F)c(F)c(F)c(F)c6F)c6ccc([nH]6)c(-c6c(F)c(F)c(F)c(F)c6F)c6nc(c(-c7c(F)c(F)c(F)c(F)c7F)c7ccc4[nH]7)C=C6)C=C5)cc3)c(OC)c2)ccc1N
REMARK SMILES IDX 21 1 20 2 19 3 18 4 17 5 15 6 16 7 14 8 13 9 11 10 10 11
REMARK SMILES IDX 12 13 9 14 6 15 7 16 98 17 8 18 95 19 5 20 3 21 4 22 101 23
REMARK SMILES IDX 100 24 99 25 2 26 1 27 102 28 96 31 97 32 22 33 23 34 24 35
REMARK SMILES IDX 25 36 26 37 27 38 28 39 29 40 30 41 31 42 32 43 33 44 94 45
REMARK SMILES IDX 34 46 93 47 35 48 36 49 37 50 87 51 38 52 92 53 86 54 88 55
REMARK SMILES IDX 39 56 91 57 85 58 84 59 40 61 72 62 52 63 71 64 53 65 56 66
REMARK SMILES IDX 70 67 89 68 54 69 55 70 69 72 90 73 57 74 41 75 42 76 50 77
REMARK SMILES IDX 43 78 44 79 48 80 51 81 45 82 46 83 49 84 47 85 73 86 74 87
REMARK SMILES IDX 82 88 75 89 76 90 80 91 83 92 77 93 78 94 81 95 79 96 58 97
REMARK SMILES IDX 59 98 67 99 60 100 61 101 65 102 68 103 62 104 63 105 66 106
REMARK SMILES IDX 64 107
REMARK H PARENT 10 12 102 29 102 30 88 60 56 71
REMARK Flexibility Score: inf
ROOT
ATOM      1  C   UNL A   1      33.486  28.628  26.351  1.00  0.00     0.188 C 
ENDROOT
BRANCH   1   2
ATOM      2  O   UNL A   1      34.124  27.358  25.706  1.00  0.00    -0.376 OA
BRANCH   2   3
ATOM      3  C   UNL A   1      34.010  25.360  25.494  1.00  0.00     0.202 C 
BRANCH   3   4
ATOM      4  C   UNL A   1      35.077  24.338  24.417  1.00  0.00     0.261 C 
BRANCH   4   5
ATOM      5  O   UNL A   1      36.190  23.293  24.903  1.00  0.00    -0.463 OA
BRANCH   5   6
ATOM      6  C   UNL A   1      36.492  21.986  25.255  1.00  0.00     0.306 C 
ATOM      7  O   UNL A   1      37.464  21.878  26.023  1.00  0.00    -0.252 OA
BRANCH   6   8
ATOM      8  C   UNL A   1      35.831  20.514  24.796  1.00  0.00     0.132 C 
BRANCH   8   9
ATOM      9  C   UNL A   1      34.492  19.530  24.924  1.00  0.00     0.112 C 
BRANCH   9  10
ATOM     10  C   UNL A   1      32.820  19.469  24.662  1.00  0.00     0.225 C 
ATOM     11  N   UNL A   1      31.882  20.511  24.544  1.00  0.00    -0.323 N 
ATOM     12  H   UNL A   1      30.928  20.264  24.543  1.00  0.00     0.170 HD
ATOM     13  O   UNL A   1      32.306  18.335  24.711  1.00  0.00    -0.275 OA
BRANCH  11  14
ATOM     14  C   UNL A   1      32.193  21.880  24.426  1.00  0.00     0.083 A 
ATOM     15  C   UNL A   1      30.632  25.163  24.094  1.00  0.00    -0.014 A 
ATOM     16  C   UNL A   1      31.580  24.413  22.749  1.00  0.00     0.011 A 
ATOM     17  C   UNL A   1      30.595  24.276  25.679  1.00  0.00     0.057 A 
ATOM     18  C   UNL A   1      32.329  22.783  22.908  1.00  0.00     0.031 A 
ATOM     19  C   UNL A   1      31.495  22.630  25.798  1.00  0.00     0.142 A 
BRANCH  15  20
ATOM     20  C   UNL A   1      29.762  26.325  23.786  1.00  0.00    -0.014 A 
ATOM     21  C   UNL A   1      29.307  28.562  22.907  1.00  0.00     0.142 A 
ATOM     22  C   UNL A   1      30.213  27.524  23.228  1.00  0.00     0.057 A 
ATOM     23  C   UNL A   1      27.922  28.418  23.110  1.00  0.00     0.074 A 
ATOM     24  C   UNL A   1      27.487  27.274  23.767  1.00  0.00     0.030 A 
ATOM     25  C   UNL A   1      28.388  26.246  24.070  1.00  0.00     0.011 A 
BRANCH  21  26
ATOM     26  O   UNL A   1      29.854  29.660  22.282  1.00  0.00    -0.495 OA
ATOM     27  C   UNL A   1      31.277  29.598  22.182  1.00  0.00     0.278 C 
ENDBRANCH  21  26
BRANCH  23  28
ATOM     28  N   UNL A   1      26.989  29.392  22.767  1.00  0.00    -0.396 N 
ATOM     29  H   UNL A   1      26.877  29.656  21.825  1.00  0.00     0.156 HD
ATOM     30  H   UNL A   1      26.443  29.819  23.466  1.00  0.00     0.156 HD
ENDBRANCH  23  28
ENDBRANCH  15  20
BRANCH  19  31
ATOM     31  O   UNL A   1      32.221  22.149  26.925  1.00  0.00    -0.495 OA
ATOM     32  C   UNL A   1      33.035  22.904  27.835  1.00  0.00     0.278 C 
ENDBRANCH  19  31
ENDBRANCH  11  14
ENDBRANCH   9  10
ENDBRANCH   8   9
ENDBRANCH   6   8
ENDBRANCH   5   6
ENDBRANCH   4   5
ENDBRANCH   3   4
ENDBRANCH   2   3
ENDBRANCH   1   2
BRANCH   1  33
ATOM     33  C   UNL A   1      34.444  29.417  27.275  1.00  0.00     0.188 C 
BRANCH  33  34
ATOM     34  O   UNL A   1      34.477  30.834  27.281  1.00  0.00    -0.377 OA
BRANCH  34  35
ATOM     35  C   UNL A   1      35.576  31.449  27.901  1.00  0.00     0.188 C 
BRANCH  35  36
ATOM     36  C   UNL A   1      35.484  31.734  29.396  1.00  0.00     0.188 C 
BRANCH  36  37
ATOM     37  O   UNL A   1      34.392  32.503  29.845  1.00  0.00    -0.376 OA
BRANCH  37  38
ATOM     38  C   UNL A   1      34.609  33.354  30.966  1.00  0.00     0.202 C 
BRANCH  38  39
ATOM     39  C   UNL A   1      35.278  32.876  32.283  1.00  0.00     0.261 C 
BRANCH  39  40
ATOM     40  O   UNL A   1      36.714  32.992  32.398  1.00  0.00    -0.460 OA
BRANCH  40  41
ATOM     41  C   UNL A   1      37.404  31.858  32.681  1.00  0.00     0.338 C 
ATOM     42  O   UNL A   1      36.955  30.837  33.177  1.00  0.00    -0.246 OA
BRANCH  41  43
ATOM     43  C   UNL A   1      38.760  31.908  32.073  1.00  0.00     0.060 A 
ATOM     44  C   UNL A   1      38.874  32.215  30.703  1.00  0.00     0.016 A 
ATOM     45  C   UNL A   1      39.904  31.611  32.812  1.00  0.00     0.016 A 
ATOM     46  C   UNL A   1      40.118  32.192  30.065  1.00  0.00     0.010 A 
ATOM     47  C   UNL A   1      41.144  31.529  32.159  1.00  0.00     0.010 A 
ATOM     48  C   UNL A   1      41.249  31.773  30.774  1.00  0.00    -0.014 A 
BRANCH  48  49
ATOM     49  C   UNL A   1      42.425  31.260  30.016  1.00  0.00     0.031 A 
ATOM     50  C   UNL A   1      42.327  29.860  29.463  1.00  0.00     0.074 A 
ATOM     51  C   UNL A   1      43.530  31.991  29.783  1.00  0.00     0.049 A 
ATOM     52  N   UNL A   1      43.221  29.142  28.832  1.00  0.00    -0.248 NA
ATOM     53  C   UNL A   1      41.035  29.177  29.654  1.00  0.00     0.031 C 
ATOM     54  C   UNL A   1      43.737  33.377  30.191  1.00  0.00     0.029 A 
ATOM     55  N   UNL A   1      44.701  31.650  29.144  1.00  0.00    -0.354 N 
ATOM     56  C   UNL A   1      42.603  27.925  28.565  1.00  0.00     0.074 A 
ATOM     57  C   UNL A   1      41.272  27.990  29.123  1.00  0.00     0.031 C 
ATOM     58  C   UNL A   1      44.971  33.762  29.814  1.00  0.00     0.029 A 
ATOM     59  C   UNL A   1      45.655  32.638  29.169  1.00  0.00     0.049 A 
ATOM     60  H   UNL A   1      44.842  30.777  28.710  1.00  0.00     0.167 HD
ATOM     61  C   UNL A   1      43.096  26.848  27.911  1.00  0.00     0.037 A 
ATOM     62  C   UNL A   1      46.937  32.624  28.747  1.00  0.00     0.037 A 
ATOM     63  C   UNL A   1      44.421  26.772  27.361  1.00  0.00     0.049 A 
ATOM     64  C   UNL A   1      47.499  31.375  28.105  1.00  0.00     0.074 A 
ATOM     65  C   UNL A   1      45.012  25.725  26.676  1.00  0.00     0.029 A 
ATOM     66  N   UNL A   1      45.368  27.783  27.443  1.00  0.00    -0.354 N 
ATOM     67  N   UNL A   1      46.906  30.235  27.844  1.00  0.00    -0.248 NA
ATOM     68  C   UNL A   1      48.912  31.415  27.697  1.00  0.00     0.031 C 
ATOM     69  C   UNL A   1      46.337  26.076  26.401  1.00  0.00     0.029 A 
ATOM     70  C   UNL A   1      46.548  27.371  26.847  1.00  0.00     0.049 A 
ATOM     71  H   UNL A   1      45.222  28.661  27.863  1.00  0.00     0.167 HD
ATOM     72  C   UNL A   1      47.857  29.442  27.208  1.00  0.00     0.074 A 
ATOM     73  C   UNL A   1      49.064  30.234  27.114  1.00  0.00     0.031 C 
ATOM     74  C   UNL A   1      47.740  28.175  26.740  1.00  0.00     0.037 A 
BRANCH  61  75
ATOM     75  C   UNL A   1      42.206  25.644  27.792  1.00  0.00     0.064 A 
ATOM     76  C   UNL A   1      41.125  25.605  26.899  1.00  0.00     0.173 A 
ATOM     77  C   UNL A   1      42.456  24.502  28.570  1.00  0.00     0.173 A 
ATOM     78  F   UNL A   1      40.832  26.676  26.146  1.00  0.00    -0.203 F 
ATOM     79  C   UNL A   1      40.312  24.479  26.809  1.00  0.00     0.198 A 
ATOM     80  C   UNL A   1      41.662  23.366  28.451  1.00  0.00     0.198 A 
ATOM     81  F   UNL A   1      43.477  24.486  29.440  1.00  0.00    -0.203 F 
ATOM     82  F   UNL A   1      39.252  24.484  25.987  1.00  0.00    -0.200 F 
ATOM     83  C   UNL A   1      40.585  23.358  27.577  1.00  0.00     0.200 A 
ATOM     84  F   UNL A   1      41.938  22.279  29.185  1.00  0.00    -0.200 F 
ATOM     85  F   UNL A   1      39.807  22.271  27.482  1.00  0.00    -0.200 F 
ENDBRANCH  61  75
BRANCH  62  86
ATOM     86  C   UNL A   1      47.804  33.821  28.935  1.00  0.00     0.064 A 
ATOM     87  C   UNL A   1      48.514  34.027  30.127  1.00  0.00     0.173 A 
ATOM     88  C   UNL A   1      47.903  34.811  27.945  1.00  0.00     0.173 A 
ATOM     89  F   UNL A   1      48.430  33.127  31.119  1.00  0.00    -0.203 F 
ATOM     90  C   UNL A   1      49.268  35.182  30.331  1.00  0.00     0.198 A 
ATOM     91  C   UNL A   1      48.683  35.950  28.136  1.00  0.00     0.198 A 
ATOM     92  F   UNL A   1      47.239  34.672  26.788  1.00  0.00    -0.203 F 
ATOM     93  F   UNL A   1      49.888  35.377  31.502  1.00  0.00    -0.200 F 
ATOM     94  C   UNL A   1      49.357  36.139  29.333  1.00  0.00     0.200 A 
ATOM     95  F   UNL A   1      48.775  36.867  27.163  1.00  0.00    -0.200 F 
ATOM     96  F   UNL A   1      50.083  37.249  29.526  1.00  0.00    -0.200 F 
ENDBRANCH  62  86
BRANCH  74  97
ATOM     97  C   UNL A   1      48.919  27.574  26.026  1.00  0.00     0.064 A 
ATOM     98  C   UNL A   1      48.993  27.516  24.627  1.00  0.00     0.173 A 
ATOM     99  C   UNL A   1      50.022  27.104  26.759  1.00  0.00     0.173 A 
ATOM    100  F   UNL A   1      47.964  27.942  23.878  1.00  0.00    -0.203 F 
ATOM    101  C   UNL A   1      50.111  26.985  23.989  1.00  0.00     0.198 A 
ATOM    102  C   UNL A   1      51.153  26.608  26.117  1.00  0.00     0.198 A 
ATOM    103  F   UNL A   1      50.011  27.146  28.099  1.00  0.00    -0.203 F 
ATOM    104  F   UNL A   1      50.138  26.893  22.651  1.00  0.00    -0.200 F 
ATOM    105  C   UNL A   1      51.194  26.540  24.733  1.00  0.00     0.200 A 
ATOM    106  F   UNL A   1      52.206  26.198  26.839  1.00  0.00    -0.200 F 
ATOM    107  F   UNL A   1      52.275  26.042  24.117  1.00  0.00    -0.200 F 
ENDBRANCH  74  97
ENDBRANCH  48  49
ENDBRANCH  41  43
ENDBRANCH  40  41
ENDBRANCH  39  40
ENDBRANCH  38  39
ENDBRANCH  37  38
ENDBRANCH  36  37
ENDBRANCH  35  36
ENDBRANCH  34  35
ENDBRANCH  33  34
ENDBRANCH   1  33
TORSDOF 27
ENDMDL
MODEL 2
REMARK VINA RESULT:      -9.5      4.488      8.345
REMARK SMILES COc1cc(-c2ccc(NC(=O)CCC(=O)OCCOCCOCCOCCOC(=O)c3ccc(-c4c5nc(c(-c6c(F)c(F)c(F)c(F)c6F)c6ccc([nH]6)c(-c6c(F)c(F)c(F)c(F)c6F)c6nc(c(-c7c(F)c(F)c(F)c(F)c7F)c7ccc4[nH]7)C=C6)C=C5)cc3)c(OC)c2)ccc1N
REMARK SMILES IDX 21 1 20 2 19 3 18 4 17 5 15 6 16 7 14 8 13 9 11 10 10 11
REMARK SMILES IDX 12 13 9 14 6 15 7 16 98 17 8 18 95 19 5 20 3 21 4 22 101 23
REMARK SMILES IDX 100 24 99 25 2 26 1 27 102 28 96 31 97 32 22 33 23 34 24 35
REMARK SMILES IDX 25 36 26 37 27 38 28 39 29 40 30 41 31 42 32 43 33 44 94 45
REMARK SMILES IDX 34 46 93 47 35 48 36 49 37 50 87 51 38 52 92 53 86 54 88 55
REMARK SMILES IDX 39 56 91 57 85 58 84 59 40 61 72 62 52 63 71 64 53 65 56 66
REMARK SMILES IDX 70 67 89 68 54 69 55 70 69 72 90 73 57 74 41 75 42 76 50 77
REMARK SMILES IDX 43 78 44 79 48 80 51 81 45 82 46 83 49 84 47 85 73 86 74 87
REMARK SMILES IDX 82 88 75 89 76 90 80 91 83 92 77 93 78 94 81 95 79 96 58 97
REMARK SMILES IDX 59 98 67 99 60 100 61 101 65 102 68 103 62 104 63 105 66 106
REMARK SMILES IDX 64 107
REMARK H PARENT 10 12 102 29 102 30 88 60 56 71
REMARK Flexibility Score: inf
ROOT
ATOM      1  C   UNL A   1      32.140  29.477  26.201  1.00  0.00     0.188 C 
ENDROOT
BRANCH   1   2
ATOM      2  O   UNL A   1      32.378  28.860  24.786  1.00  0.00    -0.376 OA
BRANCH   2   3
ATOM      3  C   UNL A   1      33.655  28.677  23.241  1.00  0.00     0.202 C 
BRANCH   3   4
ATOM      4  C   UNL A   1      33.502  27.483  21.866  1.00  0.00     0.261 C 
BRANCH   4   5
ATOM      5  O   UNL A   1      33.714  25.897  21.962  1.00  0.00    -0.463 OA
BRANCH   5   6
ATOM      6  C   UNL A   1      34.026  24.806  22.759  1.00  0.00     0.306 C 
ATOM      7  O   UNL A   1      35.241  24.540  22.803  1.00  0.00    -0.252 OA
BRANCH   6   8
ATOM      8  C   UNL A   1      33.073  23.737  23.630  1.00  0.00     0.132 C 
BRANCH   8   9
ATOM      9  C   UNL A   1      33.094  22.511  24.760  1.00  0.00     0.112 C 
BRANCH   9  10
ATOM     10  C   UNL A   1      33.714  22.067  26.272  1.00  0.00     0.225 C 
ATOM     11  N   UNL A   1      35.046  21.987  26.719  1.00  0.00    -0.323 N 
ATOM     12  H   UNL A   1      35.206  21.562  27.592  1.00  0.00     0.170 HD
ATOM     13  O   UNL A   1      32.885  21.610  27.082  1.00  0.00    -0.275 OA
BRANCH  11  14
ATOM     14  C   UNL A   1      36.171  22.468  26.020  1.00  0.00     0.083 A 
ATOM     15  C   UNL A   1      39.797  22.794  26.290  1.00  0.00    -0.014 A 
ATOM     16  C   UNL A   1      38.700  24.231  26.332  1.00  0.00     0.011 A 
ATOM     17  C   UNL A   1      39.034  21.175  25.972  1.00  0.00     0.057 A 
ATOM     18  C   UNL A   1      36.910  24.065  26.222  1.00  0.00     0.031 A 
ATOM     19  C   UNL A   1      37.167  21.099  25.758  1.00  0.00     0.142 A 
BRANCH  15  20
ATOM     20  C   UNL A   1      41.204  22.962  26.730  1.00  0.00    -0.014 A 
ATOM     21  C   UNL A   1      43.615  23.157  26.368  1.00  0.00     0.142 A 
ATOM     22  C   UNL A   1      42.308  22.926  25.877  1.00  0.00     0.057 A 
ATOM     23  C   UNL A   1      43.848  23.459  27.723  1.00  0.00     0.074 A 
ATOM     24  C   UNL A   1      42.765  23.386  28.590  1.00  0.00     0.030 A 
ATOM     25  C   UNL A   1      41.474  23.168  28.094  1.00  0.00     0.011 A 
BRANCH  21  26
ATOM     26  O   UNL A   1      44.614  23.182  25.421  1.00  0.00    -0.495 OA
ATOM     27  C   UNL A   1      44.167  22.789  24.123  1.00  0.00     0.278 C 
ENDBRANCH  21  26
BRANCH  23  28
ATOM     28  N   UNL A   1      45.108  23.740  28.242  1.00  0.00    -0.396 N 
ATOM     29  H   UNL A   1      45.392  24.675  28.367  1.00  0.00     0.156 HD
ATOM     30  H   UNL A   1      45.716  23.005  28.483  1.00  0.00     0.156 HD
ENDBRANCH  23  28
ENDBRANCH  15  20
BRANCH  19  31
ATOM     31  O   UNL A   1      36.459  20.261  24.850  1.00  0.00    -0.495 OA
ATOM     32  C   UNL A   1      36.592  18.843  24.676  1.00  0.00     0.278 C 
ENDBRANCH  19  31
ENDBRANCH  11  14
ENDBRANCH   9  10
ENDBRANCH   8   9
ENDBRANCH   6   8
ENDBRANCH   5   6
ENDBRANCH   4   5
ENDBRANCH   3   4
ENDBRANCH   2   3
ENDBRANCH   1   2
BRANCH   1  33
ATOM     33  C   UNL A   1      33.389  30.152  26.815  1.00  0.00     0.188 C 
BRANCH  33  34
ATOM     34  O   UNL A   1      33.343  31.465  27.344  1.00  0.00    -0.377 OA
BRANCH  34  35
ATOM     35  C   UNL A   1      34.421  31.874  28.146  1.00  0.00     0.188 C 
BRANCH  35  36
ATOM     36  C   UNL A   1      35.616  30.934  28.268  1.00  0.00     0.188 C 
BRANCH  36  37
ATOM     37  O   UNL A   1      36.728  31.388  29.004  1.00  0.00    -0.376 OA
BRANCH  37  38
ATOM     38  C   UNL A   1      38.005  30.866  28.649  1.00  0.00     0.202 C 
BRANCH  38  39
ATOM     39  C   UNL A   1      38.236  29.387  28.235  1.00  0.00     0.261 C 
BRANCH  39  40
ATOM     40  O   UNL A   1      39.595  28.900  28.182  1.00  0.00    -0.460 OA
BRANCH  40  41
ATOM     41  C   UNL A   1      40.210  28.919  26.972  1.00  0.00     0.338 C 
ATOM     42  O   UNL A   1      39.741  29.328  25.923  1.00  0.00    -0.246 OA
BRANCH  41  43
ATOM     43  C   UNL A   1      41.656  28.607  27.119  1.00  0.00     0.060 A 
ATOM     44  C   UNL A   1      42.091  27.291  26.870  1.00  0.00     0.016 A 
ATOM     45  C   UNL A   1      42.573  29.568  27.543  1.00  0.00     0.016 A 
ATOM     46  C   UNL A   1      43.425  26.925  27.076  1.00  0.00     0.010 A 
ATOM     47  C   UNL A   1      43.899  29.188  27.806  1.00  0.00     0.010 A 
ATOM     48  C   UNL A   1      44.318  27.855  27.619  1.00  0.00    -0.014 A 
BRANCH  48  49
ATOM     49  C   UNL A   1      45.545  27.359  28.304  1.00  0.00     0.031 A 
ATOM     50  C   UNL A   1      45.386  26.857  29.718  1.00  0.00     0.074 A 
ATOM     51  C   UNL A   1      46.754  27.312  27.714  1.00  0.00     0.049 A 
ATOM     52  N   UNL A   1      46.289  26.439  30.568  1.00  0.00    -0.248 NA
ATOM     53  C   UNL A   1      44.009  26.824  30.242  1.00  0.00     0.031 C 
ATOM     54  C   UNL A   1      47.044  27.693  26.336  1.00  0.00     0.029 A 
ATOM     55  N   UNL A   1      47.974  26.925  28.221  1.00  0.00    -0.354 N 
ATOM     56  C   UNL A   1      45.592  26.110  31.725  1.00  0.00     0.074 A 
ATOM     57  C   UNL A   1      44.197  26.399  31.479  1.00  0.00     0.031 C 
ATOM     58  C   UNL A   1      48.364  27.545  26.113  1.00  0.00     0.029 A 
ATOM     59  C   UNL A   1      49.017  27.091  27.343  1.00  0.00     0.049 A 
ATOM     60  H   UNL A   1      48.088  26.563  29.130  1.00  0.00     0.167 HD
ATOM     61  C   UNL A   1      46.066  25.608  32.889  1.00  0.00     0.037 A 
ATOM     62  C   UNL A   1      50.344  26.924  27.524  1.00  0.00     0.037 A 
ATOM     63  C   UNL A   1      47.451  25.327  33.143  1.00  0.00     0.049 A 
ATOM     64  C   UNL A   1      50.863  26.455  28.866  1.00  0.00     0.074 A 
ATOM     65  C   UNL A   1      48.031  24.813  34.290  1.00  0.00     0.029 A 
ATOM     66  N   UNL A   1      48.480  25.547  32.239  1.00  0.00    -0.354 N 
ATOM     67  N   UNL A   1      50.198  26.133  29.949  1.00  0.00    -0.248 NA
ATOM     68  C   UNL A   1      52.322  26.324  29.006  1.00  0.00     0.031 C 
ATOM     69  C   UNL A   1      49.415  24.783  34.104  1.00  0.00     0.029 A 
ATOM     70  C   UNL A   1      49.693  25.206  32.814  1.00  0.00     0.049 A 
ATOM     71  H   UNL A   1      48.365  25.894  31.325  1.00  0.00     0.167 HD
ATOM     72  C   UNL A   1      51.149  25.725  30.879  1.00  0.00     0.074 A 
ATOM     73  C   UNL A   1      52.438  25.832  30.231  1.00  0.00     0.031 C 
ATOM     74  C   UNL A   1      50.971  25.297  32.153  1.00  0.00     0.037 A 
BRANCH  61  75
ATOM     75  C   UNL A   1      45.076  25.372  33.993  1.00  0.00     0.064 A 
ATOM     76  C   UNL A   1      44.265  24.227  34.031  1.00  0.00     0.173 A 
ATOM     77  C   UNL A   1      44.958  26.295  35.044  1.00  0.00     0.173 A 
ATOM     78  F   UNL A   1      44.327  23.324  33.042  1.00  0.00    -0.203 F 
ATOM     79  C   UNL A   1      43.353  24.031  35.064  1.00  0.00     0.198 A 
ATOM     80  C   UNL A   1      44.069  26.077  36.093  1.00  0.00     0.198 A 
ATOM     81  F   UNL A   1      45.710  27.406  35.057  1.00  0.00    -0.203 F 
ATOM     82  F   UNL A   1      42.549  22.957  35.051  1.00  0.00    -0.200 F 
ATOM     83  C   UNL A   1      43.262  24.951  36.097  1.00  0.00     0.200 A 
ATOM     84  F   UNL A   1      43.993  26.961  37.098  1.00  0.00    -0.200 F 
ATOM     85  F   UNL A   1      42.389  24.755  37.096  1.00  0.00    -0.200 F 
ENDBRANCH  61  75
BRANCH  62  86
ATOM     86  C   UNL A   1      51.297  27.225  26.420  1.00  0.00     0.064 A 
ATOM     87  C   UNL A   1      51.706  28.539  26.146  1.00  0.00     0.173 A 
ATOM     88  C   UNL A   1      51.783  26.210  25.581  1.00  0.00     0.173 A 
ATOM     89  F   UNL A   1      51.246  29.552  26.896  1.00  0.00    -0.203 F 
ATOM     90  C   UNL A   1      52.540  28.828  25.067  1.00  0.00     0.198 A 
ATOM     91  C   UNL A   1      52.644  26.495  24.523  1.00  0.00     0.198 A 
ATOM     92  F   UNL A   1      51.420  24.936  25.789  1.00  0.00    -0.203 F 
ATOM     93  F   UNL A   1      52.866  30.099  24.797  1.00  0.00    -0.200 F 
ATOM     94  C   UNL A   1      53.015  27.806  24.261  1.00  0.00     0.200 A 
ATOM     95  F   UNL A   1      53.110  25.502  23.753  1.00  0.00    -0.200 F 
ATOM     96  F   UNL A   1      53.819  28.082  23.225  1.00  0.00    -0.200 F 
ENDBRANCH  62  86
BRANCH  74  97
ATOM     97  C   UNL A   1      52.183  24.849  32.923  1.00  0.00     0.064 A 
ATOM     98  C   UNL A   1      52.603  23.511  32.938  1.00  0.00     0.173 A 
ATOM     99  C   UNL A   1      52.969  25.789  33.609  1.00  0.00     0.173 A 
ATOM    100  F   UNL A   1      51.884  22.570  32.307  1.00  0.00    -0.203 F 
ATOM    101  C   UNL A   1      53.748  23.126  33.632  1.00  0.00     0.198 A 
ATOM    102  C   UNL A   1      54.133  25.407  34.270  1.00  0.00     0.198 A 
ATOM    103  F   UNL A   1      52.621  27.084  33.618  1.00  0.00    -0.203 F 
ATOM    104  F   UNL A   1      54.103  21.834  33.673  1.00  0.00    -0.200 F 
ATOM    105  C   UNL A   1      54.517  24.075  34.289  1.00  0.00     0.200 A 
ATOM    106  F   UNL A   1      54.884  26.330  34.888  1.00  0.00    -0.200 F 
ATOM    107  F   UNL A   1      55.626  23.706  34.945  1.00  0.00    -0.200 F 
ENDBRANCH  74  97
ENDBRANCH  48  49
ENDBRANCH  41  43
ENDBRANCH  40  41
ENDBRANCH  39  40
ENDBRANCH  38  39
ENDBRANCH  37  38
ENDBRANCH  36  37
ENDBRANCH  35  36
ENDBRANCH  34  35
ENDBRANCH  33  34
ENDBRANCH   1  33
TORSDOF 27
ENDMDL
MODEL 3
REMARK VINA RESULT:      -9.2      3.296      8.492
REMARK SMILES COc1cc(-c2ccc(NC(=O)CCC(=O)OCCOCCOCCOCCOC(=O)c3ccc(-c4c5nc(c(-c6c(F)c(F)c(F)c(F)c6F)c6ccc([nH]6)c(-c6c(F)c(F)c(F)c(F)c6F)c6nc(c(-c7c(F)c(F)c(F)c(F)c7F)c7ccc4[nH]7)C=C6)C=C5)cc3)c(OC)c2)ccc1N
REMARK SMILES IDX 21 1 20 2 19 3 18 4 17 5 15 6 16 7 14 8 13 9 11 10 10 11
REMARK SMILES IDX 12 13 9 14 6 15 7 16 98 17 8 18 95 19 5 20 3 21 4 22 101 23
REMARK SMILES IDX 100 24 99 25 2 26 1 27 102 28 96 31 97 32 22 33 23 34 24 35
REMARK SMILES IDX 25 36 26 37 27 38 28 39 29 40 30 41 31 42 32 43 33 44 94 45
REMARK SMILES IDX 34 46 93 47 35 48 36 49 37 50 87 51 38 52 92 53 86 54 88 55
REMARK SMILES IDX 39 56 91 57 85 58 84 59 40 61 72 62 52 63 71 64 53 65 56 66
REMARK SMILES IDX 70 67 89 68 54 69 55 70 69 72 90 73 57 74 41 75 42 76 50 77
REMARK SMILES IDX 43 78 44 79 48 80 51 81 45 82 46 83 49 84 47 85 73 86 74 87
REMARK SMILES IDX 82 88 75 89 76 90 80 91 83 92 77 93 78 94 81 95 79 96 58 97
REMARK SMILES IDX 59 98 67 99 60 100 61 101 65 102 68 103 62 104 63 105 66 106
REMARK SMILES IDX 64 107
REMARK H PARENT 10 12 102 29 102 30 88 60 56 71
REMARK Flexibility Score: inf
ROOT
ATOM      1  C   UNL A   1      32.117  30.005  27.027  1.00  0.00     0.188 C 
ENDROOT
BRANCH   1   2
ATOM      2  O   UNL A   1      32.362  29.220  25.700  1.00  0.00    -0.376 OA
BRANCH   2   3
ATOM      3  C   UNL A   1      33.608  28.914  24.150  1.00  0.00     0.202 C 
BRANCH   3   4
ATOM      4  C   UNL A   1      33.202  28.005  22.617  1.00  0.00     0.261 C 
BRANCH   4   5
ATOM      5  O   UNL A   1      32.230  26.736  22.498  1.00  0.00    -0.463 OA
BRANCH   5   6
ATOM      6  C   UNL A   1      31.650  25.646  23.128  1.00  0.00     0.306 C 
ATOM      7  O   UNL A   1      31.896  24.554  22.585  1.00  0.00    -0.252 OA
BRANCH   6   8
ATOM      8  C   UNL A   1      30.629  25.522  24.453  1.00  0.00     0.132 C 
BRANCH   8   9
ATOM      9  C   UNL A   1      30.187  24.557  25.739  1.00  0.00     0.112 C 
BRANCH   9  10
ATOM     10  C   UNL A   1      30.753  23.371  26.806  1.00  0.00     0.225 C 
ATOM     11  N   UNL A   1      31.947  22.625  26.784  1.00  0.00    -0.323 N 
ATOM     12  H   UNL A   1      32.023  21.873  27.415  1.00  0.00     0.170 HD
ATOM     13  O   UNL A   1      29.943  22.994  27.674  1.00  0.00    -0.275 OA
BRANCH  11  14
ATOM     14  C   UNL A   1      33.044  22.867  25.932  1.00  0.00     0.083 A 
ATOM     15  C   UNL A   1      36.693  22.893  25.887  1.00  0.00    -0.014 A 
ATOM     16  C   UNL A   1      35.723  24.412  25.741  1.00  0.00     0.011 A 
ATOM     17  C   UNL A   1      35.779  21.323  25.924  1.00  0.00     0.057 A 
ATOM     18  C   UNL A   1      33.923  24.398  25.787  1.00  0.00     0.031 A 
ATOM     19  C   UNL A   1      33.901  21.386  25.858  1.00  0.00     0.142 A 
BRANCH  15  20
ATOM     20  C   UNL A   1      38.142  23.003  26.191  1.00  0.00    -0.014 A 
ATOM     21  C   UNL A   1      40.393  22.109  26.534  1.00  0.00     0.142 A 
ATOM     22  C   UNL A   1      39.010  21.915  26.303  1.00  0.00     0.057 A 
ATOM     23  C   UNL A   1      40.947  23.399  26.631  1.00  0.00     0.074 A 
ATOM     24  C   UNL A   1      40.069  24.476  26.631  1.00  0.00     0.030 A 
ATOM     25  C   UNL A   1      38.705  24.276  26.390  1.00  0.00     0.011 A 
BRANCH  21  26
ATOM     26  O   UNL A   1      41.163  20.968  26.540  1.00  0.00    -0.495 OA
ATOM     27  C   UNL A   1      40.545  19.869  25.870  1.00  0.00     0.278 C 
ENDBRANCH  21  26
BRANCH  23  28
ATOM     28  N   UNL A   1      42.306  23.639  26.811  1.00  0.00    -0.396 N 
ATOM     29  H   UNL A   1      42.920  23.595  26.043  1.00  0.00     0.156 HD
ATOM     30  H   UNL A   1      42.654  23.853  27.707  1.00  0.00     0.156 HD
ENDBRANCH  23  28
ENDBRANCH  15  20
BRANCH  19  31
ATOM     31  O   UNL A   1      33.054  20.471  25.170  1.00  0.00    -0.495 OA
ATOM     32  C   UNL A   1      33.436  19.297  24.438  1.00  0.00     0.278 C 
ENDBRANCH  19  31
ENDBRANCH  11  14
ENDBRANCH   9  10
ENDBRANCH   8   9
ENDBRANCH   6   8
ENDBRANCH   5   6
ENDBRANCH   4   5
ENDBRANCH   3   4
ENDBRANCH   2   3
ENDBRANCH   1   2
BRANCH   1  33
ATOM     33  C   UNL A   1      33.144  31.132  27.293  1.00  0.00     0.188 C 
BRANCH  33  34
ATOM     34  O   UNL A   1      32.778  32.500  27.252  1.00  0.00    -0.377 OA
BRANCH  34  35
ATOM     35  C   UNL A   1      33.417  33.364  28.156  1.00  0.00     0.188 C 
BRANCH  35  36
ATOM     36  C   UNL A   1      34.547  32.797  29.008  1.00  0.00     0.188 C 
BRANCH  36  37
ATOM     37  O   UNL A   1      35.482  33.707  29.537  1.00  0.00    -0.376 OA
BRANCH  37  38
ATOM     38  C   UNL A   1      36.601  33.166  30.233  1.00  0.00     0.202 C 
BRANCH  38  39
ATOM     39  C   UNL A   1      36.529  32.659  31.699  1.00  0.00     0.261 C 
BRANCH  39  40
ATOM     40  O   UNL A   1      37.771  32.435  32.403  1.00  0.00    -0.460 OA
BRANCH  40  41
ATOM     41  C   UNL A   1      38.276  31.175  32.379  1.00  0.00     0.338 C 
ATOM     42  O   UNL A   1      37.659  30.140  32.571  1.00  0.00    -0.246 OA
BRANCH  41  43
ATOM     43  C   UNL A   1      39.658  31.179  31.830  1.00  0.00     0.060 A 
ATOM     44  C   UNL A   1      40.731  31.430  32.706  1.00  0.00     0.016 A 
ATOM     45  C   UNL A   1      39.905  30.991  30.471  1.00  0.00     0.016 A 
ATOM     46  C   UNL A   1      42.041  31.529  32.225  1.00  0.00     0.010 A 
ATOM     47  C   UNL A   1      41.211  31.147  29.980  1.00  0.00     0.010 A 
ATOM     48  C   UNL A   1      42.276  31.464  30.848  1.00  0.00    -0.014 A 
BRANCH  48  49
ATOM     49  C   UNL A   1      43.527  32.063  30.303  1.00  0.00     0.031 A 
ATOM     50  C   UNL A   1      43.448  33.486  29.810  1.00  0.00     0.074 A 
ATOM     51  C   UNL A   1      44.703  31.410  30.264  1.00  0.00     0.049 A 
ATOM     52  N   UNL A   1      44.356  34.225  29.226  1.00  0.00    -0.248 NA
ATOM     53  C   UNL A   1      42.156  34.169  30.007  1.00  0.00     0.031 C 
ATOM     54  C   UNL A   1      44.947  30.063  30.768  1.00  0.00     0.029 A 
ATOM     55  N   UNL A   1      45.921  31.807  29.759  1.00  0.00    -0.354 N 
ATOM     56  C   UNL A   1      43.742  35.447  28.975  1.00  0.00     0.074 A 
ATOM     57  C   UNL A   1      42.379  35.344  29.446  1.00  0.00     0.031 C 
ATOM     58  C   UNL A   1      46.230  29.734  30.525  1.00  0.00     0.029 A 
ATOM     59  C   UNL A   1      46.889  30.834  29.817  1.00  0.00     0.049 A 
ATOM     60  H   UNL A   1      46.083  32.706  29.389  1.00  0.00     0.167 HD
ATOM     61  C   UNL A   1      44.263  36.559  28.408  1.00  0.00     0.037 A 
ATOM     62  C   UNL A   1      48.147  30.825  29.329  1.00  0.00     0.037 A 
ATOM     63  C   UNL A   1      45.614  36.666  27.930  1.00  0.00     0.049 A 
ATOM     64  C   UNL A   1      48.680  32.046  28.611  1.00  0.00     0.074 A 
ATOM     65  C   UNL A   1      46.238  37.753  27.342  1.00  0.00     0.029 A 
ATOM     66  N   UNL A   1      46.549  35.642  27.973  1.00  0.00    -0.354 N 
ATOM     67  N   UNL A   1      48.099  33.200  28.390  1.00  0.00    -0.248 NA
ATOM     68  C   UNL A   1      50.048  31.958  28.075  1.00  0.00     0.031 C 
ATOM     69  C   UNL A   1      47.529  37.367  26.972  1.00  0.00     0.029 A 
ATOM     70  C   UNL A   1      47.736  36.065  27.397  1.00  0.00     0.049 A 
ATOM     71  H   UNL A   1      46.393  34.750  28.357  1.00  0.00     0.167 HD
ATOM     72  C   UNL A   1      49.040  33.986  27.731  1.00  0.00     0.074 A 
ATOM     73  C   UNL A   1      50.233  33.180  27.594  1.00  0.00     0.031 C 
ATOM     74  C   UNL A   1      48.926  35.261  27.283  1.00  0.00     0.037 A 
BRANCH  61  75
ATOM     75  C   UNL A   1      43.351  37.740  28.234  1.00  0.00     0.064 A 
ATOM     76  C   UNL A   1      42.488  37.855  27.134  1.00  0.00     0.173 A 
ATOM     77  C   UNL A   1      43.325  38.759  29.199  1.00  0.00     0.173 A 
ATOM     78  F   UNL A   1      42.487  36.918  26.175  1.00  0.00    -0.203 F 
ATOM     79  C   UNL A   1      41.653  38.960  26.994  1.00  0.00     0.198 A 
ATOM     80  C   UNL A   1      42.463  39.844  29.072  1.00  0.00     0.198 A 
ATOM     81  F   UNL A   1      44.130  38.698  30.270  1.00  0.00    -0.203 F 
ATOM     82  F   UNL A   1      40.875  39.076  25.907  1.00  0.00    -0.200 F 
ATOM     83  C   UNL A   1      41.635  39.949  27.965  1.00  0.00     0.200 A 
ATOM     84  F   UNL A   1      42.437  40.791  30.020  1.00  0.00    -0.200 F 
ATOM     85  F   UNL A   1      40.824  41.007  27.833  1.00  0.00    -0.200 F 
ENDBRANCH  61  75
BRANCH  62  86
ATOM     86  C   UNL A   1      49.001  29.613  29.472  1.00  0.00     0.064 A 
ATOM     87  C   UNL A   1      48.902  28.541  28.573  1.00  0.00     0.173 A 
ATOM     88  C   UNL A   1      49.900  29.478  30.542  1.00  0.00     0.173 A 
ATOM     89  F   UNL A   1      48.035  28.604  27.551  1.00  0.00    -0.203 F 
ATOM     90  C   UNL A   1      49.648  27.376  28.748  1.00  0.00     0.198 A 
ATOM     91  C   UNL A   1      50.671  28.327  30.698  1.00  0.00     0.198 A 
ATOM     92  F   UNL A   1      50.031  30.466  31.438  1.00  0.00    -0.203 F 
ATOM     93  F   UNL A   1      49.490  26.347  27.905  1.00  0.00    -0.200 F 
ATOM     94  C   UNL A   1      50.537  27.273  29.807  1.00  0.00     0.200 A 
ATOM     95  F   UNL A   1      51.538  28.236  31.716  1.00  0.00    -0.200 F 
ATOM     96  F   UNL A   1      51.257  26.155  29.976  1.00  0.00    -0.200 F 
ENDBRANCH  62  86
BRANCH  74  97
ATOM     97  C   UNL A   1      50.136  35.899  26.657  1.00  0.00     0.064 A 
ATOM     98  C   UNL A   1      50.327  35.931  25.269  1.00  0.00     0.173 A 
ATOM     99  C   UNL A   1      51.090  36.542  27.464  1.00  0.00     0.173 A 
ATOM    100  F   UNL A   1      49.453  35.324  24.452  1.00  0.00    -0.203 F 
ATOM    101  C   UNL A   1      51.440  36.557  24.712  1.00  0.00     0.198 A 
ATOM    102  C   UNL A   1      52.181  37.198  26.903  1.00  0.00     0.198 A 
ATOM    103  F   UNL A   1      50.951  36.552  28.798  1.00  0.00    -0.203 F 
ATOM    104  F   UNL A   1      51.628  36.532  23.385  1.00  0.00    -0.200 F 
ATOM    105  C   UNL A   1      52.361  37.199  25.528  1.00  0.00     0.200 A 
ATOM    106  F   UNL A   1      53.058  37.834  27.693  1.00  0.00    -0.200 F 
ATOM    107  F   UNL A   1      53.424  37.812  24.990  1.00  0.00    -0.200 F 
ENDBRANCH  74  97
ENDBRANCH  48  49
ENDBRANCH  41  43
ENDBRANCH  40  41
ENDBRANCH  39  40
ENDBRANCH  38  39
ENDBRANCH  37  38
ENDBRANCH  36  37
ENDBRANCH  35  36
ENDBRANCH  34  35
ENDBRANCH  33  34
ENDBRANCH   1  33
TORSDOF 27
ENDMDL
