MODEL 1
REMARK VINA RESULT:      -8.9      0.000      0.000
REMARK SMILES C[C@@H]1C[N@@H+](Cc2cccc(C(=O)OCCOCCOCCOCCOC(=O)c3ccc(-c4c5nc(c(-c6c(F)c(F)c(F)c(F)c6F)c6ccc([nH]6)c(-c6c(F)c(F)c(F)c(F)c6F)c6nc(c(-c7c(F)c(F)c(F)c(F)c7F)c7ccc4[nH]7)C=C6)C=C5)cc3)c2)CCN1C(=O)OC(C)(C)C
REMARK SMILES IDX 17 1 16 2 15 3 14 4 13 5 11 6 12 7 10 8 6 9 7 10 91 11 8 12
REMARK SMILES IDX 9 13 5 14 4 15 1 16 2 17 3 18 94 19 93 20 92 21 95 23 96 24
REMARK SMILES IDX 97 25 98 26 99 27 100 28 101 29 18 30 19 31 20 32 21 33
REMARK SMILES IDX 22 34 23 35 24 36 25 37 26 38 27 39 28 40 29 41 90 42 30 43
REMARK SMILES IDX 89 44 31 45 32 46 33 47 83 48 34 49 88 50 82 51 84 52 35 53
REMARK SMILES IDX 87 54 81 55 80 56 36 58 68 59 48 60 67 61 49 62 52 63 66 64
REMARK SMILES IDX 85 65 50 66 51 67 65 69 86 70 53 71 37 72 38 73 46 74 39 75
REMARK SMILES IDX 40 76 44 77 47 78 41 79 42 80 45 81 43 82 69 83 70 84 78 85
REMARK SMILES IDX 71 86 72 87 76 88 79 89 73 90 74 91 77 92 75 93 54 94 55 95
REMARK SMILES IDX 63 96 56 97 57 98 61 99 64 100 58 101 59 102 62 103 60 104
REMARK H PARENT 4 22 84 57 52 68
REMARK Flexibility Score: inf
ROOT
ATOM      1  C   UNL A   1      34.461  31.901  28.591  1.00  0.00     0.188 C 
ENDROOT
BRANCH   1   2
ATOM      2  O   UNL A   1      35.276  31.081  27.768  1.00  0.00    -0.376 OA
BRANCH   2   3
ATOM      3  C   UNL A   1      35.087  29.678  27.746  1.00  0.00     0.202 C 
BRANCH   3   4
ATOM      4  C   UNL A   1      34.415  29.009  26.541  1.00  0.00     0.261 C 
BRANCH   4   5
ATOM      5  O   UNL A   1      33.527  29.836  25.794  1.00  0.00    -0.460 OA
BRANCH   5   6
ATOM      6  C   UNL A   1      32.221  29.870  26.138  1.00  0.00     0.338 C 
ATOM      7  O   UNL A   1      31.730  30.480  27.069  1.00  0.00    -0.246 OA
BRANCH   6   8
ATOM      8  C   UNL A   1      31.459  29.144  25.085  1.00  0.00     0.060 A 
ATOM      9  C   UNL A   1      30.189  27.161  24.441  1.00  0.00     0.007 A 
ATOM     10  C   UNL A   1      29.907  27.769  23.214  1.00  0.00     0.009 A 
ATOM     11  C   UNL A   1      31.079  27.817  25.289  1.00  0.00     0.025 A 
ATOM     12  C   UNL A   1      30.421  29.040  22.915  1.00  0.00     0.001 A 
ATOM     13  C   UNL A   1      31.150  29.753  23.872  1.00  0.00     0.016 A 
BRANCH   9  14
ATOM     14  C   UNL A   1      29.534  25.862  24.883  1.00  0.00     0.299 C 
BRANCH  14  15
ATOM     15  N   UNL A   1      30.346  24.624  24.739  1.00  0.00    -0.328 N 
ATOM     16  C   UNL A   1      31.823  22.129  26.054  1.00  0.00     0.037 C 
ATOM     17  C   UNL A   1      32.464  23.362  25.410  1.00  0.00     0.140 C 
ATOM     18  C   UNL A   1      31.570  24.630  25.579  1.00  0.00     0.287 C 
ATOM     19  N   UNL A   1      32.712  23.138  23.975  1.00  0.00    -0.294 N 
ATOM     20  C   UNL A   1      31.500  22.996  23.173  1.00  0.00     0.185 C 
ATOM     21  C   UNL A   1      30.646  24.260  23.336  1.00  0.00     0.284 C 
ATOM     22  H   UNL A   1      29.742  23.884  25.097  1.00  0.00     0.348 HD
BRANCH  19  23
ATOM     23  C   UNL A   1      33.918  23.391  23.339  1.00  0.00     0.410 C 
ATOM     24  O   UNL A   1      34.055  23.328  22.122  1.00  0.00    -0.224 OA
BRANCH  23  25
ATOM     25  O   UNL A   1      34.925  23.691  24.203  1.00  0.00    -0.444 OA
BRANCH  25  26
ATOM     26  C   UNL A   1      36.047  22.779  24.371  1.00  0.00     0.106 C 
ATOM     27  C   UNL A   1      35.579  21.415  24.897  1.00  0.00     0.056 C 
ATOM     28  C   UNL A   1      36.872  22.642  23.085  1.00  0.00     0.056 C 
ATOM     29  C   UNL A   1      36.938  23.423  25.447  1.00  0.00     0.056 C 
ENDBRANCH  25  26
ENDBRANCH  23  25
ENDBRANCH  19  23
ENDBRANCH  14  15
ENDBRANCH   9  14
ENDBRANCH   6   8
ENDBRANCH   5   6
ENDBRANCH   4   5
ENDBRANCH   3   4
ENDBRANCH   2   3
ENDBRANCH   1   2
BRANCH   1  30
ATOM     30  C   UNL A   1      35.274  32.783  29.562  1.00  0.00     0.188 C 
BRANCH  30  31
ATOM     31  O   UNL A   1      34.601  33.221  30.733  1.00  0.00    -0.377 OA
BRANCH  31  32
ATOM     32  C   UNL A   1      34.084  34.552  30.777  1.00  0.00     0.188 C 
BRANCH  32  33
ATOM     33  C   UNL A   1      33.930  35.354  32.096  1.00  0.00     0.188 C 
BRANCH  33  34
ATOM     34  O   UNL A   1      35.067  35.351  32.942  1.00  0.00    -0.376 OA
BRANCH  34  35
ATOM     35  C   UNL A   1      35.080  34.471  34.051  1.00  0.00     0.202 C 
BRANCH  35  36
ATOM     36  C   UNL A   1      36.045  33.281  33.980  1.00  0.00     0.261 C 
BRANCH  36  37
ATOM     37  O   UNL A   1      37.342  33.487  34.561  1.00  0.00    -0.460 OA
BRANCH  37  38
ATOM     38  C   UNL A   1      37.833  32.509  35.360  1.00  0.00     0.338 C 
ATOM     39  O   UNL A   1      37.351  32.079  36.382  1.00  0.00    -0.246 OA
BRANCH  38  40
ATOM     40  C   UNL A   1      38.990  31.920  34.649  1.00  0.00     0.060 A 
ATOM     41  C   UNL A   1      40.287  32.335  34.979  1.00  0.00     0.016 A 
ATOM     42  C   UNL A   1      38.787  30.924  33.692  1.00  0.00     0.016 A 
ATOM     43  C   UNL A   1      41.389  31.745  34.355  1.00  0.00     0.010 A 
ATOM     44  C   UNL A   1      39.889  30.358  33.048  1.00  0.00     0.010 A 
ATOM     45  C   UNL A   1      41.195  30.772  33.367  1.00  0.00    -0.014 A 
BRANCH  45  46
ATOM     46  C   UNL A   1      42.336  30.268  32.567  1.00  0.00     0.031 A 
ATOM     47  C   UNL A   1      42.999  28.987  32.985  1.00  0.00     0.074 A 
ATOM     48  C   UNL A   1      42.799  30.956  31.507  1.00  0.00     0.049 A 
ATOM     49  N   UNL A   1      44.088  28.425  32.528  1.00  0.00    -0.248 NA
ATOM     50  C   UNL A   1      42.343  28.239  34.069  1.00  0.00     0.031 C 
ATOM     51  C   UNL A   1      42.214  32.186  30.978  1.00  0.00     0.029 A 
ATOM     52  N   UNL A   1      43.888  30.725  30.702  1.00  0.00    -0.354 N 
ATOM     53  C   UNL A   1      44.257  27.270  33.278  1.00  0.00     0.074 A 
ATOM     54  C   UNL A   1      43.168  27.215  34.230  1.00  0.00     0.031 C 
ATOM     55  C   UNL A   1      42.969  32.621  29.954  1.00  0.00     0.029 A 
ATOM     56  C   UNL A   1      44.114  31.725  29.786  1.00  0.00     0.049 A 
ATOM     57  H   UNL A   1      44.452  29.921  30.773  1.00  0.00     0.167 HD
ATOM     58  C   UNL A   1      45.236  26.339  33.180  1.00  0.00     0.037 A 
ATOM     59  C   UNL A   1      45.150  31.917  28.945  1.00  0.00     0.037 A 
ATOM     60  C   UNL A   1      46.316  26.399  32.230  1.00  0.00     0.049 A 
ATOM     61  C   UNL A   1      46.274  30.908  28.917  1.00  0.00     0.074 A 
ATOM     62  C   UNL A   1      47.334  25.485  32.025  1.00  0.00     0.029 A 
ATOM     63  N   UNL A   1      46.526  27.439  31.336  1.00  0.00    -0.354 N 
ATOM     64  N   UNL A   1      46.410  29.797  29.600  1.00  0.00    -0.248 NA
ATOM     65  C   UNL A   1      47.393  31.185  28.004  1.00  0.00     0.031 C 
ATOM     66  C   UNL A   1      48.200  26.004  31.059  1.00  0.00     0.029 A 
ATOM     67  C   UNL A   1      47.684  27.210  30.610  1.00  0.00     0.049 A 
ATOM     68  H   UNL A   1      45.940  28.223  31.233  1.00  0.00     0.167 HD
ATOM     69  C   UNL A   1      47.611  29.235  29.184  1.00  0.00     0.074 A 
ATOM     70  C   UNL A   1      48.155  30.114  28.172  1.00  0.00     0.031 C 
ATOM     71  C   UNL A   1      48.213  28.095  29.605  1.00  0.00     0.037 A 
BRANCH  58  72
ATOM     72  C   UNL A   1      45.212  25.190  34.145  1.00  0.00     0.064 A 
ATOM     73  C   UNL A   1      44.510  24.008  33.874  1.00  0.00     0.173 A 
ATOM     74  C   UNL A   1      45.959  25.254  35.331  1.00  0.00     0.173 A 
ATOM     75  F   UNL A   1      43.771  23.901  32.760  1.00  0.00    -0.203 F 
ATOM     76  C   UNL A   1      44.546  22.935  34.762  1.00  0.00     0.198 A 
ATOM     77  C   UNL A   1      46.017  24.170  36.202  1.00  0.00     0.198 A 
ATOM     78  F   UNL A   1      46.651  26.362  35.637  1.00  0.00    -0.203 F 
ATOM     79  F   UNL A   1      43.839  21.828  34.501  1.00  0.00    -0.200 F 
ATOM     80  C   UNL A   1      45.307  23.014  35.920  1.00  0.00     0.200 A 
ATOM     81  F   UNL A   1      46.765  24.242  37.312  1.00  0.00    -0.200 F 
ATOM     82  F   UNL A   1      45.354  21.974  36.764  1.00  0.00    -0.200 F 
ENDBRANCH  58  72
BRANCH  59  83
ATOM     83  C   UNL A   1      45.208  33.136  28.093  1.00  0.00     0.064 A 
ATOM     84  C   UNL A   1      44.811  33.105  26.750  1.00  0.00     0.173 A 
ATOM     85  C   UNL A   1      45.711  34.348  28.592  1.00  0.00     0.173 A 
ATOM     86  F   UNL A   1      44.352  31.964  26.214  1.00  0.00    -0.203 F 
ATOM     87  C   UNL A   1      44.942  34.227  25.932  1.00  0.00     0.198 A 
ATOM     88  C   UNL A   1      45.808  35.480  27.784  1.00  0.00     0.198 A 
ATOM     89  F   UNL A   1      46.115  34.433  29.869  1.00  0.00    -0.203 F 
ATOM     90  F   UNL A   1      44.619  34.147  24.634  1.00  0.00    -0.200 F 
ATOM     91  C   UNL A   1      45.435  35.414  26.451  1.00  0.00     0.200 A 
ATOM     92  F   UNL A   1      46.278  36.626  28.294  1.00  0.00    -0.200 F 
ATOM     93  F   UNL A   1      45.571  36.488  25.662  1.00  0.00    -0.200 F 
ENDBRANCH  59  83
BRANCH  71  94
ATOM     94  C   UNL A   1      49.518  27.717  28.959  1.00  0.00     0.064 A 
ATOM     95  C   UNL A   1      50.749  28.004  29.567  1.00  0.00     0.173 A 
ATOM     96  C   UNL A   1      49.535  27.012  27.746  1.00  0.00     0.173 A 
ATOM     97  F   UNL A   1      50.791  28.686  30.721  1.00  0.00    -0.203 F 
ATOM     98  C   UNL A   1      51.949  27.619  28.972  1.00  0.00     0.198 A 
ATOM     99  C   UNL A   1      50.733  26.598  27.171  1.00  0.00     0.198 A 
ATOM    100  F   UNL A   1      48.386  26.703  27.127  1.00  0.00    -0.203 F 
ATOM    101  F   UNL A   1      53.115  27.946  29.547  1.00  0.00    -0.200 F 
ATOM    102  C   UNL A   1      51.940  26.909  27.781  1.00  0.00     0.200 A 
ATOM    103  F   UNL A   1      50.721  25.895  26.030  1.00  0.00    -0.200 F 
ATOM    104  F   UNL A   1      53.095  26.528  27.216  1.00  0.00    -0.200 F 
ENDBRANCH  71  94
ENDBRANCH  45  46
ENDBRANCH  38  40
ENDBRANCH  37  38
ENDBRANCH  36  37
ENDBRANCH  35  36
ENDBRANCH  34  35
ENDBRANCH  33  34
ENDBRANCH  32  33
ENDBRANCH  31  32
ENDBRANCH  30  31
ENDBRANCH   1  30
TORSDOF 25
ENDMDL
MODEL 2
REMARK VINA RESULT:      -8.7      1.660      2.382
REMARK SMILES C[C@@H]1C[N@@H+](Cc2cccc(C(=O)OCCOCCOCCOCCOC(=O)c3ccc(-c4c5nc(c(-c6c(F)c(F)c(F)c(F)c6F)c6ccc([nH]6)c(-c6c(F)c(F)c(F)c(F)c6F)c6nc(c(-c7c(F)c(F)c(F)c(F)c7F)c7ccc4[nH]7)C=C6)C=C5)cc3)c2)CCN1C(=O)OC(C)(C)C
REMARK SMILES IDX 17 1 16 2 15 3 14 4 13 5 11 6 12 7 10 8 6 9 7 10 91 11 8 12
REMARK SMILES IDX 9 13 5 14 4 15 1 16 2 17 3 18 94 19 93 20 92 21 95 23 96 24
REMARK SMILES IDX 97 25 98 26 99 27 100 28 101 29 18 30 19 31 20 32 21 33
REMARK SMILES IDX 22 34 23 35 24 36 25 37 26 38 27 39 28 40 29 41 90 42 30 43
REMARK SMILES IDX 89 44 31 45 32 46 33 47 83 48 34 49 88 50 82 51 84 52 35 53
REMARK SMILES IDX 87 54 81 55 80 56 36 58 68 59 48 60 67 61 49 62 52 63 66 64
REMARK SMILES IDX 85 65 50 66 51 67 65 69 86 70 53 71 37 72 38 73 46 74 39 75
REMARK SMILES IDX 40 76 44 77 47 78 41 79 42 80 45 81 43 82 69 83 70 84 78 85
REMARK SMILES IDX 71 86 72 87 76 88 79 89 73 90 74 91 77 92 75 93 54 94 55 95
REMARK SMILES IDX 63 96 56 97 57 98 61 99 64 100 58 101 59 102 62 103 60 104
REMARK H PARENT 4 22 84 57 52 68
REMARK Flexibility Score: inf
ROOT
ATOM      1  C   UNL A   1      34.039  32.725  28.667  1.00  0.00     0.188 C 
ENDROOT
BRANCH   1   2
ATOM      2  O   UNL A   1      35.010  32.020  27.908  1.00  0.00    -0.376 OA
BRANCH   2   3
ATOM      3  C   UNL A   1      35.668  30.894  28.459  1.00  0.00     0.202 C 
BRANCH   3   4
ATOM      4  C   UNL A   1      35.591  29.534  27.755  1.00  0.00     0.261 C 
BRANCH   4   5
ATOM      5  O   UNL A   1      34.650  29.445  26.689  1.00  0.00    -0.460 OA
BRANCH   5   6
ATOM      6  C   UNL A   1      33.596  28.610  26.816  1.00  0.00     0.338 C 
ATOM      7  O   UNL A   1      32.772  28.610  27.711  1.00  0.00    -0.246 OA
BRANCH   6   8
ATOM      8  C   UNL A   1      33.530  27.778  25.583  1.00  0.00     0.060 A 
ATOM      9  C   UNL A   1      32.936  25.646  24.552  1.00  0.00     0.007 A 
ATOM     10  C   UNL A   1      33.249  26.190  23.303  1.00  0.00     0.009 A 
ATOM     11  C   UNL A   1      33.222  26.420  25.675  1.00  0.00     0.025 A 
ATOM     12  C   UNL A   1      33.726  27.506  23.199  1.00  0.00     0.001 A 
ATOM     13  C   UNL A   1      33.813  28.320  24.333  1.00  0.00     0.016 A 
BRANCH   9  14
ATOM     14  C   UNL A   1      32.271  24.289  24.713  1.00  0.00     0.299 C 
BRANCH  14  15
ATOM     15  N   UNL A   1      33.150  23.159  25.118  1.00  0.00    -0.328 N 
ATOM     16  C   UNL A   1      35.823  21.475  24.732  1.00  0.00     0.037 C 
ATOM     17  C   UNL A   1      34.393  21.048  24.394  1.00  0.00     0.140 C 
ATOM     18  C   UNL A   1      33.509  22.268  23.986  1.00  0.00     0.287 C 
ATOM     19  N   UNL A   1      33.764  20.360  25.534  1.00  0.00    -0.294 N 
ATOM     20  C   UNL A   1      33.537  21.213  26.698  1.00  0.00     0.185 C 
ATOM     21  C   UNL A   1      32.651  22.394  26.282  1.00  0.00     0.284 C 
ATOM     22  H   UNL A   1      34.011  23.610  25.428  1.00  0.00     0.348 HD
BRANCH  19  23
ATOM     23  C   UNL A   1      33.103  19.144  25.450  1.00  0.00     0.410 C 
ATOM     24  O   UNL A   1      32.460  18.670  26.379  1.00  0.00    -0.224 OA
BRANCH  23  25
ATOM     25  O   UNL A   1      33.262  18.532  24.245  1.00  0.00    -0.444 OA
BRANCH  25  26
ATOM     26  C   UNL A   1      33.921  17.237  24.159  1.00  0.00     0.106 C 
ATOM     27  C   UNL A   1      33.201  16.190  25.020  1.00  0.00     0.056 C 
ATOM     28  C   UNL A   1      34.079  16.770  22.706  1.00  0.00     0.056 C 
ATOM     29  C   UNL A   1      35.324  17.454  24.749  1.00  0.00     0.056 C 
ENDBRANCH  25  26
ENDBRANCH  23  25
ENDBRANCH  19  23
ENDBRANCH  14  15
ENDBRANCH   9  14
ENDBRANCH   6   8
ENDBRANCH   5   6
ENDBRANCH   4   5
ENDBRANCH   3   4
ENDBRANCH   2   3
ENDBRANCH   1   2
BRANCH   1  30
ATOM     30  C   UNL A   1      34.583  34.031  29.283  1.00  0.00     0.188 C 
BRANCH  30  31
ATOM     31  O   UNL A   1      34.350  34.222  30.670  1.00  0.00    -0.377 OA
BRANCH  31  32
ATOM     32  C   UNL A   1      33.901  35.499  31.127  1.00  0.00     0.188 C 
BRANCH  32  33
ATOM     33  C   UNL A   1      34.264  36.070  32.523  1.00  0.00     0.188 C 
BRANCH  33  34
ATOM     34  O   UNL A   1      35.431  35.526  33.115  1.00  0.00    -0.376 OA
BRANCH  34  35
ATOM     35  C   UNL A   1      35.283  34.660  34.225  1.00  0.00     0.202 C 
BRANCH  35  36
ATOM     36  C   UNL A   1      35.924  33.272  34.112  1.00  0.00     0.261 C 
BRANCH  36  37
ATOM     37  O   UNL A   1      37.352  33.224  34.261  1.00  0.00    -0.460 OA
BRANCH  37  38
ATOM     38  C   UNL A   1      37.858  32.346  35.160  1.00  0.00     0.338 C 
ATOM     39  O   UNL A   1      37.368  31.995  36.207  1.00  0.00    -0.246 OA
BRANCH  38  40
ATOM     40  C   UNL A   1      39.054  31.738  34.532  1.00  0.00     0.060 A 
ATOM     41  C   UNL A   1      40.286  32.403  34.607  1.00  0.00     0.016 A 
ATOM     42  C   UNL A   1      38.959  30.491  33.912  1.00  0.00     0.016 A 
ATOM     43  C   UNL A   1      41.432  31.813  34.069  1.00  0.00     0.010 A 
ATOM     44  C   UNL A   1      40.101  29.918  33.347  1.00  0.00     0.010 A 
ATOM     45  C   UNL A   1      41.341  30.579  33.412  1.00  0.00    -0.014 A 
BRANCH  45  46
ATOM     46  C   UNL A   1      42.502  30.026  32.678  1.00  0.00     0.031 A 
ATOM     47  C   UNL A   1      43.164  28.785  33.207  1.00  0.00     0.074 A 
ATOM     48  C   UNL A   1      42.983  30.634  31.578  1.00  0.00     0.049 A 
ATOM     49  N   UNL A   1      44.267  28.200  32.818  1.00  0.00    -0.248 NA
ATOM     50  C   UNL A   1      42.490  28.117  34.331  1.00  0.00     0.031 C 
ATOM     51  C   UNL A   1      42.401  31.815  30.945  1.00  0.00     0.029 A 
ATOM     52  N   UNL A   1      44.091  30.351  30.817  1.00  0.00    -0.354 N 
ATOM     53  C   UNL A   1      44.427  27.106  33.657  1.00  0.00     0.074 A 
ATOM     54  C   UNL A   1      43.318  27.115  34.587  1.00  0.00     0.031 C 
ATOM     55  C   UNL A   1      43.175  32.176  29.906  1.00  0.00     0.029 A 
ATOM     56  C   UNL A   1      44.330  31.281  29.832  1.00  0.00     0.049 A 
ATOM     57  H   UNL A   1      44.658  29.560  30.961  1.00  0.00     0.167 HD
ATOM     58  C   UNL A   1      45.414  26.179  33.651  1.00  0.00     0.037 A 
ATOM     59  C   UNL A   1      45.382  31.416  29.001  1.00  0.00     0.037 A 
ATOM     60  C   UNL A   1      46.515  26.176  32.722  1.00  0.00     0.049 A 
ATOM     61  C   UNL A   1      46.514  30.418  29.074  1.00  0.00     0.074 A 
ATOM     62  C   UNL A   1      47.543  25.257  32.610  1.00  0.00     0.029 A 
ATOM     63  N   UNL A   1      46.737  27.146  31.756  1.00  0.00    -0.354 N 
ATOM     64  N   UNL A   1      46.642  29.364  29.842  1.00  0.00    -0.248 NA
ATOM     65  C   UNL A   1      47.651  30.634  28.166  1.00  0.00     0.031 C 
ATOM     66  C   UNL A   1      48.426  25.708  31.625  1.00  0.00     0.029 A 
ATOM     67  C   UNL A   1      47.912  26.872  31.075  1.00  0.00     0.049 A 
ATOM     68  H   UNL A   1      46.148  27.915  31.580  1.00  0.00     0.167 HD
ATOM     69  C   UNL A   1      47.856  28.781  29.496  1.00  0.00     0.074 A 
ATOM     70  C   UNL A   1      48.416  29.585  28.432  1.00  0.00     0.031 C 
ATOM     71  C   UNL A   1      48.457  27.682  30.016  1.00  0.00     0.037 A 
BRANCH  58  72
ATOM     72  C   UNL A   1      45.378  25.108  34.700  1.00  0.00     0.064 A 
ATOM     73  C   UNL A   1      44.883  23.824  34.433  1.00  0.00     0.173 A 
ATOM     74  C   UNL A   1      45.908  25.355  35.976  1.00  0.00     0.173 A 
ATOM     75  F   UNL A   1      44.354  23.540  33.234  1.00  0.00    -0.203 F 
ATOM     76  C   UNL A   1      44.907  22.830  35.409  1.00  0.00     0.198 A 
ATOM     77  C   UNL A   1      45.958  24.352  36.939  1.00  0.00     0.198 A 
ATOM     78  F   UNL A   1      46.396  26.566  36.283  1.00  0.00    -0.203 F 
ATOM     79  F   UNL A   1      44.396  21.620  35.143  1.00  0.00    -0.200 F 
ATOM     80  C   UNL A   1      45.453  23.092  36.657  1.00  0.00     0.200 A 
ATOM     81  F   UNL A   1      46.500  24.602  38.139  1.00  0.00    -0.200 F 
ATOM     82  F   UNL A   1      45.491  22.129  37.589  1.00  0.00    -0.200 F 
ENDBRANCH  58  72
BRANCH  59  83
ATOM     83  C   UNL A   1      45.451  32.567  28.059  1.00  0.00     0.064 A 
ATOM     84  C   UNL A   1      45.955  33.810  28.465  1.00  0.00     0.173 A 
ATOM     85  C   UNL A   1      44.967  32.462  26.746  1.00  0.00     0.173 A 
ATOM     86  F   UNL A   1      46.402  33.973  29.720  1.00  0.00    -0.203 F 
ATOM     87  C   UNL A   1      45.945  34.909  27.607  1.00  0.00     0.198 A 
ATOM     88  C   UNL A   1      44.990  33.552  25.876  1.00  0.00     0.198 A 
ATOM     89  F   UNL A   1      44.464  31.299  26.305  1.00  0.00    -0.203 F 
ATOM     90  F   UNL A   1      46.369  36.102  28.047  1.00  0.00    -0.200 F 
ATOM     91  C   UNL A   1      45.467  34.777  26.312  1.00  0.00     0.200 A 
ATOM     92  F   UNL A   1      44.534  33.415  24.624  1.00  0.00    -0.200 F 
ATOM     93  F   UNL A   1      45.448  35.836  25.492  1.00  0.00    -0.200 F 
ENDBRANCH  59  83
BRANCH  71  94
ATOM     94  C   UNL A   1      49.778  27.267  29.429  1.00  0.00     0.064 A 
ATOM     95  C   UNL A   1      50.995  27.645  30.016  1.00  0.00     0.173 A 
ATOM     96  C   UNL A   1      49.826  26.436  28.299  1.00  0.00     0.173 A 
ATOM     97  F   UNL A   1      51.006  28.447  31.090  1.00  0.00    -0.203 F 
ATOM     98  C   UNL A   1      52.210  27.226  29.478  1.00  0.00     0.198 A 
ATOM     99  C   UNL A   1      51.040  25.991  27.785  1.00  0.00     0.198 A 
ATOM    100  F   UNL A   1      48.692  26.037  27.704  1.00  0.00    -0.203 F 
ATOM    101  F   UNL A   1      53.361  27.639  30.028  1.00  0.00    -0.200 F 
ATOM    102  C   UNL A   1      52.232  26.393  28.370  1.00  0.00     0.200 A 
ATOM    103  F   UNL A   1      51.059  25.170  26.725  1.00  0.00    -0.200 F 
ATOM    104  F   UNL A   1      53.402  25.980  27.863  1.00  0.00    -0.200 F 
ENDBRANCH  71  94
ENDBRANCH  45  46
ENDBRANCH  38  40
ENDBRANCH  37  38
ENDBRANCH  36  37
ENDBRANCH  35  36
ENDBRANCH  34  35
ENDBRANCH  33  34
ENDBRANCH  32  33
ENDBRANCH  31  32
ENDBRANCH  30  31
ENDBRANCH   1  30
TORSDOF 25
ENDMDL
MODEL 3
REMARK VINA RESULT:      -8.5      5.818     11.342
REMARK SMILES C[C@@H]1C[N@@H+](Cc2cccc(C(=O)OCCOCCOCCOCCOC(=O)c3ccc(-c4c5nc(c(-c6c(F)c(F)c(F)c(F)c6F)c6ccc([nH]6)c(-c6c(F)c(F)c(F)c(F)c6F)c6nc(c(-c7c(F)c(F)c(F)c(F)c7F)c7ccc4[nH]7)C=C6)C=C5)cc3)c2)CCN1C(=O)OC(C)(C)C
REMARK SMILES IDX 17 1 16 2 15 3 14 4 13 5 11 6 12 7 10 8 6 9 7 10 91 11 8 12
REMARK SMILES IDX 9 13 5 14 4 15 1 16 2 17 3 18 94 19 93 20 92 21 95 23 96 24
REMARK SMILES IDX 97 25 98 26 99 27 100 28 101 29 18 30 19 31 20 32 21 33
REMARK SMILES IDX 22 34 23 35 24 36 25 37 26 38 27 39 28 40 29 41 90 42 30 43
REMARK SMILES IDX 89 44 31 45 32 46 33 47 83 48 34 49 88 50 82 51 84 52 35 53
REMARK SMILES IDX 87 54 81 55 80 56 36 58 68 59 48 60 67 61 49 62 52 63 66 64
REMARK SMILES IDX 85 65 50 66 51 67 65 69 86 70 53 71 37 72 38 73 46 74 39 75
REMARK SMILES IDX 40 76 44 77 47 78 41 79 42 80 45 81 43 82 69 83 70 84 78 85
REMARK SMILES IDX 71 86 72 87 76 88 79 89 73 90 74 91 77 92 75 93 54 94 55 95
REMARK SMILES IDX 63 96 56 97 57 98 61 99 64 100 58 101 59 102 62 103 60 104
REMARK H PARENT 4 22 84 57 52 68
REMARK Flexibility Score: inf
ROOT
ATOM      1  C   UNL A   1      40.261  21.988  26.279  1.00  0.00     0.188 C 
ENDROOT
BRANCH   1   2
ATOM      2  O   UNL A   1      38.883  21.664  26.387  1.00  0.00    -0.376 OA
BRANCH   2   3
ATOM      3  C   UNL A   1      38.259  20.857  25.404  1.00  0.00     0.202 C 
BRANCH   3   4
ATOM      4  C   UNL A   1      37.356  21.495  24.342  1.00  0.00     0.261 C 
BRANCH   4   5
ATOM      5  O   UNL A   1      36.113  22.004  24.817  1.00  0.00    -0.460 OA
BRANCH   5   6
ATOM      6  C   UNL A   1      35.105  21.139  25.065  1.00  0.00     0.338 C 
ATOM      7  O   UNL A   1      35.115  19.937  24.873  1.00  0.00    -0.246 OA
BRANCH   6   8
ATOM      8  C   UNL A   1      34.025  21.893  25.758  1.00  0.00     0.060 A 
ATOM      9  C   UNL A   1      32.043  23.309  25.578  1.00  0.00     0.007 A 
ATOM     10  C   UNL A   1      31.889  23.228  26.965  1.00  0.00     0.009 A 
ATOM     11  C   UNL A   1      33.196  22.749  25.030  1.00  0.00     0.025 A 
ATOM     12  C   UNL A   1      32.811  22.510  27.743  1.00  0.00     0.001 A 
ATOM     13  C   UNL A   1      33.847  21.795  27.134  1.00  0.00     0.016 A 
BRANCH   9  14
ATOM     14  C   UNL A   1      30.997  23.935  24.671  1.00  0.00     0.299 C 
BRANCH  14  15
ATOM     15  N   UNL A   1      31.209  25.357  24.291  1.00  0.00    -0.328 N 
ATOM     16  C   UNL A   1      32.142  28.303  25.057  1.00  0.00     0.037 C 
ATOM     17  C   UNL A   1      30.714  27.809  24.811  1.00  0.00     0.140 C 
ATOM     18  C   UNL A   1      30.546  26.311  25.215  1.00  0.00     0.287 C 
ATOM     19  N   UNL A   1      30.336  27.970  23.397  1.00  0.00    -0.294 N 
ATOM     20  C   UNL A   1      31.091  27.125  22.476  1.00  0.00     0.185 C 
ATOM     21  C   UNL A   1      30.896  25.657  22.876  1.00  0.00     0.284 C 
ATOM     22  H   UNL A   1      32.215  25.496  24.391  1.00  0.00     0.348 HD
BRANCH  19  23
ATOM     23  C   UNL A   1      29.160  28.562  22.962  1.00  0.00     0.410 C 
ATOM     24  O   UNL A   1      28.062  28.029  23.080  1.00  0.00    -0.224 OA
BRANCH  23  25
ATOM     25  O   UNL A   1      29.358  29.775  22.377  1.00  0.00    -0.444 OA
BRANCH  25  26
ATOM     26  C   UNL A   1      28.798  30.979  22.974  1.00  0.00     0.106 C 
ATOM     27  C   UNL A   1      28.822  32.151  21.982  1.00  0.00     0.056 C 
ATOM     28  C   UNL A   1      27.393  30.739  23.539  1.00  0.00     0.056 C 
ATOM     29  C   UNL A   1      29.734  31.327  24.143  1.00  0.00     0.056 C 
ENDBRANCH  25  26
ENDBRANCH  23  25
ENDBRANCH  19  23
ENDBRANCH  14  15
ENDBRANCH   9  14
ENDBRANCH   6   8
ENDBRANCH   5   6
ENDBRANCH   4   5
ENDBRANCH   3   4
ENDBRANCH   2   3
ENDBRANCH   1   2
BRANCH   1  30
ATOM     30  C   UNL A   1      40.681  23.162  27.187  1.00  0.00     0.188 C 
BRANCH  30  31
ATOM     31  O   UNL A   1      40.356  24.465  26.727  1.00  0.00    -0.377 OA
BRANCH  31  32
ATOM     32  C   UNL A   1      41.387  25.276  26.162  1.00  0.00     0.188 C 
BRANCH  32  33
ATOM     33  C   UNL A   1      41.515  26.796  26.445  1.00  0.00     0.188 C 
BRANCH  33  34
ATOM     34  O   UNL A   1      40.317  27.441  26.842  1.00  0.00    -0.376 OA
BRANCH  34  35
ATOM     35  C   UNL A   1      40.092  27.656  28.223  1.00  0.00     0.202 C 
BRANCH  35  36
ATOM     36  C   UNL A   1      38.713  28.192  28.626  1.00  0.00     0.261 C 
BRANCH  36  37
ATOM     37  O   UNL A   1      38.462  28.288  30.037  1.00  0.00    -0.460 OA
BRANCH  37  38
ATOM     38  C   UNL A   1      37.568  29.217  30.453  1.00  0.00     0.338 C 
ATOM     39  O   UNL A   1      36.367  29.105  30.528  1.00  0.00    -0.246 OA
BRANCH  38  40
ATOM     40  C   UNL A   1      38.353  30.353  30.986  1.00  0.00     0.060 A 
ATOM     41  C   UNL A   1      39.607  30.114  31.566  1.00  0.00     0.016 A 
ATOM     42  C   UNL A   1      37.865  31.656  30.867  1.00  0.00     0.016 A 
ATOM     43  C   UNL A   1      40.381  31.184  32.021  1.00  0.00     0.010 A 
ATOM     44  C   UNL A   1      38.628  32.721  31.351  1.00  0.00     0.010 A 
ATOM     45  C   UNL A   1      39.885  32.490  31.940  1.00  0.00    -0.014 A 
BRANCH  45  46
ATOM     46  C   UNL A   1      40.607  33.615  32.580  1.00  0.00     0.031 A 
ATOM     47  C   UNL A   1      41.590  34.400  31.759  1.00  0.00     0.074 A 
ATOM     48  C   UNL A   1      40.418  33.913  33.878  1.00  0.00     0.049 A 
ATOM     49  N   UNL A   1      42.433  35.329  32.132  1.00  0.00    -0.248 NA
ATOM     50  C   UNL A   1      41.631  34.091  30.321  1.00  0.00     0.031 C 
ATOM     51  C   UNL A   1      39.461  33.254  34.765  1.00  0.00     0.029 A 
ATOM     52  N   UNL A   1      41.047  34.833  34.681  1.00  0.00    -0.354 N 
ATOM     53  C   UNL A   1      43.112  35.703  30.982  1.00  0.00     0.074 A 
ATOM     54  C   UNL A   1      42.597  34.892  29.899  1.00  0.00     0.031 C 
ATOM     55  C   UNL A   1      39.587  33.770  36.000  1.00  0.00     0.029 A 
ATOM     56  C   UNL A   1      40.664  34.761  36.000  1.00  0.00     0.049 A 
ATOM     57  H   UNL A   1      41.707  35.482  34.346  1.00  0.00     0.167 HD
ATOM     58  C   UNL A   1      44.080  36.639  30.844  1.00  0.00     0.037 A 
ATOM     59  C   UNL A   1      41.159  35.389  37.085  1.00  0.00     0.037 A 
ATOM     60  C   UNL A   1      44.587  37.443  31.926  1.00  0.00     0.049 A 
ATOM     61  C   UNL A   1      42.300  36.365  36.917  1.00  0.00     0.074 A 
ATOM     62  C   UNL A   1      45.539  38.446  31.880  1.00  0.00     0.029 A 
ATOM     63  N   UNL A   1      44.194  37.324  33.250  1.00  0.00    -0.354 N 
ATOM     64  N   UNL A   1      42.913  36.744  35.822  1.00  0.00    -0.248 NA
ATOM     65  C   UNL A   1      42.821  36.996  38.139  1.00  0.00     0.031 C 
ATOM     66  C   UNL A   1      45.775  38.885  33.186  1.00  0.00     0.029 A 
ATOM     67  C   UNL A   1      44.919  38.205  34.038  1.00  0.00     0.049 A 
ATOM     68  H   UNL A   1      43.502  36.708  33.582  1.00  0.00     0.167 HD
ATOM     69  C   UNL A   1      43.871  37.670  36.219  1.00  0.00     0.074 A 
ATOM     70  C   UNL A   1      43.744  37.814  37.652  1.00  0.00     0.031 C 
ATOM     71  C   UNL A   1      44.780  38.338  35.465  1.00  0.00     0.037 A 
BRANCH  58  72
ATOM     72  C   UNL A   1      44.688  36.827  29.485  1.00  0.00     0.064 A 
ATOM     73  C   UNL A   1      44.179  37.755  28.566  1.00  0.00     0.173 A 
ATOM     74  C   UNL A   1      45.839  36.109  29.125  1.00  0.00     0.173 A 
ATOM     75  F   UNL A   1      43.073  38.456  28.857  1.00  0.00    -0.203 F 
ATOM     76  C   UNL A   1      44.791  37.948  27.330  1.00  0.00     0.198 A 
ATOM     77  C   UNL A   1      46.466  36.326  27.902  1.00  0.00     0.198 A 
ATOM     78  F   UNL A   1      46.368  35.210  29.968  1.00  0.00    -0.203 F 
ATOM     79  F   UNL A   1      44.268  38.814  26.453  1.00  0.00    -0.200 F 
ATOM     80  C   UNL A   1      45.940  37.241  27.004  1.00  0.00     0.200 A 
ATOM     81  F   UNL A   1      47.584  35.653  27.594  1.00  0.00    -0.200 F 
ATOM     82  F   UNL A   1      46.538  37.441  25.821  1.00  0.00    -0.200 F 
ENDBRANCH  58  72
BRANCH  59  83
ATOM     83  C   UNL A   1      40.622  35.083  38.439  1.00  0.00     0.064 A 
ATOM     84  C   UNL A   1      41.019  33.934  39.137  1.00  0.00     0.173 A 
ATOM     85  C   UNL A   1      39.660  35.908  39.044  1.00  0.00     0.173 A 
ATOM     86  F   UNL A   1      41.912  33.095  38.591  1.00  0.00    -0.203 F 
ATOM     87  C   UNL A   1      40.455  33.607  40.370  1.00  0.00     0.198 A 
ATOM     88  C   UNL A   1      39.123  35.599  40.293  1.00  0.00     0.198 A 
ATOM     89  F   UNL A   1      39.236  37.016  38.418  1.00  0.00    -0.203 F 
ATOM     90  F   UNL A   1      40.804  32.466  40.980  1.00  0.00    -0.200 F 
ATOM     91  C   UNL A   1      39.512  34.442  40.948  1.00  0.00     0.200 A 
ATOM     92  F   UNL A   1      38.218  36.415  40.850  1.00  0.00    -0.200 F 
ATOM     93  F   UNL A   1      38.963  34.121  42.127  1.00  0.00    -0.200 F 
ENDBRANCH  59  83
BRANCH  71  94
ATOM     94  C   UNL A   1      45.694  39.302  36.169  1.00  0.00     0.064 A 
ATOM     95  C   UNL A   1      46.936  38.899  36.680  1.00  0.00     0.173 A 
ATOM     96  C   UNL A   1      45.348  40.658  36.283  1.00  0.00     0.173 A 
ATOM     97  F   UNL A   1      47.311  37.613  36.608  1.00  0.00    -0.203 F 
ATOM     98  C   UNL A   1      47.786  39.811  37.302  1.00  0.00     0.198 A 
ATOM     99  C   UNL A   1      46.214  41.573  36.873  1.00  0.00     0.198 A 
ATOM    100  F   UNL A   1      44.176  41.100  35.802  1.00  0.00    -0.203 F 
ATOM    101  F   UNL A   1      48.947  39.393  37.826  1.00  0.00    -0.200 F 
ATOM    102  C   UNL A   1      47.429  41.148  37.389  1.00  0.00     0.200 A 
ATOM    103  F   UNL A   1      45.876  42.869  36.940  1.00  0.00    -0.200 F 
ATOM    104  F   UNL A   1      48.254  42.027  37.976  1.00  0.00    -0.200 F 
ENDBRANCH  71  94
ENDBRANCH  45  46
ENDBRANCH  38  40
ENDBRANCH  37  38
ENDBRANCH  36  37
ENDBRANCH  35  36
ENDBRANCH  34  35
ENDBRANCH  33  34
ENDBRANCH  32  33
ENDBRANCH  31  32
ENDBRANCH  30  31
ENDBRANCH   1  30
TORSDOF 25
ENDMDL
